data_PCOD8071550
_publ_section_title
;
Structure prediction by ZEFSAII (Michael W. Deem and Ramdas Pophale) SiO2 
 PCOD8071550
Probable space group: P 21/M
;
_chemical_formula_sum "Si O2"
_cell_formula_units_Z 28
_cell_length_a 10.531471
_cell_length_b 24.744443
_cell_length_c 11.575194
_cell_angle_alpha 90.000000
_cell_angle_beta 27.278329
_cell_angle_gamma 90.000000
_cell_volume 1382.475905
_symmetry_space_group_name_H-M "P 21/M"
_symmetry_group_IT_number 11
_symmetry_cell_setting 'monoclinic'
loop_
_space_group_symop_operation_xyz
x,y,z
-x,1/2+y,-z
-x,-y,-z
x,1/2-y,z
loop_
_atom_site_type_symbol
_atom_site_label
_atom_site_fract_x
_atom_site_fract_y
_atom_site_fract_z
Si Si1 0.894874 0.556020 0.301528
Si Si2 0.587149 0.928737 0.027178
Si Si3 0.046128 0.135355 0.937597
Si Si4 0.852852 0.438016 0.282747
Si Si5 0.447015 0.643518 0.322884
Si Si6 0.547560 0.955241 0.809774
Si Si7 0.955630 0.750000 0.039047
Si Si8 0.306858 0.750000 0.530781
O O1 0.813688 0.606912 0.286555
O O2 0.784889 0.501820 0.326173
O O3 0.740892 0.563385 0.548197
O O4 0.225574 0.556788 0.048173
O O5 0.643526 0.921624 0.845476
O O6 0.862320 0.934320 0.878829
O O7 0.435887 0.874678 0.197642
O O8 0.398780 0.981667 0.204622
O O9 0.247792 0.156723 0.876637
O O10 0.917953 0.194294 0.004605
O O11 0.849221 0.090541 0.158820
O O12 0.624840 0.408996 0.543359
O O13 0.255985 0.696198 0.494025
O O14 0.065976 0.750000 0.818844
O O15 0.619787 0.750000 0.328045
#
# Coordination Sequence:
#
# PCOD8071550 Si02
#       8
#     4   4   4   4   4   4   2   2
#     4  11  23  35  53  82 113 147 178 215 269 320
#     4   9  20  35  54  80 108 143 181 221 266 315
#     4  10  22  35  53  80 112 140 180 221 270 326
#     4  10  19  33  54  82 111 143 170 223 278 323
#     4  10  19  34  56  79 110 139 175 226 274 320
#     4  10  22  36  55  79 110 145 184 217 256 322
#     4  10  20  36  54  76 103 147 180 218 259 318
#     4  10  20  34  54  80 107 133 182 220 275 318
#
# _framework density 20.253516000000001
#
# number of rings (size 3 to 8) (size 9 to 14) (size 15 to 20)
#    0.000    2.000    2.857    0.429    4.000    2.286 
#    0.000    0.000    0.000    1.714    0.000    0.000 
#    0.000    0.000    0.000    0.000    0.000    0.000 
#
# Total GULP energy -346869.067697 kJ/mol
# GULP energy per Si atom -12388.180989 kJ/mol
# Density = 2.020742 g / cm^3
# Si number density = 20.253516 Si / 1000 Ang^3
#
#
#
# Elastic Constant Matrix: (Units=GPa)
#
#
# Indices 1 2 3 4 5 6 
#
# 1 48.5863 39.8244 24.6671 0.0000 27.2570 0.0000
# 2 39.8244 153.2115 43.1426 0.0000 34.2403 0.0000
# 3 24.6671 43.1426 110.5058 0.0000 31.6257 0.0000
# 4 0.0000 0.0000 0.0000 30.4787 0.0000 12.1379
# 5 27.2570 34.2403 31.6257 0.0000 34.7559 0.0000
# 6 0.0000 0.0000 0.0000 12.1379 0.0000 18.0533
#
#
#
# Elastic Compliance Matrix: (Units=1/GPa)
#
#
# Indices 1 2 3 4 5 6 
#
# 1 0.038795 -0.004281 0.000692 0.000000 -0.026837 0.000000
# 2 -0.004281 0.008967 -0.001322 0.000000 -0.004273 0.000000
# 3 0.000692 -0.001322 0.012431 0.000000 -0.010551 0.000000
# 4 0.000000 0.000000 0.000000 0.044807 0.000000 -0.030126
# 5 -0.026837 -0.004273 -0.010551 0.000000 0.063630 0.000000
# 6 0.000000 0.000000 0.000000 -0.030126 0.000000 0.075646
#
#
# Mechanical properties :
#
#
# Convention : Reuss Voigt Hill
#
# Bulk Modulus (GPa) = 19.85306 58.61910 39.23608
# Shear Modulus (GPa) = 18.45771 30.30220 24.37996
#
# Velocity S-wave (km/s) = 3.02211 3.87220 3.47326
# Velocity P-wave (km/s) = 4.69053 6.99982 5.95812
#
# Compressibility (1/GPa) = 0.05037008
#
# Stress axis : x y z
#
# Youngs Moduli (GPa) = 25.77623 111.51836 80.44602
#
# Poissons Ratio (x) = 0.47746 -0.05567
# Poissons Ratio (y) = 0.11036 0.10636
# Poissons Ratio (z) = -0.01784 0.14745
#
# Static dielectric constant tensor:
#      x y z
#    x 3.418390 0.000000 0.153720 
#    y 0.000000 4.402950 0.000000 
#    z 0.153720 0.000000 3.683410 
# 
# 
# High freq. dielectric constant tensor:
#      x y z
#    x 1.741690 0.000000 0.010780 
#    y 0.000000 1.791050 0.000000 
#    z 0.010780 0.000000 1.799880 
# 
# From -- ./inp_files/3231.got.cif
#   From: 2010.06.25/outbox.cif.g09.slc.cpg/sg11_2_cif.got.tgz:3231.got - 2010.06.27 23:14:04.
