data_PCOD8071966
_publ_section_title
;
Structure prediction by ZEFSAII (Michael W. Deem and Ramdas Pophale) SiO2 
 PCOD8071966
Probable space group: P 21/M
;
_chemical_formula_sum "Si O2"
_cell_formula_units_Z 32
_cell_length_a 14.541364
_cell_length_b 8.995567
_cell_length_c 12.671147
_cell_angle_alpha 90.000000
_cell_angle_beta 87.817218
_cell_angle_gamma 90.000000
_cell_volume 1656.282382
_symmetry_space_group_name_H-M "P 21/M"
_symmetry_group_IT_number 11
_symmetry_cell_setting 'monoclinic'
loop_
_space_group_symop_operation_xyz
x,y,z
-x,1/2+y,-z
-x,-y,-z
x,1/2-y,z
loop_
_atom_site_type_symbol
_atom_site_label
_atom_site_fract_x
_atom_site_fract_y
_atom_site_fract_z
Si Si1 0.987973 0.574836 0.886155
Si Si2 0.698280 0.924278 0.380354
Si Si3 0.260244 0.916947 0.977196
Si Si4 0.310558 0.423906 0.386833
Si Si5 0.216052 0.424482 0.180092
Si Si6 0.536806 0.413496 0.095848
Si Si7 0.158175 0.073707 0.802524
Si Si8 0.511143 0.427035 0.326971
O O1 0.003678 0.750000 0.897973
O O2 0.059504 0.506495 0.797503
O O3 0.889856 0.537846 0.838522
O O4 0.000000 0.500000 0.000000
O O5 0.683548 0.750000 0.363186
O O6 0.735057 0.959916 0.497388
O O7 0.773575 0.984010 0.293209
O O8 0.599137 0.999982 0.377166
O O9 0.218455 0.750000 0.987954
O O10 0.353640 0.910429 0.908351
O O11 0.193279 0.026038 0.916446
O O12 0.277067 0.986725 0.091954
O O13 0.318833 0.250000 0.368247
O O14 0.246610 0.485788 0.294518
O O15 0.415879 0.484957 0.382502
O O16 0.236142 0.250000 0.167864
O O17 0.494466 0.250000 0.088621
O O18 0.505296 0.485205 0.206850
O O19 0.500000 0.500000 0.000000
O O20 0.146064 0.250000 0.798604
O O21 0.524245 0.250000 0.331945
#
# Coordination Sequence:
#
# PCOD8071966 Si02
#       8
#     4   4   4   4   4   4   4   4
#     4  11  22  36  59  88 115 145 184 232 284 341
#     4  10  21  37  58  83 111 149 195 236 273 326
#     4  11  21  34  54  80 113 146 183 233 282 331
#     4   9  19  37  59  82 111 148 190 234 279 334
#     4  10  21  38  60  83 111 147 185 227 285 349
#     4  10  21  33  48  76 111 149 186 226 280 335
#     4  11  22  36  56  82 112 148 187 229 281 334
#     4  10  19  34  56  81 111 147 187 233 284 332
#
# _framework density 19.320378000000002
#
# number of rings (size 3 to 8) (size 9 to 14) (size 15 to 20)
#    0.000    1.750    2.500    2.250    0.000    3.500 
#    0.000    1.875    0.000    0.000    0.000    0.000 
#    0.000    0.000    0.000    0.000    0.000    0.000 
#
# Total GULP energy -396686.173721 kJ/mol
# GULP energy per Si atom -12396.442929 kJ/mol
# Density = 1.927640 g / cm^3
# Si number density = 19.320378 Si / 1000 Ang^3
#
#
#
# Elastic Constant Matrix: (Units=GPa)
#
#
# Indices 1 2 3 4 5 6 
#
# 1 91.4021 27.3498 46.4730 0.0000 -7.2672 0.0000
# 2 27.3498 56.0494 32.0198 0.0000 -0.6132 0.0000
# 3 46.4730 32.0198 131.4191 0.0000 -2.9737 0.0000
# 4 0.0000 0.0000 0.0000 19.8066 0.0000 -0.7061
# 5 -7.2672 -0.6132 -2.9737 0.0000 22.9677 0.0000
# 6 0.0000 0.0000 0.0000 -0.7061 0.0000 29.4738
#
#
#
# Elastic Compliance Matrix: (Units=1/GPa)
#
#
# Indices 1 2 3 4 5 6 
#
# 1 0.014719 -0.004899 -0.003921 0.000000 0.004019 0.000000
# 2 -0.004899 0.022357 -0.003747 0.000000 -0.001438 0.000000
# 3 -0.003921 -0.003747 0.009907 0.000000 -0.000058 0.000000
# 4 0.000000 0.000000 0.000000 0.050531 0.000000 0.001211
# 5 0.004019 -0.001438 -0.000058 0.000000 0.044765 0.000000
# 6 0.000000 0.000000 0.000000 0.001211 0.000000 0.033957
#
#
# Mechanical properties :
#
#
# Convention : Reuss Voigt Hill
#
# Bulk Modulus (GPa) = 45.76631 54.50621 50.13626
# Shear Modulus (GPa) = 23.96303 25.98482 24.97393
#
# Velocity S-wave (km/s) = 3.52561 3.67133 3.59920
# Velocity P-wave (km/s) = 6.34923 6.80033 6.57865
#
# Compressibility (1/GPa) = 0.02185014
#
# Stress axis : x y z
#
# Youngs Moduli (GPa) = 67.93723 44.72903 100.93444
#
# Poissons Ratio (x) = 0.21912 0.39573
# Poissons Ratio (y) = 0.33281 0.37824
# Poissons Ratio (z) = 0.26636 0.16762
#
# Static dielectric constant tensor:
#      x y z
#    x 3.787650 0.000000 -0.190570 
#    y 0.000000 3.405720 0.000000 
#    z -0.190570 0.000000 3.848330 
# 
# 
# High freq. dielectric constant tensor:
#      x y z
#    x 1.751340 0.000000 -0.007230 
#    y 0.000000 1.735910 0.000000 
#    z -0.007230 0.000000 1.753910 
# 
# From -- ./inp_files/38237.got.cif
#   From: 2010.06.25/outbox.cif.g09.slc.cpg/sg11_20_cif.got.tgz:38237.got - 2010.06.27 23:14:04.
