data_PCOD8071925
_publ_section_title
;
Structure prediction by ZEFSAII (Michael W. Deem and Ramdas Pophale) SiO2 
 PCOD8071925
Probable space group: P 21/M
;
_chemical_formula_sum "Si O2"
_cell_formula_units_Z 28
_cell_length_a 9.551375
_cell_length_b 14.401791
_cell_length_c 19.597406
_cell_angle_alpha 90.000000
_cell_angle_beta 37.143184
_cell_angle_gamma 90.000000
_cell_volume 1627.723157
_symmetry_space_group_name_H-M "P 21/M"
_symmetry_group_IT_number 11
_symmetry_cell_setting 'monoclinic'
loop_
_space_group_symop_operation_xyz
x,y,z
-x,1/2+y,-z
-x,-y,-z
x,1/2-y,z
loop_
_atom_site_type_symbol
_atom_site_label
_atom_site_fract_x
_atom_site_fract_y
_atom_site_fract_z
Si Si1 0.803766 0.358011 0.301167
Si Si2 0.034640 0.013560 0.323199
Si Si3 0.932951 0.641300 0.937106
Si Si4 0.264905 0.356374 0.499652
Si Si5 0.694074 0.144364 0.101031
Si Si6 0.472624 0.492488 0.930075
Si Si7 0.780460 0.645051 0.639803
O O1 0.853661 0.250000 0.296635
O O2 0.533255 0.379806 0.404655
O O3 0.919814 0.418500 0.314004
O O4 0.913966 0.389143 0.186903
O O5 0.280212 0.977661 0.200753
O O6 0.879088 0.923046 0.394984
O O7 0.058737 0.072028 0.383375
O O8 0.887498 0.750000 0.953897
O O9 0.070615 0.612525 0.952322
O O10 0.683024 0.594073 0.031784
O O11 0.213820 0.250000 0.540266
O O12 0.190430 0.374892 0.451126
O O13 0.714099 0.250000 0.068309
O O14 0.487230 0.132454 0.235596
O O15 0.651366 0.085433 0.049453
O O16 0.500000 0.500000 0.000000
O O17 0.861079 0.750000 0.625906
#
# Coordination Sequence:
#
# PCOD8071925 Si02
#       7
#     4   4   4   4   4   4   4
#     4  10  19  34  56  77  99 132 178 222 257 302
#     4  11  21  33  52  79 110 136 170 211 270 314
#     4  10  19  35  56  75 100 140 180 218 259 304
#     4  10  20  35  54  75 103 138 173 210 259 318
#     4   9  18  34  57  78 100 136 180 220 257 300
#     4  11  22  34  50  81 113 138 171 216 263 313
#     4   9  17  32  54  80 103 128 171 221 260 301
#
# _framework density 17.201941999999999
#
# number of rings (size 3 to 8) (size 9 to 14) (size 15 to 20)
#    0.000    2.000    2.857    1.714    0.000    1.714 
#    0.000    0.000    0.000    0.000    0.000    0.000 
#    0.000    0.000    0.000    0.000    0.000    0.000 
#
# Total GULP energy -347237.700307 kJ/mol
# GULP energy per Si atom -12401.346440 kJ/mol
# Density = 1.716279 g / cm^3
# Si number density = 17.201942 Si / 1000 Ang^3
#
#
#
# Elastic Constant Matrix: (Units=GPa)
#
#
# Indices 1 2 3 4 5 6 
#
# 1 106.9414 53.4367 51.8368 0.0000 -4.3995 0.0000
# 2 53.4367 74.3684 54.5489 0.0000 -8.7446 0.0000
# 3 51.8368 54.5489 86.0144 0.0000 -7.5359 0.0000
# 4 0.0000 0.0000 0.0000 24.9397 0.0000 -6.0918
# 5 -4.3995 -8.7446 -7.5359 0.0000 23.1997 0.0000
# 6 0.0000 0.0000 0.0000 -6.0918 0.0000 33.5218
#
#
#
# Elastic Compliance Matrix: (Units=1/GPa)
#
#
# Indices 1 2 3 4 5 6 
#
# 1 0.015419 -0.008124 -0.004274 0.000000 -0.001526 0.000000
# 2 -0.008124 0.029871 -0.013583 0.000000 0.005306 0.000000
# 3 -0.004274 -0.013583 0.022949 0.000000 0.001524 0.000000
# 4 0.000000 0.000000 0.000000 0.041959 0.000000 0.007625
# 5 -0.001526 0.005306 0.001524 0.000000 0.045310 0.000000
# 6 0.000000 0.000000 0.000000 0.007625 0.000000 0.031217
#
#
# Mechanical properties :
#
#
# Convention : Reuss Voigt Hill
#
# Bulk Modulus (GPa) = 61.43342 65.21876 63.32609
# Shear Modulus (GPa) = 20.48235 23.49904 21.99069
#
# Velocity S-wave (km/s) = 3.45440 3.70005 3.57933
# Velocity P-wave (km/s) = 7.19035 7.49998 7.34679
#
# Compressibility (1/GPa) = 0.01627778
#
# Stress axis : x y z
#
# Youngs Moduli (GPa) = 64.85423 33.47771 43.57415
#
# Poissons Ratio (x) = 0.27196 0.18625
# Poissons Ratio (y) = 0.52685 0.59186
# Poissons Ratio (z) = 0.27720 0.45472
#
# Static dielectric constant tensor:
#      x y z
#    x 3.347850 0.000000 -0.028670 
#    y 0.000000 3.200270 0.000000 
#    z -0.028670 0.000000 3.062570 
# 
# 
# High freq. dielectric constant tensor:
#      x y z
#    x 1.678390 0.000000 -0.002710 
#    y 0.000000 1.663850 0.000000 
#    z -0.002710 0.000000 1.647810 
# 
# From -- ./inp_files/17682.got.cif
#   From: 2010.06.25/outbox.cif.g09.slc.cpg/sg11_9_cif.got.tgz:17682.got - 2010.06.27 23:14:04.
