data_PCOD8071466
_publ_section_title
;
Structure prediction by ZEFSAII (Michael W. Deem and Ramdas Pophale) SiO2 
 PCOD8071466
Probable space group: P 21/M
;
_chemical_formula_sum "Si O2"
_cell_formula_units_Z 28
_cell_length_a 12.209007
_cell_length_b 8.548956
_cell_length_c 15.505320
_cell_angle_alpha 90.000000
_cell_angle_beta 120.725490
_cell_angle_gamma 90.000000
_cell_volume 1391.179671
_symmetry_space_group_name_H-M "P 21/M"
_symmetry_group_IT_number 11
_symmetry_cell_setting 'monoclinic'
loop_
_space_group_symop_operation_xyz
x,y,z
-x,1/2+y,-z
-x,-y,-z
x,1/2-y,z
loop_
_atom_site_type_symbol
_atom_site_label
_atom_site_fract_x
_atom_site_fract_y
_atom_site_fract_z
Si Si1 0.774035 0.923377 0.702435
Si Si2 0.881500 0.563217 0.007647
Si Si3 0.970579 0.570226 0.222914
Si Si4 0.086587 0.066508 0.612196
Si Si5 0.366978 0.066095 0.188251
Si Si6 0.397917 0.074538 0.520584
Si Si7 0.644444 0.068055 0.318907
O O1 0.822489 0.750000 0.750958
O O2 0.662954 0.978320 0.723856
O O3 0.730025 0.914541 0.586580
O O4 0.886367 0.047718 0.752768
O O5 0.888153 0.750000 0.005341
O O6 0.884705 0.505019 0.109006
O O7 0.746512 0.497602 0.916826
O O8 0.000000 0.500000 0.000000
O O9 0.938825 0.750000 0.222938
O O10 0.949482 0.490812 0.308584
O O11 0.062092 0.250000 0.600793
O O12 0.236525 0.033672 0.663539
O O13 0.000000 0.000000 0.500000
O O14 0.372342 0.250000 0.178938
O O15 0.510364 0.005969 0.222342
O O16 0.436000 0.250000 0.567755
O O17 0.500000 0.000000 0.500000
O O18 0.370588 0.954072 0.585388
O O19 0.669950 0.250000 0.309168
#
# Coordination Sequence:
#
# PCOD8071466 Si02
#       7
#     4   4   4   4   4   4   4
#     4  10  19  33  53  80 113 149 186 227 280 346
#     4  10  19  35  58  85 116 152 188 233 289 344
#     4  10  22  37  57  85 115 147 190 242 291 337
#     4  11  24  43  62  85 116 154 198 243 290 345
#     4   9  18  34  55  81 115 150 183 227 286 347
#     4  11  21  33  51  79 114 150 188 232 287 348
#     4  11  22  39  59  82 114 153 197 241 290 346
#
# _framework density 20.126804
#
# number of rings (size 3 to 8) (size 9 to 14) (size 15 to 20)
#    0.000    1.714    2.857    2.143    0.000    4.571 
#    0.000    2.143    0.000    0.000    0.000    0.000 
#    0.000    0.000    0.000    0.000    0.000    0.000 
#
# Total GULP energy -346915.151989 kJ/mol
# GULP energy per Si atom -12389.826857 kJ/mol
# Density = 2.008099 g / cm^3
# Si number density = 20.126804 Si / 1000 Ang^3
#
#
#
# Elastic Constant Matrix: (Units=GPa)
#
#
# Indices 1 2 3 4 5 6 
#
# 1 113.2270 9.7045 56.5085 0.0000 12.1710 0.0000
# 2 9.7045 30.8947 20.7227 0.0000 0.2730 0.0000
# 3 56.5085 20.7227 142.9174 0.0000 5.7235 0.0000
# 4 0.0000 0.0000 0.0000 20.8503 0.0000 3.3873
# 5 12.1710 0.2730 5.7235 0.0000 37.7452 0.0000
# 6 0.0000 0.0000 0.0000 3.3873 0.0000 30.0077
#
#
#
# Elastic Compliance Matrix: (Units=1/GPa)
#
#
# Indices 1 2 3 4 5 6 
#
# 1 0.011342 -0.000674 -0.004266 0.000000 -0.003005 0.000000
# 2 -0.000674 0.035906 -0.004968 0.000000 0.000711 0.000000
# 3 -0.004266 -0.004968 0.009405 0.000000 -0.000014 0.000000
# 4 0.000000 0.000000 0.000000 0.048857 0.000000 -0.005515
# 5 -0.003005 0.000711 -0.000014 0.000000 0.027460 0.000000
# 6 0.000000 0.000000 0.000000 -0.005515 0.000000 0.033947
#
#
# Mechanical properties :
#
#
# Convention : Reuss Voigt Hill
#
# Bulk Modulus (GPa) = 27.14816 51.21229 39.18023
# Shear Modulus (GPa) = 25.12404 31.06086 28.09245
#
# Velocity S-wave (km/s) = 3.53694 3.93269 3.74006
# Velocity P-wave (km/s) = 5.49525 6.79128 6.17735
#
# Compressibility (1/GPa) = 0.03683491
#
# Stress axis : x y z
#
# Youngs Moduli (GPa) = 88.16865 27.85058 106.32778
#
# Poissons Ratio (x) = 0.01878 0.45363
# Poissons Ratio (y) = 0.05946 0.52825
# Poissons Ratio (z) = 0.37616 0.13836
#
# Static dielectric constant tensor:
#      x y z
#    x 3.788780 0.000000 -0.024050 
#    y 0.000000 2.478770 0.000000 
#    z -0.024050 0.000000 4.353180 
# 
# 
# High freq. dielectric constant tensor:
#      x y z
#    x 1.775420 0.000000 0.009470 
#    y 0.000000 1.763530 0.000000 
#    z 0.009470 0.000000 1.793970 
# 
# From -- ./inp_files/38498.got.cif
#   From: 2010.06.25/outbox.cif.g09.slc.cpg/sg11_20_cif.got.tgz:38498.got - 2010.06.27 23:14:04.
