data_PCOD8071460
_publ_section_title
;
Structure prediction by ZEFSAII (Michael W. Deem and Ramdas Pophale) SiO2 
 PCOD8071460
Probable space group: P 21/M
;
_chemical_formula_sum "Si O2"
_cell_formula_units_Z 28
_cell_length_a 14.359628
_cell_length_b 8.916905
_cell_length_c 17.366220
_cell_angle_alpha 90.000000
_cell_angle_beta 137.375230
_cell_angle_gamma 90.000000
_cell_volume 1505.829550
_symmetry_space_group_name_H-M "P 21/M"
_symmetry_group_IT_number 11
_symmetry_cell_setting 'monoclinic'
loop_
_space_group_symop_operation_xyz
x,y,z
-x,1/2+y,-z
-x,-y,-z
x,1/2-y,z
loop_
_atom_site_type_symbol
_atom_site_label
_atom_site_fract_x
_atom_site_fract_y
_atom_site_fract_z
Si Si1 0.328030 0.571939 0.173990
Si Si2 0.136369 0.923187 0.612909
Si Si3 0.784451 0.927534 0.745582
Si Si4 0.952817 0.423385 0.277168
Si Si5 0.905058 0.426049 0.079873
Si Si6 0.769363 0.077189 0.578803
Si Si7 0.608688 0.423594 0.329142
O O1 0.322986 0.750000 0.175515
O O2 0.307701 0.504043 0.245910
O O3 0.474008 0.520302 0.229564
O O4 0.210455 0.503534 0.045901
O O5 0.123128 0.750000 0.582530
O O6 0.149321 0.947642 0.713026
O O7 0.272257 0.988204 0.654666
O O8 0.000000 0.000000 0.500000
O O9 0.768689 0.750000 0.741898
O O10 0.942796 0.981323 0.851836
O O11 0.729072 0.980521 0.628972
O O12 0.000142 0.250000 0.299267
O O13 0.876659 0.471972 0.151670
O O14 0.088427 0.522106 0.372482
O O15 0.897063 0.250000 0.065241
O O16 0.785028 0.250000 0.612316
O O17 0.650803 0.055206 0.443649
O O18 0.578334 0.250000 0.292316
#
# Coordination Sequence:
#
# PCOD8071460 Si02
#       7
#     4   4   4   4   4   4   4
#     4  11  22  36  54  76 105 142 182 221 260 309
#     4  10  19  33  56  82 108 139 175 216 262 314
#     4  10  20  36  58  80 105 136 175 220 269 320
#     4   9  17  32  56  82 107 136 172 218 269 312
#     4   8  17  34  55  80 106 135 175 219 262 310
#     4  10  19  33  53  79 110 138 173 219 262 312
#     4  10  22  37  51  75 112 146 175 213 263 317
#
# _framework density 18.594401999999999
#
# number of rings (size 3 to 8) (size 9 to 14) (size 15 to 20)
#    0.000    2.286    1.429    2.571    0.000    2.286 
#    0.000    7.143    0.000    0.000    0.000    0.000 
#    0.000    0.000    0.000    0.000    0.000    0.000 
#
# Total GULP energy -347192.605523 kJ/mol
# GULP energy per Si atom -12399.735912 kJ/mol
# Density = 1.855208 g / cm^3
# Si number density = 18.594402 Si / 1000 Ang^3
#
#
#
# Elastic Constant Matrix: (Units=GPa)
#
#
# Indices 1 2 3 4 5 6 
#
# 1 121.2068 29.5604 34.4923 0.0000 1.5474 0.0000
# 2 29.5604 58.8426 23.6174 0.0000 3.1652 0.0000
# 3 34.4923 23.6174 55.9508 0.0000 3.9241 0.0000
# 4 0.0000 0.0000 0.0000 22.6519 0.0000 2.8946
# 5 1.5474 3.1652 3.9241 0.0000 23.2946 0.0000
# 6 0.0000 0.0000 0.0000 2.8946 0.0000 28.3479
#
#
#
# Elastic Compliance Matrix: (Units=1/GPa)
#
#
# Indices 1 2 3 4 5 6 
#
# 1 0.010497 -0.003241 -0.005146 0.000000 0.000610 0.000000
# 2 -0.003241 0.021503 -0.006971 0.000000 -0.001532 0.000000
# 3 -0.005146 -0.006971 0.024183 0.000000 -0.002785 0.000000
# 4 0.000000 0.000000 0.000000 0.044730 0.000000 -0.004567
# 5 0.000610 -0.001532 -0.002785 0.000000 0.043565 0.000000
# 6 0.000000 0.000000 0.000000 -0.004567 0.000000 0.035742
#
#
# Mechanical properties :
#
#
# Convention : Reuss Voigt Hill
#
# Bulk Modulus (GPa) = 39.26632 45.70450 42.48541
# Shear Modulus (GPa) = 22.78661 24.74755 23.76708
#
# Velocity S-wave (km/s) = 3.50445 3.65213 3.57905
# Velocity P-wave (km/s) = 6.12683 6.51284 6.32278
#
# Compressibility (1/GPa) = 0.02546712
#
# Stress axis : x y z
#
# Youngs Moduli (GPa) = 95.26131 46.50510 41.35084
#
# Poissons Ratio (x) = 0.15072 0.21280
# Poissons Ratio (y) = 0.30873 0.28827
# Poissons Ratio (z) = 0.49023 0.32420
#
# Static dielectric constant tensor:
#      x y z
#    x 3.554010 0.000000 -0.178170 
#    y 0.000000 3.289490 0.000000 
#    z -0.178170 0.000000 3.533330 
# 
# 
# High freq. dielectric constant tensor:
#      x y z
#    x 1.724030 0.000000 -0.013480 
#    y 0.000000 1.710840 0.000000 
#    z -0.013480 0.000000 1.711210 
# 
# From -- ./inp_files/37193.got.cif
#   From: 2010.06.25/outbox.cif.g09.slc.cpg/sg11_19_cif.got.tgz:37193.got - 2010.06.27 23:14:04.
