data_PCOD8071193
_publ_section_title
;
Structure prediction by ZEFSAII (Michael W. Deem and Ramdas Pophale) SiO2 
 PCOD8071193
Probable space group: P 21/M
;
_chemical_formula_sum "Si O2"
_cell_formula_units_Z 32
_cell_length_a 25.454258
_cell_length_b 8.849772
_cell_length_c 20.782035
_cell_angle_alpha 90.000000
_cell_angle_beta 22.094227
_cell_angle_gamma 90.000000
_cell_volume 1760.838867
_symmetry_space_group_name_H-M "P 21/M"
_symmetry_group_IT_number 11
_symmetry_cell_setting 'monoclinic'
loop_
_space_group_symop_operation_xyz
x,y,z
-x,1/2+y,-z
-x,-y,-z
x,1/2-y,z
loop_
_atom_site_type_symbol
_atom_site_label
_atom_site_fract_x
_atom_site_fract_y
_atom_site_fract_z
Si Si1 0.853680 0.422746 0.101455
Si Si2 0.166161 0.074922 0.742771
Si Si3 0.559605 0.929103 0.116471
Si Si4 0.856919 0.925365 0.734031
Si Si5 0.140964 0.075480 0.418328
Si Si6 0.410368 0.928924 0.158309
Si Si7 0.434107 0.570970 0.391943
Si Si8 0.573021 0.075157 0.356478
O O1 0.852087 0.250000 0.128984
O O2 0.813532 0.531102 0.205811
O O3 0.740734 0.444732 0.173068
O O4 0.007991 0.462655 0.899504
O O5 0.202370 0.250000 0.693815
O O6 0.273074 0.980399 0.578008
O O7 0.553806 0.750000 0.122308
O O8 0.468811 0.990454 0.159877
O O9 0.497284 0.992354 0.253665
O O10 0.720320 0.981511 0.927268
O O11 0.890187 0.750000 0.708322
O O12 0.829899 0.955770 0.689580
O O13 0.985982 0.022861 0.613502
O O14 0.158968 0.250000 0.415412
O O15 0.249916 0.979064 0.336036
O O16 0.423340 0.750000 0.138415
O O17 0.500000 0.000000 0.000000
O O18 0.441396 0.750000 0.387705
O O19 0.526179 0.504352 0.344708
O O20 0.529820 0.250000 0.402966
O O21 0.500000 0.000000 0.500000
#
# Coordination Sequence:
#
# PCOD8071193 Si02
#       8
#     4   4   4   4   4   4   4   4
#     4   9  19  34  54  79 107 139 177 222 271 320
#     4  10  19  33  54  80 109 141 177 221 272 322
#     4   9  20  38  57  77 108 148 186 222 268 328
#     4   9  17  34  55  77 108 145 183 224 270 323
#     4  10  19  32  53  84 113 139 178 228 277 327
#     4  11  20  35  57  83 110 142 184 232 278 324
#     4  11  22  37  56  79 110 148 185 223 268 323
#     4  11  21  35  56  83 111 140 180 227 272 321
#
# _framework density 18.173158000000001
#
# number of rings (size 3 to 8) (size 9 to 14) (size 15 to 20)
#    0.000    2.000    2.500    1.875    0.000    1.500 
#    0.000    5.000    0.000    4.500    0.000    0.000 
#    0.000    0.000    0.000    0.000    0.000    0.000 
#
# Total GULP energy -396842.107851 kJ/mol
# GULP energy per Si atom -12401.315870 kJ/mol
# Density = 1.813179 g / cm^3
# Si number density = 18.173158 Si / 1000 Ang^3
#
#
#
# Elastic Constant Matrix: (Units=GPa)
#
#
# Indices 1 2 3 4 5 6 
#
# 1 116.0870 42.8993 76.5924 0.0000 0.1909 0.0000
# 2 42.8993 73.3313 42.4038 0.0000 0.2588 0.0000
# 3 76.5924 42.4038 149.0507 0.0000 -2.6180 0.0000
# 4 0.0000 0.0000 0.0000 29.5205 0.0000 -4.9988
# 5 0.1909 0.2588 -2.6180 0.0000 28.1146 0.0000
# 6 0.0000 0.0000 0.0000 -4.9988 0.0000 24.6135
#
#
#
# Elastic Compliance Matrix: (Units=1/GPa)
#
#
# Indices 1 2 3 4 5 6 
#
# 1 0.014408 -0.004954 -0.006005 0.000000 -0.000611 0.000000
# 2 -0.004954 0.018035 -0.002592 0.000000 -0.000374 0.000000
# 3 -0.006005 -0.002592 0.010551 0.000000 0.001047 0.000000
# 4 0.000000 0.000000 0.000000 0.035081 0.000000 0.007125
# 5 -0.000611 -0.000374 0.001047 0.000000 0.035674 0.000000
# 6 0.000000 0.000000 0.000000 0.007125 0.000000 0.042075
#
#
# Mechanical properties :
#
#
# Convention : Reuss Voigt Hill
#
# Bulk Modulus (GPa) = 62.92549 73.58445 68.25497
# Shear Modulus (GPa) = 26.56421 28.22127 27.39274
#
# Velocity S-wave (km/s) = 3.82740 3.94497 3.88663
# Velocity P-wave (km/s) = 7.36429 7.83129 7.60137
#
# Compressibility (1/GPa) = 0.01589181
#
# Stress axis : x y z
#
# Youngs Moduli (GPa) = 69.40495 55.44811 94.78067
#
# Poissons Ratio (x) = 0.27470 0.56918
# Poissons Ratio (y) = 0.34385 0.24563
# Poissons Ratio (z) = 0.41679 0.14370
#
# Static dielectric constant tensor:
#      x y z
#    x 3.326480 0.000000 -0.188690 
#    y 0.000000 3.364240 0.000000 
#    z -0.188690 0.000000 3.584660 
# 
# 
# High freq. dielectric constant tensor:
#      x y z
#    x 1.685560 0.000000 -0.023770 
#    y 0.000000 1.703430 0.000000 
#    z -0.023770 0.000000 1.709560 
# 
# From -- ./inp_files/67012.got.cif
#   From: 2010.06.25/outbox.cif.g09.slc.cpg/sg11_34_cif.got.tgz:67012.got - 2010.06.27 23:14:04.
