data_PCOD8071030
_publ_section_title
;
Structure prediction by ZEFSAII (Michael W. Deem and Ramdas Pophale) SiO2 
 PCOD8071030
Probable space group: P 21/M
;
_chemical_formula_sum "Si O2"
_cell_formula_units_Z 28
_cell_length_a 18.315056
_cell_length_b 8.998967
_cell_length_c 19.944212
_cell_angle_alpha 90.000000
_cell_angle_beta 28.261089
_cell_angle_gamma 90.000000
_cell_volume 1556.426931
_symmetry_space_group_name_H-M "P 21/M"
_symmetry_group_IT_number 11
_symmetry_cell_setting 'monoclinic'
loop_
_space_group_symop_operation_xyz
x,y,z
-x,1/2+y,-z
-x,-y,-z
x,1/2-y,z
loop_
_atom_site_type_symbol
_atom_site_label
_atom_site_fract_x
_atom_site_fract_y
_atom_site_fract_z
Si Si1 0.917942 0.419319 0.005317
Si Si2 0.354424 0.582247 0.686523
Si Si3 0.989646 0.075287 0.204006
Si Si4 0.857645 0.922923 0.651946
Si Si5 0.780224 0.924286 0.864823
Si Si6 0.300891 0.076029 0.598300
Si Si7 0.517613 0.924399 0.914667
O O1 0.978379 0.250000 0.949156
O O2 0.736329 0.421965 0.170218
O O3 0.000000 0.500000 0.000000
O O4 0.934579 0.504613 0.922774
O O5 0.357840 0.750000 0.653945
O O6 0.527560 0.527742 0.561938
O O7 0.271905 0.476199 0.698543
O O8 0.979097 0.250000 0.202131
O O9 0.089415 0.031463 0.187644
O O10 0.818933 0.008275 0.353097
O O11 0.895691 0.750000 0.620349
O O12 0.840440 0.977674 0.743048
O O13 0.693473 0.955416 0.746584
O O14 0.000000 0.000000 0.500000
O O15 0.745553 0.750000 0.891949
O O16 0.620632 0.004876 0.017645
O O17 0.271783 0.250000 0.615733
O O18 0.490099 0.750000 0.943675
O O19 0.500000 0.000000 0.000000
#
# Coordination Sequence:
#
# PCOD8071030 Si02
#       7
#     4   4   4   4   4   4   4
#     4  11  21  34  53  77 103 133 173 220 266 315
#     4   9  19  34  51  72  99 129 168 219 269 314
#     4  11  22  36  53  75 106 141 176 220 268 313
#     4   9  18  33  54  82 109 136 172 212 255 305
#     4   9  20  37  54  75 106 142 179 216 260 313
#     4  10  19  32  52  75  98 131 172 214 263 320
#     4   9  17  31  53  79 107 137 173 212 252 303
#
# _framework density 17.989923999999998
#
# number of rings (size 3 to 8) (size 9 to 14) (size 15 to 20)
#    0.000    2.286    1.429    2.571    0.000    5.143 
#    0.000    1.429    0.000    6.857    0.000    0.000 
#    0.000    0.000    0.000    0.000    0.000    0.000 
#
# Total GULP energy -347042.874513 kJ/mol
# GULP energy per Si atom -12394.388375 kJ/mol
# Density = 1.794898 g / cm^3
# Si number density = 17.989924 Si / 1000 Ang^3
#
#
#
# Elastic Constant Matrix: (Units=GPa)
#
#
# Indices 1 2 3 4 5 6 
#
# 1 108.6459 51.3162 55.7963 0.0000 -22.6031 0.0000
# 2 51.3162 85.7213 42.5643 0.0000 -16.6326 0.0000
# 3 55.7963 42.5643 110.3250 0.0000 -18.6865 0.0000
# 4 0.0000 0.0000 0.0000 32.2071 0.0000 -4.1098
# 5 -22.6031 -16.6326 -18.6865 0.0000 28.8083 0.0000
# 6 0.0000 0.0000 0.0000 -4.1098 0.0000 27.6190
#
#
#
# Elastic Compliance Matrix: (Units=1/GPa)
#
#
# Indices 1 2 3 4 5 6 
#
# 1 0.015571 -0.005902 -0.004612 0.000000 0.005818 0.000000
# 2 -0.005902 0.017426 -0.003166 0.000000 0.003376 0.000000
# 3 -0.004612 -0.003166 0.013139 0.000000 0.003076 0.000000
# 4 0.000000 0.000000 0.000000 0.031650 0.000000 0.004710
# 5 0.005818 0.003376 0.003076 0.000000 0.043221 0.000000
# 6 0.000000 0.000000 0.000000 0.004710 0.000000 0.036908
#
#
# Mechanical properties :
#
#
# Convention : Reuss Voigt Hill
#
# Bulk Modulus (GPa) = 53.26326 67.11620 60.18973
# Shear Modulus (GPa) = 26.10467 28.06125 27.08296
#
# Velocity S-wave (km/s) = 3.81343 3.95375 3.88422
# Velocity P-wave (km/s) = 7.00437 7.63096 7.32437
#
# Compressibility (1/GPa) = 0.01877467
#
# Stress axis : x y z
#
# Youngs Moduli (GPa) = 64.22120 57.38404 76.10693
#
# Poissons Ratio (x) = 0.33871 0.35104
# Poissons Ratio (y) = 0.37906 0.24097
# Poissons Ratio (z) = 0.29622 0.18169
#
# Static dielectric constant tensor:
#      x y z
#    x 2.312280 0.000000 -0.991680 
#    y 0.000000 3.514820 0.000000 
#    z -0.991680 0.000000 3.106980 
# 
# 
# High freq. dielectric constant tensor:
#      x y z
#    x 1.664920 0.000000 -0.024680 
#    y 0.000000 1.705620 0.000000 
#    z -0.024680 0.000000 1.706530 
# 
# From -- ./inp_files/65990.got.cif
#   From: 2010.06.25/outbox.cif.g09.slc.cpg/sg11_33_cif.got.tgz:65990.got - 2010.06.27 23:14:04.
