data_PCOD8071571
_publ_section_title
;
Structure prediction by ZEFSAII (Michael W. Deem and Ramdas Pophale) SiO2 
 PCOD8071571
Probable space group: P 21/M
;
_chemical_formula_sum "Si O2"
_cell_formula_units_Z 32
_cell_length_a 27.581773
_cell_length_b 9.375135
_cell_length_c 10.737676
_cell_angle_alpha 90.000000
_cell_angle_beta 143.765674
_cell_angle_gamma 90.000000
_cell_volume 1641.205230
_symmetry_space_group_name_H-M "P 21/M"
_symmetry_group_IT_number 11
_symmetry_cell_setting 'monoclinic'
loop_
_space_group_symop_operation_xyz
x,y,z
-x,1/2+y,-z
-x,-y,-z
x,1/2-y,z
loop_
_atom_site_type_symbol
_atom_site_label
_atom_site_fract_x
_atom_site_fract_y
_atom_site_fract_z
Si Si1 0.464172 0.916078 0.308801
Si Si2 0.123795 0.416192 0.957556
Si Si3 0.459328 0.419989 0.798394
Si Si4 0.187953 0.419020 0.496120
Si Si5 0.876067 0.408559 0.279405
Si Si6 0.723197 0.089174 0.111722
Si Si7 0.954563 0.086093 0.704326
Si Si8 0.727194 0.581088 0.578528
O O1 0.483556 0.750000 0.368840
O O2 0.499257 0.965320 0.246780
O O3 0.500000 0.000000 0.500000
O O4 0.368522 0.951423 0.113412
O O5 0.129987 0.250000 0.943106
O O6 0.210778 0.477551 0.186776
O O7 0.097874 0.486494 0.775215
O O8 0.052194 0.444522 0.912131
O O9 0.466244 0.250000 0.835142
O O10 0.365197 0.473677 0.593953
O O11 0.500000 0.500000 0.000000
O O12 0.178554 0.250000 0.483036
O O13 0.243016 0.473755 0.722799
O O14 0.096291 0.486479 0.306313
O O15 0.236685 0.472461 0.476656
O O16 0.900364 0.250000 0.287339
O O17 0.778260 0.418991 0.101584
O O18 0.924769 0.451570 0.503823
O O19 0.727937 0.250000 0.178505
O O20 0.934262 0.250000 0.694458
O O21 0.728341 0.750000 0.585152
#
# Coordination Sequence:
#
# PCOD8071571 Si02
#       8
#     4   4   4   4   4   4   4   4
#     4  10  22  37  57  85 117 151 187 233 288 341
#     4  10  20  34  53  75 104 144 179 213 267 327
#     4  10  21  39  61  84 113 151 192 237 283 337
#     4  10  19  33  55  79 102 136 181 224 266 317
#     4   9  18  32  50  73 105 138 172 222 268 308
#     4   9  19  36  54  76 109 142 174 221 273 320
#     4   9  19  35  53  75 106 141 175 218 271 320
#     4   9  20  36  53  78 111 138 172 227 275 313
#
# _framework density 19.497865999999998
#
# number of rings (size 3 to 8) (size 9 to 14) (size 15 to 20)
#    0.000    2.500    0.000    2.250    1.750    4.000 
#    0.000    2.500    0.000    0.000    0.000    0.000 
#    0.000    0.000    0.000    0.000    0.000    0.000 
#
# Total GULP energy -396671.932342 kJ/mol
# GULP energy per Si atom -12395.997886 kJ/mol
# Density = 1.945349 g / cm^3
# Si number density = 19.497866 Si / 1000 Ang^3
#
#
#
# Elastic Constant Matrix: (Units=GPa)
#
#
# Indices 1 2 3 4 5 6 
#
# 1 82.5741 29.5344 28.8322 0.0000 5.0759 0.0000
# 2 29.5344 49.5170 23.0770 0.0000 -1.7808 0.0000
# 3 28.8322 23.0770 81.9049 0.0000 19.2132 0.0000
# 4 0.0000 0.0000 0.0000 27.1667 0.0000 1.6581
# 5 5.0759 -1.7808 19.2132 0.0000 32.9728 0.0000
# 6 0.0000 0.0000 0.0000 1.6581 0.0000 26.3244
#
#
#
# Elastic Compliance Matrix: (Units=1/GPa)
#
#
# Indices 1 2 3 4 5 6 
#
# 1 0.016224 -0.008264 -0.003119 0.000000 -0.001127 0.000000
# 2 -0.008264 0.028483 -0.006690 0.000000 0.006709 0.000000
# 3 -0.003119 -0.006690 0.017565 0.000000 -0.010116 0.000000
# 4 0.000000 0.000000 0.000000 0.036952 0.000000 -0.002327
# 5 -0.001127 0.006709 -0.010116 0.000000 0.036759 0.000000
# 6 0.000000 0.000000 0.000000 -0.002327 0.000000 0.038134
#
#
# Mechanical properties :
#
#
# Convention : Reuss Voigt Hill
#
# Bulk Modulus (GPa) = 38.27371 41.87591 40.07481
# Shear Modulus (GPa) = 22.83402 26.12960 24.48181
#
# Velocity S-wave (km/s) = 3.42585 3.66474 3.54731
# Velocity P-wave (km/s) = 5.94314 6.27941 6.11359
#
# Compressibility (1/GPa) = 0.02612759
#
# Stress axis : x y z
#
# Youngs Moduli (GPa) = 61.63586 35.10840 56.93120
#
# Poissons Ratio (x) = 0.29014 0.17754
# Poissons Ratio (y) = 0.50937 0.38086
# Poissons Ratio (z) = 0.19221 0.23487
#
# Static dielectric constant tensor:
#      x y z
#    x 3.700030 0.000000 0.337570 
#    y 0.000000 3.351520 0.000000 
#    z 0.337570 0.000000 3.721400 
# 
# 
# High freq. dielectric constant tensor:
#      x y z
#    x 1.763450 0.000000 0.016600 
#    y 0.000000 1.739710 0.000000 
#    z 0.016600 0.000000 1.764300 
# 
# From -- ./inp_files/45378.got.cif
#   From: 2010.06.25/outbox.cif.g09.slc.cpg/sg11_23_cif.got.tgz:45378.got - 2010.06.27 23:14:04.
