data_PCOD8071742
_publ_section_title
;
Structure prediction by ZEFSAII (Michael W. Deem and Ramdas Pophale) SiO2 
 PCOD8071742
Probable space group: P 21/M
;
_chemical_formula_sum "Si O2"
_cell_formula_units_Z 32
_cell_length_a 32.870913
_cell_length_b 9.137742
_cell_length_c 12.547310
_cell_angle_alpha 90.000000
_cell_angle_beta 26.342799
_cell_angle_gamma 90.000000
_cell_volume 1672.363106
_symmetry_space_group_name_H-M "P 21/M"
_symmetry_group_IT_number 11
_symmetry_cell_setting 'monoclinic'
loop_
_space_group_symop_operation_xyz
x,y,z
-x,1/2+y,-z
-x,-y,-z
x,1/2-y,z
loop_
_atom_site_type_symbol
_atom_site_label
_atom_site_fract_x
_atom_site_fract_y
_atom_site_fract_z
Si Si1 0.766095 0.583464 0.976044
Si Si2 0.065249 0.081873 0.552925
Si Si3 0.367338 0.085160 0.293792
Si Si4 0.490019 0.585074 0.852121
Si Si5 0.976135 0.921826 0.949258
Si Si6 0.811550 0.088746 0.255662
Si Si7 0.893675 0.409624 0.831952
Si Si8 0.441198 0.076555 0.545309
O O1 0.752262 0.750000 0.043259
O O2 0.826753 0.567721 0.726435
O O3 0.828986 0.515668 0.918964
O O4 0.664356 0.516208 0.199679
O O5 0.039633 0.250000 0.642687
O O6 0.999002 0.034518 0.608013
O O7 0.047140 0.976067 0.693448
O O8 0.331896 0.250000 0.354920
O O9 0.426386 0.084130 0.262224
O O10 0.290452 0.968394 0.499046
O O11 0.417396 0.030904 0.068376
O O12 0.449036 0.750000 0.942762
O O13 0.520723 0.535316 0.661362
O O14 0.984575 0.750000 0.940929
O O15 0.872560 0.967164 0.169510
O O16 0.000000 0.000000 0.000000
O O17 0.817406 0.250000 0.296604
O O18 0.843544 0.104901 0.061061
O O19 0.897583 0.250000 0.766424
O O20 0.444559 0.250000 0.557233
O O21 0.500000 0.000000 0.500000
#
# Coordination Sequence:
#
# PCOD8071742 Si02
#       8
#     4   4   4   4   4   4   4   4
#     4  10  20  35  57  82 110 146 185 228 279 329
#     4   9  19  36  55  81 116 148 179 224 276 330
#     4  10  19  33  57  88 113 141 186 232 287 350
#     4   9  19  36  56  79 114 150 183 234 294 344
#     4  11  22  38  58  79 107 146 187 226 270 322
#     4  10  20  35  54  81 115 147 180 223 277 332
#     4   9  18  31  52  83 117 147 178 218 272 333
#     4  10  22  40  58  78 107 150 196 240 286 333
#
# _framework density 19.134602000000001
#
# number of rings (size 3 to 8) (size 9 to 14) (size 15 to 20)
#    0.000    2.250    0.000    3.750    0.000    5.500 
#    2.250    0.000    0.000    0.000    0.000    0.000 
#    0.000    0.000    0.000    0.000    0.000    0.000 
#
# Total GULP energy -396575.127196 kJ/mol
# GULP energy per Si atom -12392.972725 kJ/mol
# Density = 1.909105 g / cm^3
# Si number density = 19.134602 Si / 1000 Ang^3
#
#
#
# Elastic Constant Matrix: (Units=GPa)
#
#
# Indices 1 2 3 4 5 6 
#
# 1 117.8495 59.8977 83.7044 0.0000 27.8341 0.0000
# 2 59.8977 112.8161 64.6583 0.0000 19.7994 0.0000
# 3 83.7044 64.6583 178.7774 0.0000 26.2903 0.0000
# 4 0.0000 0.0000 0.0000 28.5647 0.0000 -2.5490
# 5 27.8341 19.7994 26.2903 0.0000 34.7848 0.0000
# 6 0.0000 0.0000 0.0000 -2.5490 0.0000 33.2849
#
#
#
# Elastic Compliance Matrix: (Units=1/GPa)
#
#
# Indices 1 2 3 4 5 6 
#
# 1 0.015647 -0.004450 -0.004779 0.000000 -0.006376 0.000000
# 2 -0.004450 0.012892 -0.002277 0.000000 -0.002057 0.000000
# 3 -0.004779 -0.002277 0.008890 0.000000 -0.001599 0.000000
# 4 0.000000 0.000000 0.000000 0.035249 0.000000 0.002699
# 5 -0.006376 -0.002057 -0.001599 0.000000 0.036229 0.000000
# 6 0.000000 0.000000 0.000000 0.002699 0.000000 0.030250
#
#
# Mechanical properties :
#
#
# Convention : Reuss Voigt Hill
#
# Bulk Modulus (GPa) = 69.35830 91.77376 80.56603
# Shear Modulus (GPa) = 29.94446 32.73904 31.34175
#
# Velocity S-wave (km/s) = 3.96022 4.14089 4.05156
# Velocity P-wave (km/s) = 7.56554 8.42194 8.00520
#
# Compressibility (1/GPa) = 0.01441788
#
# Stress axis : x y z
#
# Youngs Moduli (GPa) = 63.90861 77.56504 112.48805
#
# Poissons Ratio (x) = 0.34513 0.53761
# Poissons Ratio (y) = 0.28437 0.25613
# Poissons Ratio (z) = 0.30544 0.17662
#
# Static dielectric constant tensor:
#      x y z
#    x 3.222930 0.000000 0.033710 
#    y 0.000000 3.649660 0.000000 
#    z 0.033710 0.000000 3.645700 
# 
# 
# High freq. dielectric constant tensor:
#      x y z
#    x 1.725620 0.000000 0.002640 
#    y 0.000000 1.747440 0.000000 
#    z 0.002640 0.000000 1.752890 
# 
# From -- ./inp_files/45225.got.cif
#   From: 2010.06.25/outbox.cif.g09.slc.cpg/sg11_23_cif.got.tgz:45225.got - 2010.06.27 23:14:04.
