data_PCOD8071195
_publ_section_title
;
Structure prediction by ZEFSAII (Michael W. Deem and Ramdas Pophale) SiO2 
 PCOD8071195
Probable space group: P 21/M
;
_chemical_formula_sum "Si O2"
_cell_formula_units_Z 32
_cell_length_a 9.767482
_cell_length_b 13.360110
_cell_length_c 31.747927
_cell_angle_alpha 90.000000
_cell_angle_beta 155.107638
_cell_angle_gamma 90.000000
_cell_volume 1743.822669
_symmetry_space_group_name_H-M "P 21/M"
_symmetry_group_IT_number 11
_symmetry_cell_setting 'monoclinic'
loop_
_space_group_symop_operation_xyz
x,y,z
-x,1/2+y,-z
-x,-y,-z
x,1/2-y,z
loop_
_atom_site_type_symbol
_atom_site_label
_atom_site_fract_x
_atom_site_fract_y
_atom_site_fract_z
Si Si1 0.833430 0.864596 0.645870
Si Si2 0.726609 0.976338 0.023475
Si Si3 0.634861 0.137101 0.777834
Si Si4 0.796511 0.464285 0.322278
Si Si5 0.465053 0.636222 0.871717
Si Si6 0.669956 0.863799 0.397106
Si Si7 0.243020 0.527267 0.518838
Si Si8 0.206569 0.135050 0.123851
O O1 0.819371 0.750000 0.625136
O O2 0.475805 0.899872 0.558102
O O3 0.942121 0.941822 0.640471
O O4 0.082689 0.871139 0.754340
O O5 0.996470 0.896649 0.112604
O O6 0.517452 0.931875 0.926952
O O7 0.890826 0.076817 0.051641
O O8 0.500000 0.000000 0.000000
O O9 0.592974 0.250000 0.782068
O O10 0.558162 0.126481 0.707108
O O11 0.381568 0.071618 0.734580
O O12 0.508843 0.381365 0.240516
O O13 0.986740 0.464954 0.419185
O O14 0.560979 0.750000 0.909383
O O15 0.679122 0.600164 0.891074
O O16 0.664978 0.750000 0.412891
O O17 0.042539 0.896973 0.492571
O O18 0.544668 0.943523 0.397002
O O19 0.108090 0.250000 0.096431
#
# Coordination Sequence:
#
# PCOD8071195 Si02
#       8
#     4   4   4   4   4   4   4   4
#     4  10  20  34  55  79 110 140 174 224 269 310
#     4  11  22  33  56  83 110 138 178 227 279 322
#     4   9  19  36  54  72 104 142 175 214 267 322
#     4   9  18  34  54  81 101 138 176 223 262 314
#     4   9  19  36  56  77 105 144 183 219 266 328
#     4   9  19  34  51  72 102 143 178 212 262 319
#     4  10  19  32  54  76 108 136 181 218 263 317
#     4   9  19  37  57  78 108 143 181 224 273 325
#
# _framework density 18.350489
#
# number of rings (size 3 to 8) (size 9 to 14) (size 15 to 20)
#    0.000    2.500    0.000    2.625    1.750    2.500 
#    0.000    0.625    0.000    0.000    0.000    0.000 
#    0.000    0.000    0.000    0.000    0.000    0.000 
#
# Total GULP energy -396669.374413 kJ/mol
# GULP energy per Si atom -12395.917950 kJ/mol
# Density = 1.830872 g / cm^3
# Si number density = 18.350489 Si / 1000 Ang^3
#
#
#
# Elastic Constant Matrix: (Units=GPa)
#
#
# Indices 1 2 3 4 5 6 
#
# 1 86.3988 41.1143 26.1619 0.0000 0.9938 0.0000
# 2 41.1143 98.9510 30.9372 0.0000 -9.8226 0.0000
# 3 26.1619 30.9372 59.8332 0.0000 -7.3103 0.0000
# 4 0.0000 0.0000 0.0000 26.3838 0.0000 -3.7424
# 5 0.9938 -9.8226 -7.3103 0.0000 20.6233 0.0000
# 6 0.0000 0.0000 0.0000 -3.7424 0.0000 26.0327
#
#
#
# Elastic Compliance Matrix: (Units=1/GPa)
#
#
# Indices 1 2 3 4 5 6 
#
# 1 0.015676 -0.005580 -0.004585 0.000000 -0.005038 0.000000
# 2 -0.005580 0.014316 -0.004282 0.000000 0.005570 0.000000
# 3 -0.004585 -0.004282 0.021647 0.000000 0.005855 0.000000
# 4 0.000000 0.000000 0.000000 0.038691 0.000000 0.005562
# 5 -0.005038 0.005570 0.005855 0.000000 0.053460 0.000000
# 6 0.000000 0.000000 0.000000 0.005562 0.000000 0.039213
#
#
# Mechanical properties :
#
#
# Convention : Reuss Voigt Hill
#
# Bulk Modulus (GPa) = 43.96395 49.06777 46.51586
# Shear Modulus (GPa) = 22.78138 24.40592 23.59365
#
# Velocity S-wave (km/s) = 3.52726 3.65086 3.58959
# Velocity P-wave (km/s) = 6.37171 6.67600 6.52563
#
# Compressibility (1/GPa) = 0.02274591
#
# Stress axis : x y z
#
# Youngs Moduli (GPa) = 63.79272 69.85104 46.19578
#
# Poissons Ratio (x) = 0.38977 0.21179
# Poissons Ratio (y) = 0.35597 0.19781
# Poissons Ratio (z) = 0.29246 0.29910
#
# Static dielectric constant tensor:
#      x y z
#    x 3.214870 0.000000 -0.054150 
#    y 0.000000 3.506860 0.000000 
#    z -0.054150 0.000000 3.365670 
# 
# 
# High freq. dielectric constant tensor:
#      x y z
#    x 1.691570 0.000000 -0.001710 
#    y 0.000000 1.716700 0.000000 
#    z -0.001710 0.000000 1.713350 
# 
# From -- ./inp_files/26850.got.cif
#   From: 2010.06.25/outbox.cif.g09.slc.cpg/sg11_14_cif.got.tgz:26850.got - 2010.06.27 23:14:04.
