data_PCOD8071517
_publ_section_title
;
Structure prediction by ZEFSAII (Michael W. Deem and Ramdas Pophale) SiO2 
 PCOD8071517
Probable space group: P 21/M
;
_chemical_formula_sum "Si O2"
_cell_formula_units_Z 28
_cell_length_a 5.130124
_cell_length_b 15.413497
_cell_length_c 15.991783
_cell_angle_alpha 90.000000
_cell_angle_beta 82.871712
_cell_angle_gamma 90.000000
_cell_volume 1254.746928
_symmetry_space_group_name_H-M "P 21/M"
_symmetry_group_IT_number 11
_symmetry_cell_setting 'monoclinic'
loop_
_space_group_symop_operation_xyz
x,y,z
-x,1/2+y,-z
-x,-y,-z
x,1/2-y,z
loop_
_atom_site_type_symbol
_atom_site_label
_atom_site_fract_x
_atom_site_fract_y
_atom_site_fract_z
Si Si1 0.061503 0.929633 0.875934
Si Si2 0.719335 0.437080 0.955425
Si Si3 0.437711 0.973237 0.722731
Si Si4 0.651246 0.250000 0.982641
Si Si5 0.529524 0.657685 0.349833
Si Si6 0.006425 0.880199 0.447957
Si Si7 0.038708 0.434801 0.376145
Si Si8 0.111229 0.250000 0.093526
O O1 0.088420 0.918956 0.974367
O O2 0.335971 0.951270 0.819653
O O3 0.945572 0.837046 0.848915
O O4 0.863540 0.012561 0.872459
O O5 0.625618 0.340103 0.929212
O O6 0.500000 0.500000 0.000000
O O7 0.713106 0.923554 0.696506
O O8 0.227606 0.935725 0.665597
O O9 0.462068 0.077809 0.715330
O O10 0.417975 0.250000 0.059310
O O11 0.928714 0.250000 0.018809
O O12 0.599323 0.750000 0.301756
O O13 0.731433 0.642914 0.417213
O O14 0.244842 0.674941 0.401622
O O15 0.978724 0.863151 0.549400
O O16 0.093493 0.977756 0.424443
#
# Coordination Sequence:
#
# PCOD8071517 Si02
#       8
#     4   4   4   2   4   4   4   2
#     4  10  22  37  59  87 114 156 193 243 290 349
#     4  10  20  37  62  85 115 150 204 238 285 346
#     4  10  21  34  55  81 115 147 186 229 288 340
#     4  10  20  36  58  88 110 138 189 247 280 334
#     4  10  19  33  54  79 113 152 184 223 280 340
#     4   9  17  32  56  79 101 141 193 228 264 330
#     4   9  18  33  55  81 103 139 187 233 276 329
#     4  10  20  36  60  80 108 148 189 231 294 342
#
# _framework density 22.315256999999999
#
# number of rings (size 3 to 8) (size 9 to 14) (size 15 to 20)
#    0.000    2.286    1.429    1.286    2.000    3.429 
#    1.286    0.000    9.429    0.000    0.000    0.000 
#    0.000    0.000    0.000    0.000    0.000    0.000 
#
# Total GULP energy -346868.963770 kJ/mol
# GULP energy per Si atom -12388.177278 kJ/mol
# Density = 2.226447 g / cm^3
# Si number density = 22.315257 Si / 1000 Ang^3
#
#
#
# Elastic Constant Matrix: (Units=GPa)
#
#
# Indices 1 2 3 4 5 6 
#
# 1 60.8195 8.7007 -5.3536 0.0000 -16.5933 0.0000
# 2 8.7007 155.3277 28.7386 0.0000 -18.2709 0.0000
# 3 -5.3536 28.7386 62.5075 0.0000 -28.8753 0.0000
# 4 0.0000 0.0000 0.0000 31.4107 0.0000 25.0129
# 5 -16.5933 -18.2709 -28.8753 0.0000 33.7975 0.0000
# 6 0.0000 0.0000 0.0000 25.0129 0.0000 68.0378
#
#
#
# Elastic Compliance Matrix: (Units=1/GPa)
#
#
# Indices 1 2 3 4 5 6 
#
# 1 0.023645 -0.001092 0.012584 0.000000 0.021770 0.000000
# 2 -0.001092 0.007148 -0.003044 0.000000 0.000728 0.000000
# 3 0.012584 -0.003044 0.033980 0.000000 0.033564 0.000000
# 4 0.000000 0.000000 0.000000 0.045014 0.000000 -0.016549
# 5 0.021770 0.000728 0.033564 0.000000 0.069345 0.000000
# 6 0.000000 0.000000 0.000000 -0.016549 0.000000 0.020782
#
#
# Mechanical properties :
#
#
# Convention : Reuss Voigt Hill
#
# Bulk Modulus (GPa) = 12.24447 38.09178 25.16813
# Shear Modulus (GPa) = 23.78214 43.08715 33.43464
#
# Velocity S-wave (km/s) = 3.26810 4.39890 3.87497
# Velocity P-wave (km/s) = 4.44293 6.55037 5.59674
#
# Compressibility (1/GPa) = 0.08166952
#
# Stress axis : x y z
#
# Youngs Moduli (GPa) = 42.29149 139.90105 29.42891
#
# Poissons Ratio (x) = 0.15277 -0.37033
# Poissons Ratio (y) = 0.04618 0.08958
# Poissons Ratio (z) = -0.53219 0.42583
#
# Static dielectric constant tensor:
#      x y z
#    x 3.988390 0.000000 -0.227690 
#    y 0.000000 4.559030 0.000000 
#    z -0.227690 0.000000 3.741510 
# 
# 
# High freq. dielectric constant tensor:
#      x y z
#    x 1.884270 0.000000 -0.017570 
#    y 0.000000 1.882250 0.000000 
#    z -0.017570 0.000000 1.837230 
# 
# From -- ./inp_files/56935.got.cif
#   From: 2010.06.25/outbox.cif.g09.slc.cpg/sg11_29_cif.got.tgz:56935.got - 2010.06.27 23:14:04.
