data_PCOD8071333
_publ_section_title
;
Structure prediction by ZEFSAII (Michael W. Deem and Ramdas Pophale) SiO2 
 PCOD8071333
Probable space group: P 21/M
;
_chemical_formula_sum "Si O2"
_cell_formula_units_Z 32
_cell_length_a 9.560578
_cell_length_b 19.283132
_cell_length_c 13.059746
_cell_angle_alpha 90.000000
_cell_angle_beta 134.503107
_cell_angle_gamma 90.000000
_cell_volume 1717.178187
_symmetry_space_group_name_H-M "P 21/M"
_symmetry_group_IT_number 11
_symmetry_cell_setting 'monoclinic'
loop_
_space_group_symop_operation_xyz
x,y,z
-x,1/2+y,-z
-x,-y,-z
x,1/2-y,z
loop_
_atom_site_type_symbol
_atom_site_label
_atom_site_fract_x
_atom_site_fract_y
_atom_site_fract_z
Si Si1 0.561982 0.483307 0.848143
Si Si2 0.066085 0.961978 0.834996
Si Si3 0.075690 0.672157 0.493676
Si Si4 0.468363 0.172778 0.310251
Si Si5 0.129673 0.826906 0.752722
Si Si6 0.447259 0.367414 0.079919
Si Si7 0.371971 0.029273 0.341932
Si Si8 0.779463 0.583464 0.216235
O O1 0.493822 0.552914 0.870303
O O2 0.548111 0.492511 0.719274
O O3 0.410711 0.424542 0.808178
O O4 0.784529 0.463736 0.992748
O O5 0.043442 0.882834 0.786456
O O6 0.855188 0.990559 0.761098
O O7 0.146579 0.008820 0.783980
O O8 0.010944 0.750000 0.431438
O O9 0.301269 0.660260 0.582678
O O10 0.039818 0.658407 0.594901
O O11 0.953176 0.617376 0.367785
O O12 0.422069 0.250000 0.330107
O O13 0.371518 0.166698 0.146987
O O14 0.386522 0.113284 0.343045
O O15 0.068858 0.750000 0.759533
O O16 0.365590 0.828188 0.869013
O O17 0.274126 0.366344 0.906831
O O18 0.500000 0.000000 0.500000
#
# Coordination Sequence:
#
# PCOD8071333 Si02
#       8
#     4   4   4   4   4   4   4   4
#     4  10  20  37  55  81 112 145 176 230 284 332
#     4  11  21  37  56  83 111 145 184 234 283 325
#     4   9  20  33  51  81 113 144 177 227 279 325
#     4   9  19  38  57  77 111 150 190 228 271 333
#     4  10  19  33  51  77 112 144 178 221 273 329
#     4   9  16  33  55  83 106 138 179 221 272 330
#     4  11  24  37  57  83 110 149 197 232 279 328
#     4  11  19  33  60  85 116 138 180 230 286 334
#
# _framework density 18.635224999999998
#
# number of rings (size 3 to 8) (size 9 to 14) (size 15 to 20)
#    0.000    2.000    2.500    3.000    1.750    2.000 
#    0.000    0.000    0.000    0.750    0.000    0.000 
#    0.000    0.000    0.000    0.000    0.000    0.000 
#
# Total GULP energy -396786.016918 kJ/mol
# GULP energy per Si atom -12399.563029 kJ/mol
# Density = 1.859281 g / cm^3
# Si number density = 18.635225 Si / 1000 Ang^3
#
#
#
# Elastic Constant Matrix: (Units=GPa)
#
#
# Indices 1 2 3 4 5 6 
#
# 1 66.9168 26.4586 33.8531 0.0000 2.4491 0.0000
# 2 26.4586 84.1991 59.1020 0.0000 -8.5669 0.0000
# 3 33.8531 59.1020 122.3913 0.0000 -4.8950 0.0000
# 4 0.0000 0.0000 0.0000 22.8099 0.0000 1.4201
# 5 2.4491 -8.5669 -4.8950 0.0000 21.9343 0.0000
# 6 0.0000 0.0000 0.0000 1.4201 0.0000 18.2025
#
#
#
# Elastic Compliance Matrix: (Units=1/GPa)
#
#
# Indices 1 2 3 4 5 6 
#
# 1 0.018328 -0.003808 -0.003402 0.000000 -0.004293 0.000000
# 2 -0.003808 0.019348 -0.008042 0.000000 0.006187 0.000000
# 3 -0.003402 -0.008042 0.013001 0.000000 0.000140 0.000000
# 4 0.000000 0.000000 0.000000 0.044055 0.000000 -0.003437
# 5 -0.004293 0.006187 0.000140 0.000000 0.048518 0.000000
# 6 0.000000 0.000000 0.000000 -0.003437 0.000000 0.055206
#
#
# Mechanical properties :
#
#
# Convention : Reuss Voigt Hill
#
# Bulk Modulus (GPa) = 49.57486 56.92606 53.25046
# Shear Modulus (GPa) = 21.21490 22.86223 22.03857
#
# Velocity S-wave (km/s) = 3.37772 3.50641 3.44267
# Velocity P-wave (km/s) = 6.47090 6.85617 6.66632
#
# Compressibility (1/GPa) = 0.02017151
#
# Stress axis : x y z
#
# Youngs Moduli (GPa) = 54.56155 51.68536 76.91869
#
# Poissons Ratio (x) = 0.19681 0.26170
# Poissons Ratio (y) = 0.20777 0.61860
# Poissons Ratio (z) = 0.18564 0.41567
#
# Static dielectric constant tensor:
#      x y z
#    x 3.172730 0.000000 -0.066090 
#    y 0.000000 3.457610 0.000000 
#    z -0.066090 0.000000 3.418570 
# 
# 
# High freq. dielectric constant tensor:
#      x y z
#    x 1.701700 0.000000 0.000020 
#    y 0.000000 1.719640 0.000000 
#    z 0.000020 0.000000 1.722400 
# 
# From -- ./inp_files/19426.got.cif
#   From: 2010.06.25/outbox.cif.g09.slc.cpg/sg11_10_cif.got.tgz:19426.got - 2010.06.27 23:14:04.
