data_PCOD8071587
_publ_section_title
;
Structure prediction by ZEFSAII (Michael W. Deem and Ramdas Pophale) SiO2 
 PCOD8071587
Probable space group: P 21/M
;
_chemical_formula_sum "Si O2"
_cell_formula_units_Z 28
_cell_length_a 9.346820
_cell_length_b 9.191394
_cell_length_c 29.553783
_cell_angle_alpha 90.000000
_cell_angle_beta 37.699922
_cell_angle_gamma 90.000000
_cell_volume 1552.648838
_symmetry_space_group_name_H-M "P 21/M"
_symmetry_group_IT_number 11
_symmetry_cell_setting 'monoclinic'
loop_
_space_group_symop_operation_xyz
x,y,z
-x,1/2+y,-z
-x,-y,-z
x,1/2-y,z
loop_
_atom_site_type_symbol
_atom_site_label
_atom_site_fract_x
_atom_site_fract_y
_atom_site_fract_z
Si Si1 0.483271 0.589285 0.774994
Si Si2 0.502349 0.921473 0.367771
Si Si3 0.825134 0.419180 0.633179
Si Si4 0.070739 0.922187 0.936907
Si Si5 0.856474 0.411613 0.225070
Si Si6 0.743239 0.579479 0.938127
Si Si7 0.636329 0.923693 0.506348
O O1 0.583149 0.750000 0.759781
O O2 0.703988 0.489448 0.707524
O O3 0.335599 0.532482 0.855418
O O4 0.303613 0.595353 0.778863
O O5 0.504916 0.750000 0.377788
O O6 0.301000 0.964606 0.382100
O O7 0.755892 0.969894 0.285296
O O8 0.460335 0.013866 0.422902
O O9 0.799894 0.250000 0.646943
O O10 0.092631 0.469065 0.564646
O O11 0.059228 0.750000 0.946276
O O12 0.889098 0.975606 0.944610
O O13 0.000000 0.000000 0.000000
O O14 0.861491 0.250000 0.246147
O O15 0.115730 0.458146 0.143574
O O16 0.698830 0.750000 0.952106
O O17 0.500000 0.500000 0.000000
O O18 0.602432 0.750000 0.513053
O O19 0.500000 0.000000 0.500000
#
# Coordination Sequence:
#
# PCOD8071587 Si02
#       7
#     4   4   4   4   4   4   4
#     4   8  15  29  50  73  98 128 165 206 247 290
#     4  10  19  33  55  81 102 125 163 208 250 297
#     4   9  19  34  54  79 102 125 162 208 250 293
#     4   9  18  32  49  73 102 132 166 205 247 294
#     4   8  15  30  50  72  99 131 165 206 250 291
#     4   9  18  32  50  73 102 133 168 207 249 296
#     4  11  23  38  53  73 104 138 167 200 245 297
#
# _framework density 18.033695999999999
#
# number of rings (size 3 to 8) (size 9 to 14) (size 15 to 20)
#    0.000    2.857    0.000    3.000    0.000    3.429 
#    0.000    4.286    0.000    3.429    0.000    0.000 
#    0.000    0.000    0.000    0.000    0.000    0.000 
#
# Total GULP energy -347062.614798 kJ/mol
# GULP energy per Si atom -12395.093386 kJ/mol
# Density = 1.799265 g / cm^3
# Si number density = 18.033696 Si / 1000 Ang^3
#
#
#
# Elastic Constant Matrix: (Units=GPa)
#
#
# Indices 1 2 3 4 5 6 
#
# 1 68.4414 40.1348 62.0486 0.0000 -0.9703 0.0000
# 2 40.1348 64.0187 64.7225 0.0000 1.2258 0.0000
# 3 62.0486 64.7225 167.4439 0.0000 1.7846 0.0000
# 4 0.0000 0.0000 0.0000 40.4546 0.0000 1.5179
# 5 -0.9703 1.2258 1.7846 0.0000 25.9045 0.0000
# 6 0.0000 0.0000 0.0000 1.5179 0.0000 26.8928
#
#
#
# Elastic Compliance Matrix: (Units=1/GPa)
#
#
# Indices 1 2 3 4 5 6 
#
# 1 0.025888 -0.010746 -0.005459 0.000000 0.001854 0.000000
# 2 -0.010746 0.030108 -0.007642 0.000000 -0.001301 0.000000
# 3 -0.005459 -0.007642 0.010955 0.000000 -0.000598 0.000000
# 4 0.000000 0.000000 0.000000 0.024772 0.000000 -0.001398
# 5 0.001854 -0.001301 -0.000598 0.000000 0.038776 0.000000
# 6 0.000000 0.000000 0.000000 -0.001398 0.000000 0.037264
#
#
# Mechanical properties :
#
#
# Convention : Reuss Voigt Hill
#
# Bulk Modulus (GPa) = 51.92828 70.41284 61.17056
# Shear Modulus (GPa) = 22.53508 27.51692 25.02600
#
# Velocity S-wave (km/s) = 3.53882 3.91046 3.72927
# Velocity P-wave (km/s) = 6.74947 7.71485 7.24825
#
# Compressibility (1/GPa) = 0.01925733
#
# Stress axis : x y z
#
# Youngs Moduli (GPa) = 38.62731 33.21356 91.27992
#
# Poissons Ratio (x) = 0.35692 0.49832
# Poissons Ratio (y) = 0.41510 0.69754
# Poissons Ratio (z) = 0.21088 0.25381
#
# Static dielectric constant tensor:
#      x y z
#    x 3.186270 0.000000 -0.182600 
#    y 0.000000 3.455890 0.000000 
#    z -0.182600 0.000000 4.099950 
# 
# 
# High freq. dielectric constant tensor:
#      x y z
#    x 1.662620 0.000000 -0.002220 
#    y 0.000000 1.696130 0.000000 
#    z -0.002220 0.000000 1.716820 
# 
# From -- ./inp_files/70826.got.cif
#   From: 2010.06.25/outbox.cif.g09.slc.cpg/sg11_36_cif.got.tgz:70826.got - 2010.06.27 23:14:04.
