data_PCOD8071177
_publ_section_title
;
Structure prediction by ZEFSAII (Michael W. Deem and Ramdas Pophale) SiO2 
 PCOD8071177
Probable space group: P 21/M
;
_chemical_formula_sum "Si O2"
_cell_formula_units_Z 32
_cell_length_a 22.115317
_cell_length_b 9.050412
_cell_length_c 28.053331
_cell_angle_alpha 90.000000
_cell_angle_beta 18.505090
_cell_angle_gamma 90.000000
_cell_volume 1782.123066
_symmetry_space_group_name_H-M "P 21/M"
_symmetry_group_IT_number 11
_symmetry_cell_setting 'monoclinic'
loop_
_space_group_symop_operation_xyz
x,y,z
-x,1/2+y,-z
-x,-y,-z
x,1/2-y,z
loop_
_atom_site_type_symbol
_atom_site_label
_atom_site_fract_x
_atom_site_fract_y
_atom_site_fract_z
Si Si1 0.171902 0.922919 0.998239
Si Si2 0.591098 0.922696 0.003076
Si Si3 0.903299 0.922357 0.528191
Si Si4 0.795059 0.421722 0.295607
Si Si5 0.583168 0.581617 0.372199
Si Si6 0.223698 0.578833 0.218170
Si Si7 0.828292 0.921309 0.101545
Si Si8 0.472996 0.578155 0.853063
O O1 0.142899 0.750000 0.010551
O O2 0.352297 0.956523 0.896372
O O3 0.211281 0.002970 0.919074
O O4 0.985267 0.986372 0.164288
O O5 0.620059 0.750000 0.986312
O O6 0.384375 0.965785 0.136719
O O7 0.617592 0.992469 0.035004
O O8 0.754543 0.984854 0.846090
O O9 0.912849 0.750000 0.531955
O O10 0.687546 0.977537 0.682545
O O11 0.018591 0.959524 0.393769
O O12 0.000000 0.000000 0.500000
O O13 0.847565 0.250000 0.253261
O O14 0.711846 0.471563 0.306916
O O15 0.640513 0.454336 0.452757
O O16 0.625112 0.750000 0.357665
O O17 0.637341 0.561332 0.276338
O O18 0.244321 0.750000 0.189247
O O19 0.880048 0.750000 0.054945
O O20 0.000000 0.000000 0.000000
O O21 0.469263 0.750000 0.868714
#
# Coordination Sequence:
#
# PCOD8071177 Si02
#       8
#     4   4   4   4   4   4   4   4
#     4  11  23  38  54  78 112 150 188 225 272 332
#     4  10  19  32  53  81 108 139 179 224 270 322
#     4  10  19  34  56  82 109 141 183 230 277 327
#     4  10  19  33  55  81 107 141 180 223 272 320
#     4   9  19  34  54  81 111 137 173 224 275 323
#     4   9  18  32  52  80 111 139 173 222 275 324
#     4  11  21  35  57  84 111 143 180 228 278 326
#     4  10  22  38  56  77 109 150 185 225 279 332
#
# _framework density 17.956109999999999
#
# number of rings (size 3 to 8) (size 9 to 14) (size 15 to 20)
#    0.000    2.000    2.500    1.500    0.000    3.000 
#    0.000    1.250    0.000    4.500    0.000    0.000 
#    0.000    0.000    0.000    0.000    0.000    0.000 
#
# Total GULP energy -396858.753217 kJ/mol
# GULP energy per Si atom -12401.836038 kJ/mol
# Density = 1.791524 g / cm^3
# Si number density = 17.956110 Si / 1000 Ang^3
#
#
#
# Elastic Constant Matrix: (Units=GPa)
#
#
# Indices 1 2 3 4 5 6 
#
# 1 111.4623 64.4226 70.5448 0.0000 10.2984 0.0000
# 2 64.4226 91.0418 56.2198 0.0000 3.8847 0.0000
# 3 70.5448 56.2198 132.7934 0.0000 6.7368 0.0000
# 4 0.0000 0.0000 0.0000 25.6763 0.0000 3.5908
# 5 10.2984 3.8847 6.7368 0.0000 27.3211 0.0000
# 6 0.0000 0.0000 0.0000 3.5908 0.0000 30.4226
#
#
#
# Elastic Compliance Matrix: (Units=1/GPa)
#
#
# Indices 1 2 3 4 5 6 
#
# 1 0.018246 -0.009313 -0.005538 0.000000 -0.004188 0.000000
# 2 -0.009313 0.019634 -0.003445 0.000000 0.001568 0.000000
# 3 -0.005538 -0.003445 0.011949 0.000000 -0.000369 0.000000
# 4 0.000000 0.000000 0.000000 0.039600 0.000000 -0.004674
# 5 -0.004188 0.001568 -0.000369 0.000000 0.038048 0.000000
# 6 0.000000 0.000000 0.000000 -0.004674 0.000000 0.033422
#
#
# Mechanical properties :
#
#
# Convention : Reuss Voigt Hill
#
# Bulk Modulus (GPa) = 75.53362 79.74131 77.63746
# Shear Modulus (GPa) = 24.76432 26.29137 25.52784
#
# Velocity S-wave (km/s) = 3.71773 3.83064 3.77461
# Velocity P-wave (km/s) = 7.78368 8.00440 7.89481
#
# Compressibility (1/GPa) = 0.01323914
#
# Stress axis : x y z
#
# Youngs Moduli (GPa) = 54.80632 50.93206 83.68609
#
# Poissons Ratio (x) = 0.47432 0.46344
# Poissons Ratio (y) = 0.51040 0.28826
# Poissons Ratio (z) = 0.30351 0.17544
#
# Static dielectric constant tensor:
#      x y z
#    x 3.143800 0.000000 0.189860 
#    y 0.000000 3.310670 0.000000 
#    z 0.189860 0.000000 3.632600 
# 
# 
# High freq. dielectric constant tensor:
#      x y z
#    x 1.669610 0.000000 0.019110 
#    y 0.000000 1.703550 0.000000 
#    z 0.019110 0.000000 1.702980 
# 
# From -- ./inp_files/72060.got.cif
#   From: 2010.06.25/outbox.cif.g09.slc.cpg/sg11_37_cif.got.tgz:72060.got - 2010.06.27 23:14:04.
