data_PCOD8071804
_publ_section_title
;
Structure prediction by ZEFSAII (Michael W. Deem and Ramdas Pophale) SiO2 
 PCOD8071804
Probable space group: P 21/M
;
_chemical_formula_sum "Si O2"
_cell_formula_units_Z 32
_cell_length_a 12.656263
_cell_length_b 8.846712
_cell_length_c 21.344265
_cell_angle_alpha 90.000000
_cell_angle_beta 52.918192
_cell_angle_gamma 90.000000
_cell_volume 1906.554534
_symmetry_space_group_name_H-M "P 21/M"
_symmetry_group_IT_number 11
_symmetry_cell_setting 'monoclinic'
loop_
_space_group_symop_operation_xyz
x,y,z
-x,1/2+y,-z
-x,-y,-z
x,1/2-y,z
loop_
_atom_site_type_symbol
_atom_site_label
_atom_site_fract_x
_atom_site_fract_y
_atom_site_fract_z
Si Si1 0.721806 0.925077 0.157851
Si Si2 0.112981 0.070547 0.676514
Si Si3 0.604245 0.429139 0.415686
Si Si4 0.119953 0.926865 0.994273
Si Si5 0.801585 0.425601 0.580709
Si Si6 0.997184 0.925432 0.600342
Si Si7 0.499260 0.925891 0.329875
Si Si8 0.047190 0.427168 0.835804
O O1 0.748620 0.750000 0.136557
O O2 0.574923 0.954641 0.237068
O O3 0.827547 0.992425 0.170100
O O4 0.742605 0.005993 0.082567
O O5 0.132911 0.250000 0.668628
O O6 0.048149 0.009670 0.764761
O O7 0.252926 0.990658 0.615884
O O8 0.013614 0.021567 0.657368
O O9 0.500000 0.500000 0.500000
O O10 0.603328 0.250000 0.423159
O O11 0.569048 0.475145 0.357776
O O12 0.119762 0.750000 0.982836
O O13 0.091666 0.964151 0.078215
O O14 0.000000 0.000000 0.000000
O O15 0.811522 0.250000 0.595298
O O16 0.878646 0.460103 0.489056
O O17 0.651172 0.478281 0.625017
O O18 0.861894 0.522903 0.615557
O O19 0.987386 0.750000 0.620793
O O20 0.508639 0.750000 0.346201
O O21 0.069465 0.250000 0.823273
#
# Coordination Sequence:
#
# PCOD8071804 Si02
#       8
#     4   4   4   4   4   4   4   4
#     4   9  16  29  46  68  98 130 160 197 244 289
#     4  11  20  34  53  72  98 132 167 203 247 294
#     4  12  24  35  48  70 100 134 169 200 244 297
#     4   9  16  27  43  65  93 128 165 197 236 286
#     4   9  19  35  54  71  91 127 168 205 248 296
#     4  10  20  34  51  74 100 124 162 212 253 292
#     4  10  19  34  53  72  99 131 167 206 246 295
#     4   8  15  28  45  66  95 129 161 194 237 287
#
# _framework density 16.784203999999999
#
# number of rings (size 3 to 8) (size 9 to 14) (size 15 to 20)
#    0.000    2.250    1.250    3.750    0.000    2.500 
#    0.000    1.875    0.000    0.000    0.000    0.875 
#    0.000    0.000    0.000    0.000    0.000    0.000 
#
# Total GULP energy -396678.989136 kJ/mol
# GULP energy per Si atom -12396.218410 kJ/mol
# Density = 1.674600 g / cm^3
# Si number density = 16.784204 Si / 1000 Ang^3
#
#
#
# Elastic Constant Matrix: (Units=GPa)
#
#
# Indices 1 2 3 4 5 6 
#
# 1 56.1612 20.5788 21.2879 0.0000 6.7459 0.0000
# 2 20.5788 73.0437 33.6168 0.0000 6.6326 0.0000
# 3 21.2879 33.6168 95.8255 0.0000 11.0812 0.0000
# 4 0.0000 0.0000 0.0000 26.8575 0.0000 0.2415
# 5 6.7459 6.6326 11.0812 0.0000 17.3085 0.0000
# 6 0.0000 0.0000 0.0000 0.2415 0.0000 22.9162
#
#
#
# Elastic Compliance Matrix: (Units=1/GPa)
#
#
# Indices 1 2 3 4 5 6 
#
# 1 0.020935 -0.004263 -0.002593 0.000000 -0.004866 0.000000
# 2 -0.004263 0.017321 -0.004918 0.000000 -0.001827 0.000000
# 3 -0.002593 -0.004918 0.013394 0.000000 -0.005680 0.000000
# 4 0.000000 0.000000 0.000000 0.037237 0.000000 -0.000392
# 5 -0.004866 -0.001827 -0.005680 0.000000 0.064008 0.000000
# 6 0.000000 0.000000 0.000000 -0.000392 0.000000 0.043641
#
#
# Mechanical properties :
#
#
# Convention : Reuss Voigt Hill
#
# Bulk Modulus (GPa) = 35.58422 41.77751 38.68087
# Shear Modulus (GPa) = 21.79112 23.38622 22.58867
#
# Velocity S-wave (km/s) = 3.60712 3.73681 3.67253
# Velocity P-wave (km/s) = 6.21252 6.60025 6.40932
#
# Compressibility (1/GPa) = 0.02810234
#
# Stress axis : x y z
#
# Youngs Moduli (GPa) = 47.76648 57.73393 74.66196
#
# Poissons Ratio (x) = 0.24613 0.19357
# Poissons Ratio (y) = 0.20363 0.36719
# Poissons Ratio (z) = 0.12384 0.28394
#
# Static dielectric constant tensor:
#      x y z
#    x 2.878550 0.000000 -0.003990 
#    y 0.000000 3.160540 0.000000 
#    z -0.003990 0.000000 3.622090 
# 
# 
# High freq. dielectric constant tensor:
#      x y z
#    x 1.605320 0.000000 0.000010 
#    y 0.000000 1.644420 0.000000 
#    z 0.000010 0.000000 1.657860 
# 
# From -- ./inp_files/64218.got.cif
#   From: 2010.06.25/outbox.cif.g09.slc.cpg/sg11_33_cif.got.tgz:64218.got - 2010.06.27 23:14:04.
