data_PCOD8071847
_publ_section_title
;
Structure prediction by ZEFSAII (Michael W. Deem and Ramdas Pophale) SiO2 
 PCOD8071847
Probable space group: P 21/M
;
_chemical_formula_sum "Si O2"
_cell_formula_units_Z 32
_cell_length_a 15.219498
_cell_length_b 20.973869
_cell_length_c 11.981677
_cell_angle_alpha 90.000000
_cell_angle_beta 153.361922
_cell_angle_gamma 90.000000
_cell_volume 1714.813095
_symmetry_space_group_name_H-M "P 21/M"
_symmetry_group_IT_number 11
_symmetry_cell_setting 'monoclinic'
loop_
_space_group_symop_operation_xyz
x,y,z
-x,1/2+y,-z
-x,-y,-z
x,1/2-y,z
loop_
_atom_site_type_symbol
_atom_site_label
_atom_site_fract_x
_atom_site_fract_y
_atom_site_fract_z
Si Si1 0.525872 0.995960 0.855473
Si Si2 0.000459 0.324541 0.933719
Si Si3 0.368567 0.631391 0.605966
Si Si4 0.821455 0.101855 0.174049
Si Si5 0.424342 0.176739 0.366966
Si Si6 0.788769 0.323726 0.914599
Si Si7 0.733726 0.575137 0.292835
Si Si8 0.425661 0.674850 0.921670
O O1 0.335203 0.035906 0.677093
O O2 0.442954 0.941563 0.680042
O O3 0.682457 0.043641 0.977278
O O4 0.643848 0.962246 0.087640
O O5 0.979287 0.250000 0.876846
O O6 0.851568 0.364790 0.689389
O O7 0.961390 0.333940 0.020812
O O8 0.213037 0.354575 0.148778
O O9 0.513534 0.671739 0.691779
O O10 0.367148 0.659717 0.728400
O O11 0.730050 0.140733 0.173669
O O12 0.033130 0.076902 0.452865
O O13 0.852376 0.145017 0.101537
O O14 0.403908 0.250000 0.375587
O O15 0.588655 0.146295 0.635198
O O16 0.754822 0.250000 0.901056
O O17 0.642196 0.646622 0.192104
O O18 0.427570 0.750000 0.946844
#
# Coordination Sequence:
#
# PCOD8071847 Si02
#       8
#     4   4   4   4   4   4   4   4
#     4   9  20  36  53  75 104 141 182 219 255 304
#     4   9  18  33  54  77 102 138 178 214 263 323
#     4  10  19  34  54  78 107 136 172 219 264 311
#     4  11  21  35  56  78 105 143 181 215 258 312
#     4   9  18  34  56  78 103 138 174 214 267 316
#     4   9  19  35  53  77 107 135 171 217 260 309
#     4   9  20  37  54  73 105 147 182 210 253 312
#     4  10  21  34  51  82 115 135 164 216 270 319
#
# _framework density 18.660924999999999
#
# number of rings (size 3 to 8) (size 9 to 14) (size 15 to 20)
#    0.000    2.500    0.000    3.375    0.000    6.000 
#    0.000    3.750    0.000    4.500    0.000    0.000 
#    0.000    0.000    0.000    0.000    0.000    0.000 
#
# Total GULP energy -396666.203178 kJ/mol
# GULP energy per Si atom -12395.818849 kJ/mol
# Density = 1.861845 g / cm^3
# Si number density = 18.660925 Si / 1000 Ang^3
#
#
#
# Elastic Constant Matrix: (Units=GPa)
#
#
# Indices 1 2 3 4 5 6 
#
# 1 86.8753 14.7957 51.1266 0.0000 8.6407 0.0000
# 2 14.7957 63.2516 25.7284 0.0000 4.1360 0.0000
# 3 51.1266 25.7284 72.6485 0.0000 18.7199 0.0000
# 4 0.0000 0.0000 0.0000 19.1076 0.0000 -0.4407
# 5 8.6407 4.1360 18.7199 0.0000 33.3994 0.0000
# 6 0.0000 0.0000 0.0000 -0.4407 0.0000 15.7885
#
#
#
# Elastic Compliance Matrix: (Units=1/GPa)
#
#
# Indices 1 2 3 4 5 6 
#
# 1 0.020032 0.001377 -0.015435 0.000000 0.003298 0.000000
# 2 0.001377 0.018640 -0.008046 0.000000 0.001845 0.000000
# 3 -0.015435 -0.008046 0.030612 0.000000 -0.012168 0.000000
# 4 0.000000 0.000000 0.000000 0.052369 0.000000 0.001462
# 5 0.003298 0.001845 -0.012168 0.000000 0.035679 0.000000
# 6 0.000000 0.000000 0.000000 0.001462 0.000000 0.063378
#
#
# Mechanical properties :
#
#
# Convention : Reuss Voigt Hill
#
# Bulk Modulus (GPa) = 39.87831 45.11964 42.49897
# Shear Modulus (GPa) = 18.29655 22.40075 20.34865
#
# Velocity S-wave (km/s) = 3.13465 3.46845 3.30577
# Velocity P-wave (km/s) = 5.87518 6.34597 6.11511
#
# Compressibility (1/GPa) = 0.02507629
#
# Stress axis : x y z
#
# Youngs Moduli (GPa) = 49.92088 53.64853 32.66690
#
# Poissons Ratio (x) = -0.07387 0.50421
# Poissons Ratio (y) = -0.06873 0.26283
# Poissons Ratio (z) = 0.77052 0.43164
#
# Static dielectric constant tensor:
#      x y z
#    x 3.421690 0.000000 0.174280 
#    y 0.000000 3.483070 0.000000 
#    z 0.174280 0.000000 3.441030 
# 
# 
# High freq. dielectric constant tensor:
#      x y z
#    x 1.724930 0.000000 0.010380 
#    y 0.000000 1.713030 0.000000 
#    z 0.010380 0.000000 1.719610 
# 
# From -- ./inp_files/36363.got.cif
#   From: 2010.06.25/outbox.cif.g09.slc.cpg/sg11_19_cif.got.tgz:36363.got - 2010.06.27 23:14:04.
