data_PCOD8071322
_publ_section_title
;
Structure prediction by ZEFSAII (Michael W. Deem and Ramdas Pophale) SiO2 
 PCOD8071322
Probable space group: P 21/M
;
_chemical_formula_sum "Si O2"
_cell_formula_units_Z 32
_cell_length_a 17.108165
_cell_length_b 8.907461
_cell_length_c 25.917653
_cell_angle_alpha 90.000000
_cell_angle_beta 154.119905
_cell_angle_gamma 90.000000
_cell_volume 1723.957605
_symmetry_space_group_name_H-M "P 21/M"
_symmetry_group_IT_number 11
_symmetry_cell_setting 'monoclinic'
loop_
_space_group_symop_operation_xyz
x,y,z
-x,1/2+y,-z
-x,-y,-z
x,1/2-y,z
loop_
_atom_site_type_symbol
_atom_site_label
_atom_site_fract_x
_atom_site_fract_y
_atom_site_fract_z
Si Si1 0.046302 0.925820 0.973417
Si Si2 0.226860 0.926423 0.823506
Si Si3 0.590899 0.072123 0.859585
Si Si4 0.590144 0.578300 0.348593
Si Si5 0.528573 0.072699 0.937660
Si Si6 0.709107 0.080277 0.752788
Si Si7 0.147946 0.919987 0.416725
Si Si8 0.539862 0.078692 0.470651
O O1 0.064611 0.750000 0.992644
O O2 0.220201 0.994038 0.048600
O O3 0.872345 0.968794 0.836626
O O4 0.000000 0.000000 0.000000
O O5 0.232270 0.750000 0.818856
O O6 0.348432 0.999872 0.851910
O O7 0.302352 0.970296 0.925280
O O8 0.025671 0.980665 0.695789
O O9 0.608845 0.250000 0.873780
O O10 0.429623 0.029823 0.723669
O O11 0.556500 0.007372 0.896462
O O12 0.656168 0.750000 0.393252
O O13 0.382466 0.565495 0.244964
O O14 0.732014 0.476423 0.463488
O O15 0.500381 0.250000 0.919911
O O16 0.772056 0.250000 0.779572
O O17 0.550870 0.033202 0.622349
O O18 0.091925 0.750000 0.396966
O O19 0.253831 0.923068 0.425095
O O20 0.466846 0.250000 0.427053
O O21 0.500000 0.000000 0.500000
#
# Coordination Sequence:
#
# PCOD8071322 Si02
#       8
#     4   4   4   4   4   4   4   4
#     4  11  20  32  50  76 108 144 184 224 268 324
#     4  10  20  36  59  85 110 139 178 220 275 335
#     4   9  18  34  55  80 109 143 183 224 274 330
#     4   9  17  33  54  76 106 142 179 220 267 323
#     4   9  19  37  60  82 107 140 176 223 275 325
#     4  10  19  33  51  74 104 143 184 225 271 319
#     4  10  21  36  56  81 107 141 184 225 268 320
#     4  10  21  36  53  77 108 144 182 227 272 319
#
# _framework density 18.561942999999999
#
# number of rings (size 3 to 8) (size 9 to 14) (size 15 to 20)
#    0.000    2.250    1.250    1.875    0.000    3.500 
#    0.000    3.750    0.000    0.000    0.000    0.000 
#    0.000    0.000    0.000    0.000    0.000    0.000 
#
# Total GULP energy -396548.306478 kJ/mol
# GULP energy per Si atom -12392.134577 kJ/mol
# Density = 1.851969 g / cm^3
# Si number density = 18.561943 Si / 1000 Ang^3
#
#
#
# Elastic Constant Matrix: (Units=GPa)
#
#
# Indices 1 2 3 4 5 6 
#
# 1 130.7043 37.3493 51.7945 0.0000 -12.1037 0.0000
# 2 37.3493 50.7115 21.6474 0.0000 -3.0280 0.0000
# 3 51.7945 21.6474 87.5498 0.0000 3.8113 0.0000
# 4 0.0000 0.0000 0.0000 31.6339 0.0000 1.5450
# 5 -12.1037 -3.0280 3.8113 0.0000 21.1803 0.0000
# 6 0.0000 0.0000 0.0000 1.5450 0.0000 25.4703
#
#
#
# Elastic Compliance Matrix: (Units=1/GPa)
#
#
# Indices 1 2 3 4 5 6 
#
# 1 0.012568 -0.006150 -0.006238 0.000000 0.007425 0.000000
# 2 -0.006150 0.025427 -0.002675 0.000000 0.000602 0.000000
# 3 -0.006238 -0.002675 0.016071 0.000000 -0.006839 0.000000
# 4 0.000000 0.000000 0.000000 0.031706 0.000000 -0.001923
# 5 0.007425 0.000602 -0.006839 0.000000 0.052774 0.000000
# 6 0.000000 0.000000 0.000000 -0.001923 0.000000 0.039378
#
#
# Mechanical properties :
#
#
# Convention : Reuss Voigt Hill
#
# Bulk Modulus (GPa) = 41.76983 54.50535 48.13759
# Shear Modulus (GPa) = 23.14512 26.20184 24.67348
#
# Velocity S-wave (km/s) = 3.53500 3.76119 3.64984
# Velocity P-wave (km/s) = 6.26206 6.94909 6.61450
#
# Compressibility (1/GPa) = 0.02394072
#
# Stress axis : x y z
#
# Youngs Moduli (GPa) = 79.56924 39.32876 62.22261
#
# Poissons Ratio (x) = 0.24188 0.38812
# Poissons Ratio (y) = 0.48936 0.16643
# Poissons Ratio (z) = 0.49632 0.10519
#
# Static dielectric constant tensor:
#      x y z
#    x 3.855910 0.000000 0.193840 
#    y 0.000000 3.967440 0.000000 
#    z 0.193840 0.000000 3.721690 
# 
# 
# High freq. dielectric constant tensor:
#      x y z
#    x 1.710340 0.000000 -0.008110 
#    y 0.000000 1.714950 0.000000 
#    z -0.008110 0.000000 1.721360 
# 
# From -- ./inp_files/69160.got.cif
#   From: 2010.06.25/outbox.cif.g09.slc.cpg/sg11_35_cif.got.tgz:69160.got - 2010.06.27 23:14:04.
