data_PCOD8071257
_publ_section_title
;
Structure prediction by ZEFSAII (Michael W. Deem and Ramdas Pophale) SiO2 
 PCOD8071257
Probable space group: P 21/M
;
_chemical_formula_sum "Si O2"
_cell_formula_units_Z 24
_cell_length_a 14.890354
_cell_length_b 8.906151
_cell_length_c 14.744236
_cell_angle_alpha 90.000000
_cell_angle_beta 139.493573
_cell_angle_gamma 90.000000
_cell_volume 1270.044093
_symmetry_space_group_name_H-M "P 21/M"
_symmetry_group_IT_number 11
_symmetry_cell_setting 'monoclinic'
loop_
_space_group_symop_operation_xyz
x,y,z
-x,1/2+y,-z
-x,-y,-z
x,1/2-y,z
loop_
_atom_site_type_symbol
_atom_site_label
_atom_site_fract_x
_atom_site_fract_y
_atom_site_fract_z
Si Si1 0.704676 0.427383 0.323979
Si Si2 0.577772 0.424229 0.862550
Si Si3 0.231704 0.927542 0.828818
Si Si4 0.818567 0.421601 0.917313
Si Si5 0.921465 0.927747 0.621216
Si Si6 0.078202 0.576491 0.195579
O O1 0.717461 0.250000 0.342809
O O2 0.560775 0.481085 0.255800
O O3 0.712782 0.481131 0.225884
O O4 0.830993 0.501788 0.472794
O O5 0.539866 0.250000 0.847790
O O6 0.665152 0.448478 0.837636
O O7 0.664788 0.488754 0.014672
O O8 0.225763 0.750000 0.831384
O O9 0.077381 0.988950 0.727491
O O10 0.866046 0.250000 0.972860
O O11 0.819423 0.455393 0.810509
O O12 0.923303 0.529350 0.050186
O O13 0.910803 0.750000 0.606541
O O14 0.866381 0.981439 0.676869
O O15 0.077647 0.750000 0.222559
#
# Coordination Sequence:
#
# PCOD8071257 Si02
#       6
#     4   4   4   4   4   4
#     4  11  23  37  53  82 116 145 182 234 277 319
#     4  10  19  37  59  81 110 149 185 218 269 336
#     4   9  19  36  59  81 108 144 188 229 270 323
#     4   9  18  34  57  82 112 145 180 221 271 329
#     4  11  21  38  59  80 109 151 187 222 275 334
#     4  10  19  32  55  87 113 138 178 231 276 317
#
# _framework density 18.896982000000001
#
# number of rings (size 3 to 8) (size 9 to 14) (size 15 to 20)
#    0.000    2.000    1.667    2.500    0.000    1.333 
#    0.000    4.167    0.000    0.000    0.000    0.000 
#    0.000    0.000    0.000    0.000    0.000    0.000 
#
# Total GULP energy -297663.817569 kJ/mol
# GULP energy per Si atom -12402.659065 kJ/mol
# Density = 1.885397 g / cm^3
# Si number density = 18.896982 Si / 1000 Ang^3
#
#
#
# Elastic Constant Matrix: (Units=GPa)
#
#
# Indices 1 2 3 4 5 6 
#
# 1 101.4331 29.1612 16.9677 0.0000 1.3771 0.0000
# 2 29.1612 65.2786 19.1309 0.0000 1.6384 0.0000
# 3 16.9677 19.1309 50.0858 0.0000 13.2873 0.0000
# 4 0.0000 0.0000 0.0000 32.4686 0.0000 -2.0902
# 5 1.3771 1.6384 13.2873 0.0000 24.6572 0.0000
# 6 0.0000 0.0000 0.0000 -2.0902 0.0000 24.7392
#
#
#
# Elastic Compliance Matrix: (Units=1/GPa)
#
#
# Indices 1 2 3 4 5 6 
#
# 1 0.011539 -0.004456 -0.002467 0.000000 0.000981 0.000000
# 2 -0.004456 0.019139 -0.006452 0.000000 0.002454 0.000000
# 3 -0.002467 -0.006452 0.026971 0.000000 -0.013968 0.000000
# 4 0.000000 0.000000 0.000000 0.030967 0.000000 0.002616
# 5 0.000981 0.002454 -0.013968 0.000000 0.047865 0.000000
# 6 0.000000 0.000000 0.000000 0.002616 0.000000 0.040643
#
#
# Mechanical properties :
#
#
# Convention : Reuss Voigt Hill
#
# Bulk Modulus (GPa) = 32.36354 38.59079 35.47717
# Shear Modulus (GPa) = 23.34537 26.47552 24.91044
#
# Velocity S-wave (km/s) = 3.51864 3.74711 3.63467
# Velocity P-wave (km/s) = 5.80270 6.25996 6.03566
#
# Compressibility (1/GPa) = 0.03089897
#
# Stress axis : x y z
#
# Youngs Moduli (GPa) = 86.66040 52.24974 37.07628
#
# Poissons Ratio (x) = 0.23284 0.09148
# Poissons Ratio (y) = 0.38619 0.23920
# Poissons Ratio (z) = 0.21382 0.33709
#
# Static dielectric constant tensor:
#      x y z
#    x 3.686540 0.000000 -0.152720 
#    y 0.000000 3.339550 0.000000 
#    z -0.152720 0.000000 3.346680 
# 
# 
# High freq. dielectric constant tensor:
#      x y z
#    x 1.746480 0.000000 -0.009880 
#    y 0.000000 1.724070 0.000000 
#    z -0.009880 0.000000 1.718950 
# 
# From -- ./inp_files/25748.got.cif
#   From: 2010.06.25/outbox.cif.g09.slc.cpg/sg11_13_cif.got.tgz:25748.got - 2010.06.27 23:14:04.
