data_PCOD8071033
_publ_section_title
;
Structure prediction by ZEFSAII (Michael W. Deem and Ramdas Pophale) SiO2 
 PCOD8071033
Probable space group: P 21/M
;
_chemical_formula_sum "Si O2"
_cell_formula_units_Z 28
_cell_length_a 31.629733
_cell_length_b 9.682877
_cell_length_c 9.718155
_cell_angle_alpha 90.000000
_cell_angle_beta 32.855902
_cell_angle_gamma 90.000000
_cell_volume 1614.752541
_symmetry_space_group_name_H-M "P 21/M"
_symmetry_group_IT_number 11
_symmetry_cell_setting 'monoclinic'
loop_
_space_group_symop_operation_xyz
x,y,z
-x,1/2+y,-z
-x,-y,-z
x,1/2-y,z
loop_
_atom_site_type_symbol
_atom_site_label
_atom_site_fract_x
_atom_site_fract_y
_atom_site_fract_z
Si Si1 0.999418 0.587979 0.642010
Si Si2 0.540088 0.907570 0.000016
Si Si3 0.873100 0.589536 0.211832
Si Si4 0.300323 0.593386 0.051559
Si Si5 0.125172 0.588986 0.523896
Si Si6 0.696683 0.591766 0.701280
Si Si7 0.540782 0.093222 0.498574
O O1 0.000689 0.750000 0.599537
O O2 0.000000 0.500000 0.500000
O O3 0.073210 0.547128 0.534950
O O4 0.923633 0.550016 0.940171
O O5 0.526608 0.750000 0.995525
O O6 0.494309 0.948313 0.261332
O O7 0.632770 0.939751 0.758284
O O8 0.500000 0.000000 0.000000
O O9 0.885992 0.750000 0.216176
O O10 0.897356 0.499158 0.278703
O O11 0.783943 0.558661 0.411053
O O12 0.300285 0.750000 0.106257
O O13 0.213778 0.555482 0.235241
O O14 0.326004 0.498567 0.106673
O O15 0.364972 0.571601 0.756041
O O16 0.112242 0.750000 0.596217
O O17 0.689271 0.750000 0.769042
O O18 0.520216 0.250000 0.516815
O O19 0.500000 0.000000 0.500000
#
# Coordination Sequence:
#
# PCOD8071033 Si02
#       7
#     4   4   4   4   4   4   4
#     4  10  21  36  52  74 105 136 165 201 246 295
#     4  10  21  35  49  70 101 135 169 205 246 293
#     4   9  18  33  55  78  99 128 166 207 248 292
#     4   9  17  30  51  77 101 125 160 207 251 291
#     4   9  18  33  53  77 103 129 163 205 247 293
#     4   9  17  32  52  73 100 129 163 206 248 291
#     4  10  19  32  52  75  99 129 166 206 248 293
#
# _framework density 17.340119000000001
#
# number of rings (size 3 to 8) (size 9 to 14) (size 15 to 20)
#    0.000    2.571    1.429    0.429    0.000    2.286 
#    2.571    0.000    0.000    0.000    0.000    0.000 
#    0.000    0.000    0.000    0.000    0.000    0.000 
#
# Total GULP energy -347058.183968 kJ/mol
# GULP energy per Si atom -12394.935142 kJ/mol
# Density = 1.730065 g / cm^3
# Si number density = 17.340119 Si / 1000 Ang^3
#
#
#
# Elastic Constant Matrix: (Units=GPa)
#
#
# Indices 1 2 3 4 5 6 
#
# 1 142.1151 70.6957 75.2947 0.0000 -0.4908 0.0000
# 2 70.6957 68.0870 50.8116 0.0000 8.6926 0.0000
# 3 75.2947 50.8116 119.6421 0.0000 -5.1629 0.0000
# 4 0.0000 0.0000 0.0000 24.6158 0.0000 4.9916
# 5 -0.4908 8.6926 -5.1629 0.0000 20.6572 0.0000
# 6 0.0000 0.0000 0.0000 4.9916 0.0000 34.1021
#
#
#
# Elastic Compliance Matrix: (Units=1/GPa)
#
#
# Indices 1 2 3 4 5 6 
#
# 1 0.016591 -0.015181 -0.003742 0.000000 0.005847 0.000000
# 2 -0.015181 0.038455 -0.007574 0.000000 -0.018436 0.000000
# 3 -0.003742 -0.007574 0.014216 0.000000 0.006651 0.000000
# 4 0.000000 0.000000 0.000000 0.041867 0.000000 -0.006128
# 5 0.005847 -0.018436 0.006651 0.000000 0.057968 0.000000
# 6 0.000000 0.000000 0.000000 -0.006128 0.000000 0.030221
#
#
# Mechanical properties :
#
#
# Convention : Reuss Voigt Hill
#
# Bulk Modulus (GPa) = 61.46077 80.38315 70.92196
# Shear Modulus (GPa) = 19.39988 24.74451 22.07220
#
# Velocity S-wave (km/s) = 3.34845 3.78168 3.57164
# Velocity P-wave (km/s) = 7.10428 8.09478 7.61565
#
# Compressibility (1/GPa) = 0.01627054
#
# Stress axis : x y z
#
# Youngs Moduli (GPa) = 60.27442 26.00443 70.34090
#
# Poissons Ratio (x) = 0.39476 0.26319
# Poissons Ratio (y) = 0.91501 0.53273
# Poissons Ratio (z) = 0.22552 0.19695
#
# Static dielectric constant tensor:
#      x y z
#    x 3.111820 0.000000 -0.392920 
#    y 0.000000 3.283890 0.000000 
#    z -0.392920 0.000000 3.347440 
# 
# 
# High freq. dielectric constant tensor:
#      x y z
#    x 1.653590 0.000000 -0.025420 
#    y 0.000000 1.671980 0.000000 
#    z -0.025420 0.000000 1.677770 
# 
# From -- ./inp_files/26362.got.cif
#   From: 2010.06.25/outbox.cif.g09.slc.cpg/sg11_14_cif.got.tgz:26362.got - 2010.06.27 23:14:04.
