data_PCOD8071662
_publ_section_title
;
Structure prediction by ZEFSAII (Michael W. Deem and Ramdas Pophale) SiO2 
 PCOD8071662
Probable space group: P 21/M
;
_chemical_formula_sum "Si O2"
_cell_formula_units_Z 32
_cell_length_a 11.133306
_cell_length_b 8.952909
_cell_length_c 30.302868
_cell_angle_alpha 90.000000
_cell_angle_beta 146.183742
_cell_angle_gamma 90.000000
_cell_volume 1680.976781
_symmetry_space_group_name_H-M "P 21/M"
_symmetry_group_IT_number 11
_symmetry_cell_setting 'monoclinic'
loop_
_space_group_symop_operation_xyz
x,y,z
-x,1/2+y,-z
-x,-y,-z
x,1/2-y,z
loop_
_atom_site_type_symbol
_atom_site_label
_atom_site_fract_x
_atom_site_fract_y
_atom_site_fract_z
Si Si1 0.006426 0.077029 0.106682
Si Si2 0.175617 0.077705 0.802329
Si Si3 0.391020 0.076221 0.052351
Si Si4 0.356548 0.079011 0.142670
Si Si5 0.663431 0.075880 0.406317
Si Si6 0.213345 0.925017 0.253148
Si Si7 0.786687 0.576031 0.287185
Si Si8 0.006273 0.923951 0.569466
O O1 0.981405 0.250000 0.110541
O O2 0.133886 0.050706 0.099981
O O3 0.140156 0.999615 0.185742
O O4 0.769881 0.006231 0.030195
O O5 0.241182 0.250000 0.827814
O O6 0.141558 0.037896 0.740673
O O7 0.956337 0.037840 0.760235
O O8 0.366892 0.980821 0.882126
O O9 0.380857 0.250000 0.038500
O O10 0.318478 0.038618 0.080044
O O11 0.434860 0.250000 0.171729
O O12 0.540056 0.974139 0.219491
O O13 0.621711 0.250000 0.401120
O O14 0.786905 0.045496 0.398207
O O15 0.439160 0.990665 0.337332
O O16 0.800520 0.012928 0.488832
O O17 0.237323 0.750000 0.252441
O O18 0.806172 0.750000 0.304407
O O19 0.944464 0.483686 0.366829
O O20 0.948039 0.750000 0.553418
#
# Coordination Sequence:
#
# PCOD8071662 Si02
#       8
#     4   4   4   4   4   4   4   4
#     4  11  22  35  53  78 109 142 176 218 269 322
#     4   9  21  40  57  75 104 142 181 223 267 311
#     4  10  20  35  56  80 105 137 179 223 267 316
#     4   9  19  34  52  78 111 142 173 215 267 321
#     4  10  21  37  57  83 114 143 173 213 261 312
#     4  11  23  39  57  77 105 141 182 223 264 313
#     4  10  19  33  56  82 107 139 179 220 264 314
#     4  10  20  35  57  85 115 143 172 210 259 315
#
# _framework density 19.036549999999998
#
# number of rings (size 3 to 8) (size 9 to 14) (size 15 to 20)
#    0.000    2.000    0.000    3.375    0.000    8.000 
#    0.000    0.625    0.000    0.000    0.000    0.000 
#    0.000    0.000    0.000    0.000    0.000    0.000 
#
# Total GULP energy -396975.331396 kJ/mol
# GULP energy per Si atom -12405.479106 kJ/mol
# Density = 1.899322 g / cm^3
# Si number density = 19.036550 Si / 1000 Ang^3
#
#
#
# Elastic Constant Matrix: (Units=GPa)
#
#
# Indices 1 2 3 4 5 6 
#
# 1 58.9879 36.8778 32.9264 0.0000 19.0344 0.0000
# 2 36.8778 92.3800 42.2296 0.0000 14.7746 0.0000
# 3 32.9264 42.2296 88.6458 0.0000 18.1820 0.0000
# 4 0.0000 0.0000 0.0000 43.5669 0.0000 0.9103
# 5 19.0344 14.7746 18.1820 0.0000 18.7523 0.0000
# 6 0.0000 0.0000 0.0000 0.9103 0.0000 26.1897
#
#
#
# Elastic Compliance Matrix: (Units=1/GPa)
#
#
# Indices 1 2 3 4 5 6 
#
# 1 0.030340 -0.007042 -0.003415 0.000000 -0.021937 0.000000
# 2 -0.007042 0.015966 -0.004839 0.000000 -0.000740 0.000000
# 3 -0.003415 -0.004839 0.016678 0.000000 -0.008892 0.000000
# 4 0.000000 0.000000 0.000000 0.022970 0.000000 -0.000798
# 5 -0.021937 -0.000740 -0.008892 0.000000 0.084798 0.000000
# 6 0.000000 0.000000 0.000000 -0.000798 0.000000 0.038211
#
#
# Mechanical properties :
#
#
# Convention : Reuss Voigt Hill
#
# Bulk Modulus (GPa) = 30.87105 51.56457 41.21781
# Shear Modulus (GPa) = 19.97178 26.23379 23.10278
#
# Velocity S-wave (km/s) = 3.24254 3.71627 3.48746
# Velocity P-wave (km/s) = 5.50188 6.74983 6.15755
#
# Compressibility (1/GPa) = 0.03239281
#
# Stress axis : x y z
#
# Youngs Moduli (GPa) = 32.95957 62.63219 59.95803
#
# Poissons Ratio (x) = 0.44106 0.20478
# Poissons Ratio (y) = 0.23210 0.29011
# Poissons Ratio (z) = 0.11257 0.30305
#
# Static dielectric constant tensor:
#      x y z
#    x 3.450040 0.000000 -0.057450 
#    y 0.000000 3.581610 0.000000 
#    z -0.057450 0.000000 3.455390 
# 
# 
# High freq. dielectric constant tensor:
#      x y z
#    x 1.727940 0.000000 -0.002650 
#    y 0.000000 1.753170 0.000000 
#    z -0.002650 0.000000 1.744260 
# 
# From -- ./inp_files/73134.got.cif
#   From: 2010.06.25/outbox.cif.g09.slc.cpg/sg11_37_cif.got.tgz:73134.got - 2010.06.27 23:14:04.
