data_PCOD8071522
_publ_section_title
;
Structure prediction by ZEFSAII (Michael W. Deem and Ramdas Pophale) SiO2 
 PCOD8071522
Probable space group: P 21/M
;
_chemical_formula_sum "Si O2"
_cell_formula_units_Z 32
_cell_length_a 26.945035
_cell_length_b 9.131530
_cell_length_c 21.532065
_cell_angle_alpha 90.000000
_cell_angle_beta 20.256063
_cell_angle_gamma 90.000000
_cell_volume 1834.237372
_symmetry_space_group_name_H-M "P 21/M"
_symmetry_group_IT_number 11
_symmetry_cell_setting 'monoclinic'
loop_
_space_group_symop_operation_xyz
x,y,z
-x,1/2+y,-z
-x,-y,-z
x,1/2-y,z
loop_
_atom_site_type_symbol
_atom_site_label
_atom_site_fract_x
_atom_site_fract_y
_atom_site_fract_z
Si Si1 0.851525 0.422221 0.685102
Si Si2 0.664863 0.419259 0.655800
Si Si3 0.855809 0.577551 0.189959
Si Si4 0.428404 0.920165 0.526336
Si Si5 0.353979 0.921228 0.184946
Si Si6 0.480170 0.414640 0.712291
Si Si7 0.657946 0.916404 0.004933
Si Si8 0.741990 0.583591 0.453087
O O1 0.874416 0.250000 0.664065
O O2 0.758869 0.466991 0.734329
O O3 0.000000 0.500000 0.500000
O O4 0.776212 0.478090 0.836437
O O5 0.692847 0.250000 0.614295
O O6 0.704289 0.470706 0.679078
O O7 0.499358 0.459497 0.835859
O O8 0.773354 0.495964 0.479791
O O9 0.852749 0.750000 0.175769
O O10 0.720966 0.497831 0.316020
O O11 0.856974 0.557508 0.263458
O O12 0.000000 0.500000 0.000000
O O13 0.398156 0.750000 0.577853
O O14 0.543429 0.932196 0.334061
O O15 0.500000 0.000000 0.500000
O O16 0.386378 0.750000 0.146763
O O17 0.500000 0.000000 0.000000
O O18 0.542084 0.250000 0.652762
O O19 0.340729 0.434987 0.920750
O O20 0.590878 0.537179 0.602304
O O21 0.695893 0.750000 0.941585
O O22 0.733245 0.750000 0.483621
#
# Coordination Sequence:
#
# PCOD8071522 Si02
#       8
#     4   4   4   4   4   4   4   4
#     4  11  23  36  52  74 102 136 172 208 253 305
#     4   9  17  30  50  75 103 131 163 206 257 305
#     4  10  20  34  53  78 107 140 178 216 261 313
#     4  10  19  33  54  80 109 140 175 216 261 308
#     4  10  20  34  53  78 103 130 168 210 254 302
#     4   8  16  30  49  73 102 135 169 206 253 305
#     4   9  16  30  52  75 100 130 165 208 252 300
#     4   9  17  28  46  75 105 131 166 212 255 297
#
# _framework density 17.445944000000001
#
# number of rings (size 3 to 8) (size 9 to 14) (size 15 to 20)
#    0.000    2.500    1.250    2.250    0.000    5.000 
#    0.000    0.000    2.750    0.000    0.000    0.000 
#    0.000    0.000    0.000    0.000    0.000    0.000 
#
# Total GULP energy -396533.377240 kJ/mol
# GULP energy per Si atom -12391.668039 kJ/mol
# Density = 1.740624 g / cm^3
# Si number density = 17.445944 Si / 1000 Ang^3
#
#
#
# Elastic Constant Matrix: (Units=GPa)
#
#
# Indices 1 2 3 4 5 6 
#
# 1 118.4819 55.7162 65.1425 0.0000 23.9731 0.0000
# 2 55.7162 92.5069 67.6095 0.0000 11.5161 0.0000
# 3 65.1425 67.6095 108.1638 0.0000 20.1855 0.0000
# 4 0.0000 0.0000 0.0000 29.7592 0.0000 5.1473
# 5 23.9731 11.5161 20.1855 0.0000 28.3411 0.0000
# 6 0.0000 0.0000 0.0000 5.1473 0.0000 28.3417
#
#
#
# Elastic Compliance Matrix: (Units=1/GPa)
#
#
# Indices 1 2 3 4 5 6 
#
# 1 0.014542 -0.004498 -0.004604 0.000000 -0.007194 0.000000
# 2 -0.004498 0.021313 -0.011195 0.000000 0.003118 0.000000
# 3 -0.004604 -0.011195 0.020113 0.000000 -0.005882 0.000000
# 4 0.000000 0.000000 0.000000 0.034693 0.000000 -0.006301
# 5 -0.007194 0.003118 -0.005882 0.000000 0.044292 0.000000
# 6 0.000000 0.000000 0.000000 -0.006301 0.000000 0.036428
#
#
# Mechanical properties :
#
#
# Convention : Reuss Voigt Hill
#
# Bulk Modulus (GPa) = 65.04294 77.34322 71.19308
# Shear Modulus (GPa) = 23.03083 26.00070 24.51576
#
# Velocity S-wave (km/s) = 3.63729 3.86470 3.75272
# Velocity P-wave (km/s) = 7.41643 8.02146 7.72487
#
# Compressibility (1/GPa) = 0.01537446
#
# Stress axis : x y z
#
# Youngs Moduli (GPa) = 68.76467 46.91988 49.71879
#
# Poissons Ratio (x) = 0.21106 0.22890
# Poissons Ratio (y) = 0.30933 0.55659
# Poissons Ratio (z) = 0.31659 0.52525
#
# Static dielectric constant tensor:
#      x y z
#    x 3.376800 0.000000 0.448890 
#    y 0.000000 3.353880 0.000000 
#    z 0.448890 0.000000 3.172190 
# 
# 
# High freq. dielectric constant tensor:
#      x y z
#    x 1.665750 0.000000 0.039150 
#    y 0.000000 1.684400 0.000000 
#    z 0.039150 0.000000 1.650630 
# 
# From -- ./inp_files/67107.got.cif
#   From: 2010.06.25/outbox.cif.g09.slc.cpg/sg11_34_cif.got.tgz:67107.got - 2010.06.27 23:14:04.
