data_PCOD8071283
_publ_section_title
;
Structure prediction by ZEFSAII (Michael W. Deem and Ramdas Pophale) SiO2 
 PCOD8071283
Probable space group: P 21/M
;
_chemical_formula_sum "Si O2"
_cell_formula_units_Z 24
_cell_length_a 14.070362
_cell_length_b 14.060654
_cell_length_c 9.652154
_cell_angle_alpha 90.000000
_cell_angle_beta 40.763584
_cell_angle_gamma 90.000000
_cell_volume 1246.831805
_symmetry_space_group_name_H-M "P 21/M"
_symmetry_group_IT_number 11
_symmetry_cell_setting 'monoclinic'
loop_
_space_group_symop_operation_xyz
x,y,z
-x,1/2+y,-z
-x,-y,-z
x,1/2-y,z
loop_
_atom_site_type_symbol
_atom_site_label
_atom_site_fract_x
_atom_site_fract_y
_atom_site_fract_z
Si Si1 0.837160 0.859553 0.333588
Si Si2 0.664735 0.530579 0.304036
Si Si3 0.848603 0.355150 0.127807
Si Si4 0.849493 0.530304 0.598474
Si Si5 0.213522 0.359586 0.077407
Si Si6 0.872539 0.354136 0.418553
O O1 0.786829 0.750000 0.392259
O O2 0.714840 0.923543 0.394483
O O3 0.869796 0.893686 0.453105
O O4 0.981651 0.873433 0.083622
O O5 0.500000 0.500000 0.500000
O O6 0.755367 0.437039 0.157826
O O7 0.684027 0.607410 0.161080
O O8 0.805795 0.250000 0.117580
O O9 0.813529 0.360557 0.328817
O O10 0.748316 0.578190 0.827492
O O11 0.785095 0.431955 0.606519
O O12 0.000000 0.500000 0.500000
O O13 0.249208 0.250000 0.069225
O O14 0.045078 0.374028 0.223862
O O15 0.841234 0.250000 0.517029
#
# Coordination Sequence:
#
# PCOD8071283 Si02
#       6
#     4   4   4   4   4   4
#     4  11  21  37  63  89 117 156 204 250 297 357
#     4  12  24  38  58  86 117 160 200 251 297 356
#     4  10  19  34  59  87 114 149 197 249 296 345
#     4  10  19  32  57  91 121 149 190 249 297 357
#     4  10  20  36  56  83 118 154 190 235 300 359
#     4   9  16  30  56  86 116 150 187 237 293 344
#
# _framework density 19.248788999999999
#
# number of rings (size 3 to 8) (size 9 to 14) (size 15 to 20)
#    0.000    1.667    3.333    3.500    0.000    2.000 
#    0.000    1.667    0.000    0.000    0.000    0.000 
#    0.000    0.000    0.000    0.000    0.000    0.000 
#
# Total GULP energy -297524.945940 kJ/mol
# GULP energy per Si atom -12396.872748 kJ/mol
# Density = 1.920498 g / cm^3
# Si number density = 19.248789 Si / 1000 Ang^3
#
#
#
# Elastic Constant Matrix: (Units=GPa)
#
#
# Indices 1 2 3 4 5 6 
#
# 1 62.3210 39.7804 35.3999 0.0000 6.8331 0.0000
# 2 39.7804 139.7241 46.5165 0.0000 -0.8933 0.0000
# 3 35.3999 46.5165 62.9819 0.0000 14.3659 0.0000
# 4 0.0000 0.0000 0.0000 34.8361 0.0000 10.6364
# 5 6.8331 -0.8933 14.3659 0.0000 30.3067 0.0000
# 6 0.0000 0.0000 0.0000 10.6364 0.0000 24.6917
#
#
#
# Elastic Compliance Matrix: (Units=1/GPa)
#
#
# Indices 1 2 3 4 5 6 
#
# 1 0.024596 -0.003209 -0.011401 0.000000 -0.000236 0.000000
# 2 -0.003209 0.010372 -0.006830 0.000000 0.004267 0.000000
# 3 -0.011401 -0.006830 0.030037 0.000000 -0.011869 0.000000
# 4 0.000000 0.000000 0.000000 0.033053 0.000000 -0.014238
# 5 -0.000236 0.004267 -0.011869 0.000000 0.038801 0.000000
# 6 0.000000 0.000000 0.000000 -0.014238 0.000000 0.046633
#
#
# Mechanical properties :
#
#
# Convention : Reuss Voigt Hill
#
# Bulk Modulus (GPa) = 45.19586 56.49119 50.84353
# Shear Modulus (GPa) = 21.39077 27.52225 24.45651
#
# Velocity S-wave (km/s) = 3.33720 3.78539 3.56834
# Velocity P-wave (km/s) = 6.19516 6.96543 6.59156
#
# Compressibility (1/GPa) = 0.02212592
#
# Stress axis : x y z
#
# Youngs Moduli (GPa) = 40.65716 96.41804 33.29203
#
# Poissons Ratio (x) = 0.30936 0.37956
# Poissons Ratio (y) = 0.13045 0.22738
# Poissons Ratio (z) = 0.46353 0.65852
#
# Static dielectric constant tensor:
#      x y z
#    x 3.343650 0.000000 0.402230 
#    y 0.000000 4.136810 0.000000 
#    z 0.402230 0.000000 3.295900 
# 
# 
# High freq. dielectric constant tensor:
#      x y z
#    x 1.719700 0.000000 0.034130 
#    y 0.000000 1.779620 0.000000 
#    z 0.034130 0.000000 1.711370 
# 
# From -- ./inp_files/22004.got.cif
#   From: 2010.06.25/outbox.cif.g09.slc.cpg/sg11_12_cif.got.tgz:22004.got - 2010.06.27 23:14:04.
