data_PCOD8071504
_publ_section_title
;
Structure prediction by ZEFSAII (Michael W. Deem and Ramdas Pophale) SiO2 
 PCOD8071504
Probable space group: P 21/M
;
_chemical_formula_sum "Si O2"
_cell_formula_units_Z 32
_cell_length_a 14.417528
_cell_length_b 24.418872
_cell_length_c 9.094548
_cell_angle_alpha 90.000000
_cell_angle_beta 146.361299
_cell_angle_gamma 90.000000
_cell_volume 1773.663570
_symmetry_space_group_name_H-M "P 21/M"
_symmetry_group_IT_number 11
_symmetry_cell_setting 'monoclinic'
loop_
_space_group_symop_operation_xyz
x,y,z
-x,1/2+y,-z
-x,-y,-z
x,1/2-y,z
loop_
_atom_site_type_symbol
_atom_site_label
_atom_site_fract_x
_atom_site_fract_y
_atom_site_fract_z
Si Si1 0.986865 0.101328 0.165606
Si Si2 0.957262 0.989543 0.279544
Si Si3 0.857257 0.184281 0.228420
Si Si4 0.217633 0.135295 0.216522
Si Si5 0.673729 0.115443 0.552614
Si Si6 0.603814 0.957309 0.727451
Si Si7 0.452004 0.811266 0.363385
Si Si8 0.914544 0.370047 0.619071
O O1 0.143770 0.118453 0.275084
O O2 0.025537 0.041491 0.280488
O O3 0.973122 0.149377 0.269711
O O4 0.824637 0.092189 0.850303
O O5 0.000000 0.000000 0.500000
O O6 0.048695 0.934729 0.345706
O O7 0.755753 0.985784 0.012575
O O8 0.895724 0.250000 0.272332
O O9 0.889646 0.161856 0.434568
O O10 0.667391 0.169122 0.929018
O O11 0.321532 0.084900 0.290477
O O12 0.353585 0.182804 0.424082
O O13 0.072893 0.156346 0.914002
O O14 0.527467 0.070592 0.331962
O O15 0.586834 0.163107 0.529886
O O16 0.744955 0.136797 0.490818
O O17 0.500000 0.000000 0.500000
O O18 0.403966 0.750000 0.329478
#
# Coordination Sequence:
#
# PCOD8071504 Si02
#       8
#     4   4   4   4   4   4   4   4
#     4  10  19  36  57  81 110 145 182 219 272 324
#     4  11  21  34  54  80 118 146 176 224 269 327
#     4  10  21  38  57  77 107 143 180 225 275 324
#     4   9  21  34  56  83 107 138 183 226 262 323
#     4   9  19  35  57  81 107 144 186 221 262 331
#     4  10  19  33  54  78 109 146 179 213 267 314
#     4   9  19  38  58  77 106 143 182 226 271 320
#     4  10  21  36  55  84 112 141 182 224 275 321
#
# _framework density 18.041751999999999
#
# number of rings (size 3 to 8) (size 9 to 14) (size 15 to 20)
#    0.000    2.250    2.500    0.000    1.750    3.000 
#    2.250    3.125    0.000    0.000    0.000    0.000 
#    0.000    0.000    0.000    0.000    0.000    0.000 
#
# Total GULP energy -396576.397896 kJ/mol
# GULP energy per Si atom -12393.012434 kJ/mol
# Density = 1.800069 g / cm^3
# Si number density = 18.041752 Si / 1000 Ang^3
#
#
#
# Elastic Constant Matrix: (Units=GPa)
#
#
# Indices 1 2 3 4 5 6 
#
# 1 118.4379 28.9479 55.4334 0.0000 8.3508 0.0000
# 2 28.9479 71.2793 32.0526 0.0000 0.1906 0.0000
# 3 55.4334 32.0526 91.7104 0.0000 1.2226 0.0000
# 4 0.0000 0.0000 0.0000 28.8317 0.0000 -0.7119
# 5 8.3508 0.1906 1.2226 0.0000 30.8511 0.0000
# 6 0.0000 0.0000 0.0000 -0.7119 0.0000 13.7815
#
#
#
# Elastic Compliance Matrix: (Units=1/GPa)
#
#
# Indices 1 2 3 4 5 6 
#
# 1 0.012269 -0.001967 -0.006688 0.000000 -0.003044 0.000000
# 2 -0.001967 0.016961 -0.004747 0.000000 0.000616 0.000000
# 3 -0.006688 -0.004747 0.016589 0.000000 0.001182 0.000000
# 4 0.000000 0.000000 0.000000 0.034728 0.000000 0.001794
# 5 -0.003044 0.000616 0.001182 0.000000 0.033187 0.000000
# 6 0.000000 0.000000 0.000000 0.001794 0.000000 0.072654
#
#
# Mechanical properties :
#
#
# Convention : Reuss Voigt Hill
#
# Bulk Modulus (GPa) = 52.58812 57.14394 54.86603
# Shear Modulus (GPa) = 22.77586 25.69244 24.23415
#
# Velocity S-wave (km/s) = 3.55688 3.77776 3.66898
# Velocity P-wave (km/s) = 6.78821 7.12534 6.95882
#
# Compressibility (1/GPa) = 0.01901570
#
# Stress axis : x y z
#
# Youngs Moduli (GPa) = 81.50827 58.95796 60.27915
#
# Poissons Ratio (x) = 0.11598 0.40312
# Poissons Ratio (y) = 0.16034 0.28615
# Poissons Ratio (z) = 0.54509 0.27988
#
# Static dielectric constant tensor:
#      x y z
#    x 3.494050 0.000000 0.290030 
#    y 0.000000 3.355490 0.000000 
#    z 0.290030 0.000000 3.646480 
# 
# 
# High freq. dielectric constant tensor:
#      x y z
#    x 1.694940 0.000000 0.006870 
#    y 0.000000 1.698450 0.000000 
#    z 0.006870 0.000000 1.697740 
# 
# From -- ./inp_files/15080.got.cif
#   From: 2010.06.25/outbox.cif.g09.slc.cpg/sg11_8_cif.got.tgz:15080.got - 2010.06.27 23:14:04.
