data_PCOD8071935
_publ_section_title
;
Structure prediction by ZEFSAII (Michael W. Deem and Ramdas Pophale) SiO2 
 PCOD8071935
Probable space group: P 21/M
;
_chemical_formula_sum "Si O2"
_cell_formula_units_Z 20
_cell_length_a 22.595153
_cell_length_b 8.752780
_cell_length_c 5.204725
_cell_angle_alpha 90.000000
_cell_angle_beta 96.613650
_cell_angle_gamma 90.000000
_cell_volume 1022.490666
_symmetry_space_group_name_H-M "P 21/M"
_symmetry_group_IT_number 11
_symmetry_cell_setting 'monoclinic'
loop_
_space_group_symop_operation_xyz
x,y,z
-x,1/2+y,-z
-x,-y,-z
x,1/2-y,z
loop_
_atom_site_type_symbol
_atom_site_label
_atom_site_fract_x
_atom_site_fract_y
_atom_site_fract_z
Si Si1 0.363929 0.069381 0.931971
Si Si2 0.833435 0.068639 0.666717
Si Si3 0.564825 0.930092 0.532407
Si Si4 0.030473 0.932084 0.265237
Si Si5 0.234089 0.931634 0.867045
O O1 0.354327 0.250000 0.927169
O O2 0.399865 0.013327 0.700518
O O3 0.300877 0.989029 0.900437
O O4 0.399863 0.013326 0.199366
O O5 0.831352 0.250000 0.665678
O O6 0.901283 0.012449 0.700641
O O7 0.800071 0.003558 0.399320
O O8 0.800071 0.003557 0.900751
O O9 0.557851 0.750000 0.528921
O O10 0.500000 0.000000 0.500000
O O11 0.025066 0.750000 0.262534
O O12 0.000000 0.000000 0.500000
O O13 0.000000 0.000000 0.000000
O O14 0.234101 0.750000 0.867054
#
# Coordination Sequence:
#
# PCOD8071935 Si02
#       5
#     4   4   4   4   4
#     4  10  21  36  52  76 108 137 164 211 271 313
#     4   9  19  35  55  78 108 143 180 225 275 321
#     4  10  21  36  54  75 103 136 171 209 257 311
#     4  11  22  39  61  86 118 155 194 241 293 346
#     4  10  19  34  56  79 101 137 184 220 258 321
#
# _framework density 19.560079000000002
#
# number of rings (size 3 to 8) (size 9 to 14) (size 15 to 20)
#    0.000    2.000    0.000    3.600    0.000    4.800 
#    0.000    6.000    0.000    0.000    0.000    0.000 
#    0.000    0.000    0.000    0.000    0.000    0.000 
#
# Total GULP energy -248063.155762 kJ/mol
# GULP energy per Si atom -12403.157788 kJ/mol
# Density = 1.951556 g / cm^3
# Si number density = 19.560079 Si / 1000 Ang^3
#
#
#
# Elastic Constant Matrix: (Units=GPa)
#
#
# Indices 1 2 3 4 5 6 
#
# 1 213.9285 39.2442 124.0904 0.0000 -0.8128 0.0000
# 2 39.2442 33.9215 35.7009 0.0000 0.6336 0.0000
# 3 124.0904 35.7009 230.0707 0.0000 -2.0655 0.0000
# 4 0.0000 0.0000 0.0000 15.3264 0.0000 3.7290
# 5 -0.8128 0.6336 -2.0655 0.0000 47.4270 0.0000
# 6 0.0000 0.0000 0.0000 3.7290 0.0000 36.1890
#
#
#
# Elastic Compliance Matrix: (Units=1/GPa)
#
#
# Indices 1 2 3 4 5 6 
#
# 1 0.007523 -0.005301 -0.003235 0.000000 0.000059 0.000000
# 2 -0.005301 0.038992 -0.003198 0.000000 -0.000751 0.000000
# 3 -0.003235 -0.003198 0.006590 0.000000 0.000274 0.000000
# 4 0.000000 0.000000 0.000000 0.066925 0.000000 -0.006896
# 5 0.000059 -0.000751 0.000274 0.000000 0.021108 0.000000
# 6 0.000000 0.000000 0.000000 -0.006896 0.000000 0.028343
#
#
# Mechanical properties :
#
#
# Convention : Reuss Voigt Hill
#
# Bulk Modulus (GPa) = 33.74021 97.33242 65.53631
# Shear Modulus (GPa) = 24.65133 38.38081 31.51607
#
# Velocity S-wave (km/s) = 3.55390 4.43448 4.01839
# Velocity P-wave (km/s) = 5.84186 8.72286 7.42346
#
# Compressibility (1/GPa) = 0.02963823
#
# Stress axis : x y z
#
# Youngs Moduli (GPa) = 132.91892 25.64602 151.74596
#
# Poissons Ratio (x) = 0.13594 0.49086
# Poissons Ratio (y) = 0.70454 0.48535
# Poissons Ratio (z) = 0.42996 0.08203
#
# Static dielectric constant tensor:
#      x y z
#    x 3.630790 0.000000 0.223810 
#    y 0.000000 3.274460 0.000000 
#    z 0.223810 0.000000 2.377720 
# 
# 
# High freq. dielectric constant tensor:
#      x y z
#    x 1.781160 0.000000 -0.001070 
#    y 0.000000 1.733540 0.000000 
#    z -0.001070 0.000000 1.787170 
# 
# From -- ./inp_files/7498.got.cif
#   From: 2010.06.25/outbox.cif.g09.slc.cpg/sg11_4_cif.got.tgz:7498.got - 2010.06.27 23:14:04.
