data_PCOD8071812
_publ_section_title
;
Structure prediction by ZEFSAII (Michael W. Deem and Ramdas Pophale) SiO2 
 PCOD8071812
Probable space group: P 21/M
;
_chemical_formula_sum "Si O2"
_cell_formula_units_Z 28
_cell_length_a 26.373698
_cell_length_b 9.456137
_cell_length_c 9.572758
_cell_angle_alpha 90.000000
_cell_angle_beta 41.088638
_cell_angle_gamma 90.000000
_cell_volume 1569.048857
_symmetry_space_group_name_H-M "P 21/M"
_symmetry_group_IT_number 11
_symmetry_cell_setting 'monoclinic'
loop_
_space_group_symop_operation_xyz
x,y,z
-x,1/2+y,-z
-x,-y,-z
x,1/2-y,z
loop_
_atom_site_type_symbol
_atom_site_label
_atom_site_fract_x
_atom_site_fract_y
_atom_site_fract_z
Si Si1 0.569434 0.578358 0.436331
Si Si2 0.200122 0.589699 0.814167
Si Si3 0.273390 0.912960 0.947887
Si Si4 0.709367 0.902816 0.575914
Si Si5 0.544713 0.598283 0.804078
Si Si6 0.783323 0.413226 0.634097
Si Si7 0.923375 0.411541 0.147940
O O1 0.500000 0.500000 0.500000
O O2 0.568843 0.750000 0.414812
O O3 0.557943 0.535746 0.622076
O O4 0.652218 0.515356 0.215682
O O5 0.224298 0.750000 0.725649
O O6 0.209350 0.562549 0.959941
O O7 0.258582 0.482762 0.623998
O O8 0.115021 0.562129 0.925701
O O9 0.302952 0.750000 0.886725
O O10 0.222111 0.946480 0.190928
O O11 0.750927 0.750000 0.509064
O O12 0.621937 0.874881 0.726548
O O13 0.716621 0.995175 0.700521
O O14 0.501788 0.750000 0.877695
O O15 0.500000 0.500000 0.000000
O O16 0.766945 0.250000 0.635316
O O17 0.864864 0.457371 0.394195
O O18 0.947347 0.250000 0.117396
O O19 0.000000 0.500000 0.000000
#
# Coordination Sequence:
#
# PCOD8071812 Si02
#       7
#     4   4   4   4   4   4   4
#     4  11  24  41  56  79 112 146 185 230 279 328
#     4   9  18  34  57  81 105 140 180 217 265 324
#     4  10  20  37  60  82 107 144 185 227 275 326
#     4  10  19  34  53  77 104 136 179 226 270 313
#     4  10  23  38  53  75 105 139 180 227 273 323
#     4   9  20  36  55  81 110 141 180 221 268 324
#     4   9  18  34  55  81 112 144 178 219 263 317
#
# _framework density 17.845205
#
# number of rings (size 3 to 8) (size 9 to 14) (size 15 to 20)
#    0.000    2.286    1.429    1.714    2.000    5.143 
#    0.000    0.714    0.000    0.000    0.000    0.000 
#    0.000    0.000    0.000    0.000    0.000    0.000 
#
# Total GULP energy -346908.752704 kJ/mol
# GULP energy per Si atom -12389.598311 kJ/mol
# Density = 1.780459 g / cm^3
# Si number density = 17.845205 Si / 1000 Ang^3
#
#
#
# Elastic Constant Matrix: (Units=GPa)
#
#
# Indices 1 2 3 4 5 6 
#
# 1 126.3865 57.8636 74.0416 0.0000 10.3904 0.0000
# 2 57.8636 94.7082 55.9780 0.0000 2.3936 0.0000
# 3 74.0416 55.9780 106.0067 0.0000 17.0580 0.0000
# 4 0.0000 0.0000 0.0000 18.4114 0.0000 -12.0994
# 5 10.3904 2.3936 17.0580 0.0000 32.8365 0.0000
# 6 0.0000 0.0000 0.0000 -12.0994 0.0000 22.1976
#
#
#
# Elastic Compliance Matrix: (Units=1/GPa)
#
#
# Indices 1 2 3 4 5 6 
#
# 1 0.014438 -0.004178 -0.007848 0.000000 -0.000187 0.000000
# 2 -0.004178 0.016909 -0.006575 0.000000 0.003505 0.000000
# 3 -0.007848 -0.006575 0.019544 0.000000 -0.007190 0.000000
# 4 0.000000 0.000000 0.000000 0.084629 0.000000 0.046129
# 5 -0.000187 0.003505 -0.007190 0.000000 0.033993 0.000000
# 6 0.000000 0.000000 0.000000 0.046129 0.000000 0.070194
#
#
# Mechanical properties :
#
#
# Convention : Reuss Voigt Hill
#
# Bulk Modulus (GPa) = 73.05061 78.09643 75.57352
# Shear Modulus (GPa) = 17.76381 23.97031 20.86706
#
# Velocity S-wave (km/s) = 3.15848 3.66899 3.42327
# Velocity P-wave (km/s) = 7.37061 7.86174 7.62013
#
# Compressibility (1/GPa) = 0.01368914
#
# Stress axis : x y z
#
# Youngs Moduli (GPa) = 69.26128 59.14098 51.16657
#
# Poissons Ratio (x) = 0.24707 0.40157
# Poissons Ratio (y) = 0.28935 0.33641
# Poissons Ratio (z) = 0.54358 0.38885
#
# Static dielectric constant tensor:
#      x y z
#    x 3.403960 0.000000 0.261300 
#    y 0.000000 3.419480 0.000000 
#    z 0.261300 0.000000 3.197410 
# 
# 
# High freq. dielectric constant tensor:
#      x y z
#    x 1.693590 0.000000 0.014680 
#    y 0.000000 1.702050 0.000000 
#    z 0.014680 0.000000 1.671080 
# 
# From -- ./inp_files/28155.got.cif
#   From: 2010.06.25/outbox.cif.g09.slc.cpg/sg11_15_cif.got.tgz:28155.got - 2010.06.27 23:14:04.
