data_PCOD8071824
_publ_section_title
;
Structure prediction by ZEFSAII (Michael W. Deem and Ramdas Pophale) SiO2 
 PCOD8071824
Probable space group: P 21/M
;
_chemical_formula_sum "Si O2"
_cell_formula_units_Z 28
_cell_length_a 19.118011
_cell_length_b 8.647861
_cell_length_c 14.875509
_cell_angle_alpha 90.000000
_cell_angle_beta 142.144576
_cell_angle_gamma 90.000000
_cell_volume 1509.242130
_symmetry_space_group_name_H-M "P 21/M"
_symmetry_group_IT_number 11
_symmetry_cell_setting 'monoclinic'
loop_
_space_group_symop_operation_xyz
x,y,z
-x,1/2+y,-z
-x,-y,-z
x,1/2-y,z
loop_
_atom_site_type_symbol
_atom_site_label
_atom_site_fract_x
_atom_site_fract_y
_atom_site_fract_z
Si Si1 0.968294 0.934175 0.563496
Si Si2 0.287118 0.930595 0.322580
Si Si3 0.563919 0.934982 0.371337
Si Si4 0.760748 0.919395 0.455594
Si Si5 0.912544 0.579028 0.785815
Si Si6 0.668171 0.927869 0.820739
Si Si7 0.092932 0.072592 0.853911
O O1 0.963645 0.750000 0.555916
O O2 0.842005 0.002019 0.463726
O O3 0.062239 0.982444 0.731764
O O4 0.000000 0.000000 0.500000
O O5 0.298026 0.750000 0.353807
O O6 0.378500 0.020804 0.475876
O O7 0.157334 0.985419 0.209484
O O8 0.317207 0.963992 0.250498
O O9 0.553327 0.750000 0.356374
O O10 0.642324 0.999403 0.366966
O O11 0.442639 0.016422 0.237346
O O12 0.729890 0.750000 0.387228
O O13 0.836245 0.905206 0.620839
O O14 0.942128 0.750000 0.853394
O O15 0.028731 0.491851 0.877235
O O16 0.655780 0.750000 0.777461
O O17 0.772927 0.948613 0.994991
O O18 0.057792 0.250000 0.805498
#
# Coordination Sequence:
#
# PCOD8071824 Si02
#       7
#     4   4   4   4   4   4   4
#     4  10  19  34  58  85 110 132 160 203 255 312
#     4  11  21  33  51  74 100 135 181 224 261 303
#     4  10  19  34  54  74 100 136 179 220 258 301
#     4   7  14  29  50  75 100 128 160 201 250 296
#     4   9  17  32  52  73 101 134 170 215 262 306
#     4  11  23  36  49  70 103 140 177 219 263 306
#     4  10  21  36  53  75 104 137 172 210 259 316
#
# _framework density 18.552357000000001
#
# number of rings (size 3 to 8) (size 9 to 14) (size 15 to 20)
#    0.000    2.286    0.000    5.571    0.000    2.857 
#    0.000    2.143    0.000    0.857    0.000    0.000 
#    0.000    0.000    0.000    0.000    0.000    0.000 
#
# Total GULP energy -347031.546727 kJ/mol
# GULP energy per Si atom -12393.983812 kJ/mol
# Density = 1.851013 g / cm^3
# Si number density = 18.552357 Si / 1000 Ang^3
#
#
#
# Elastic Constant Matrix: (Units=GPa)
#
#
# Indices 1 2 3 4 5 6 
#
# 1 149.0796 34.6772 55.3408 0.0000 22.6329 0.0000
# 2 34.6772 82.9656 29.5056 0.0000 11.4877 0.0000
# 3 55.3408 29.5056 66.8120 0.0000 19.2179 0.0000
# 4 0.0000 0.0000 0.0000 24.4868 0.0000 3.7490
# 5 22.6329 11.4877 19.2179 0.0000 19.2792 0.0000
# 6 0.0000 0.0000 0.0000 3.7490 0.0000 31.4584
#
#
#
# Elastic Compliance Matrix: (Units=1/GPa)
#
#
# Indices 1 2 3 4 5 6 
#
# 1 0.010116 -0.001281 -0.006473 0.000000 -0.004660 0.000000
# 2 -0.001281 0.014596 -0.004649 0.000000 -0.002560 0.000000
# 3 -0.006473 -0.004649 0.027198 0.000000 -0.016742 0.000000
# 4 0.000000 0.000000 0.000000 0.041597 0.000000 -0.004957
# 5 -0.004660 -0.002560 -0.016742 0.000000 0.075554 0.000000
# 6 0.000000 0.000000 0.000000 -0.004957 0.000000 0.032379
#
#
# Mechanical properties :
#
#
# Convention : Reuss Voigt Hill
#
# Bulk Modulus (GPa) = 36.89411 59.76715 48.33063
# Shear Modulus (GPa) = 21.25113 27.00044 24.12579
#
# Velocity S-wave (km/s) = 3.38815 3.81906 3.61004
# Velocity P-wave (km/s) = 5.93597 7.19252 6.59424
#
# Compressibility (1/GPa) = 0.02710459
#
# Stress axis : x y z
#
# Youngs Moduli (GPa) = 98.85101 68.51072 36.76758
#
# Poissons Ratio (x) = 0.08776 0.23800
# Poissons Ratio (y) = 0.12662 0.17092
# Poissons Ratio (z) = 0.63988 0.31849
#
# Static dielectric constant tensor:
#      x y z
#    x 3.880940 0.000000 0.390850 
#    y 0.000000 3.451960 0.000000 
#    z 0.390850 0.000000 3.120800 
# 
# 
# High freq. dielectric constant tensor:
#      x y z
#    x 1.723400 0.000000 0.027430 
#    y 0.000000 1.721540 0.000000 
#    z 0.027430 0.000000 1.684110 
# 
# From -- ./inp_files/53274.got.cif
#   From: 2010.06.25/outbox.cif.g09.slc.cpg/sg11_27_cif.got.tgz:53274.got - 2010.06.27 23:14:04.
