data_PCOD8071055
_publ_section_title
;
Structure prediction by ZEFSAII (Michael W. Deem and Ramdas Pophale) SiO2 
 PCOD8071055
Probable space group: P 21/M
;
_chemical_formula_sum "Si O2"
_cell_formula_units_Z 28
_cell_length_a 30.730662
_cell_length_b 8.906173
_cell_length_c 10.061674
_cell_angle_alpha 90.000000
_cell_angle_beta 145.494793
_cell_angle_gamma 90.000000
_cell_volume 1559.978932
_symmetry_space_group_name_H-M "P 21/M"
_symmetry_group_IT_number 11
_symmetry_cell_setting 'monoclinic'
loop_
_space_group_symop_operation_xyz
x,y,z
-x,1/2+y,-z
-x,-y,-z
x,1/2-y,z
loop_
_atom_site_type_symbol
_atom_site_label
_atom_site_fract_x
_atom_site_fract_y
_atom_site_fract_z
Si Si1 0.727778 0.573659 0.692448
Si Si2 0.272680 0.576749 0.033168
Si Si3 0.841159 0.575398 0.755332
Si Si4 0.550818 0.574499 0.239551
Si Si5 0.990353 0.425274 0.834452
Si Si6 0.548127 0.076542 0.507182
Si Si7 0.160737 0.428247 0.550977
O O1 0.741925 0.750000 0.750967
O O2 0.752490 0.489008 0.888334
O O3 0.779894 0.506027 0.704308
O O4 0.639853 0.539694 0.433647
O O5 0.248274 0.750000 0.965931
O O6 0.362685 0.554364 0.236413
O O7 0.232662 0.485740 0.814847
O O8 0.823455 0.750000 0.699281
O O9 0.831040 0.510256 0.580235
O O10 0.927421 0.548049 0.031139
O O11 0.534035 0.750000 0.202104
O O12 0.525118 0.503708 0.313367
O O13 0.500000 0.500000 0.000000
O O14 0.972684 0.250000 0.804967
O O15 0.917926 0.505331 0.581101
O O16 0.000000 0.500000 0.000000
O O17 0.525595 0.250000 0.438998
O O18 0.500000 0.000000 0.500000
O O19 0.156206 0.250000 0.545047
#
# Coordination Sequence:
#
# PCOD8071055 Si02
#       7
#     4   4   4   4   4   4   4
#     4   9  18  35  55  74  99 134 170 206 252 306
#     4  10  21  36  52  75 105 135 167 208 255 302
#     4   8  16  31  52  76  99 126 167 212 252 296
#     4  10  20  34  54  78 105 137 173 213 259 310
#     4   9  16  29  49  73 102 133 166 211 259 303
#     4  10  21  37  56  77 104 136 172 214 260 310
#     4  10  19  32  52  77 103 135 172 210 252 303
#
# _framework density 17.94896
#
# number of rings (size 3 to 8) (size 9 to 14) (size 15 to 20)
#    0.000    2.571    0.000    3.000    0.000    3.429 
#    0.000    6.429    0.000    0.000    0.000    0.000 
#    0.000    0.000    0.000    0.000    0.000    0.000 
#
# Total GULP energy -347118.720593 kJ/mol
# GULP energy per Si atom -12397.097164 kJ/mol
# Density = 1.790811 g / cm^3
# Si number density = 17.948960 Si / 1000 Ang^3
#
#
#
# Elastic Constant Matrix: (Units=GPa)
#
#
# Indices 1 2 3 4 5 6 
#
# 1 141.0924 55.7525 60.2933 0.0000 -3.3310 0.0000
# 2 55.7525 99.3438 54.1693 0.0000 -2.3960 0.0000
# 3 60.2933 54.1693 103.0143 0.0000 -9.1421 0.0000
# 4 0.0000 0.0000 0.0000 36.1112 0.0000 0.0154
# 5 -3.3310 -2.3960 -9.1421 0.0000 15.0448 0.0000
# 6 0.0000 0.0000 0.0000 0.0154 0.0000 25.0446
#
#
#
# Elastic Compliance Matrix: (Units=1/GPa)
#
#
# Indices 1 2 3 4 5 6 
#
# 1 0.010252 -0.003450 -0.004264 0.000000 -0.000870 0.000000
# 2 -0.003450 0.015355 -0.006243 0.000000 -0.002112 0.000000
# 3 -0.004264 -0.006243 0.016186 0.000000 0.007898 0.000000
# 4 0.000000 0.000000 0.000000 0.027692 0.000000 -0.000017
# 5 -0.000870 -0.002112 0.007898 0.000000 0.070738 0.000000
# 6 0.000000 0.000000 0.000000 -0.000017 0.000000 0.039929
#
#
# Mechanical properties :
#
#
# Convention : Reuss Voigt Hill
#
# Bulk Modulus (GPa) = 72.03852 75.98674 74.01263
# Shear Modulus (GPa) = 23.50813 26.78914 25.14864
#
# Velocity S-wave (km/s) = 3.62293 3.86750 3.74721
# Velocity P-wave (km/s) = 7.59758 7.89748 7.74898
#
# Compressibility (1/GPa) = 0.01388146
#
# Stress axis : x y z
#
# Youngs Moduli (GPa) = 97.54011 65.12508 61.77994
#
# Poissons Ratio (x) = 0.22466 0.26342
# Poissons Ratio (y) = 0.33648 0.38567
# Poissons Ratio (z) = 0.41589 0.40656
#
# Static dielectric constant tensor:
#      x y z
#    x 3.552570 0.000000 0.186780 
#    y 0.000000 3.258740 0.000000 
#    z 0.186780 0.000000 3.406430 
# 
# 
# High freq. dielectric constant tensor:
#      x y z
#    x 1.689120 0.000000 0.011240 
#    y 0.000000 1.696530 0.000000 
#    z 0.011240 0.000000 1.692360 
# 
# From -- ./inp_files/29040.got.cif
#   From: 2010.06.25/outbox.cif.g09.slc.cpg/sg11_15_cif.got.tgz:29040.got - 2010.06.27 23:14:04.
