data_PCOD8071446
_publ_section_title
;
Structure prediction by ZEFSAII (Michael W. Deem and Ramdas Pophale) SiO2 
 PCOD8071446
Probable space group: P 21/M
;
_chemical_formula_sum "Si O2"
_cell_formula_units_Z 28
_cell_length_a 19.385987
_cell_length_b 9.208327
_cell_length_c 14.138782
_cell_angle_alpha 90.000000
_cell_angle_beta 37.764123
_cell_angle_gamma 90.000000
_cell_volume 1545.697323
_symmetry_space_group_name_H-M "P 21/M"
_symmetry_group_IT_number 11
_symmetry_cell_setting 'monoclinic'
loop_
_space_group_symop_operation_xyz
x,y,z
-x,1/2+y,-z
-x,-y,-z
x,1/2-y,z
loop_
_atom_site_type_symbol
_atom_site_label
_atom_site_fract_x
_atom_site_fract_y
_atom_site_fract_z
Si Si1 0.887985 0.919660 0.591623
Si Si2 0.922812 0.919983 0.893723
Si Si3 0.669582 0.917120 0.472465
Si Si4 0.417422 0.580927 0.780983
Si Si5 0.749657 0.917487 0.917548
Si Si6 0.135043 0.415954 0.597711
Si Si7 0.751245 0.421028 0.202113
O O1 0.913209 0.750000 0.574371
O O2 0.786230 0.963717 0.772306
O O3 0.851609 0.964058 0.525643
O O4 0.000000 0.000000 0.500000
O O5 0.928852 0.750000 0.910074
O O6 0.854162 0.954183 0.872836
O O7 0.047936 0.981118 0.746202
O O8 0.865048 0.001036 0.044356
O O9 0.666444 0.750000 0.440380
O O10 0.544828 0.974014 0.631721
O O11 0.743174 0.933331 0.487077
O O12 0.721235 0.018702 0.336741
O O13 0.413126 0.750000 0.806652
O O14 0.350698 0.539890 0.758014
O O15 0.361213 0.505079 0.932514
O O16 0.717107 0.750000 0.959547
O O17 0.091697 0.250000 0.651520
O O18 0.773142 0.250000 0.184225
#
# Coordination Sequence:
#
# PCOD8071446 Si02
#       7
#     4   4   4   4   4   4   4
#     4  10  19  33  54  80 106 135 171 212 257 307
#     4  10  19  33  53  78 107 137 171 215 261 308
#     4  10  21  37  53  74 105 141 175 212 260 308
#     4   9  19  35  55  77 103 135 175 216 256 304
#     4   9  18  32  52  79 106 132 168 214 261 302
#     4  10  21  35  53  76 107 141 172 210 259 313
#     4  10  20  34  55  80 102 133 177 219 260 306
#
# _framework density 18.114802000000001
#
# number of rings (size 3 to 8) (size 9 to 14) (size 15 to 20)
#    0.000    2.286    1.429    1.286    0.000    3.429 
#    0.000    0.714    0.000    0.000    0.000    0.000 
#    0.000    0.000    0.000    0.000    0.000    0.000 
#
# Total GULP energy -347292.589718 kJ/mol
# GULP energy per Si atom -12403.306776 kJ/mol
# Density = 1.807357 g / cm^3
# Si number density = 18.114802 Si / 1000 Ang^3
#
#
#
# Elastic Constant Matrix: (Units=GPa)
#
#
# Indices 1 2 3 4 5 6 
#
# 1 80.8859 33.3219 51.7255 0.0000 10.9633 0.0000
# 2 33.3219 62.4325 43.1531 0.0000 9.6759 0.0000
# 3 51.7255 43.1531 114.5711 0.0000 20.5913 0.0000
# 4 0.0000 0.0000 0.0000 36.1412 0.0000 1.3262
# 5 10.9633 9.6759 20.5913 0.0000 21.5185 0.0000
# 6 0.0000 0.0000 0.0000 1.3262 0.0000 19.1717
#
#
#
# Elastic Compliance Matrix: (Units=1/GPa)
#
#
# Indices 1 2 3 4 5 6 
#
# 1 0.018755 -0.005573 -0.006161 0.000000 -0.001154 0.000000
# 2 -0.005573 0.023408 -0.005941 0.000000 -0.002001 0.000000
# 3 -0.006161 -0.005941 0.015342 0.000000 -0.008870 0.000000
# 4 0.000000 0.000000 0.000000 0.027740 0.000000 -0.001919
# 5 -0.001154 -0.002001 -0.008870 0.000000 0.056448 0.000000
# 6 0.000000 0.000000 0.000000 -0.001919 0.000000 0.052293
#
#
# Mechanical properties :
#
#
# Convention : Reuss Voigt Hill
#
# Bulk Modulus (GPa) = 45.13587 57.14336 51.13962
# Shear Modulus (GPa) = 21.12199 24.01221 22.56710
#
# Velocity S-wave (km/s) = 3.41839 3.64477 3.53339
# Velocity P-wave (km/s) = 6.36798 7.02325 6.70363
#
# Compressibility (1/GPa) = 0.02215533
#
# Stress axis : x y z
#
# Youngs Moduli (GPa) = 53.31854 42.71993 65.18222
#
# Poissons Ratio (x) = 0.23807 0.40159
# Poissons Ratio (y) = 0.29714 0.38725
# Poissons Ratio (z) = 0.32850 0.25380
#
# Static dielectric constant tensor:
#      x y z
#    x 3.265750 0.000000 0.062020 
#    y 0.000000 3.335820 0.000000 
#    z 0.062020 0.000000 3.499570 
# 
# 
# High freq. dielectric constant tensor:
#      x y z
#    x 1.685360 0.000000 0.006600 
#    y 0.000000 1.701890 0.000000 
#    z 0.006600 0.000000 1.708020 
# 
# From -- ./inp_files/37635.got.cif
#   From: 2010.06.25/outbox.cif.g09.slc.cpg/sg11_19_cif.got.tgz:37635.got - 2010.06.27 23:14:04.
