data_PCOD8071503
_publ_section_title
;
Structure prediction by ZEFSAII (Michael W. Deem and Ramdas Pophale) SiO2 
 PCOD8071503
Probable space group: P 21/M
;
_chemical_formula_sum "Si O2"
_cell_formula_units_Z 28
_cell_length_a 24.219459
_cell_length_b 9.087433
_cell_length_c 8.852505
_cell_angle_alpha 90.000000
_cell_angle_beta 47.254011
_cell_angle_gamma 90.000000
_cell_volume 1430.825870
_symmetry_space_group_name_H-M "P 21/M"
_symmetry_group_IT_number 11
_symmetry_cell_setting 'monoclinic'
loop_
_space_group_symop_operation_xyz
x,y,z
-x,1/2+y,-z
-x,-y,-z
x,1/2-y,z
loop_
_atom_site_type_symbol
_atom_site_label
_atom_site_fract_x
_atom_site_fract_y
_atom_site_fract_z
Si Si1 0.793841 0.076650 0.630545
Si Si2 0.375665 0.579217 0.588403
Si Si3 0.941993 0.916382 0.309017
Si Si4 0.770853 0.419105 0.329448
Si Si5 0.660699 0.923014 0.038786
Si Si6 0.085420 0.084385 0.995728
Si Si7 0.514193 0.921174 0.129614
O O1 0.798908 0.250000 0.647514
O O2 0.766417 0.035656 0.513181
O O3 0.875255 0.006712 0.512463
O O4 0.736084 0.008477 0.856285
O O5 0.376905 0.750000 0.636158
O O6 0.309609 0.548449 0.592103
O O7 0.366084 0.474952 0.748510
O O8 0.453033 0.529803 0.366830
O O9 0.942599 0.750000 0.370027
O O10 0.930778 0.918319 0.151232
O O11 0.021098 0.993417 0.202923
O O12 0.795233 0.250000 0.269397
O O13 0.833398 0.512676 0.123915
O O14 0.676795 0.750000 0.012675
O O15 0.596384 0.962845 0.037511
O O16 0.085764 0.250000 0.058245
O O17 0.505488 0.750000 0.114067
O O18 0.500000 0.000000 0.000000
#
# Coordination Sequence:
#
# PCOD8071503 Si02
#       7
#     4   4   4   4   4   4   4
#     4  10  19  33  54  78 106 142 181 222 269 319
#     4  10  21  38  57  78 107 144 182 218 262 318
#     4   9  16  27  45  72 106 139 175 222 268 312
#     4   9  18  32  52  77 104 137 180 225 267 314
#     4  11  23  37  54  80 111 142 178 220 266 317
#     4   9  16  26  44  72 105 139 175 217 268 320
#     4  10  22  39  60  85 111 139 176 221 267 316
#
# _framework density 19.569116000000001
#
# number of rings (size 3 to 8) (size 9 to 14) (size 15 to 20)
#    0.000    2.286    0.000    3.000    0.000    7.429 
#    0.000    0.000    0.000    0.857    0.000    0.000 
#    0.000    0.000    0.000    0.000    0.000    0.000 
#
# Total GULP energy -347290.514236 kJ/mol
# GULP energy per Si atom -12403.232651 kJ/mol
# Density = 1.952458 g / cm^3
# Si number density = 19.569116 Si / 1000 Ang^3
#
#
#
# Elastic Constant Matrix: (Units=GPa)
#
#
# Indices 1 2 3 4 5 6 
#
# 1 17.8921 23.0544 26.4951 0.0000 -7.8705 0.0000
# 2 23.0544 104.0930 59.2901 0.0000 -13.9273 0.0000
# 3 26.4951 59.2901 127.9186 0.0000 -21.4575 0.0000
# 4 0.0000 0.0000 0.0000 36.1375 0.0000 -2.6404
# 5 -7.8705 -13.9273 -21.4575 0.0000 32.9748 0.0000
# 6 0.0000 0.0000 0.0000 -2.6404 0.0000 25.5232
#
#
#
# Elastic Compliance Matrix: (Units=1/GPa)
#
#
# Indices 1 2 3 4 5 6 
#
# 1 0.094273 -0.012776 -0.012051 0.000000 0.009263 0.000000
# 2 -0.012776 0.014877 -0.004161 0.000000 0.000526 0.000000
# 3 -0.012051 -0.004161 0.012869 0.000000 0.003741 0.000000
# 4 0.000000 0.000000 0.000000 0.027883 0.000000 0.002885
# 5 0.009263 0.000526 0.003741 0.000000 0.035194 0.000000
# 6 0.000000 0.000000 0.000000 0.002885 0.000000 0.039478
#
#
# Mechanical properties :
#
#
# Convention : Reuss Voigt Hill
#
# Bulk Modulus (GPa) = 15.61429 51.95366 33.78397
# Shear Modulus (GPa) = 16.45294 28.33137 22.39216
#
# Velocity S-wave (km/s) = 2.90273 3.80907 3.38636
# Velocity P-wave (km/s) = 4.38530 6.77878 5.70888
#
# Compressibility (1/GPa) = 0.06404389
#
# Stress axis : x y z
#
# Youngs Moduli (GPa) = 10.60754 67.21875 77.70316
#
# Poissons Ratio (x) = 0.85879 0.93637
# Poissons Ratio (y) = 0.13552 0.32331
# Poissons Ratio (z) = 0.12783 0.27969
#
# Static dielectric constant tensor:
#      x y z
#    x 3.424450 0.000000 -0.286010 
#    y 0.000000 3.645010 0.000000 
#    z -0.286010 0.000000 3.554790 
# 
# 
# High freq. dielectric constant tensor:
#      x y z
#    x 1.744780 0.000000 -0.025580 
#    y 0.000000 1.768140 0.000000 
#    z -0.025580 0.000000 1.761330 
# 
# From -- ./inp_files/28286.got.cif
#   From: 2010.06.25/outbox.cif.g09.slc.cpg/sg11_15_cif.got.tgz:28286.got - 2010.06.27 23:14:04.
