data_PCOD8071904
_publ_section_title
;
Structure prediction by ZEFSAII (Michael W. Deem and Ramdas Pophale) SiO2 
 PCOD8071904
Probable space group: P 21/M
;
_chemical_formula_sum "Si O2"
_cell_formula_units_Z 28
_cell_length_a 9.137439
_cell_length_b 8.762278
_cell_length_c 29.438126
_cell_angle_alpha 90.000000
_cell_angle_beta 141.523988
_cell_angle_gamma 90.000000
_cell_volume 1466.467899
_symmetry_space_group_name_H-M "P 21/M"
_symmetry_group_IT_number 11
_symmetry_cell_setting 'monoclinic'
loop_
_space_group_symop_operation_xyz
x,y,z
-x,1/2+y,-z
-x,-y,-z
x,1/2-y,z
loop_
_atom_site_type_symbol
_atom_site_label
_atom_site_fract_x
_atom_site_fract_y
_atom_site_fract_z
Si Si1 0.824573 0.069835 0.493427
Si Si2 0.795790 0.579899 0.349005
Si Si3 0.083445 0.430712 0.200795
Si Si4 0.742842 0.567653 0.933876
Si Si5 0.447765 0.577112 0.349162
Si Si6 0.425162 0.071377 0.204237
Si Si7 0.578523 0.931248 0.066528
O O1 0.806421 0.250000 0.480979
O O2 0.937526 0.033966 0.570889
O O3 0.567525 0.993913 0.423835
O O4 0.000000 0.000000 0.500000
O O5 0.794811 0.750000 0.329008
O O6 0.635366 0.568917 0.354522
O O7 0.689432 0.475230 0.283384
O O8 0.037573 0.250000 0.189034
O O9 0.221292 0.476875 0.280244
O O10 0.231253 0.488845 0.192968
O O11 0.842217 0.521493 0.141970
O O12 0.749901 0.750000 0.938690
O O13 0.631898 0.508610 0.859516
O O14 0.589732 0.499696 0.936601
O O15 0.000000 0.500000 0.000000
O O16 0.369101 0.750000 0.340281
O O17 0.412864 0.250000 0.201008
O O18 0.553514 0.750000 0.059090
O O19 0.500000 0.000000 0.000000
#
# Coordination Sequence:
#
# PCOD8071904 Si02
#       7
#     4   4   4   4   4   4   4
#     4   9  15  23  36  60  94 133 174 218 264 312
#     4   8  15  25  40  64  97 134 173 214 260 308
#     4  10  19  34  55  80 109 142 178 221 269 319
#     4  11  23  40  60  84 111 141 177 220 267 321
#     4   9  16  26  41  66  99 137 176 216 262 314
#     4   9  19  33  52  77 106 138 175 216 264 317
#     4  12  25  41  60  83 109 141 179 221 268 321
#
# _framework density 19.093496999999999
#
# number of rings (size 3 to 8) (size 9 to 14) (size 15 to 20)
#    0.000    2.286    0.000    4.714    0.000    6.857 
#    0.000    0.000    0.000    0.000    0.000    1.000 
#    0.000    0.000    0.000    0.000    0.000    0.000 
#
# Total GULP energy -347054.558916 kJ/mol
# GULP energy per Si atom -12394.805676 kJ/mol
# Density = 1.905004 g / cm^3
# Si number density = 19.093497 Si / 1000 Ang^3
#
#
#
# Elastic Constant Matrix: (Units=GPa)
#
#
# Indices 1 2 3 4 5 6 
#
# 1 72.6388 32.3720 60.5188 0.0000 -2.5509 0.0000
# 2 32.3720 91.3661 53.0947 0.0000 -2.7446 0.0000
# 3 60.5188 53.0947 184.2791 0.0000 0.0681 0.0000
# 4 0.0000 0.0000 0.0000 41.2492 0.0000 3.8815
# 5 -2.5509 -2.7446 0.0681 0.0000 16.3421 0.0000
# 6 0.0000 0.0000 0.0000 3.8815 0.0000 21.1602
#
#
#
# Elastic Compliance Matrix: (Units=1/GPa)
#
#
# Indices 1 2 3 4 5 6 
#
# 1 0.020170 -0.003869 -0.005510 0.000000 0.002522 0.000000
# 2 -0.003869 0.013969 -0.002755 0.000000 0.001754 0.000000
# 3 -0.005510 -0.002755 0.008031 0.000000 -0.001356 0.000000
# 4 0.000000 0.000000 0.000000 0.024669 0.000000 -0.004525
# 5 0.002522 0.001754 -0.001356 0.000000 0.061885 0.000000
# 6 0.000000 0.000000 0.000000 -0.004525 0.000000 0.048088
#
#
# Mechanical properties :
#
#
# Convention : Reuss Voigt Hill
#
# Bulk Modulus (GPa) = 55.85935 71.13943 63.49939
# Shear Modulus (GPa) = 24.14896 29.23688 26.69292
#
# Velocity S-wave (km/s) = 3.56022 3.91736 3.74305
# Velocity P-wave (km/s) = 6.79849 7.60265 7.21179
#
# Compressibility (1/GPa) = 0.01790211
#
# Stress axis : x y z
#
# Youngs Moduli (GPa) = 49.57769 71.58527 124.52522
#
# Poissons Ratio (x) = 0.27694 0.68619
# Poissons Ratio (y) = 0.19180 0.34307
# Poissons Ratio (z) = 0.27319 0.19722
#
# Static dielectric constant tensor:
#      x y z
#    x 3.237870 0.000000 -0.072560 
#    y 0.000000 3.905870 0.000000 
#    z -0.072560 0.000000 4.222420 
# 
# 
# High freq. dielectric constant tensor:
#      x y z
#    x 1.683540 0.000000 0.004410 
#    y 0.000000 1.750350 0.000000 
#    z 0.004410 0.000000 1.772120 
# 
# From -- ./inp_files/28463.got.cif
#   From: 2010.06.25/outbox.cif.g09.slc.cpg/sg11_15_cif.got.tgz:28463.got - 2010.06.27 23:14:04.
