data_PCOD8071133
_publ_section_title
;
Structure prediction by ZEFSAII (Michael W. Deem and Ramdas Pophale) SiO2 
 PCOD8071133
Probable space group: P 21/M
;
_chemical_formula_sum "Si O2"
_cell_formula_units_Z 32
_cell_length_a 11.475440
_cell_length_b 9.321144
_cell_length_c 19.188876
_cell_angle_alpha 90.000000
_cell_angle_beta 125.085221
_cell_angle_gamma 90.000000
_cell_volume 1679.575746
_symmetry_space_group_name_H-M "P 21/M"
_symmetry_group_IT_number 11
_symmetry_cell_setting 'monoclinic'
loop_
_space_group_symop_operation_xyz
x,y,z
-x,1/2+y,-z
-x,-y,-z
x,1/2-y,z
loop_
_atom_site_type_symbol
_atom_site_label
_atom_site_fract_x
_atom_site_fract_y
_atom_site_fract_z
Si Si1 0.131714 0.413833 0.838707
Si Si2 0.430185 0.414491 0.302591
Si Si3 0.854113 0.578714 0.717927
Si Si4 0.295169 0.409153 0.596015
Si Si5 0.083923 0.087839 0.412112
Si Si6 0.375869 0.922383 0.998699
Si Si7 0.532795 0.909044 0.842818
Si Si8 0.776254 0.992653 0.279784
O O1 0.129004 0.250000 0.865573
O O2 0.229879 0.515030 0.919564
O O3 0.183980 0.405746 0.776230
O O4 0.979591 0.488342 0.796791
O O5 0.459923 0.250000 0.330159
O O6 0.291247 0.468891 0.295347
O O7 0.567698 0.498236 0.375971
O O8 0.404879 0.438415 0.212023
O O9 0.884218 0.750000 0.734974
O O10 0.848997 0.525320 0.636024
O O11 0.329735 0.250000 0.581893
O O12 0.161260 0.480164 0.507058
O O13 0.263356 0.395421 0.667600
O O14 0.129338 0.250000 0.431189
O O15 0.913101 0.081234 0.352520
O O16 0.382218 0.750000 0.992960
O O17 0.500000 0.000000 0.000000
O O18 0.397280 0.966695 0.086422
O O19 0.577606 0.750000 0.884523
O O20 0.360108 0.908943 0.784155
#
# Coordination Sequence:
#
# PCOD8071133 Si02
#       8
#     4   4   4   4   4   4   4   4
#     4  11  22  36  56  83 113 143 183 226 272 325
#     4   9  20  38  58  79 106 144 187 230 275 328
#     4   9  19  38  59  78 106 145 188 230 277 325
#     4  10  20  33  51  79 112 145 184 229 276 327
#     4   9  18  32  52  79 110 146 184 227 276 328
#     4  12  24  37  57  84 117 147 177 217 266 323
#     4  10  20  35  57  82 109 142 184 227 273 326
#     4  10  19  32  53  76 113 146 184 220 278 326
#
# _framework density 19.052430000000001
#
# number of rings (size 3 to 8) (size 9 to 14) (size 15 to 20)
#    0.000    2.000    1.250    2.625    0.000    4.500 
#    0.000    3.750    0.000    0.000    0.000    0.000 
#    0.000    0.000    0.000    0.000    0.000    0.000 
#
# Total GULP energy -396548.477338 kJ/mol
# GULP energy per Si atom -12392.139917 kJ/mol
# Density = 1.900907 g / cm^3
# Si number density = 19.052430 Si / 1000 Ang^3
#
#
#
# Elastic Constant Matrix: (Units=GPa)
#
#
# Indices 1 2 3 4 5 6 
#
# 1 111.9276 27.8327 47.2323 0.0000 14.4372 0.0000
# 2 27.8327 97.9367 52.1362 0.0000 6.8579 0.0000
# 3 47.2323 52.1362 131.5726 0.0000 16.7963 0.0000
# 4 0.0000 0.0000 0.0000 27.8120 0.0000 3.2329
# 5 14.4372 6.8579 16.7963 0.0000 19.6644 0.0000
# 6 0.0000 0.0000 0.0000 3.2329 0.0000 21.8021
#
#
#
# Elastic Compliance Matrix: (Units=1/GPa)
#
#
# Indices 1 2 3 4 5 6 
#
# 1 0.011125 -0.001299 -0.002800 0.000000 -0.005324 0.000000
# 2 -0.001299 0.013092 -0.004782 0.000000 0.000472 0.000000
# 3 -0.002800 -0.004782 0.011252 0.000000 -0.005888 0.000000
# 4 0.000000 0.000000 0.000000 0.036586 0.000000 -0.005425
# 5 -0.005324 0.000472 -0.005888 0.000000 0.059626 0.000000
# 6 0.000000 0.000000 0.000000 -0.005425 0.000000 0.046672
#
#
# Mechanical properties :
#
#
# Convention : Reuss Voigt Hill
#
# Bulk Modulus (GPa) = 56.46765 66.20437 61.33601
# Shear Modulus (GPa) = 24.75034 28.13807 26.44420
#
# Velocity S-wave (km/s) = 3.60816 3.84718 3.72959
# Velocity P-wave (km/s) = 6.86009 7.38636 7.12809
#
# Compressibility (1/GPa) = 0.01770925
#
# Stress axis : x y z
#
# Youngs Moduli (GPa) = 89.88451 76.38056 88.87419
#
# Poissons Ratio (x) = 0.09919 0.24881
# Poissons Ratio (y) = 0.11672 0.42499
# Poissons Ratio (z) = 0.25164 0.36525
#
# Static dielectric constant tensor:
#      x y z
#    x 3.425260 0.000000 -0.061420 
#    y 0.000000 3.323970 0.000000 
#    z -0.061420 0.000000 4.052400 
# 
# 
# High freq. dielectric constant tensor:
#      x y z
#    x 1.728940 0.000000 0.000890 
#    y 0.000000 1.728650 0.000000 
#    z 0.000890 0.000000 1.750220 
# 
# From -- ./inp_files/64472.got.cif
#   From: 2010.06.25/outbox.cif.g09.slc.cpg/sg11_33_cif.got.tgz:64472.got - 2010.06.27 23:14:04.
