data_PCOD8071393
_publ_section_title
;
Structure prediction by ZEFSAII (Michael W. Deem and Ramdas Pophale) SiO2 
 PCOD8071393
Probable space group: P 21/M
;
_chemical_formula_sum "Si O2"
_cell_formula_units_Z 32
_cell_length_a 15.124032
_cell_length_b 8.984911
_cell_length_c 21.287427
_cell_angle_alpha 90.000000
_cell_angle_beta 138.963420
_cell_angle_gamma 90.000000
_cell_volume 1899.180378
_symmetry_space_group_name_H-M "P 21/M"
_symmetry_group_IT_number 11
_symmetry_cell_setting 'monoclinic'
loop_
_space_group_symop_operation_xyz
x,y,z
-x,1/2+y,-z
-x,-y,-z
x,1/2-y,z
loop_
_atom_site_type_symbol
_atom_site_label
_atom_site_fract_x
_atom_site_fract_y
_atom_site_fract_z
Si Si1 0.624246 0.424715 0.600331
Si Si2 0.443231 0.577453 0.294191
Si Si3 0.715979 0.081336 0.418821
Si Si4 0.014268 0.577178 0.914568
Si Si5 0.015109 0.575656 0.358776
Si Si6 0.208819 0.075686 0.105165
Si Si7 0.110339 0.577601 0.601135
Si Si8 0.901344 0.925534 0.719606
O O1 0.500000 0.500000 0.500000
O O2 0.623058 0.250000 0.585329
O O3 0.617069 0.459713 0.670099
O O4 0.757928 0.494791 0.643300
O O5 0.435330 0.750000 0.274607
O O6 0.597857 0.528994 0.374405
O O7 0.356224 0.492122 0.195327
O O8 0.669660 0.250000 0.407560
O O9 0.844915 0.042495 0.530637
O O10 0.749809 0.062308 0.362534
O O11 0.044663 0.750000 0.940568
O O12 0.886161 0.528600 0.887577
O O13 0.984361 0.536789 0.826787
O O14 0.146115 0.487291 0.007082
O O15 0.990465 0.750000 0.335807
O O16 0.012597 0.491716 0.291208
O O17 0.890404 0.507046 0.332267
O O18 0.225154 0.250000 0.107182
O O19 0.072940 0.750000 0.591091
O O20 0.000000 0.500000 0.500000
O O21 0.878679 0.750000 0.699666
#
# Coordination Sequence:
#
# PCOD8071393 Si02
#       8
#     4   4   4   4   4   4   4   4
#     4  11  23  35  47  66  97 136 173 206 240 287
#     4  11  22  33  48  71  98 130 167 205 246 293
#     4   9  19  33  49  70  99 132 167 205 246 290
#     4   9  19  34  51  72  96 125 162 206 252 295
#     4  10  20  33  50  74 102 134 169 208 248 295
#     4  10  19  33  53  72  94 126 162 206 252 294
#     4   9  17  31  50  72  98 130 166 209 253 294
#     4  11  21  34  51  72  99 132 167 205 249 295
#
# _framework density 16.849374000000001
#
# number of rings (size 3 to 8) (size 9 to 14) (size 15 to 20)
#    0.000    2.000    1.250    3.750    0.000    8.000 
#    0.000    0.000    0.000    0.000    0.000    0.875 
#    0.000    0.000    0.000    0.000    0.000    0.000 
#
# Total GULP energy -396831.188174 kJ/mol
# GULP energy per Si atom -12400.974630 kJ/mol
# Density = 1.681102 g / cm^3
# Si number density = 16.849374 Si / 1000 Ang^3
#
#
#
# Elastic Constant Matrix: (Units=GPa)
#
#
# Indices 1 2 3 4 5 6 
#
# 1 65.3823 31.6136 11.0918 0.0000 -24.0612 0.0000
# 2 31.6136 86.0527 41.3102 0.0000 -12.3951 0.0000
# 3 11.0918 41.3102 66.2223 0.0000 -15.9246 0.0000
# 4 0.0000 0.0000 0.0000 28.9714 0.0000 -0.6043
# 5 -24.0612 -12.3951 -15.9246 0.0000 19.1013 0.0000
# 6 0.0000 0.0000 0.0000 -0.6043 0.0000 30.8872
#
#
#
# Elastic Compliance Matrix: (Units=1/GPa)
#
#
# Indices 1 2 3 4 5 6 
#
# 1 0.038437 -0.013637 0.014489 0.000000 0.051648 0.000000
# 2 -0.013637 0.021536 -0.014910 0.000000 -0.015633 0.000000
# 3 0.014489 -0.014910 0.030064 0.000000 0.033640 0.000000
# 4 0.000000 0.000000 0.000000 0.034531 0.000000 0.000676
# 5 0.051648 -0.015633 0.033640 0.000000 0.135312 0.000000
# 6 0.000000 0.000000 0.000000 0.000676 0.000000 0.032389
#
#
# Mechanical properties :
#
#
# Convention : Reuss Voigt Hill
#
# Bulk Modulus (GPa) = 16.14933 42.85427 29.50180
# Shear Modulus (GPa) = 14.66159 24.70144 19.68151
#
# Velocity S-wave (km/s) = 2.95304 3.83301 3.42143
# Velocity P-wave (km/s) = 4.60789 6.71403 5.75808
#
# Compressibility (1/GPa) = 0.06192206
#
# Stress axis : x y z
#
# Youngs Moduli (GPa) = 26.01633 46.43288 33.26211
#
# Poissons Ratio (x) = 0.63320 -0.48193
# Poissons Ratio (y) = 0.35478 0.49593
# Poissons Ratio (z) = -0.37694 0.69231
#
# Static dielectric constant tensor:
#      x y z
#    x 3.329350 0.000000 -0.086030 
#    y 0.000000 3.295730 0.000000 
#    z -0.086030 0.000000 2.797440 
# 
# 
# High freq. dielectric constant tensor:
#      x y z
#    x 1.637820 0.000000 -0.012210 
#    y 0.000000 1.666670 0.000000 
#    z -0.012210 0.000000 1.624030 
# 
# From -- ./inp_files/38105.got.cif
#   From: 2010.06.25/outbox.cif.g09.slc.cpg/sg11_20_cif.got.tgz:38105.got - 2010.06.27 23:14:04.
