data_PCOD8071738
_publ_section_title
;
Structure prediction by ZEFSAII (Michael W. Deem and Ramdas Pophale) SiO2 
 PCOD8071738
Probable space group: P 21/M
;
_chemical_formula_sum "Si O2"
_cell_formula_units_Z 32
_cell_length_a 12.091138
_cell_length_b 8.754983
_cell_length_c 28.505301
_cell_angle_alpha 90.000000
_cell_angle_beta 145.394155
_cell_angle_gamma 90.000000
_cell_volume 1713.725182
_symmetry_space_group_name_H-M "P 21/M"
_symmetry_group_IT_number 11
_symmetry_cell_setting 'monoclinic'
loop_
_space_group_symop_operation_xyz
x,y,z
-x,1/2+y,-z
-x,-y,-z
x,1/2-y,z
loop_
_atom_site_type_symbol
_atom_site_label
_atom_site_fract_x
_atom_site_fract_y
_atom_site_fract_z
Si Si1 0.750142 0.572062 0.631799
Si Si2 0.426676 0.929405 0.277477
Si Si3 0.807615 0.071663 0.453856
Si Si4 0.695338 0.425670 0.518295
Si Si5 0.219914 0.072685 0.124031
Si Si6 0.808740 0.926407 0.991942
Si Si7 0.314743 0.570591 0.959938
Si Si8 0.933143 0.071199 0.782468
O O1 0.788944 0.750000 0.652837
O O2 0.794553 0.526948 0.593463
O O3 0.529071 0.525284 0.567410
O O4 0.895278 0.479259 0.715891
O O5 0.435220 0.750000 0.271376
O O6 0.252605 0.976080 0.251412
O O7 0.627032 0.984063 0.369048
O O8 0.398418 0.015784 0.218083
O O9 0.792458 0.250000 0.436304
O O10 0.812294 0.045384 0.511371
O O11 0.000000 0.000000 0.500000
O O12 0.703817 0.250000 0.537175
O O13 0.172886 0.250000 0.116378
O O14 0.276585 0.043472 0.089664
O O15 0.033213 0.974508 0.073234
O O16 0.797378 0.750000 0.002322
O O17 0.681929 0.022502 0.984299
O O18 0.328465 0.750000 0.960729
O O19 0.119331 0.515207 0.866908
O O20 0.500000 0.500000 0.000000
O O21 0.974626 0.250000 0.798849
#
# Coordination Sequence:
#
# PCOD8071738 Si02
#       8
#     4   4   4   4   4   4   4   4
#     4  10  19  33  57  87 116 148 191 240 288 341
#     4  11  22  36  59  88 119 153 196 244 289 343
#     4  11  23  40  60  84 119 156 196 239 291 352
#     4   9  19  35  55  82 116 152 189 236 290 344
#     4  10  20  34  58  88 119 153 192 243 293 341
#     4  10  20  36  57  86 120 154 195 240 290 347
#     4  12  25  41  62  86 119 158 196 240 294 353
#     4  11  22  37  59  88 120 152 194 243 288 343
#
# _framework density 18.672772999999999
#
# number of rings (size 3 to 8) (size 9 to 14) (size 15 to 20)
#    0.000    1.500    2.500    3.375    0.000    4.000 
#    0.000    1.250    0.000    6.000    0.000    0.000 
#    0.000    0.000    0.000    0.000    0.000    0.000 
#
# Total GULP energy -396958.830618 kJ/mol
# GULP energy per Si atom -12404.963457 kJ/mol
# Density = 1.863027 g / cm^3
# Si number density = 18.672773 Si / 1000 Ang^3
#
#
#
# Elastic Constant Matrix: (Units=GPa)
#
#
# Indices 1 2 3 4 5 6 
#
# 1 117.4223 54.7644 57.2275 0.0000 -2.5051 0.0000
# 2 54.7644 100.1296 51.1034 0.0000 -2.0399 0.0000
# 3 57.2275 51.1034 94.0100 0.0000 -5.1684 0.0000
# 4 0.0000 0.0000 0.0000 35.3927 0.0000 -2.7022
# 5 -2.5051 -2.0399 -5.1684 0.0000 31.6880 0.0000
# 6 0.0000 0.0000 0.0000 -2.7022 0.0000 32.2923
#
#
#
# Elastic Compliance Matrix: (Units=1/GPa)
#
#
# Indices 1 2 3 4 5 6 
#
# 1 0.013361 -0.004367 -0.005769 0.000000 -0.000166 0.000000
# 2 -0.004367 0.015252 -0.005649 0.000000 -0.000285 0.000000
# 3 -0.005769 -0.005649 0.017330 0.000000 0.002007 0.000000
# 4 0.000000 0.000000 0.000000 0.028436 0.000000 0.002380
# 5 -0.000166 -0.000285 0.002007 0.000000 0.031854 0.000000
# 6 0.000000 0.000000 0.000000 0.002380 0.000000 0.031166
#
#
# Mechanical properties :
#
#
# Convention : Reuss Voigt Hill
#
# Bulk Modulus (GPa) = 69.56532 70.86137 70.21334
# Shear Modulus (GPa) = 28.77560 29.77236 29.27398
#
# Velocity S-wave (km/s) = 3.92987 3.99736 3.96376
# Velocity P-wave (km/s) = 7.61103 7.70302 7.65716
#
# Compressibility (1/GPa) = 0.01437498
#
# Stress axis : x y z
#
# Youngs Moduli (GPa) = 74.84629 65.56314 57.70463
#
# Poissons Ratio (x) = 0.28629 0.33287
# Poissons Ratio (y) = 0.32683 0.32595
# Poissons Ratio (z) = 0.43176 0.37034
#
# Static dielectric constant tensor:
#      x y z
#    x 3.482680 0.000000 -0.249220 
#    y 0.000000 3.572860 0.000000 
#    z -0.249220 0.000000 3.298890 
# 
# 
# High freq. dielectric constant tensor:
#      x y z
#    x 1.720570 0.000000 -0.023140 
#    y 0.000000 1.740860 0.000000 
#    z -0.023140 0.000000 1.714550 
# 
# From -- ./inp_files/38250.got.cif
#   From: 2010.06.25/outbox.cif.g09.slc.cpg/sg11_20_cif.got.tgz:38250.got - 2010.06.27 23:14:04.
