data_PCOD8071891
_publ_section_title
;
Structure prediction by ZEFSAII (Michael W. Deem and Ramdas Pophale) SiO2 
 PCOD8071891
Probable space group: P 21/M
;
_chemical_formula_sum "Si O2"
_cell_formula_units_Z 24
_cell_length_a 8.612721
_cell_length_b 18.327994
_cell_length_c 15.899193
_cell_angle_alpha 90.000000
_cell_angle_beta 146.923237
_cell_angle_gamma 90.000000
_cell_volume 1369.726387
_symmetry_space_group_name_H-M "P 21/M"
_symmetry_group_IT_number 11
_symmetry_cell_setting 'monoclinic'
loop_
_space_group_symop_operation_xyz
x,y,z
-x,1/2+y,-z
-x,-y,-z
x,1/2-y,z
loop_
_atom_site_type_symbol
_atom_site_label
_atom_site_fract_x
_atom_site_fract_y
_atom_site_fract_z
Si Si1 0.792482 0.167609 0.046815
Si Si2 0.704580 0.420199 0.680106
Si Si3 0.744266 0.444084 0.888065
Si Si4 0.147617 0.072454 0.329223
Si Si5 0.428326 0.534864 0.875614
Si Si6 0.734106 0.834311 0.075990
O O1 0.875946 0.250000 0.068869
O O2 0.020929 0.136947 0.216066
O O3 0.834494 0.128758 0.977145
O O4 0.468545 0.159321 0.934047
O O5 0.640094 0.417245 0.750002
O O6 0.784059 0.503641 0.698289
O O7 0.421681 0.397250 0.501998
O O8 0.948654 0.363816 0.760662
O O9 0.496738 0.482016 0.829775
O O10 0.000000 0.500000 0.000000
O O11 0.907044 0.048483 0.286571
O O12 0.500000 0.500000 0.000000
O O13 0.602773 0.611349 0.945472
O O14 0.745208 0.750000 0.049665
#
# Coordination Sequence:
#
# PCOD8071891 Si02
#       6
#     4   4   4   4   4   4
#     4  10  20  36  58  78 104 148 190 221 271 335
#     4  11  21  33  54  85 111 136 180 231 277 320
#     4  12  19  33  57  84 108 141 184 239 270 312
#     4  10  20  36  55  79 109 146 180 218 276 334
#     4  11  17  36  58  76 107 146 184 227 262 332
#     4  10  19  34  55  79 105 145 184 220 272 332
#
# _framework density 17.521747999999999
#
# number of rings (size 3 to 8) (size 9 to 14) (size 15 to 20)
#    0.000    1.333    8.333    0.000    0.000    2.000 
#    0.000    0.000    0.000    0.000    0.000    0.000 
#    0.000    0.000    0.000    0.000    0.000    0.000 
#
# Total GULP energy -297500.431552 kJ/mol
# GULP energy per Si atom -12395.851315 kJ/mol
# Density = 1.748187 g / cm^3
# Si number density = 17.521748 Si / 1000 Ang^3
#
#
#
# Elastic Constant Matrix: (Units=GPa)
#
#
# Indices 1 2 3 4 5 6 
#
# 1 88.6080 51.4435 60.0320 0.0000 -8.3924 0.0000
# 2 51.4435 128.7517 55.7554 0.0000 -3.8322 0.0000
# 3 60.0320 55.7554 125.9529 0.0000 11.1363 0.0000
# 4 0.0000 0.0000 0.0000 21.7724 0.0000 3.3441
# 5 -8.3924 -3.8322 11.1363 0.0000 25.9735 0.0000
# 6 0.0000 0.0000 0.0000 3.3441 0.0000 27.8223
#
#
#
# Elastic Compliance Matrix: (Units=1/GPa)
#
#
# Indices 1 2 3 4 5 6 
#
# 1 0.020620 -0.004096 -0.008887 0.000000 0.009868 0.000000
# 2 -0.004096 0.010715 -0.002924 0.000000 0.001511 0.000000
# 3 -0.008887 -0.002924 0.014304 0.000000 -0.009436 0.000000
# 4 0.000000 0.000000 0.000000 0.046794 0.000000 -0.005624
# 5 0.009868 0.001511 -0.009436 0.000000 0.045958 0.000000
# 6 0.000000 0.000000 0.000000 -0.005624 0.000000 0.036618
#
#
# Mechanical properties :
#
#
# Convention : Reuss Voigt Hill
#
# Bulk Modulus (GPa) = 72.34264 75.30826 73.82545
# Shear Modulus (GPa) = 23.64831 26.85241 25.25036
#
# Velocity S-wave (km/s) = 3.67775 3.91899 3.80028
# Velocity P-wave (km/s) = 7.70788 7.97190 7.84100
#
# Compressibility (1/GPa) = 0.01382311
#
# Stress axis : x y z
#
# Youngs Moduli (GPa) = 48.49778 93.32708 69.91080
#
# Poissons Ratio (x) = 0.38231 0.62129
# Poissons Ratio (y) = 0.19867 0.20444
# Poissons Ratio (z) = 0.43099 0.27292
#
# Static dielectric constant tensor:
#      x y z
#    x 3.440690 0.000000 0.177120 
#    y 0.000000 3.478740 0.000000 
#    z 0.177120 0.000000 3.188940 
# 
# 
# High freq. dielectric constant tensor:
#      x y z
#    x 1.671660 0.000000 0.019440 
#    y 0.000000 1.683220 0.000000 
#    z 0.019440 0.000000 1.658780 
# 
# From -- ./inp_files/58365.got.cif
#   From: 2010.06.25/outbox.cif.g09.slc.cpg/sg11_30_cif.got.tgz:58365.got - 2010.06.27 23:14:04.
