data_PCOD8071118
_publ_section_title
;
Structure prediction by ZEFSAII (Michael W. Deem and Ramdas Pophale) SiO2 
 PCOD8071118
Probable space group: P 21/M
;
_chemical_formula_sum "Si O2"
_cell_formula_units_Z 32
_cell_length_a 22.291638
_cell_length_b 8.860561
_cell_length_c 28.170691
_cell_angle_alpha 90.000000
_cell_angle_beta 161.529649
_cell_angle_gamma 90.000000
_cell_volume 1762.807563
_symmetry_space_group_name_H-M "P 21/M"
_symmetry_group_IT_number 11
_symmetry_cell_setting 'monoclinic'
loop_
_space_group_symop_operation_xyz
x,y,z
-x,1/2+y,-z
-x,-y,-z
x,1/2-y,z
loop_
_atom_site_type_symbol
_atom_site_label
_atom_site_fract_x
_atom_site_fract_y
_atom_site_fract_z
Si Si1 0.789342 0.574272 0.236769
Si Si2 0.812880 0.428652 0.988125
Si Si3 0.526899 0.071996 0.852732
Si Si4 0.556855 0.573772 0.971868
Si Si5 0.909278 0.572394 0.478300
Si Si6 0.186533 0.571203 0.117957
Si Si7 0.442996 0.423889 0.383588
Si Si8 0.771084 0.924805 0.680164
O O1 0.817993 0.750000 0.268167
O O2 0.628148 0.517071 0.151384
O O3 0.984634 0.488764 0.395050
O O4 0.730161 0.541327 0.138021
O O5 0.814921 0.250000 0.987028
O O6 0.013310 0.482811 0.160147
O O7 0.643157 0.485573 0.894243
O O8 0.785018 0.491405 0.914099
O O9 0.550823 0.250000 0.878768
O O10 0.309481 0.025773 0.681652
O O11 0.615774 0.985652 0.964515
O O12 0.506345 0.750000 0.933079
O O13 0.934739 0.750000 0.494229
O O14 0.000000 0.500000 0.500000
O O15 0.163239 0.750000 0.101504
O O16 0.371069 0.521843 0.285523
O O17 0.000000 0.500000 0.000000
O O18 0.447233 0.250000 0.371890
O O19 0.302976 0.452860 0.322326
O O20 0.654238 0.476797 0.554917
O O21 0.749967 0.750000 0.650352
#
# Coordination Sequence:
#
# PCOD8071118 Si02
#       8
#     4   4   4   4   4   4   4   4
#     4  10  20  34  54  80 108 140 179 222 270 322
#     4   9  19  37  57  78 107 144 186 226 268 326
#     4  10  21  37  57  79 107 145 185 225 271 329
#     4  10  20  34  54  80 109 139 176 225 275 322
#     4  11  21  33  54  83 111 141 182 229 276 323
#     4  11  20  34  56  82 111 144 183 230 277 323
#     4  10  19  32  52  82 111 136 175 225 272 321
#     4   9  17  33  54  77 105 140 178 221 269 317
#
# _framework density 18.152861000000001
#
# number of rings (size 3 to 8) (size 9 to 14) (size 15 to 20)
#    0.000    2.000    2.500    1.875    0.000    2.500 
#    0.000    3.125    0.000    6.000    0.000    0.000 
#    0.000    0.000    0.000    0.000    0.000    0.000 
#
# Total GULP energy -396867.874453 kJ/mol
# GULP energy per Si atom -12402.121077 kJ/mol
# Density = 1.811154 g / cm^3
# Si number density = 18.152861 Si / 1000 Ang^3
#
#
#
# Elastic Constant Matrix: (Units=GPa)
#
#
# Indices 1 2 3 4 5 6 
#
# 1 126.1370 43.1261 76.5531 0.0000 -4.7939 0.0000
# 2 43.1261 64.7367 45.2888 0.0000 -5.0643 0.0000
# 3 76.5531 45.2888 138.1151 0.0000 -4.6925 0.0000
# 4 0.0000 0.0000 0.0000 31.7719 0.0000 -6.3423
# 5 -4.7939 -5.0643 -4.6925 0.0000 28.8331 0.0000
# 6 0.0000 0.0000 0.0000 -6.3423 0.0000 24.0188
#
#
#
# Elastic Compliance Matrix: (Units=1/GPa)
#
#
# Indices 1 2 3 4 5 6 
#
# 1 0.012959 -0.004653 -0.005643 0.000000 0.000419 0.000000
# 2 -0.004653 0.021892 -0.004520 0.000000 0.002336 0.000000
# 3 -0.005643 -0.004520 0.011857 0.000000 0.000198 0.000000
# 4 0.000000 0.000000 0.000000 0.033226 0.000000 0.008773
# 5 0.000419 0.002336 0.000198 0.000000 0.035194 0.000000
# 6 0.000000 0.000000 0.000000 0.008773 0.000000 0.043951
#
#
# Mechanical properties :
#
#
# Convention : Reuss Voigt Hill
#
# Bulk Modulus (GPa) = 58.56118 73.21386 65.88752
# Shear Modulus (GPa) = 25.71977 27.85950 26.78963
#
# Velocity S-wave (km/s) = 3.76818 3.92180 3.84576
# Velocity P-wave (km/s) = 7.15977 7.80556 7.48963
#
# Compressibility (1/GPa) = 0.01707616
#
# Stress axis : x y z
#
# Youngs Moduli (GPa) = 77.16415 45.67947 84.33767
#
# Poissons Ratio (x) = 0.21253 0.47593
# Poissons Ratio (y) = 0.35901 0.38123
# Poissons Ratio (z) = 0.43545 0.20648
#
# Static dielectric constant tensor:
#      x y z
#    x 3.356630 0.000000 -0.185300 
#    y 0.000000 3.305190 0.000000 
#    z -0.185300 0.000000 3.579860 
# 
# 
# High freq. dielectric constant tensor:
#      x y z
#    x 1.683310 0.000000 -0.018550 
#    y 0.000000 1.700320 0.000000 
#    z -0.018550 0.000000 1.710110 
# 
# From -- ./inp_files/72161.got.cif
#   From: 2010.06.25/outbox.cif.g09.slc.cpg/sg11_37_cif.got.tgz:72161.got - 2010.06.27 23:14:04.
