data_PCOD8071469
_publ_section_title
;
Structure prediction by ZEFSAII (Michael W. Deem and Ramdas Pophale) SiO2 
 PCOD8071469
Probable space group: P 21/M
;
_chemical_formula_sum "Si O2"
_cell_formula_units_Z 32
_cell_length_a 11.889512
_cell_length_b 8.843209
_cell_length_c 27.254823
_cell_angle_alpha 90.000000
_cell_angle_beta 146.725738
_cell_angle_gamma 90.000000
_cell_volume 1572.209937
_symmetry_space_group_name_H-M "P 21/M"
_symmetry_group_IT_number 11
_symmetry_cell_setting 'monoclinic'
loop_
_space_group_symop_operation_xyz
x,y,z
-x,1/2+y,-z
-x,-y,-z
x,1/2-y,z
loop_
_atom_site_type_symbol
_atom_site_label
_atom_site_fract_x
_atom_site_fract_y
_atom_site_fract_z
Si Si1 0.863501 0.071579 0.993327
Si Si2 0.488462 0.070496 0.324730
Si Si3 0.281355 0.577673 0.415367
Si Si4 0.090080 0.070201 0.786011
Si Si5 0.257187 0.572040 0.672495
Si Si6 0.966196 0.927523 0.837312
Si Si7 0.583729 0.069640 0.165576
Si Si8 0.154827 0.923010 0.477837
O O1 0.844681 0.250000 0.977031
O O2 0.643000 0.995691 0.915302
O O3 0.965247 0.036382 0.082719
O O4 0.000000 0.000000 0.000000
O O5 0.474713 0.250000 0.320486
O O6 0.567148 0.014262 0.300423
O O7 0.263181 0.006079 0.252049
O O8 0.639738 0.009737 0.422443
O O9 0.500000 0.500000 0.500000
O O10 0.330151 0.750000 0.421023
O O11 0.162457 0.557179 0.422621
O O12 0.124638 0.511778 0.317065
O O13 0.107854 0.250000 0.788058
O O14 0.288131 0.997256 0.832729
O O15 0.100593 0.017524 0.846359
O O16 0.243719 0.750000 0.666672
O O17 0.306782 0.513518 0.744810
O O18 0.041963 0.510497 0.574190
O O19 0.982547 0.750000 0.831690
O O20 0.573801 0.250000 0.157813
O O21 0.131205 0.750000 0.485340
#
# Coordination Sequence:
#
# PCOD8071469 Si02
#       8
#     4   4   4   4   4   4   4   4
#     4  11  24  43  69  98 127 160 200 251 307 369
#     4   9  18  34  57  83 115 154 196 243 296 357
#     4  10  21  35  54  81 117 160 207 254 302 358
#     4  11  23  40  61  89 124 159 205 262 311 364
#     4  10  20  35  56  84 116 154 200 246 293 356
#     4  10  22  42  65  88 119 159 202 248 305 370
#     4  11  23  40  64  90 122 166 209 255 310 369
#     4  10  19  33  53  80 115 154 193 241 299 354
#
# _framework density 20.353515000000002
#
# number of rings (size 3 to 8) (size 9 to 14) (size 15 to 20)
#    0.000    1.750    1.250    3.000    0.000    6.500 
#    0.000    1.250    0.000    0.000    0.000    0.000 
#    0.000    0.000    0.000    0.000    0.000    0.000 
#
# Total GULP energy -396788.128649 kJ/mol
# GULP energy per Si atom -12399.629020 kJ/mol
# Density = 2.030719 g / cm^3
# Si number density = 20.353515 Si / 1000 Ang^3
#
#
#
# Elastic Constant Matrix: (Units=GPa)
#
#
# Indices 1 2 3 4 5 6 
#
# 1 125.3661 40.5944 56.9494 0.0000 0.9976 0.0000
# 2 40.5944 55.7579 41.1342 0.0000 -0.1893 0.0000
# 3 56.9494 41.1342 125.9229 0.0000 10.0262 0.0000
# 4 0.0000 0.0000 0.0000 31.3158 0.0000 8.2234
# 5 0.9976 -0.1893 10.0262 0.0000 39.2203 0.0000
# 6 0.0000 0.0000 0.0000 8.2234 0.0000 23.9929
#
#
#
# Elastic Compliance Matrix: (Units=1/GPa)
#
#
# Indices 1 2 3 4 5 6 
#
# 1 0.011350 -0.005856 -0.003262 0.000000 0.000517 0.000000
# 2 -0.005856 0.026826 -0.006264 0.000000 0.001880 0.000000
# 3 -0.003262 -0.006264 0.011697 0.000000 -0.002937 0.000000
# 4 0.000000 0.000000 0.000000 0.035091 0.000000 -0.012027
# 5 0.000517 0.001880 -0.002937 0.000000 0.026244 0.000000
# 6 0.000000 0.000000 0.000000 -0.012027 0.000000 0.045801
#
#
# Mechanical properties :
#
#
# Convention : Reuss Voigt Hill
#
# Bulk Modulus (GPa) = 52.33011 64.93363 58.63187
# Shear Modulus (GPa) = 25.75443 30.13038 27.94240
#
# Velocity S-wave (km/s) = 3.56104 3.85171 3.70922
# Velocity P-wave (km/s) = 6.53257 7.19396 6.87123
#
# Compressibility (1/GPa) = 0.01910946
#
# Stress axis : x y z
#
# Youngs Moduli (GPa) = 88.10401 37.27784 85.49471
#
# Poissons Ratio (x) = 0.21828 0.27885
# Poissons Ratio (y) = 0.51590 0.53557
# Poissons Ratio (z) = 0.28736 0.23352
#
# Static dielectric constant tensor:
#      x y z
#    x 3.872780 0.000000 -0.101450 
#    y 0.000000 3.523510 0.000000 
#    z -0.101450 0.000000 3.960860 
# 
# 
# High freq. dielectric constant tensor:
#      x y z
#    x 1.810080 0.000000 0.000430 
#    y 0.000000 1.775750 0.000000 
#    z 0.000430 0.000000 1.803860 
# 
# From -- ./inp_files/73171.got.cif
#   From: 2010.06.25/outbox.cif.g09.slc.cpg/sg11_37_cif.got.tgz:73171.got - 2010.06.27 23:14:04.
