data_PCOD8071014
_publ_section_title
;
Structure prediction by ZEFSAII (Michael W. Deem and Ramdas Pophale) SiO2 
 PCOD8071014
Probable space group: P 21/M
;
_chemical_formula_sum "Si O2"
_cell_formula_units_Z 28
_cell_length_a 17.788804
_cell_length_b 11.514158
_cell_length_c 21.754363
_cell_angle_alpha 90.000000
_cell_angle_beta 160.272456
_cell_angle_gamma 90.000000
_cell_volume 1504.044230
_symmetry_space_group_name_H-M "P 21/M"
_symmetry_group_IT_number 11
_symmetry_cell_setting 'monoclinic'
loop_
_space_group_symop_operation_xyz
x,y,z
-x,1/2+y,-z
-x,-y,-z
x,1/2-y,z
loop_
_atom_site_type_symbol
_atom_site_label
_atom_site_fract_x
_atom_site_fract_y
_atom_site_fract_z
Si Si1 0.969960 0.382866 0.897897
Si Si2 0.647860 0.618151 0.373351
Si Si3 0.567873 0.119029 0.915288
Si Si4 0.957719 0.528882 0.276298
Si Si5 0.745037 0.116877 0.601390
Si Si6 0.351021 0.971206 0.248838
Si Si7 0.375030 0.379222 0.890460
O O1 0.037950 0.250000 0.940892
O O2 0.866551 0.434265 0.755399
O O3 0.792633 0.392176 0.816380
O O4 0.194188 0.450906 0.085445
O O5 0.705247 0.750000 0.402489
O O6 0.523991 0.563371 0.218602
O O7 0.492215 0.611702 0.313360
O O8 0.881289 0.556926 0.563712
O O9 0.657337 0.250000 0.972392
O O10 0.363631 0.120959 0.807415
O O11 0.771602 0.042308 0.096299
O O12 0.856883 0.613017 0.251327
O O13 0.094673 0.606493 0.333920
O O14 0.682295 0.250000 0.564180
O O15 0.514178 0.050230 0.414774
O O16 0.480097 0.250000 0.989797
O O17 0.500000 0.500000 0.000000
#
# Coordination Sequence:
#
# PCOD8071014 Si02
#       7
#     4   4   4   4   4   4   4
#     4  10  20  34  52  72  96 127 162 201 248 299
#     4  10  20  33  51  75 102 133 169 208 252 302
#     4   9  18  33  51  73 102 133 168 210 252 298
#     4  10  19  32  52  74 101 133 169 207 253 300
#     4  10  20  33  50  72  98 128 162 202 247 297
#     4  10  20  34  51  72  98 127 162 203 247 296
#     4   9  18  33  54  78 106 139 175 215 259 307
#
# _framework density 18.616475000000001
#
# number of rings (size 3 to 8) (size 9 to 14) (size 15 to 20)
#    0.000    2.286    0.000    3.000    0.000    1.143 
#    0.000    0.000    0.000   25.714    0.000    0.000 
#    0.000    0.000    0.000    0.000    0.000    0.000 
#
# Total GULP energy -346990.686606 kJ/mol
# GULP energy per Si atom -12392.524522 kJ/mol
# Density = 1.857410 g / cm^3
# Si number density = 18.616475 Si / 1000 Ang^3
#
#
#
# Elastic Constant Matrix: (Units=GPa)
#
#
# Indices 1 2 3 4 5 6 
#
# 1 49.5747 11.1577 18.8990 0.0000 -1.9991 0.0000
# 2 11.1577 78.6178 29.8213 0.0000 -5.5259 0.0000
# 3 18.8990 29.8213 107.1847 0.0000 -18.0585 0.0000
# 4 0.0000 0.0000 0.0000 8.1665 0.0000 -4.8236
# 5 -1.9991 -5.5259 -18.0585 0.0000 29.4305 0.0000
# 6 0.0000 0.0000 0.0000 -4.8236 0.0000 59.0243
#
#
#
# Elastic Compliance Matrix: (Units=1/GPa)
#
#
# Indices 1 2 3 4 5 6 
#
# 1 0.021886 -0.001843 -0.003518 0.000000 -0.001018 0.000000
# 2 -0.001843 0.014378 -0.003615 0.000000 0.000356 0.000000
# 3 -0.003518 -0.003615 0.012047 0.000000 0.006474 0.000000
# 4 0.000000 0.000000 0.000000 0.128662 0.000000 0.010515
# 5 -0.001018 0.000356 0.006474 0.000000 0.037948 0.000000
# 6 0.000000 0.000000 0.000000 0.010515 0.000000 0.017801
#
#
# Mechanical properties :
#
#
# Convention : Reuss Voigt Hill
#
# Bulk Modulus (GPa) = 32.94012 39.45924 36.19968
# Shear Modulus (GPa) = 19.17218 31.02420 25.09819
#
# Velocity S-wave (km/s) = 3.21261 4.08670 3.67573
# Velocity P-wave (km/s) = 5.61192 6.59621 6.12387
#
# Compressibility (1/GPa) = 0.03035811
#
# Stress axis : x y z
#
# Youngs Moduli (GPa) = 45.69037 69.55193 83.01163
#
# Poissons Ratio (x) = 0.12821 0.29201
# Poissons Ratio (y) = 0.08423 0.30010
# Poissons Ratio (z) = 0.16072 0.25144
#
# Static dielectric constant tensor:
#      x y z
#    x 3.720360 0.000000 -0.057490 
#    y 0.000000 3.380440 0.000000 
#    z -0.057490 0.000000 3.344210 
# 
# 
# High freq. dielectric constant tensor:
#      x y z
#    x 1.739590 0.000000 -0.003010 
#    y 0.000000 1.722780 0.000000 
#    z -0.003010 0.000000 1.707650 
# 
# From -- ./inp_files/26350.got.cif
#   From: 2010.06.25/outbox.cif.g09.slc.cpg/sg11_14_cif.got.tgz:26350.got - 2010.06.27 23:14:04.
