data_PCOD8071306
_publ_section_title
;
Structure prediction by ZEFSAII (Michael W. Deem and Ramdas Pophale) SiO2 
 PCOD8071306
Probable space group: P 21/M
;
_chemical_formula_sum "Si O2"
_cell_formula_units_Z 32
_cell_length_a 21.923641
_cell_length_b 9.097466
_cell_length_c 11.752789
_cell_angle_alpha 90.000000
_cell_angle_beta 56.522527
_cell_angle_gamma 90.000000
_cell_volume 1955.210956
_symmetry_space_group_name_H-M "P 21/M"
_symmetry_group_IT_number 11
_symmetry_cell_setting 'monoclinic'
loop_
_space_group_symop_operation_xyz
x,y,z
-x,1/2+y,-z
-x,-y,-z
x,1/2-y,z
loop_
_atom_site_type_symbol
_atom_site_label
_atom_site_fract_x
_atom_site_fract_y
_atom_site_fract_z
Si Si1 0.219106 0.078273 0.923807
Si Si2 0.765244 0.920071 0.348536
Si Si3 0.367885 0.423972 0.373098
Si Si4 0.422546 0.421999 0.079464
Si Si5 0.920490 0.418550 0.948974
Si Si6 0.492060 0.575912 0.628250
Si Si7 0.075764 0.081136 0.821719
Si Si8 0.633327 0.921034 0.108566
O O1 0.205331 0.250000 0.931237
O O2 0.236849 0.015944 0.778489
O O3 0.283807 0.038073 0.943669
O O4 0.143326 0.008440 0.049473
O O5 0.744601 0.750000 0.360439
O O6 0.703766 0.995373 0.492292
O O7 0.846029 0.942946 0.322011
O O8 0.361243 0.250000 0.380611
O O9 0.374638 0.479373 0.235868
O O10 0.439793 0.475417 0.365884
O O11 0.438725 0.250000 0.074307
O O12 0.500000 0.500000 0.000000
O O13 0.377054 0.458991 0.013148
O O14 0.897830 0.250000 0.963239
O O15 0.925317 0.466233 0.074870
O O16 0.003990 0.445051 0.814975
O O17 0.500000 0.500000 0.500000
O O18 0.489166 0.750000 0.615592
O O19 0.418523 0.521742 0.762909
O O20 0.073174 0.250000 0.871020
O O21 0.616589 0.750000 0.151705
#
# Coordination Sequence:
#
# PCOD8071306 Si02
#       8
#     4   4   4   4   4   4   4   4
#     4   9  17  29  43  61  88 121 151 182 226 275
#     4   8  13  24  42  61  85 115 146 177 214 265
#     4   9  17  29  46  67  89 116 149 187 229 271
#     4  10  19  33  51  69  88 113 152 198 237 275
#     4   9  15  23  38  62  89 115 147 183 218 263
#     4  11  21  32  47  68  95 123 152 185 227 279
#     4   8  14  24  39  60  87 120 150 176 214 267
#     4  10  20  33  49  67  89 119 156 195 232 274
#
# _framework density 16.366520000000001
#
# number of rings (size 3 to 8) (size 9 to 14) (size 15 to 20)
#    0.000    2.750    1.250    2.250    0.000    3.000 
#    0.000    0.000    0.000    3.750    0.000    0.875 
#    0.000    0.000    0.000    0.000    0.000    0.000 
#
# Total GULP energy -396473.910369 kJ/mol
# GULP energy per Si atom -12389.809699 kJ/mol
# Density = 1.632927 g / cm^3
# Si number density = 16.366520 Si / 1000 Ang^3
#
#
#
# Elastic Constant Matrix: (Units=GPa)
#
#
# Indices 1 2 3 4 5 6 
#
# 1 150.6044 39.4075 72.1977 0.0000 -18.0908 0.0000
# 2 39.4075 38.0797 22.7182 0.0000 -2.6546 0.0000
# 3 72.1977 22.7182 67.1296 0.0000 4.9369 0.0000
# 4 0.0000 0.0000 0.0000 16.1420 0.0000 -4.1670
# 5 -18.0908 -2.6546 4.9369 0.0000 25.6229 0.0000
# 6 0.0000 0.0000 0.0000 -4.1670 0.0000 23.2048
#
#
#
# Elastic Compliance Matrix: (Units=1/GPa)
#
#
# Indices 1 2 3 4 5 6 
#
# 1 0.021177 -0.007833 -0.021469 0.000000 0.018277 0.000000
# 2 -0.007833 0.036623 -0.003897 0.000000 -0.000985 0.000000
# 3 -0.021469 -0.003897 0.041031 0.000000 -0.023467 0.000000
# 4 0.000000 0.000000 0.000000 0.064961 0.000000 0.011665
# 5 0.018277 -0.000985 -0.023467 0.000000 0.056351 0.000000
# 6 0.000000 0.000000 0.000000 0.011665 0.000000 0.045189
#
#
# Mechanical properties :
#
#
# Convention : Reuss Voigt Hill
#
# Bulk Modulus (GPa) = 30.83301 58.27339 44.55320
# Shear Modulus (GPa) = 14.59672 21.09330 17.84501
#
# Velocity S-wave (km/s) = 2.98965 3.59389 3.30561
# Velocity P-wave (km/s) = 5.54953 7.27351 6.46921
#
# Compressibility (1/GPa) = 0.03243278
#
# Stress axis : x y z
#
# Youngs Moduli (GPa) = 47.22150 27.30504 24.37174
#
# Poissons Ratio (x) = 0.21388 0.52323
# Poissons Ratio (y) = 0.36988 0.09499
# Poissons Ratio (z) = 1.01379 0.10642
#
# Static dielectric constant tensor:
#      x y z
#    x 3.367310 0.000000 -0.185080 
#    y 0.000000 2.947500 0.000000 
#    z -0.185080 0.000000 3.001330 
# 
# 
# High freq. dielectric constant tensor:
#      x y z
#    x 1.634320 0.000000 -0.025800 
#    y 0.000000 1.610250 0.000000 
#    z -0.025800 0.000000 1.600470 
# 
# From -- ./inp_files/42425.got.cif
#   From: 2010.06.25/outbox.cif.g09.slc.cpg/sg11_22_cif.got.tgz:42425.got - 2010.06.27 23:14:04.
