data_PCOD8071930
_publ_section_title
;
Structure prediction by ZEFSAII (Michael W. Deem and Ramdas Pophale) SiO2 
 PCOD8071930
Probable space group: P 21/M
;
_chemical_formula_sum "Si O2"
_cell_formula_units_Z 32
_cell_length_a 25.771506
_cell_length_b 9.349503
_cell_length_c 19.889030
_cell_angle_alpha 90.000000
_cell_angle_beta 158.648025
_cell_angle_gamma 90.000000
_cell_volume 1744.850140
_symmetry_space_group_name_H-M "P 21/M"
_symmetry_group_IT_number 11
_symmetry_cell_setting 'monoclinic'
loop_
_space_group_symop_operation_xyz
x,y,z
-x,1/2+y,-z
-x,-y,-z
x,1/2-y,z
loop_
_atom_site_type_symbol
_atom_site_label
_atom_site_fract_x
_atom_site_fract_y
_atom_site_fract_z
Si Si1 0.149545 0.414838 0.844630
Si Si2 0.642047 0.086271 0.811107
Si Si3 0.685715 0.583025 0.594794
Si Si4 0.100442 0.419370 0.260152
Si Si5 0.857792 0.586375 0.317171
Si Si6 0.214377 0.583744 0.155523
Si Si7 0.354741 0.415677 0.825990
Si Si8 0.877698 0.916882 0.562487
O O1 0.128811 0.250000 0.840155
O O2 0.198020 0.429985 0.825993
O O3 0.001511 0.496114 0.675557
O O4 0.273518 0.481829 0.038568
O O5 0.679681 0.250000 0.875062
O O6 0.476273 0.053687 0.621422
O O7 0.684266 0.055136 0.785421
O O8 0.713632 0.750000 0.640960
O O9 0.784855 0.521317 0.654680
O O10 0.720996 0.502198 0.705263
O O11 0.102805 0.250000 0.262407
O O12 0.140533 0.473222 0.383214
O O13 0.943564 0.475235 0.051328
O O14 0.892640 0.750000 0.377623
O O15 0.736478 0.527891 0.220731
O O16 0.000000 0.500000 0.500000
O O17 0.209589 0.750000 0.169077
O O18 0.391677 0.250000 0.879046
O O19 0.269360 0.444352 0.653921
O O20 0.500000 0.500000 0.000000
O O21 0.920895 0.750000 0.613122
#
# Coordination Sequence:
#
# PCOD8071930 Si02
#       8
#     4   4   4   4   4   4   4   4
#     4  11  22  35  57  87 114 141 183 238 281 321
#     4  10  21  37  56  79 109 147 187 224 273 334
#     4  10  21  35  53  80 111 142 182 232 274 324
#     4   9  18  34  56  80 108 141 184 229 268 323
#     4  10  21  37  58  86 115 147 188 233 280 330
#     4  10  19  34  56  78 106 147 184 225 277 328
#     4  10  22  38  59  86 117 152 187 229 280 333
#     4  10  19  37  61  80 108 151 189 224 273 333
#
# _framework density 18.339683999999998
#
# number of rings (size 3 to 8) (size 9 to 14) (size 15 to 20)
#    0.000    2.000    2.500    1.125    0.000    3.500 
#    0.000    1.875    0.000    0.000    0.000    0.000 
#    0.000    0.000    0.000    0.000    0.000    0.000 
#
# Total GULP energy -396888.805603 kJ/mol
# GULP energy per Si atom -12402.775175 kJ/mol
# Density = 1.829794 g / cm^3
# Si number density = 18.339684 Si / 1000 Ang^3
#
#
#
# Elastic Constant Matrix: (Units=GPa)
#
#
# Indices 1 2 3 4 5 6 
#
# 1 93.4001 43.5613 40.9766 0.0000 3.0446 0.0000
# 2 43.5613 66.9434 52.8118 0.0000 -3.8057 0.0000
# 3 40.9766 52.8118 99.4204 0.0000 3.1201 0.0000
# 4 0.0000 0.0000 0.0000 32.5843 0.0000 -2.7931
# 5 3.0446 -3.8057 3.1201 0.0000 36.9538 0.0000
# 6 0.0000 0.0000 0.0000 -2.7931 0.0000 22.5757
#
#
#
# Elastic Compliance Matrix: (Units=1/GPa)
#
#
# Indices 1 2 3 4 5 6 
#
# 1 0.015710 -0.009099 -0.001576 0.000000 -0.002098 0.000000
# 2 -0.009099 0.031530 -0.013159 0.000000 0.005108 0.000000
# 3 -0.001576 -0.013159 0.017783 0.000000 -0.002727 0.000000
# 4 0.000000 0.000000 0.000000 0.031019 0.000000 0.003838
# 5 -0.002098 0.005108 -0.002727 0.000000 0.027990 0.000000
# 6 0.000000 0.000000 0.000000 0.003838 0.000000 0.044770
#
#
# Mechanical properties :
#
#
# Convention : Reuss Voigt Hill
#
# Bulk Modulus (GPa) = 57.61580 59.38482 58.50031
# Shear Modulus (GPa) = 22.49665 26.58371 24.54018
#
# Velocity S-wave (km/s) = 3.50618 3.81138 3.66196
# Velocity P-wave (km/s) = 6.91919 7.19859 7.06027
#
# Compressibility (1/GPa) = 0.01735635
#
# Stress axis : x y z
#
# Youngs Moduli (GPa) = 63.65339 31.71546 56.23249
#
# Poissons Ratio (x) = 0.28858 0.08861
# Poissons Ratio (y) = 0.57918 0.73996
# Poissons Ratio (z) = 0.10030 0.41734
#
# Static dielectric constant tensor:
#      x y z
#    x 3.892520 0.000000 0.039180 
#    y 0.000000 3.251890 0.000000 
#    z 0.039180 0.000000 3.382030 
# 
# 
# High freq. dielectric constant tensor:
#      x y z
#    x 1.724810 0.000000 -0.002460 
#    y 0.000000 1.694480 0.000000 
#    z -0.002460 0.000000 1.714440 
# 
# From -- ./inp_files/67293.got.cif
#   From: 2010.06.25/outbox.cif.g09.slc.cpg/sg11_34_cif.got.tgz:67293.got - 2010.06.27 23:14:04.
