data_PCOD8071711
_publ_section_title
;
Structure prediction by ZEFSAII (Michael W. Deem and Ramdas Pophale) SiO2 
 PCOD8071711
Probable space group: P 21/M
;
_chemical_formula_sum "Si O2"
_cell_formula_units_Z 28
_cell_length_a 30.594752
_cell_length_b 8.951531
_cell_length_c 10.133598
_cell_angle_alpha 90.000000
_cell_angle_beta 32.653072
_cell_angle_gamma 90.000000
_cell_volume 1497.408698
_symmetry_space_group_name_H-M "P 21/M"
_symmetry_group_IT_number 11
_symmetry_cell_setting 'monoclinic'
loop_
_space_group_symop_operation_xyz
x,y,z
-x,1/2+y,-z
-x,-y,-z
x,1/2-y,z
loop_
_atom_site_type_symbol
_atom_site_label
_atom_site_fract_x
_atom_site_fract_y
_atom_site_fract_z
Si Si1 0.501281 0.575154 0.354656
Si Si2 0.912126 0.424886 0.871501
Si Si3 0.752160 0.576247 0.343931
Si Si4 0.344922 0.072781 0.665116
Si Si5 0.073816 0.922936 0.465673
Si Si6 0.755980 0.424385 0.850579
Si Si7 0.320331 0.077986 0.193032
O O1 0.500000 0.500000 0.500000
O O2 0.484788 0.750000 0.414186
O O3 0.432855 0.502978 0.436138
O O4 0.585867 0.542157 0.068630
O O5 0.910014 0.250000 0.897281
O O6 0.903758 0.472809 0.739849
O O7 0.996709 0.485777 0.714942
O O8 0.837678 0.493680 0.140928
O O9 0.770739 0.750000 0.281649
O O10 0.703671 0.517256 0.339668
O O11 0.698338 0.540230 0.608132
O O12 0.355480 0.250000 0.641736
O O13 0.299105 0.021300 0.912648
O O14 0.050266 0.750000 0.528211
O O15 0.149685 0.959884 0.365658
O O16 0.737511 0.250000 0.920842
O O17 0.735672 0.472023 0.753785
O O18 0.300435 0.250000 0.209946
#
# Coordination Sequence:
#
# PCOD8071711 Si02
#       7
#     4   4   4   4   4   4   4
#     4  11  22  37  59  86 116 149 193 241 287 336
#     4  10  19  33  56  86 116 148 188 236 286 337
#     4  10  22  40  59  82 117 156 191 232 288 344
#     4  11  22  36  59  86 114 151 192 235 285 340
#     4   9  19  34  54  84 117 147 186 236 286 336
#     4  11  21  36  59  87 115 148 192 239 284 336
#     4  10  23  41  59  82 115 154 192 235 288 345
#
# _framework density 18.698972000000001
#
# number of rings (size 3 to 8) (size 9 to 14) (size 15 to 20)
#    0.000    1.714    2.857    1.714    0.000    4.000 
#    0.000    0.714    0.000    0.000    0.000    0.000 
#    0.000    0.000    0.000    0.000    0.000    0.000 
#
# Total GULP energy -347346.079655 kJ/mol
# GULP energy per Si atom -12405.217131 kJ/mol
# Density = 1.865641 g / cm^3
# Si number density = 18.698972 Si / 1000 Ang^3
#
#
#
# Elastic Constant Matrix: (Units=GPa)
#
#
# Indices 1 2 3 4 5 6 
#
# 1 93.0489 38.0756 45.4278 0.0000 -18.0010 0.0000
# 2 38.0756 72.9261 46.9308 0.0000 -13.8403 0.0000
# 3 45.4278 46.9308 120.7547 0.0000 -16.9228 0.0000
# 4 0.0000 0.0000 0.0000 28.8381 0.0000 -6.6418
# 5 -18.0010 -13.8403 -16.9228 0.0000 31.4605 0.0000
# 6 0.0000 0.0000 0.0000 -6.6418 0.0000 31.6038
#
#
#
# Elastic Compliance Matrix: (Units=1/GPa)
#
#
# Indices 1 2 3 4 5 6 
#
# 1 0.015266 -0.005057 -0.003099 0.000000 0.004843 0.000000
# 2 -0.005057 0.020589 -0.005662 0.000000 0.003118 0.000000
# 3 -0.003099 -0.005662 0.011951 0.000000 0.002164 0.000000
# 4 0.000000 0.000000 0.000000 0.036440 0.000000 0.007658
# 5 0.004843 0.003118 0.002164 0.000000 0.037093 0.000000
# 6 0.000000 0.000000 0.000000 0.007658 0.000000 0.033251
#
#
# Mechanical properties :
#
#
# Convention : Reuss Voigt Hill
#
# Bulk Modulus (GPa) = 49.58060 60.84423 55.21241
# Shear Modulus (GPa) = 26.46199 28.80018 27.63109
#
# Velocity S-wave (km/s) = 3.76594 3.92880 3.84823
# Velocity P-wave (km/s) = 6.74407 7.29315 7.02398
#
# Compressibility (1/GPa) = 0.02016918
#
# Stress axis : x y z
#
# Youngs Moduli (GPa) = 65.50329 48.57070 83.67517
#
# Poissons Ratio (x) = 0.24564 0.25931
# Poissons Ratio (y) = 0.33127 0.47378
# Poissons Ratio (z) = 0.20299 0.27501
#
# Static dielectric constant tensor:
#      x y z
#    x 3.498970 0.000000 -0.189940 
#    y 0.000000 3.451590 0.000000 
#    z -0.189940 0.000000 3.444030 
# 
# 
# High freq. dielectric constant tensor:
#      x y z
#    x 1.722950 0.000000 -0.017960 
#    y 0.000000 1.731850 0.000000 
#    z -0.017960 0.000000 1.722220 
# 
# From -- ./inp_files/28303.got.cif
#   From: 2010.06.25/outbox.cif.g09.slc.cpg/sg11_15_cif.got.tgz:28303.got - 2010.06.27 23:14:04.
