data_PCOD8071210
_publ_section_title
;
Structure prediction by ZEFSAII (Michael W. Deem and Ramdas Pophale) SiO2 
 PCOD8071210
Probable space group: P 21/M
;
_chemical_formula_sum "Si O2"
_cell_formula_units_Z 32
_cell_length_a 7.904462
_cell_length_b 21.338364
_cell_length_c 13.819620
_cell_angle_alpha 90.000000
_cell_angle_beta 47.985481
_cell_angle_gamma 90.000000
_cell_volume 1731.824495
_symmetry_space_group_name_H-M "P 21/M"
_symmetry_group_IT_number 11
_symmetry_cell_setting 'monoclinic'
loop_
_space_group_symop_operation_xyz
x,y,z
-x,1/2+y,-z
-x,-y,-z
x,1/2-y,z
loop_
_atom_site_type_symbol
_atom_site_label
_atom_site_fract_x
_atom_site_fract_y
_atom_site_fract_z
Si Si1 0.897234 0.596944 0.886486
Si Si2 0.462075 0.909881 0.925572
Si Si3 0.154120 0.519029 0.637385
Si Si4 0.419413 0.037498 0.848365
Si Si5 0.153749 0.321656 0.742863
Si Si6 0.123126 0.821456 0.956254
Si Si7 0.177230 0.584944 0.217261
Si Si8 0.526046 0.929268 0.382286
O O1 0.687824 0.616130 0.894788
O O2 0.096992 0.564253 0.749056
O O3 0.009712 0.655672 0.899101
O O4 0.812493 0.550329 0.004172
O O5 0.356217 0.857765 0.894580
O O6 0.525893 0.970984 0.839294
O O7 0.269378 0.931802 0.075086
O O8 0.338061 0.465401 0.587585
O O9 0.256147 0.561713 0.509795
O O10 0.936736 0.477277 0.692677
O O11 0.600915 0.094430 0.800087
O O12 0.382145 0.037254 0.749173
O O13 0.186470 0.250000 0.698529
O O14 0.399030 0.356225 0.645486
O O15 0.981149 0.353657 0.730932
O O16 0.059264 0.327789 0.887530
O O17 0.195392 0.750000 0.913112
#
# Coordination Sequence:
#
# PCOD8071210 Si02
#       8
#     4   4   4   4   4   4   4   4
#     4  11  19  34  57  79 109 142 176 219 276 326
#     4  10  19  32  54  82 113 140 172 227 279 327
#     4  10  19  34  49  79 111 137 171 214 281 323
#     4  11  18  32  54  85 105 135 176 221 274 325
#     4   9  18  35  52  72 104 143 180 221 267 314
#     4  10  21  34  53  80 106 142 188 225 264 320
#     4   9  17  31  51  76 109 134 171 220 271 329
#     4  10  21  31  52  79 107 139 177 224 259 324
#
# _framework density 18.477623000000001
#
# number of rings (size 3 to 8) (size 9 to 14) (size 15 to 20)
#    0.000    2.000    3.750    1.500    0.000    2.000 
#    0.000    3.125    0.000    0.000    0.000    0.000 
#    0.000    0.000    0.000    0.000    0.000    0.000 
#
# Total GULP energy -396432.184695 kJ/mol
# GULP energy per Si atom -12388.505772 kJ/mol
# Density = 1.843557 g / cm^3
# Si number density = 18.477623 Si / 1000 Ang^3
#
#
#
# Elastic Constant Matrix: (Units=GPa)
#
#
# Indices 1 2 3 4 5 6 
#
# 1 56.6180 37.0309 8.6166 0.0000 -5.3575 0.0000
# 2 37.0309 113.0320 38.0124 0.0000 -6.2236 0.0000
# 3 8.6166 38.0124 78.0883 0.0000 -5.5869 0.0000
# 4 0.0000 0.0000 0.0000 20.6769 0.0000 1.1105
# 5 -5.3575 -6.2236 -5.5869 0.0000 16.2508 0.0000
# 6 0.0000 0.0000 0.0000 1.1105 0.0000 23.7109
#
#
#
# Elastic Compliance Matrix: (Units=1/GPa)
#
#
# Indices 1 2 3 4 5 6 
#
# 1 0.023004 -0.007800 0.001627 0.000000 0.005156 0.000000
# 2 -0.007800 0.013311 -0.005575 0.000000 0.000610 0.000000
# 3 0.001627 -0.005575 0.015610 0.000000 0.003768 0.000000
# 4 0.000000 0.000000 0.000000 0.048485 0.000000 -0.002271
# 5 0.005156 0.000610 0.003768 0.000000 0.064764 0.000000
# 6 0.000000 0.000000 0.000000 -0.002271 0.000000 0.042281
#
#
# Mechanical properties :
#
#
# Convention : Reuss Voigt Hill
#
# Bulk Modulus (GPa) = 35.17483 46.11755 40.64619
# Shear Modulus (GPa) = 20.79635 23.06628 21.93132
#
# Velocity S-wave (km/s) = 3.35847 3.53701 3.44890
# Velocity P-wave (km/s) = 5.84096 6.45704 6.15671
#
# Compressibility (1/GPa) = 0.02842942
#
# Stress axis : x y z
#
# Youngs Moduli (GPa) = 43.47088 75.12644 64.06149
#
# Poissons Ratio (x) = 0.58597 -0.10425
# Poissons Ratio (y) = 0.33906 0.35716
# Poissons Ratio (z) = -0.07074 0.41885
#
# Static dielectric constant tensor:
#      x y z
#    x 3.361700 0.000000 -0.168460 
#    y 0.000000 3.290250 0.000000 
#    z -0.168460 0.000000 3.570750 
# 
# 
# High freq. dielectric constant tensor:
#      x y z
#    x 1.711730 0.000000 -0.010750 
#    y 0.000000 1.692770 0.000000 
#    z -0.010750 0.000000 1.697480 
# 
# From -- ./inp_files/18986.got.cif
#   From: 2010.06.25/outbox.cif.g09.slc.cpg/sg11_10_cif.got.tgz:18986.got - 2010.06.27 23:14:04.
