data_PCOD8071920
_publ_section_title
;
Structure prediction by ZEFSAII (Michael W. Deem and Ramdas Pophale) SiO2 
 PCOD8071920
Probable space group: P 21/M
;
_chemical_formula_sum "Si O2"
_cell_formula_units_Z 24
_cell_length_a 20.563547
_cell_length_b 13.244248
_cell_length_c 12.700686
_cell_angle_alpha 90.000000
_cell_angle_beta 157.833136
_cell_angle_gamma 90.000000
_cell_volume 1305.104763
_symmetry_space_group_name_H-M "P 21/M"
_symmetry_group_IT_number 11
_symmetry_cell_setting 'monoclinic'
loop_
_space_group_symop_operation_xyz
x,y,z
-x,1/2+y,-z
-x,-y,-z
x,1/2-y,z
loop_
_atom_site_type_symbol
_atom_site_label
_atom_site_fract_x
_atom_site_fract_y
_atom_site_fract_z
Si Si1 0.141522 0.368588 0.168972
Si Si2 0.145995 0.132666 0.727990
Si Si3 0.462792 0.868303 0.707188
Si Si4 0.331613 0.980908 0.314841
Si Si5 0.184695 0.526266 0.406009
Si Si6 0.015365 0.979789 0.697768
O O1 0.172703 0.250000 0.224856
O O2 0.277578 0.414168 0.289282
O O3 0.170144 0.418446 0.325950
O O4 0.948989 0.392731 0.842310
O O5 0.139743 0.250000 0.743153
O O6 0.065297 0.079545 0.708371
O O7 0.340834 0.093893 0.004420
O O8 0.036708 0.109248 0.459552
O O9 0.452571 0.750000 0.711729
O O10 0.373739 0.925907 0.671943
O O11 0.364528 0.895621 0.451708
O O12 0.500000 0.000000 0.500000
O O13 0.175964 0.941322 0.008287
O O14 0.147835 0.507908 0.473652
#
# Coordination Sequence:
#
# PCOD8071920 Si02
#       6
#     4   4   4   4   4   4
#     4   9  18  32  52  81 114 143 177 224 276 329
#     4  10  22  38  55  77 107 146 184 220 270 326
#     4  10  20  35  56  82 110 139 180 227 268 325
#     4  10  19  34  55  83 110 140 181 224 276 321
#     4   9  19  33  54  81 108 143 180 224 273 324
#     4  10  21  37  57  77 110 146 176 228 269 322
#
# _framework density 18.389329
#
# number of rings (size 3 to 8) (size 9 to 14) (size 15 to 20)
#    0.000    2.333    1.667    1.500    0.000    6.000 
#    0.000    0.000    0.000    0.000    0.000    0.000 
#    0.000    0.000    0.000    0.000    0.000    0.000 
#
# Total GULP energy -297633.552047 kJ/mol
# GULP energy per Si atom -12401.398002 kJ/mol
# Density = 1.834747 g / cm^3
# Si number density = 18.389329 Si / 1000 Ang^3
#
#
#
# Elastic Constant Matrix: (Units=GPa)
#
#
# Indices 1 2 3 4 5 6 
#
# 1 124.4039 23.9319 35.5772 0.0000 13.9102 0.0000
# 2 23.9319 78.9247 23.1155 0.0000 5.5517 0.0000
# 3 35.5772 23.1155 79.3557 0.0000 -5.0326 0.0000
# 4 0.0000 0.0000 0.0000 20.2808 0.0000 5.1213
# 5 13.9102 5.5517 -5.0326 0.0000 24.3364 0.0000
# 6 0.0000 0.0000 0.0000 5.1213 0.0000 16.3211
#
#
#
# Elastic Compliance Matrix: (Units=1/GPa)
#
#
# Indices 1 2 3 4 5 6 
#
# 1 0.010367 -0.001307 -0.004685 0.000000 -0.006596 0.000000
# 2 -0.001307 0.014422 -0.003826 0.000000 -0.003334 0.000000
# 3 -0.004685 -0.003826 0.016255 0.000000 0.006912 0.000000
# 4 0.000000 0.000000 0.000000 0.053551 0.000000 -0.016803
# 5 -0.006596 -0.003334 0.006912 0.000000 0.047051 0.000000
# 6 0.000000 0.000000 0.000000 -0.016803 0.000000 0.066543
#
#
# Mechanical properties :
#
#
# Convention : Reuss Voigt Hill
#
# Bulk Modulus (GPa) = 46.71563 49.77039 48.24301
# Shear Modulus (GPa) = 21.27996 25.52497 23.40247
#
# Velocity S-wave (km/s) = 3.40544 3.72967 3.57124
# Velocity P-wave (km/s) = 6.39699 6.75802 6.57998
#
# Compressibility (1/GPa) = 0.02140611
#
# Stress axis : x y z
#
# Youngs Moduli (GPa) = 96.45640 69.33910 61.51933
#
# Poissons Ratio (x) = 0.09065 0.28825
# Poissons Ratio (y) = 0.12610 0.23539
# Poissons Ratio (z) = 0.45195 0.26531
#
# Static dielectric constant tensor:
#      x y z
#    x 3.633210 0.000000 0.154880 
#    y 0.000000 3.089060 0.000000 
#    z 0.154880 0.000000 3.414910 
# 
# 
# High freq. dielectric constant tensor:
#      x y z
#    x 1.730790 0.000000 0.011170 
#    y 0.000000 1.696210 0.000000 
#    z 0.011170 0.000000 1.702760 
# 
# From -- ./inp_files/43428.got.cif
#   From: 2010.06.25/outbox.cif.g09.slc.cpg/sg11_22_cif.got.tgz:43428.got - 2010.06.27 23:14:04.
