data_PCOD8071302
_publ_section_title
;
Structure prediction by ZEFSAII (Michael W. Deem and Ramdas Pophale) SiO2 
 PCOD8071302
Probable space group: P 21/M
;
_chemical_formula_sum "Si O2"
_cell_formula_units_Z 28
_cell_length_a 31.313627
_cell_length_b 9.140424
_cell_length_c 9.611752
_cell_angle_alpha 90.000000
_cell_angle_beta 35.068570
_cell_angle_gamma 90.000000
_cell_volume 1580.647075
_symmetry_space_group_name_H-M "P 21/M"
_symmetry_group_IT_number 11
_symmetry_cell_setting 'monoclinic'
loop_
_space_group_symop_operation_xyz
x,y,z
-x,1/2+y,-z
-x,-y,-z
x,1/2-y,z
loop_
_atom_site_type_symbol
_atom_site_label
_atom_site_fract_x
_atom_site_fract_y
_atom_site_fract_z
Si Si1 0.198286 0.583110 0.181288
Si Si2 0.601913 0.079120 0.125839
Si Si3 0.078205 0.577823 0.279590
Si Si4 0.696771 0.919029 0.295771
Si Si5 0.443473 0.080927 0.477302
Si Si6 0.763423 0.420576 0.613592
Si Si7 0.190551 0.423685 0.779121
O O1 0.221492 0.750000 0.096332
O O2 0.120347 0.549300 0.313333
O O3 0.192655 0.548330 0.360040
O O4 0.264596 0.491658 0.939188
O O5 0.610023 0.250000 0.132363
O O6 0.530304 0.041207 0.218520
O O7 0.590133 0.007760 0.305949
O O8 0.677804 0.024028 0.852334
O O9 0.068916 0.750000 0.273703
O O10 0.000000 0.500000 0.500000
O O11 0.122056 0.502685 0.036424
O O12 0.713858 0.750000 0.233277
O O13 0.607787 0.952201 0.522582
O O14 0.732872 0.970553 0.345252
O O15 0.437468 0.250000 0.535362
O O16 0.767216 0.250000 0.561945
O O17 0.804652 0.517568 0.389506
O O18 0.177292 0.250000 0.813386
#
# Coordination Sequence:
#
# PCOD8071302 Si02
#       7
#     4   4   4   4   4   4   4
#     4   9  18  32  53  77 101 131 168 205 245 296
#     4   9  17  28  45  69  99 132 168 212 257 298
#     4  10  20  37  60  83 105 130 161 201 246 298
#     4   9  17  30  48  71  99 131 171 215 254 295
#     4   9  16  27  45  70  97 129 170 215 258 296
#     4  10  19  33  50  73 104 136 170 209 252 298
#     4  10  21  35  52  75 104 137 170 206 249 298
#
# _framework density 17.714262999999999
#
# number of rings (size 3 to 8) (size 9 to 14) (size 15 to 20)
#    0.000    2.571    1.429    0.857    0.000    2.286 
#    0.000    1.429    0.000    0.000    0.000    0.000 
#    0.000    0.000    0.000    0.000    0.000    0.000 
#
# Total GULP energy -347016.184399 kJ/mol
# GULP energy per Si atom -12393.435157 kJ/mol
# Density = 1.767394 g / cm^3
# Si number density = 17.714263 Si / 1000 Ang^3
#
#
#
# Elastic Constant Matrix: (Units=GPa)
#
#
# Indices 1 2 3 4 5 6 
#
# 1 98.6052 33.6697 58.5768 0.0000 -8.1472 0.0000
# 2 33.6697 54.8636 40.1836 0.0000 -0.9444 0.0000
# 3 58.5768 40.1836 98.2961 0.0000 -4.0275 0.0000
# 4 0.0000 0.0000 0.0000 28.0229 0.0000 1.7797
# 5 -8.1472 -0.9444 -4.0275 0.0000 28.5956 0.0000
# 6 0.0000 0.0000 0.0000 1.7797 0.0000 22.6219
#
#
#
# Elastic Compliance Matrix: (Units=1/GPa)
#
#
# Indices 1 2 3 4 5 6 
#
# 1 0.016666 -0.004280 -0.008040 0.000000 0.003475 0.000000
# 2 -0.004280 0.027128 -0.008602 0.000000 -0.001535 0.000000
# 3 -0.008040 -0.008602 0.018482 0.000000 0.000028 0.000000
# 4 0.000000 0.000000 0.000000 0.035864 0.000000 -0.002821
# 5 0.003475 -0.001535 0.000028 0.000000 0.035914 0.000000
# 6 0.000000 0.000000 0.000000 -0.002821 0.000000 0.044427
#
#
# Mechanical properties :
#
#
# Convention : Reuss Voigt Hill
#
# Bulk Modulus (GPa) = 48.94196 57.40278 53.17237
# Shear Modulus (GPa) = 22.01337 23.80373 22.90855
#
# Velocity S-wave (km/s) = 3.52901 3.66971 3.60005
# Velocity P-wave (km/s) = 6.65535 7.10147 6.88203
#
# Compressibility (1/GPa) = 0.02043237
#
# Stress axis : x y z
#
# Youngs Moduli (GPa) = 60.00296 36.86288 54.10607
#
# Poissons Ratio (x) = 0.15775 0.43500
# Poissons Ratio (y) = 0.25678 0.46544
# Poissons Ratio (z) = 0.48241 0.31711
#
# Static dielectric constant tensor:
#      x y z
#    x 3.662940 0.000000 -0.258850 
#    y 0.000000 3.213380 0.000000 
#    z -0.258850 0.000000 3.083820 
# 
# 
# High freq. dielectric constant tensor:
#      x y z
#    x 1.692250 0.000000 -0.015780 
#    y 0.000000 1.688320 0.000000 
#    z -0.015780 0.000000 1.655770 
# 
# From -- ./inp_files/29031.got.cif
#   From: 2010.06.25/outbox.cif.g09.slc.cpg/sg11_15_cif.got.tgz:29031.got - 2010.06.27 23:14:04.
