data_PCOD8071948
_publ_section_title
;
Structure prediction by ZEFSAII (Michael W. Deem and Ramdas Pophale) SiO2 
 PCOD8071948
Probable space group: P 21/M
;
_chemical_formula_sum "Si O2"
_cell_formula_units_Z 32
_cell_length_a 14.733247
_cell_length_b 9.109173
_cell_length_c 12.726626
_cell_angle_alpha 90.000000
_cell_angle_beta 82.166053
_cell_angle_gamma 90.000000
_cell_volume 1692.070721
_symmetry_space_group_name_H-M "P 21/M"
_symmetry_group_IT_number 11
_symmetry_cell_setting 'monoclinic'
loop_
_space_group_symop_operation_xyz
x,y,z
-x,1/2+y,-z
-x,-y,-z
x,1/2-y,z
loop_
_atom_site_type_symbol
_atom_site_label
_atom_site_fract_x
_atom_site_fract_y
_atom_site_fract_z
Si Si1 0.939303 0.581111 0.316792
Si Si2 0.589075 0.924021 0.441171
Si Si3 0.177764 0.083469 0.855261
Si Si4 0.872075 0.576162 0.698516
Si Si5 0.772746 0.579442 0.923306
Si Si6 0.408705 0.915793 0.988163
Si Si7 0.218195 0.076414 0.500946
Si Si8 0.649141 0.085032 0.236409
O O1 0.960228 0.750000 0.340664
O O2 0.915819 0.562829 0.196013
O O3 0.855016 0.521229 0.400871
O O4 0.027254 0.487443 0.331468
O O5 0.578375 0.750000 0.450378
O O6 0.680029 0.981916 0.487888
O O7 0.500000 0.000000 0.500000
O O8 0.595779 0.973826 0.319856
O O9 0.214975 0.250000 0.832619
O O10 0.247824 0.968799 0.795468
O O11 0.164987 0.053320 0.981928
O O12 0.881107 0.750000 0.697705
O O13 0.827950 0.518843 0.814171
O O14 0.809992 0.521458 0.610794
O O15 0.748858 0.750000 0.912521
O O16 0.677809 0.493742 0.945072
O O17 0.412929 0.750000 0.030785
O O18 0.403705 0.917673 0.864183
O O19 0.500000 0.000000 0.000000
O O20 0.220848 0.250000 0.504920
O O21 0.651261 0.250000 0.282711
#
# Coordination Sequence:
#
# PCOD8071948 Si02
#       8
#     4   4   4   4   4   4   4   4
#     4  10  19  34  56  80 105 145 191 228 275 333
#     4  11  22  38  58  83 113 148 187 231 283 339
#     4   9  17  33  56  78 105 144 183 221 272 333
#     4  10  21  36  54  80 112 147 184 228 278 330
#     4   9  19  35  54  78 111 147 183 225 279 334
#     4  10  21  36  57  83 110 143 186 230 278 336
#     4   9  19  37  57  76 108 149 185 223 277 332
#     4  10  20  35  55  81 109 139 180 232 280 326
#
# _framework density 18.911738
#
# number of rings (size 3 to 8) (size 9 to 14) (size 15 to 20)
#    0.000    2.250    1.250    1.500    0.000    4.000 
#    0.000    3.750    0.000    0.000    0.000    0.000 
#    0.000    0.000    0.000    0.000    0.000    0.000 
#
# Total GULP energy -396755.113248 kJ/mol
# GULP energy per Si atom -12398.597289 kJ/mol
# Density = 1.886869 g / cm^3
# Si number density = 18.911738 Si / 1000 Ang^3
#
#
#
# Elastic Constant Matrix: (Units=GPa)
#
#
# Indices 1 2 3 4 5 6 
#
# 1 134.5220 45.6934 63.7854 0.0000 -0.5577 0.0000
# 2 45.6934 67.3443 35.1976 0.0000 1.7266 0.0000
# 3 63.7854 35.1976 120.5841 0.0000 -8.5938 0.0000
# 4 0.0000 0.0000 0.0000 23.0350 0.0000 -2.6145
# 5 -0.5577 1.7266 -8.5938 0.0000 22.5496 0.0000
# 6 0.0000 0.0000 0.0000 -2.6145 0.0000 33.0479
#
#
#
# Elastic Compliance Matrix: (Units=1/GPa)
#
#
# Indices 1 2 3 4 5 6 
#
# 1 0.011395 -0.005329 -0.004547 0.000000 -0.001043 0.000000
# 2 -0.005329 0.020269 -0.003307 0.000000 -0.002944 0.000000
# 3 -0.004547 -0.003307 0.011999 0.000000 0.004714 0.000000
# 4 0.000000 0.000000 0.000000 0.043806 0.000000 0.003466
# 5 -0.001043 -0.002944 0.004714 0.000000 0.046343 0.000000
# 6 0.000000 0.000000 0.000000 0.003466 0.000000 0.030533
#
#
# Mechanical properties :
#
#
# Convention : Reuss Voigt Hill
#
# Bulk Modulus (GPa) = 57.81072 67.97813 62.89443
# Shear Modulus (GPa) = 25.44835 27.57810 26.51323
#
# Velocity S-wave (km/s) = 3.67227 3.82285 3.74832
# Velocity P-wave (km/s) = 6.97251 7.45041 7.21541
#
# Compressibility (1/GPa) = 0.01729783
#
# Stress axis : x y z
#
# Youngs Moduli (GPa) = 87.75566 49.33721 83.33770
#
# Poissons Ratio (x) = 0.26290 0.37891
# Poissons Ratio (y) = 0.46762 0.27563
# Poissons Ratio (z) = 0.39900 0.16318
#
# Static dielectric constant tensor:
#      x y z
#    x 3.388280 0.000000 0.097740 
#    y 0.000000 3.435840 0.000000 
#    z 0.097740 0.000000 3.984490 
# 
# 
# High freq. dielectric constant tensor:
#      x y z
#    x 1.726890 0.000000 0.008330 
#    y 0.000000 1.724700 0.000000 
#    z 0.008330 0.000000 1.742780 
# 
# From -- ./inp_files/38110.got.cif
#   From: 2010.06.25/outbox.cif.g09.slc.cpg/sg11_20_cif.got.tgz:38110.got - 2010.06.27 23:14:04.
