data_PCOD8071464
_publ_section_title
;
Structure prediction by ZEFSAII (Michael W. Deem and Ramdas Pophale) SiO2 
 PCOD8071464
Probable space group: P 21/M
;
_chemical_formula_sum "Si O2"
_cell_formula_units_Z 28
_cell_length_a 14.957063
_cell_length_b 8.582145
_cell_length_c 16.855614
_cell_angle_alpha 90.000000
_cell_angle_beta 133.911030
_cell_angle_gamma 90.000000
_cell_volume 1558.730629
_symmetry_space_group_name_H-M "P 21/M"
_symmetry_group_IT_number 11
_symmetry_cell_setting 'monoclinic'
loop_
_space_group_symop_operation_xyz
x,y,z
-x,1/2+y,-z
-x,-y,-z
x,1/2-y,z
loop_
_atom_site_type_symbol
_atom_site_label
_atom_site_fract_x
_atom_site_fract_y
_atom_site_fract_z
Si Si1 0.152347 0.067205 0.738627
Si Si2 0.611767 0.933877 0.018430
Si Si3 0.235083 0.566431 0.627109
Si Si4 0.105285 0.068761 0.394434
Si Si5 0.692395 0.070041 0.587291
Si Si6 0.516298 0.934747 0.795191
Si Si7 0.566762 0.567853 0.653356
O O1 0.163597 0.250000 0.727591
O O2 0.165109 0.972073 0.665245
O O3 0.257647 0.010816 0.865296
O O4 0.020746 0.027561 0.696354
O O5 0.599715 0.750000 0.012315
O O6 0.599313 0.994904 0.919942
O O7 0.500000 0.000000 0.000000
O O8 0.228674 0.750000 0.606021
O O9 0.167865 0.477935 0.515195
O O10 0.375899 0.503425 0.719000
O O11 0.073639 0.250000 0.375719
O O12 0.194265 0.031162 0.375403
O O13 0.728416 0.250000 0.602937
O O14 0.572095 0.030358 0.460903
O O15 0.666754 0.025802 0.662946
O O16 0.509866 0.750000 0.788448
O O17 0.577021 0.993310 0.750208
O O18 0.595904 0.750000 0.662852
#
# Coordination Sequence:
#
# PCOD8071464 Si02
#       7
#     4   4   4   4   4   4   4
#     4  11  23  37  53  78 110 145 185 224 266 318
#     4  10  20  35  56  80 106 141 182 225 266 311
#     4  11  20  35  56  79 110 145 179 219 268 321
#     4  12  24  37  54  77 108 146 184 222 268 323
#     4  10  19  33  53  80 110 140 173 217 268 320
#     4   9  17  32  55  80 109 141 174 215 268 315
#     4   9  17  32  53  79 108 141 173 211 266 325
#
# _framework density 17.963334
#
# number of rings (size 3 to 8) (size 9 to 14) (size 15 to 20)
#    0.000    1.714    2.857    3.000    0.000    1.143 
#    0.000    0.714    0.000    0.857    0.000    0.000 
#    0.000    0.000    0.000    0.000    0.000    0.000 
#
# Total GULP energy -347262.430238 kJ/mol
# GULP energy per Si atom -12402.229651 kJ/mol
# Density = 1.792245 g / cm^3
# Si number density = 17.963334 Si / 1000 Ang^3
#
#
#
# Elastic Constant Matrix: (Units=GPa)
#
#
# Indices 1 2 3 4 5 6 
#
# 1 121.3665 15.7108 61.0713 0.0000 -13.2018 0.0000
# 2 15.7108 33.2652 16.9738 0.0000 -0.4652 0.0000
# 3 61.0713 16.9738 98.8010 0.0000 -2.2391 0.0000
# 4 0.0000 0.0000 0.0000 12.4440 0.0000 2.0773
# 5 -13.2018 -0.4652 -2.2391 0.0000 29.4690 0.0000
# 6 0.0000 0.0000 0.0000 2.0773 0.0000 29.9050
#
#
#
# Elastic Compliance Matrix: (Units=1/GPa)
#
#
# Indices 1 2 3 4 5 6 
#
# 1 0.012823 -0.002191 -0.007433 0.000000 0.005145 0.000000
# 2 -0.002191 0.033325 -0.004388 0.000000 -0.000789 0.000000
# 3 -0.007433 -0.004388 0.015419 0.000000 -0.002228 0.000000
# 4 0.000000 0.000000 0.000000 0.081303 0.000000 -0.005648
# 5 0.005145 -0.000789 -0.002228 0.000000 0.036057 0.000000
# 6 0.000000 0.000000 0.000000 -0.005648 0.000000 0.033831
#
#
# Mechanical properties :
#
#
# Convention : Reuss Voigt Hill
#
# Bulk Modulus (GPa) = 29.81414 48.99383 39.40399
# Shear Modulus (GPa) = 19.84399 25.00873 22.42636
#
# Velocity S-wave (km/s) = 3.32730 3.73528 3.53718
# Velocity P-wave (km/s) = 5.60308 6.77766 6.21816
#
# Compressibility (1/GPa) = 0.03354113
#
# Stress axis : x y z
#
# Youngs Moduli (GPa) = 77.98315 30.00782 64.85301
#
# Poissons Ratio (x) = 0.06576 0.48207
# Poissons Ratio (y) = 0.17090 0.28460
# Poissons Ratio (z) = 0.57967 0.13169
#
# Static dielectric constant tensor:
#      x y z
#    x 3.432510 0.000000 -0.130350 
#    y 0.000000 3.204710 0.000000 
#    z -0.130350 0.000000 3.448990 
# 
# 
# High freq. dielectric constant tensor:
#      x y z
#    x 1.698610 0.000000 -0.007480 
#    y 0.000000 1.688740 0.000000 
#    z -0.007480 0.000000 1.678810 
# 
# From -- ./inp_files/49039.got.cif
#   From: 2010.06.25/outbox.cif.g09.slc.cpg/sg11_25_cif.got.tgz:49039.got - 2010.06.27 23:14:04.
