data_PCOD8071313
_publ_section_title
;
Structure prediction by ZEFSAII (Michael W. Deem and Ramdas Pophale) SiO2 
 PCOD8071313
Probable space group: P 21/M
;
_chemical_formula_sum "Si O2"
_cell_formula_units_Z 32
_cell_length_a 9.190972
_cell_length_b 11.157479
_cell_length_c 15.708606
_cell_angle_alpha 90.000000
_cell_angle_beta 94.326010
_cell_angle_gamma 90.000000
_cell_volume 1606.297910
_symmetry_space_group_name_H-M "P 21/M"
_symmetry_group_IT_number 11
_symmetry_cell_setting 'monoclinic'
loop_
_space_group_symop_operation_xyz
x,y,z
-x,1/2+y,-z
-x,-y,-z
x,1/2-y,z
loop_
_atom_site_type_symbol
_atom_site_label
_atom_site_fract_x
_atom_site_fract_y
_atom_site_fract_z
Si Si1 0.123767 0.887871 0.199729
Si Si2 0.035128 0.876982 0.602568
Si Si3 0.639709 0.882593 0.327746
Si Si4 0.396792 0.889285 0.097027
Si Si5 0.856229 0.036868 0.224953
Si Si6 0.769860 0.955229 0.499590
Si Si7 0.397625 0.614783 0.897604
Si Si8 0.670329 0.389148 0.640801
O O1 0.081435 0.750000 0.191059
O O2 0.243985 0.921041 0.134697
O O3 0.185970 0.916984 0.297001
O O4 0.973552 0.958688 0.177568
O O5 0.100436 0.750000 0.575230
O O6 0.051683 0.882148 0.705627
O O7 0.863628 0.877180 0.570091
O O8 0.118925 0.979987 0.558569
O O9 0.657596 0.750000 0.291931
O O10 0.669782 0.879469 0.431276
O O11 0.472103 0.927495 0.310213
O O12 0.745894 0.961877 0.277656
O O13 0.446826 0.750000 0.123902
O O14 0.508555 0.997463 0.128729
O O15 0.369697 0.896847 0.996041
O O16 0.760471 0.112077 0.154366
O O17 0.671777 0.044559 0.550632
O O18 0.465031 0.750000 0.881415
O O19 0.658440 0.250000 0.618794
#
# Coordination Sequence:
#
# PCOD8071313 Si02
#       8
#     4   4   4   4   4   4   4   4
#     4  10  20  35  57  84 115 149 193 242 287 342
#     4  10  20  33  49  72 104 141 181 225 283 340
#     4  10  21  34  53  79 107 143 190 242 284 331
#     4   9  20  40  65  90 117 153 193 236 286 344
#     4  11  21  35  55  80 116 149 187 228 284 343
#     4  10  19  33  51  73 100 142 183 236 282 336
#     4  10  21  39  63  90 121 153 189 235 290 350
#     4  10  19  33  52  76 106 140 183 236 289 337
#
# _framework density 19.921583999999999
#
# number of rings (size 3 to 8) (size 9 to 14) (size 15 to 20)
#    0.000    2.000    1.250    2.625    0.000    2.500 
#    0.000    1.250    0.000    3.000    0.000    0.000 
#    0.000    0.000    0.000    0.000    0.000    0.000 
#
# Total GULP energy -396461.786249 kJ/mol
# GULP energy per Si atom -12389.430820 kJ/mol
# Density = 1.987624 g / cm^3
# Si number density = 19.921584 Si / 1000 Ang^3
#
#
#
# Elastic Constant Matrix: (Units=GPa)
#
#
# Indices 1 2 3 4 5 6 
#
# 1 81.4659 41.0358 19.2734 0.0000 0.8721 0.0000
# 2 41.0358 91.9384 26.7954 0.0000 1.1542 0.0000
# 3 19.2734 26.7954 52.6700 0.0000 3.9904 0.0000
# 4 0.0000 0.0000 0.0000 25.3303 0.0000 -3.0603
# 5 0.8721 1.1542 3.9904 0.0000 34.3148 0.0000
# 6 0.0000 0.0000 0.0000 -3.0603 0.0000 29.8692
#
#
#
# Elastic Compliance Matrix: (Units=1/GPa)
#
#
# Indices 1 2 3 4 5 6 
#
# 1 0.016140 -0.006436 -0.002641 0.000000 0.000113 0.000000
# 2 -0.006436 0.015340 -0.005471 0.000000 0.000284 0.000000
# 3 -0.002641 -0.005471 0.022918 0.000000 -0.002414 0.000000
# 4 0.000000 0.000000 0.000000 0.039973 0.000000 0.004095
# 5 0.000113 0.000284 -0.002414 0.000000 0.029410 0.000000
# 6 0.000000 0.000000 0.000000 0.004095 0.000000 0.033899
#
#
# Mechanical properties :
#
#
# Convention : Reuss Voigt Hill
#
# Bulk Modulus (GPa) = 39.51818 44.47596 41.99707
# Shear Modulus (GPa) = 25.61330 27.16749 26.39040
#
# Velocity S-wave (km/s) = 3.58956 3.69687 3.64361
# Velocity P-wave (km/s) = 6.08768 6.37153 6.23122
#
# Compressibility (1/GPa) = 0.02530481
#
# Stress axis : x y z
#
# Youngs Moduli (GPa) = 61.95601 65.18761 43.63300
#
# Poissons Ratio (x) = 0.41955 0.11522
# Poissons Ratio (y) = 0.39875 0.23870
# Poissons Ratio (z) = 0.16360 0.35662
#
# Static dielectric constant tensor:
#      x y z
#    x 3.678270 0.000000 0.303100 
#    y 0.000000 3.669050 0.000000 
#    z 0.303100 0.000000 3.744290 
# 
# 
# High freq. dielectric constant tensor:
#      x y z
#    x 1.768310 0.000000 0.010440 
#    y 0.000000 1.771990 0.000000 
#    z 0.010440 0.000000 1.778040 
# 
# From -- ./inp_files/47203.got.cif
#   From: 2010.06.25/outbox.cif.g09.slc.cpg/sg11_24_cif.got.tgz:47203.got - 2010.06.27 23:14:04.
