data_PCOD8071652
_publ_section_title
;
Structure prediction by ZEFSAII (Michael W. Deem and Ramdas Pophale) SiO2 
 PCOD8071652
Probable space group: P 21/M
;
_chemical_formula_sum "Si O2"
_cell_formula_units_Z 32
_cell_length_a 14.619194
_cell_length_b 8.950333
_cell_length_c 12.602724
_cell_angle_alpha 90.000000
_cell_angle_beta 90.998639
_cell_angle_gamma 90.000000
_cell_volume 1648.773802
_symmetry_space_group_name_H-M "P 21/M"
_symmetry_group_IT_number 11
_symmetry_cell_setting 'monoclinic'
loop_
_space_group_symop_operation_xyz
x,y,z
-x,1/2+y,-z
-x,-y,-z
x,1/2-y,z
loop_
_atom_site_type_symbol
_atom_site_label
_atom_site_fract_x
_atom_site_fract_y
_atom_site_fract_z
Si Si1 0.479320 0.575045 0.612040
Si Si2 0.983595 0.926127 0.817395
Si Si3 0.820359 0.074682 0.116886
Si Si4 0.768625 0.084135 0.544629
Si Si5 0.795257 0.074562 0.881699
Si Si6 0.027615 0.918573 0.395144
Si Si7 0.715708 0.424865 0.316550
Si Si8 0.665341 0.922007 0.715103
O O1 0.500000 0.500000 0.500000
O O2 0.470978 0.750000 0.588140
O O3 0.385623 0.510424 0.661242
O O4 0.557347 0.544580 0.702543
O O5 0.966184 0.750000 0.818417
O O6 0.072976 0.976418 0.886435
O O7 0.892835 0.005426 0.855875
O O8 0.009053 0.980057 0.700253
O O9 0.822332 0.250000 0.137743
O O10 0.762447 0.000211 0.212872
O O11 0.773082 0.034654 0.003950
O O12 0.723465 0.250000 0.550139
O O13 0.863249 0.086911 0.608613
O O14 0.779170 0.039961 0.420744
O O15 0.705460 0.964323 0.601186
O O16 0.803930 0.250000 0.863271
O O17 0.711024 0.015847 0.810345
O O18 0.987571 0.750000 0.389228
O O19 0.000000 0.000000 0.500000
O O20 0.706852 0.250000 0.295037
O O21 0.686350 0.750000 0.738952
#
# Coordination Sequence:
#
# PCOD8071652 Si02
#       8
#     4   4   4   4   4   4   4   4
#     4  10  20  34  58  87 115 146 183 228 282 343
#     4  11  21  36  58  84 113 145 187 243 291 335
#     4   9  20  37  58  83 111 147 193 238 283 338
#     4  10  19  33  56  80 109 147 186 225 274 338
#     4  11  22  38  59  82 110 151 199 237 277 340
#     4  11  22  34  51  80 116 154 193 230 278 340
#     4   9  17  34  58  83 111 147 185 228 281 338
#     4  11  22  35  54  84 116 145 182 232 285 331
#
# _framework density 19.408360999999999
#
# number of rings (size 3 to 8) (size 9 to 14) (size 15 to 20)
#    0.000    1.750    2.500    2.625    0.000    3.000 
#    0.000    2.500    0.000    3.750    0.000    0.000 
#    0.000    0.000    0.000    0.000    0.000    0.000 
#
# Total GULP energy -396672.358339 kJ/mol
# GULP energy per Si atom -12396.011198 kJ/mol
# Density = 1.936419 g / cm^3
# Si number density = 19.408361 Si / 1000 Ang^3
#
#
#
# Elastic Constant Matrix: (Units=GPa)
#
#
# Indices 1 2 3 4 5 6 
#
# 1 87.6689 28.2364 45.3479 0.0000 11.8176 0.0000
# 2 28.2364 72.9792 36.5708 0.0000 9.0199 0.0000
# 3 45.3479 36.5708 123.3210 0.0000 8.7633 0.0000
# 4 0.0000 0.0000 0.0000 21.6934 0.0000 -1.7915
# 5 11.8176 9.0199 8.7633 0.0000 26.7282 0.0000
# 6 0.0000 0.0000 0.0000 -1.7915 0.0000 17.9278
#
#
#
# Elastic Compliance Matrix: (Units=1/GPa)
#
#
# Indices 1 2 3 4 5 6 
#
# 1 0.015265 -0.003195 -0.004364 0.000000 -0.004240 0.000000
# 2 -0.003195 0.017183 -0.003695 0.000000 -0.003175 0.000000
# 3 -0.004364 -0.003695 0.010836 0.000000 -0.000376 0.000000
# 4 0.000000 0.000000 0.000000 0.046481 0.000000 0.004645
# 5 -0.004240 -0.003175 -0.000376 0.000000 0.040483 0.000000
# 6 0.000000 0.000000 0.000000 0.004645 0.000000 0.056243
#
#
# Mechanical properties :
#
#
# Convention : Reuss Voigt Hill
#
# Bulk Modulus (GPa) = 48.13522 56.03102 52.08312
# Shear Modulus (GPa) = 23.15624 24.85748 24.00686
#
# Velocity S-wave (km/s) = 3.45788 3.58265 3.52082
# Velocity P-wave (km/s) = 6.38731 6.78573 6.58953
#
# Compressibility (1/GPa) = 0.02077481
#
# Stress axis : x y z
#
# Youngs Moduli (GPa) = 65.51074 58.19808 92.28229
#
# Poissons Ratio (x) = 0.18594 0.40276
# Poissons Ratio (y) = 0.20930 0.34099
# Poissons Ratio (z) = 0.28592 0.21505
#
# Static dielectric constant tensor:
#      x y z
#    x 3.843740 0.000000 0.096200 
#    y 0.000000 3.438210 0.000000 
#    z 0.096200 0.000000 3.648150 
# 
# 
# High freq. dielectric constant tensor:
#      x y z
#    x 1.754140 0.000000 0.009340 
#    y 0.000000 1.735230 0.000000 
#    z 0.009340 0.000000 1.758740 
# 
# From -- ./inp_files/38103.got.cif
#   From: 2010.06.25/outbox.cif.g09.slc.cpg/sg11_20_cif.got.tgz:38103.got - 2010.06.27 23:14:04.
