data_PCOD8071109
_publ_section_title
;
Structure prediction by ZEFSAII (Michael W. Deem and Ramdas Pophale) SiO2 
 PCOD8071109
Probable space group: P 21/M
;
_chemical_formula_sum "Si O2"
_cell_formula_units_Z 32
_cell_length_a 12.194039
_cell_length_b 8.616298
_cell_length_c 21.159344
_cell_angle_alpha 90.000000
_cell_angle_beta 128.652132
_cell_angle_gamma 90.000000
_cell_volume 1736.181432
_symmetry_space_group_name_H-M "P 21/M"
_symmetry_group_IT_number 11
_symmetry_cell_setting 'monoclinic'
loop_
_space_group_symop_operation_xyz
x,y,z
-x,1/2+y,-z
-x,-y,-z
x,1/2-y,z
loop_
_atom_site_type_symbol
_atom_site_label
_atom_site_fract_x
_atom_site_fract_y
_atom_site_fract_z
Si Si1 0.961161 0.069487 0.392610
Si Si2 0.508917 0.070725 0.296493
Si Si3 0.555557 0.929668 0.181555
Si Si4 0.150499 0.430444 0.769763
Si Si5 0.941632 0.433311 0.132030
Si Si6 0.216325 0.932745 0.179313
Si Si7 0.247558 0.931379 0.048751
Si Si8 0.777316 0.570765 0.432994
O O1 0.927762 0.250000 0.391630
O O2 0.119845 0.030610 0.471720
O O3 0.946484 0.024404 0.314190
O O4 0.852067 0.969306 0.393703
O O5 0.471132 0.250000 0.289742
O O6 0.567955 0.034728 0.247996
O O7 0.370093 0.971540 0.261958
O O8 0.633278 0.025448 0.389920
O O9 0.553075 0.750000 0.202522
O O10 0.685102 0.966757 0.182420
O O11 0.410802 0.970169 0.092749
O O12 0.117051 0.250000 0.749639
O O13 0.115124 0.484216 0.826628
O O14 0.923209 0.250000 0.132776
O O15 0.103577 0.475747 0.180278
O O16 0.851136 0.503687 0.040924
O O17 0.189389 0.750000 0.174570
O O18 0.206651 0.995296 0.103492
O O19 0.220878 0.750000 0.039824
O O20 0.736800 0.750000 0.416575
#
# Coordination Sequence:
#
# PCOD8071109 Si02
#       8
#     4   4   4   4   4   4   4   4
#     4  10  20  33  52  79 110 142 179 219 259 309
#     4  11  20  31  53  83 111 138 176 221 267 315
#     4   9  18  34  53  75 106 143 180 218 268 320
#     4  11  22  35  53  75 109 150 184 217 264 323
#     4  11  22  36  54  77 106 140 184 228 269 317
#     4  10  20  37  58  78 105 138 179 225 274 321
#     4   8  17  34  56  79 104 136 174 227 277 316
#     4  10  19  32  52  80 112 143 173 213 266 317
#
# _framework density 18.431252000000001
#
# number of rings (size 3 to 8) (size 9 to 14) (size 15 to 20)
#    0.000    2.000    1.250    4.125    0.000    2.500 
#    0.000    5.625    0.000    0.750    0.000    0.000 
#    0.000    0.000    0.000    0.000    0.000    0.000 
#
# Total GULP energy -396843.638540 kJ/mol
# GULP energy per Si atom -12401.363704 kJ/mol
# Density = 1.838930 g / cm^3
# Si number density = 18.431252 Si / 1000 Ang^3
#
#
#
# Elastic Constant Matrix: (Units=GPa)
#
#
# Indices 1 2 3 4 5 6 
#
# 1 96.5044 16.5621 33.4548 0.0000 12.2029 0.0000
# 2 16.5621 44.7190 24.0579 0.0000 1.9980 0.0000
# 3 33.4548 24.0579 67.1502 0.0000 24.0987 0.0000
# 4 0.0000 0.0000 0.0000 24.6452 0.0000 0.9345
# 5 12.2029 1.9980 24.0987 0.0000 22.0904 0.0000
# 6 0.0000 0.0000 0.0000 0.9345 0.0000 26.2720
#
#
#
# Elastic Compliance Matrix: (Units=1/GPa)
#
#
# Indices 1 2 3 4 5 6 
#
# 1 0.012631 -0.001798 -0.005264 0.000000 -0.001073 0.000000
# 2 -0.001798 0.030722 -0.015563 0.000000 0.015193 0.000000
# 3 -0.005264 -0.015563 0.035401 0.000000 -0.034304 0.000000
# 4 0.000000 0.000000 0.000000 0.040631 0.000000 -0.001445
# 5 -0.001073 0.015193 -0.034304 0.000000 0.081910 0.000000
# 6 0.000000 0.000000 0.000000 -0.001445 0.000000 0.038115
#
#
# Mechanical properties :
#
#
# Convention : Reuss Voigt Hill
#
# Bulk Modulus (GPa) = 29.84717 39.61369 34.73043
# Shear Modulus (GPa) = 16.90173 23.55478 20.22825
#
# Velocity S-wave (km/s) = 3.03151 3.57876 3.31644
# Velocity P-wave (km/s) = 5.33689 6.21418 5.79217
#
# Compressibility (1/GPa) = 0.03350401
#
# Stress axis : x y z
#
# Youngs Moduli (GPa) = 79.16863 32.55033 28.24762
#
# Poissons Ratio (x) = 0.05854 0.14869
# Poissons Ratio (y) = 0.14238 0.43962
# Poissons Ratio (z) = 0.41672 0.50658
#
# Static dielectric constant tensor:
#      x y z
#    x 3.201630 0.000000 0.237630 
#    y 0.000000 3.302370 0.000000 
#    z 0.237630 0.000000 3.613960 
# 
# 
# High freq. dielectric constant tensor:
#      x y z
#    x 1.692090 0.000000 0.025280 
#    y 0.000000 1.713870 0.000000 
#    z 0.025280 0.000000 1.715050 
# 
# From -- ./inp_files/42908.got.cif
#   From: 2010.06.25/outbox.cif.g09.slc.cpg/sg11_22_cif.got.tgz:42908.got - 2010.06.27 23:14:04.
