data_PCOD8071689
_publ_section_title
;
Structure prediction by ZEFSAII (Michael W. Deem and Ramdas Pophale) SiO2 
 PCOD8071689
Probable space group: P 21/M
;
_chemical_formula_sum "Si O2"
_cell_formula_units_Z 32
_cell_length_a 21.605869
_cell_length_b 13.147427
_cell_length_c 11.827945
_cell_angle_alpha 90.000000
_cell_angle_beta 29.766333
_cell_angle_gamma 90.000000
_cell_volume 1668.051843
_symmetry_space_group_name_H-M "P 21/M"
_symmetry_group_IT_number 11
_symmetry_cell_setting 'monoclinic'
loop_
_space_group_symop_operation_xyz
x,y,z
-x,1/2+y,-z
-x,-y,-z
x,1/2-y,z
loop_
_atom_site_type_symbol
_atom_site_label
_atom_site_fract_x
_atom_site_fract_y
_atom_site_fract_z
Si Si1 0.861767 0.485920 0.760433
Si Si2 0.568412 0.634608 0.026044
Si Si3 0.791524 0.997611 0.629486
Si Si4 0.960618 0.133640 0.792647
Si Si5 0.289646 0.633458 0.431597
Si Si6 0.504865 0.366484 0.614035
Si Si7 0.260930 0.132053 0.872266
Si Si8 0.758091 0.044178 0.254873
O O1 0.780638 0.464953 0.776969
O O2 0.864561 0.390373 0.841617
O O3 0.000000 0.500000 0.500000
O O4 0.815466 0.586413 0.900528
O O5 0.617390 0.750000 0.952889
O O6 0.436458 0.627542 0.170634
O O7 0.554373 0.590474 0.175786
O O8 0.670910 0.571274 0.794314
O O9 0.916648 0.934953 0.407719
O O10 0.788203 0.095191 0.552913
O O11 0.002268 0.250000 0.724152
O O12 0.882265 0.108178 0.029190
O O13 0.251219 0.750000 0.520380
O O14 0.260124 0.557990 0.582816
O O15 0.538332 0.250000 0.585145
O O16 0.408908 0.379786 0.662832
O O17 0.636380 0.419090 0.377530
O O18 0.223764 0.250000 0.917254
O O19 0.226030 0.073456 0.810916
#
# Coordination Sequence:
#
# PCOD8071689 Si02
#       8
#     4   4   4   4   4   4   4   4
#     4   9  20  34  52  82 115 143 177 224 285 332
#     4   9  17  32  56  84 110 143 185 228 279 335
#     4  11  20  35  57  83 109 144 189 234 275 333
#     4  10  21  36  56  80 108 144 182 230 283 336
#     4  10  22  38  58  80 110 151 188 230 282 336
#     4   9  16  29  56  84 108 146 187 229 280 333
#     4  10  19  33  56  84 112 146 189 235 280 329
#     4  10  20  37  54  78 113 148 188 228 275 331
#
# _framework density 19.184056999999999
#
# number of rings (size 3 to 8) (size 9 to 14) (size 15 to 20)
#    0.000    2.250    1.250    3.000    0.000    3.000 
#    0.000    6.250    0.000    3.000    0.000    0.000 
#    0.000    0.000    0.000    0.000    0.000    0.000 
#
# Total GULP energy -396629.185211 kJ/mol
# GULP energy per Si atom -12394.662038 kJ/mol
# Density = 1.914039 g / cm^3
# Si number density = 19.184057 Si / 1000 Ang^3
#
#
#
# Elastic Constant Matrix: (Units=GPa)
#
#
# Indices 1 2 3 4 5 6 
#
# 1 88.3835 54.9116 26.2947 0.0000 9.5045 0.0000
# 2 54.9116 96.1756 33.7272 0.0000 3.0677 0.0000
# 3 26.2947 33.7272 89.0912 0.0000 -3.4573 0.0000
# 4 0.0000 0.0000 0.0000 25.8014 0.0000 -2.5301
# 5 9.5045 3.0677 -3.4573 0.0000 22.9054 0.0000
# 6 0.0000 0.0000 0.0000 -2.5301 0.0000 26.1901
#
#
#
# Elastic Compliance Matrix: (Units=1/GPa)
#
#
# Indices 1 2 3 4 5 6 
#
# 1 0.018715 -0.009732 -0.002103 0.000000 -0.006780 0.000000
# 2 -0.009732 0.017172 -0.003582 0.000000 0.001198 0.000000
# 3 -0.002103 -0.003582 0.013332 0.000000 0.003364 0.000000
# 4 0.000000 0.000000 0.000000 0.039128 0.000000 0.003780
# 5 -0.006780 0.001198 0.003364 0.000000 0.046818 0.000000
# 6 0.000000 0.000000 0.000000 0.003780 0.000000 0.038548
#
#
# Mechanical properties :
#
#
# Convention : Reuss Voigt Hill
#
# Bulk Modulus (GPa) = 54.38949 55.94636 55.16792
# Shear Modulus (GPa) = 23.73327 25.56051 24.64689
#
# Velocity S-wave (km/s) = 3.52111 3.65414 3.58824
# Velocity P-wave (km/s) = 6.70402 6.85784 6.78136
#
# Compressibility (1/GPa) = 0.01838590
#
# Stress axis : x y z
#
# Youngs Moduli (GPa) = 53.43235 58.23415 75.00962
#
# Poissons Ratio (x) = 0.56673 0.15771
# Poissons Ratio (y) = 0.52000 0.26869
# Poissons Ratio (z) = 0.11235 0.20860
#
# Static dielectric constant tensor:
#      x y z
#    x 3.547080 0.000000 0.009220 
#    y 0.000000 3.416700 0.000000 
#    z 0.009220 0.000000 3.561050 
# 
# 
# High freq. dielectric constant tensor:
#      x y z
#    x 1.729030 0.000000 -0.008200 
#    y 0.000000 1.731260 0.000000 
#    z -0.008200 0.000000 1.749880 
# 
# From -- ./inp_files/35084.got.cif
#   From: 2010.06.25/outbox.cif.g09.slc.cpg/sg11_18_cif.got.tgz:35084.got - 2010.06.27 23:14:04.
