data_PCOD8071495
_publ_section_title
;
Structure prediction by ZEFSAII (Michael W. Deem and Ramdas Pophale) SiO2 
 PCOD8071495
Probable space group: P 21/M
;
_chemical_formula_sum "Si O2"
_cell_formula_units_Z 32
_cell_length_a 19.618923
_cell_length_b 8.610080
_cell_length_c 14.215307
_cell_angle_alpha 90.000000
_cell_angle_beta 46.774858
_cell_angle_gamma 90.000000
_cell_volume 1749.719339
_symmetry_space_group_name_H-M "P 21/M"
_symmetry_group_IT_number 11
_symmetry_cell_setting 'monoclinic'
loop_
_space_group_symop_operation_xyz
x,y,z
-x,1/2+y,-z
-x,-y,-z
x,1/2-y,z
loop_
_atom_site_type_symbol
_atom_site_label
_atom_site_fract_x
_atom_site_fract_y
_atom_site_fract_z
Si Si1 0.703481 0.929102 0.737991
Si Si2 0.975093 0.432207 0.624853
Si Si3 0.693165 0.066523 0.470592
Si Si4 0.366802 0.932636 0.865827
Si Si5 0.401157 0.565974 0.623495
Si Si6 0.220546 0.070782 0.132237
Si Si7 0.152850 0.932114 0.537835
Si Si8 0.552459 0.433376 0.761986
O O1 0.720303 0.750000 0.694240
O O2 0.714318 0.954098 0.838592
O O3 0.780446 0.035067 0.613944
O O4 0.599387 0.984206 0.808104
O O5 0.961495 0.250000 0.627718
O O6 0.882301 0.507370 0.753138
O O7 0.000000 0.500000 0.500000
O O8 0.057858 0.470589 0.619765
O O9 0.690987 0.250000 0.476807
O O10 0.676061 0.007493 0.380205
O O11 0.793295 0.011871 0.417803
O O12 0.608679 0.006797 0.616734
O O13 0.382692 0.750000 0.854865
O O14 0.371033 0.994658 0.754430
O O15 0.445494 0.016082 0.853862
O O16 0.266168 0.977596 0.002616
O O17 0.500000 0.500000 0.500000
O O18 0.408184 0.750000 0.615389
O O19 0.213206 0.250000 0.111275
O O20 0.129029 0.750000 0.561913
O O21 0.558340 0.250000 0.770585
#
# Coordination Sequence:
#
# PCOD8071495 Si02
#       8
#     4   4   4   4   4   4   4   4
#     4  10  20  34  53  78 109 144 187 232 273 322
#     4  12  23  37  59  85 113 144 183 230 276 327
#     4   8  16  31  53  81 111 142 179 223 273 324
#     4  11  23  36  54  81 113 148 187 232 279 328
#     4  10  19  34  56  83 111 144 185 229 275 325
#     4  11  24  40  57  78 109 149 188 229 279 332
#     4  10  19  33  56  84 113 145 180 223 277 330
#     4  10  19  33  54  77 109 150 187 224 273 330
#
# _framework density 18.288647999999998
#
# number of rings (size 3 to 8) (size 9 to 14) (size 15 to 20)
#    0.000    1.750    2.500    3.750    0.000    2.500 
#    0.000    0.625    0.000    0.750    0.000    0.000 
#    0.000    0.000    0.000    0.000    0.000    0.000 
#
# Total GULP energy -396809.846183 kJ/mol
# GULP energy per Si atom -12400.307693 kJ/mol
# Density = 1.824702 g / cm^3
# Si number density = 18.288648 Si / 1000 Ang^3
#
#
#
# Elastic Constant Matrix: (Units=GPa)
#
#
# Indices 1 2 3 4 5 6 
#
# 1 119.6925 24.2327 54.1312 0.0000 -1.2546 0.0000
# 2 24.2327 40.4652 9.0708 0.0000 10.5063 0.0000
# 3 54.1312 9.0708 97.8278 0.0000 1.4883 0.0000
# 4 0.0000 0.0000 0.0000 26.5355 0.0000 -6.5749
# 5 -1.2546 10.5063 1.4883 0.0000 21.8534 0.0000
# 6 0.0000 0.0000 0.0000 -6.5749 0.0000 26.7734
#
#
#
# Elastic Compliance Matrix: (Units=1/GPa)
#
#
# Indices 1 2 3 4 5 6 
#
# 1 0.012856 -0.007484 -0.006493 0.000000 0.004778 0.000000
# 2 -0.007484 0.033176 0.001316 0.000000 -0.016469 0.000000
# 3 -0.006493 0.001316 0.013722 0.000000 -0.001940 0.000000
# 4 0.000000 0.000000 0.000000 0.040127 0.000000 0.009854
# 5 0.004778 -0.016469 -0.001940 0.000000 0.054084 0.000000
# 6 0.000000 0.000000 0.000000 0.009854 0.000000 0.039771
#
#
# Mechanical properties :
#
#
# Convention : Reuss Voigt Hill
#
# Bulk Modulus (GPa) = 29.04294 48.09497 38.56896
# Shear Modulus (GPa) = 21.68871 26.40251 24.04561
#
# Velocity S-wave (km/s) = 3.44744 3.80367 3.62993
# Velocity P-wave (km/s) = 5.63571 6.75613 6.22120
#
# Compressibility (1/GPa) = 0.03443178
#
# Stress axis : x y z
#
# Youngs Moduli (GPa) = 77.78248 30.14263 72.87514
#
# Poissons Ratio (x) = 0.22560 0.47315
# Poissons Ratio (y) = 0.58215 -0.09589
# Poissons Ratio (z) = 0.50501 -0.03966
#
# Static dielectric constant tensor:
#      x y z
#    x 3.694100 0.000000 0.015990 
#    y 0.000000 3.377450 0.000000 
#    z 0.015990 0.000000 3.144350 
# 
# 
# High freq. dielectric constant tensor:
#      x y z
#    x 1.717010 0.000000 -0.003670 
#    y 0.000000 1.710620 0.000000 
#    z -0.003670 0.000000 1.680400 
# 
# From -- ./inp_files/54252.got.cif
#   From: 2010.06.25/outbox.cif.g09.slc.cpg/sg11_28_cif.got.tgz:54252.got - 2010.06.27 23:14:04.
