data_PCOD8071106
_publ_section_title
;
Structure prediction by ZEFSAII (Michael W. Deem and Ramdas Pophale) SiO2 
 PCOD8071106
Probable space group: P 21/M
;
_chemical_formula_sum "Si O2"
_cell_formula_units_Z 28
_cell_length_a 14.824082
_cell_length_b 8.753783
_cell_length_c 12.520985
_cell_angle_alpha 90.000000
_cell_angle_beta 74.845830
_cell_angle_gamma 90.000000
_cell_volume 1568.306890
_symmetry_space_group_name_H-M "P 21/M"
_symmetry_group_IT_number 11
_symmetry_cell_setting 'monoclinic'
loop_
_space_group_symop_operation_xyz
x,y,z
-x,1/2+y,-z
-x,-y,-z
x,1/2-y,z
loop_
_atom_site_type_symbol
_atom_site_label
_atom_site_fract_x
_atom_site_fract_y
_atom_site_fract_z
Si Si1 0.228777 0.928250 0.297468
Si Si2 0.804581 0.073904 0.087443
Si Si3 0.881448 0.927355 0.858065
Si Si4 0.907568 0.427128 0.267137
Si Si5 0.598004 0.926083 0.839808
Si Si6 0.903407 0.929018 0.491526
Si Si7 0.608088 0.424975 0.059977
O O1 0.217847 0.750000 0.321200
O O2 0.182589 0.971813 0.199126
O O3 0.338108 0.973891 0.259263
O O4 0.181214 0.016430 0.409003
O O5 0.831215 0.250000 0.056660
O O6 0.836078 0.026030 0.195899
O O7 0.693132 0.047260 0.115075
O O8 0.859447 0.969659 0.986508
O O9 0.859980 0.750000 0.844050
O O10 0.988546 0.967094 0.802796
O O11 0.898426 0.250000 0.300723
O O12 0.880425 0.526719 0.377621
O O13 0.622502 0.750000 0.813110
O O14 0.489068 0.962091 0.849149
O O15 0.621161 0.964976 0.955363
O O16 0.913836 0.750000 0.499809
O O17 0.000000 0.000000 0.500000
O O18 0.606506 0.250000 0.018629
#
# Coordination Sequence:
#
# PCOD8071106 Si02
#       7
#     4   4   4   4   4   4   4
#     4  12  23  36  56  80 110 145 181 227 277 325
#     4  10  20  35  55  80 113 151 185 221 268 327
#     4  11  21  33  52  80 113 148 183 222 268 324
#     4  10  22  38  55  78 112 150 187 224 267 321
#     4  10  19  32  52  80 111 143 180 227 274 324
#     4  12  24  39  59  81 107 142 184 229 273 321
#     4   9  18  32  52  79 112 146 180 220 273 327
#
# _framework density 17.853648
#
# number of rings (size 3 to 8) (size 9 to 14) (size 15 to 20)
#    0.000    1.429    2.857    3.857    0.000    1.714 
#    0.000    0.000    0.000    0.857    0.000    0.000 
#    0.000    0.000    0.000    0.000    0.000    0.000 
#
# Total GULP energy -347318.595330 kJ/mol
# GULP energy per Si atom -12404.235548 kJ/mol
# Density = 1.781301 g / cm^3
# Si number density = 17.853648 Si / 1000 Ang^3
#
#
#
# Elastic Constant Matrix: (Units=GPa)
#
#
# Indices 1 2 3 4 5 6 
#
# 1 87.9623 31.5984 57.4329 0.0000 -10.6063 0.0000
# 2 31.5984 91.9776 46.2045 0.0000 -5.3065 0.0000
# 3 57.4329 46.2045 113.2051 0.0000 -5.9951 0.0000
# 4 0.0000 0.0000 0.0000 31.2911 0.0000 -3.4248
# 5 -10.6063 -5.3065 -5.9951 0.0000 28.0630 0.0000
# 6 0.0000 0.0000 0.0000 -3.4248 0.0000 21.5152
#
#
#
# Elastic Compliance Matrix: (Units=1/GPa)
#
#
# Indices 1 2 3 4 5 6 
#
# 1 0.017852 -0.001809 -0.008071 0.000000 0.004681 0.000000
# 2 -0.001809 0.013915 -0.004712 0.000000 0.000941 0.000000
# 3 -0.008071 -0.004712 0.014810 0.000000 -0.000778 0.000000
# 4 0.000000 0.000000 0.000000 0.032525 0.000000 0.005177
# 5 0.004681 0.000941 -0.000778 0.000000 0.037415 0.000000
# 6 0.000000 0.000000 0.000000 0.005177 0.000000 0.047303
#
#
# Mechanical properties :
#
#
# Convention : Reuss Voigt Hill
#
# Bulk Modulus (GPa) = 57.48994 62.62407 60.05701
# Shear Modulus (GPa) = 25.15069 26.70113 25.92591
#
# Velocity S-wave (km/s) = 3.75736 3.87144 3.81482
# Velocity P-wave (km/s) = 7.14802 7.42540 7.28803
#
# Compressibility (1/GPa) = 0.01739435
#
# Stress axis : x y z
#
# Youngs Moduli (GPa) = 56.01466 71.86569 67.52065
#
# Poissons Ratio (x) = 0.12997 0.54497
# Poissons Ratio (y) = 0.10131 0.31815
# Poissons Ratio (z) = 0.45210 0.33863
#
# Static dielectric constant tensor:
#      x y z
#    x 3.475770 0.000000 -0.139590 
#    y 0.000000 3.380630 0.000000 
#    z -0.139590 0.000000 3.232590 
# 
# 
# High freq. dielectric constant tensor:
#      x y z
#    x 1.690800 0.000000 -0.014940 
#    y 0.000000 1.698820 0.000000 
#    z -0.014940 0.000000 1.673040 
# 
# From -- ./inp_files/37500.got.cif
#   From: 2010.06.25/outbox.cif.g09.slc.cpg/sg11_19_cif.got.tgz:37500.got - 2010.06.27 23:14:04.
