data_PCOD8071275
_publ_section_title
;
Structure prediction by ZEFSAII (Michael W. Deem and Ramdas Pophale) SiO2 
 PCOD8071275
Probable space group: P 21/M
;
_chemical_formula_sum "Si O2"
_cell_formula_units_Z 32
_cell_length_a 11.429214
_cell_length_b 8.993663
_cell_length_c 21.012574
_cell_angle_alpha 90.000000
_cell_angle_beta 127.653095
_cell_angle_gamma 90.000000
_cell_volume 1710.038868
_symmetry_space_group_name_H-M "P 21/M"
_symmetry_group_IT_number 11
_symmetry_cell_setting 'monoclinic'
loop_
_space_group_symop_operation_xyz
x,y,z
-x,1/2+y,-z
-x,-y,-z
x,1/2-y,z
loop_
_atom_site_type_symbol
_atom_site_label
_atom_site_fract_x
_atom_site_fract_y
_atom_site_fract_z
Si Si1 0.653015 0.584611 0.996636
Si Si2 0.565214 0.075605 0.618132
Si Si3 0.151729 0.417786 0.056615
Si Si4 0.986761 0.924989 0.428016
Si Si5 0.394822 0.426155 0.236798
Si Si6 0.295100 0.576067 0.723823
Si Si7 0.367881 0.418293 0.871388
Si Si8 0.707138 0.423087 0.533068
O O1 0.579774 0.750000 0.965379
O O2 0.717188 0.565157 0.089499
O O3 0.787657 0.570228 0.994083
O O4 0.538097 0.455801 0.941915
O O5 0.552105 0.250000 0.625382
O O6 0.676616 0.038038 0.596913
O O7 0.629629 0.000739 0.702895
O O8 0.402449 0.013788 0.548958
O O9 0.120158 0.250000 0.066758
O O10 0.267076 0.485472 0.146544
O O11 0.000000 0.500000 0.000000
O O12 0.978421 0.750000 0.434794
O O13 0.125568 0.967790 0.429049
O O14 0.837163 0.981756 0.348006
O O15 0.000000 0.000000 0.500000
O O16 0.386808 0.250000 0.241775
O O17 0.553184 0.471893 0.260179
O O18 0.263417 0.750000 0.704945
O O19 0.301579 0.535475 0.800160
O O20 0.356187 0.250000 0.840796
O O21 0.676871 0.250000 0.509711
#
# Coordination Sequence:
#
# PCOD8071275 Si02
#       8
#     4   4   4   4   4   4   4   4
#     4   9  18  36  57  79 111 146 179 223 282 337
#     4  10  20  35  60  88 110 143 191 232 267 320
#     4  10  21  39  58  79 110 148 186 229 282 335
#     4  11  23  39  58  84 118 151 187 227 279 334
#     4  10  21  38  58  79 111 148 183 226 282 335
#     4  11  22  38  58  81 114 151 187 230 283 334
#     4  10  19  32  57  86 109 140 184 230 274 328
#     4   9  20  39  58  80 116 153 181 222 280 330
#
# _framework density 18.713024999999998
#
# number of rings (size 3 to 8) (size 9 to 14) (size 15 to 20)
#    0.000    2.000    1.250    2.250    0.000    7.000 
#    2.250    0.000    0.000    0.000    0.000    0.000 
#    0.000    0.000    0.000    0.000    0.000    0.000 
#
# Total GULP energy -396772.358698 kJ/mol
# GULP energy per Si atom -12399.136209 kJ/mol
# Density = 1.867043 g / cm^3
# Si number density = 18.713025 Si / 1000 Ang^3
#
#
#
# Elastic Constant Matrix: (Units=GPa)
#
#
# Indices 1 2 3 4 5 6 
#
# 1 119.8657 53.5264 84.4590 0.0000 2.8201 0.0000
# 2 53.5264 60.2407 41.8648 0.0000 -1.0518 0.0000
# 3 84.4590 41.8648 122.4712 0.0000 -5.7386 0.0000
# 4 0.0000 0.0000 0.0000 38.3623 0.0000 -0.3252
# 5 2.8201 -1.0518 -5.7386 0.0000 32.7797 0.0000
# 6 0.0000 0.0000 0.0000 -0.3252 0.0000 29.9939
#
#
#
# Elastic Compliance Matrix: (Units=1/GPa)
#
#
# Indices 1 2 3 4 5 6 
#
# 1 0.021201 -0.011299 -0.010950 0.000000 -0.004103 0.000000
# 2 -0.011299 0.027807 -0.001639 0.000000 0.001577 0.000000
# 3 -0.010950 -0.001639 0.016454 0.000000 0.003770 0.000000
# 4 0.000000 0.000000 0.000000 0.026070 0.000000 0.000283
# 5 -0.004103 0.001577 0.003770 0.000000 0.031570 0.000000
# 6 0.000000 0.000000 0.000000 0.000283 0.000000 0.033343
#
#
# Mechanical properties :
#
#
# Convention : Reuss Voigt Hill
#
# Bulk Modulus (GPa) = 56.54937 73.58647 65.06792
# Shear Modulus (GPa) = 23.79638 28.40901 26.10270
#
# Velocity S-wave (km/s) = 3.56989 3.90056 3.73888
# Velocity P-wave (km/s) = 6.87583 7.72624 7.31341
#
# Compressibility (1/GPa) = 0.01768366
#
# Stress axis : x y z
#
# Youngs Moduli (GPa) = 47.16823 35.96263 60.77674
#
# Poissons Ratio (x) = 0.40636 0.66552
# Poissons Ratio (y) = 0.53297 0.09961
# Poissons Ratio (z) = 0.51650 0.05894
#
# Static dielectric constant tensor:
#      x y z
#    x 4.333160 0.000000 -1.411070 
#    y 0.000000 3.495490 0.000000 
#    z -1.411070 0.000000 5.145760 
# 
# 
# High freq. dielectric constant tensor:
#      x y z
#    x 1.724060 0.000000 -0.016680 
#    y 0.000000 1.730340 0.000000 
#    z -0.016680 0.000000 1.727290 
# 
# From -- ./inp_files/64452.got.cif
#   From: 2010.06.25/outbox.cif.g09.slc.cpg/sg11_33_cif.got.tgz:64452.got - 2010.06.27 23:14:04.
