data_PCOD8071558
_publ_section_title
;
Structure prediction by ZEFSAII (Michael W. Deem and Ramdas Pophale) SiO2 
 PCOD8071558
Probable space group: P 21/M
;
_chemical_formula_sum "Si O2"
_cell_formula_units_Z 32
_cell_length_a 15.338464
_cell_length_b 8.847990
_cell_length_c 24.676794
_cell_angle_alpha 90.000000
_cell_angle_beta 151.632594
_cell_angle_gamma 90.000000
_cell_volume 1591.189655
_symmetry_space_group_name_H-M "P 21/M"
_symmetry_group_IT_number 11
_symmetry_cell_setting 'monoclinic'
loop_
_space_group_symop_operation_xyz
x,y,z
-x,1/2+y,-z
-x,-y,-z
x,1/2-y,z
loop_
_atom_site_type_symbol
_atom_site_label
_atom_site_fract_x
_atom_site_fract_y
_atom_site_fract_z
Si Si1 0.018644 0.416257 0.452760
Si Si2 0.955630 0.926646 0.032771
Si Si3 0.398076 0.068526 0.495914
Si Si4 0.607191 0.414220 0.209484
Si Si5 0.943569 0.429130 0.636458
Si Si6 0.630294 0.927282 0.115746
Si Si7 0.654217 0.426419 0.730373
Si Si8 0.603700 0.427956 0.822873
O O1 0.116144 0.250000 0.513278
O O2 0.820057 0.385014 0.320789
O O3 0.000000 0.500000 0.500000
O O4 0.112092 0.511730 0.454849
O O5 0.922065 0.750000 0.006866
O O6 0.131338 0.957588 0.167759
O O7 0.770065 0.007000 0.951650
O O8 0.000000 0.000000 0.000000
O O9 0.392302 0.250000 0.488452
O O10 0.521280 0.005006 0.612872
O O11 0.500000 0.000000 0.500000
O O12 0.192835 0.004680 0.393702
O O13 0.506550 0.250000 0.154947
O O14 0.542270 0.514180 0.123544
O O15 0.578717 0.508129 0.249398
O O16 0.915675 0.250000 0.620967
O O17 0.152412 0.470041 0.769234
O O18 0.605808 0.750000 0.099159
O O19 0.500000 0.000000 0.000000
O O20 0.617179 0.250000 0.713725
O O21 0.609782 0.494690 0.765414
O O22 0.611610 0.250000 0.828024
#
# Coordination Sequence:
#
# PCOD8071558 Si02
#       8
#     4   4   4   4   4   4   4   4
#     4  10  21  36  57  87 122 159 197 240 290 353
#     4   9  16  31  52  76 106 144 184 231 283 342
#     4  11  23  42  63  87 117 157 205 258 305 357
#     4  10  21  36  54  84 119 152 192 238 286 345
#     4  10  22  41  63  90 121 158 198 248 307 360
#     4  10  21  40  65  89 118 155 196 243 297 356
#     4   8  18  35  56  79 108 149 192 236 297 352
#     4  10  19  33  54  83 116 150 188 237 294 353
#
# _framework density 20.110738999999999
#
# number of rings (size 3 to 8) (size 9 to 14) (size 15 to 20)
#    0.000    2.250    0.000    3.375    1.750    3.000 
#    2.250    6.875    0.000    0.000    0.000    0.000 
#    0.000    0.000    0.000    0.000    0.000    0.000 
#
# Total GULP energy -396442.443930 kJ/mol
# GULP energy per Si atom -12388.826373 kJ/mol
# Density = 2.006497 g / cm^3
# Si number density = 20.110739 Si / 1000 Ang^3
#
#
#
# Elastic Constant Matrix: (Units=GPa)
#
#
# Indices 1 2 3 4 5 6 
#
# 1 127.8246 53.5438 42.1673 0.0000 -4.5484 0.0000
# 2 53.5438 121.3986 43.8872 0.0000 -1.3993 0.0000
# 3 42.1673 43.8872 88.8296 0.0000 -8.5722 0.0000
# 4 0.0000 0.0000 0.0000 28.4604 0.0000 1.7667
# 5 -4.5484 -1.3993 -8.5722 0.0000 25.6475 0.0000
# 6 0.0000 0.0000 0.0000 1.7667 0.0000 36.8205
#
#
#
# Elastic Compliance Matrix: (Units=1/GPa)
#
#
# Indices 1 2 3 4 5 6 
#
# 1 0.010310 -0.003399 -0.003158 0.000000 0.000587 0.000000
# 2 -0.003399 0.011182 -0.004041 0.000000 -0.001343 0.000000
# 3 -0.003158 -0.004041 0.015167 0.000000 0.004289 0.000000
# 4 0.000000 0.000000 0.000000 0.035241 0.000000 -0.001691
# 5 0.000587 -0.001343 0.004289 0.000000 0.040454 0.000000
# 6 0.000000 0.000000 0.000000 -0.001691 0.000000 0.027240
#
#
# Mechanical properties :
#
#
# Convention : Reuss Voigt Hill
#
# Bulk Modulus (GPa) = 64.66986 68.58328 66.62657
# Shear Modulus (GPa) = 30.13082 31.41601 30.77341
#
# Velocity S-wave (km/s) = 3.87492 3.95669 3.91602
# Velocity P-wave (km/s) = 7.22819 7.41962 7.32453
#
# Compressibility (1/GPa) = 0.01546315
#
# Stress axis : x y z
#
# Youngs Moduli (GPa) = 96.99724 89.43268 65.93318
#
# Poissons Ratio (x) = 0.30395 0.20823
# Poissons Ratio (y) = 0.32966 0.26641
# Poissons Ratio (z) = 0.30633 0.36137
#
# Static dielectric constant tensor:
#      x y z
#    x 3.628730 0.000000 0.221130 
#    y 0.000000 4.028350 0.000000 
#    z 0.221130 0.000000 3.935700 
# 
# 
# High freq. dielectric constant tensor:
#      x y z
#    x 1.771900 0.000000 0.011710 
#    y 0.000000 1.790100 0.000000 
#    z 0.011710 0.000000 1.781520 
# 
# From -- ./inp_files/69068.got.cif
#   From: 2010.06.25/outbox.cif.g09.slc.cpg/sg11_35_cif.got.tgz:69068.got - 2010.06.27 23:14:04.
