data_PCOD8071481
_publ_section_title
;
Structure prediction by ZEFSAII (Michael W. Deem and Ramdas Pophale) SiO2 
 PCOD8071481
Probable space group: P 21/M
;
_chemical_formula_sum "Si O2"
_cell_formula_units_Z 24
_cell_length_a 9.150249
_cell_length_b 13.387345
_cell_length_c 9.496790
_cell_angle_alpha 90.000000
_cell_angle_beta 86.318341
_cell_angle_gamma 90.000000
_cell_volume 1160.932556
_symmetry_space_group_name_H-M "P 21/M"
_symmetry_group_IT_number 11
_symmetry_cell_setting 'monoclinic'
loop_
_space_group_symop_operation_xyz
x,y,z
-x,1/2+y,-z
-x,-y,-z
x,1/2-y,z
loop_
_atom_site_type_symbol
_atom_site_label
_atom_site_fract_x
_atom_site_fract_y
_atom_site_fract_z
Si Si1 0.291776 0.860890 0.895066
Si Si2 0.893456 0.136170 0.809562
Si Si3 0.387770 0.364987 0.511218
Si Si4 0.361209 0.550047 0.336320
Si Si5 0.535056 0.863803 0.080438
Si Si6 0.787486 0.940072 0.212956
O O1 0.270839 0.750000 0.832218
O O2 0.245909 0.940931 0.780377
O O3 0.194800 0.874593 0.040657
O O4 0.462681 0.876918 0.930934
O O5 0.935279 0.250000 0.775667
O O6 0.799117 0.095141 0.683830
O O7 0.040434 0.072535 0.812204
O O8 0.373655 0.250000 0.465953
O O9 0.345420 0.433884 0.380791
O O10 0.555575 0.388653 0.545243
O O11 0.274604 0.387487 0.644418
O O12 0.458973 0.558570 0.190937
O O13 0.508393 0.750000 0.135078
O O14 0.707758 0.891988 0.078156
#
# Coordination Sequence:
#
# PCOD8071481 Si02
#       6
#     4   4   4   4   4   4
#     4   9  19  34  50  71 102 136 167 201 243 292
#     4  10  19  33  54  76 100 131 165 201 246 298
#     4  10  20  35  54  74  99 129 166 208 244 289
#     4   9  18  34  54  73  96 132 165 199 248 295
#     4   9  17  33  55  75  98 129 167 207 244 289
#     4  11  19  31  51  77 102 130 167 204 246 290
#
# _framework density 20.673034999999999
#
# number of rings (size 3 to 8) (size 9 to 14) (size 15 to 20)
#    0.000    2.333    0.000    6.000    0.000    0.667 
#    0.000   10.000    0.000   12.000    0.000    0.000 
#    0.000    0.000    0.000    0.000    0.000    0.000 
#
# Total GULP energy -297482.857302 kJ/mol
# GULP energy per Si atom -12395.119054 kJ/mol
# Density = 2.062598 g / cm^3
# Si number density = 20.673035 Si / 1000 Ang^3
#
#
#
# Elastic Constant Matrix: (Units=GPa)
#
#
# Indices 1 2 3 4 5 6 
#
# 1 113.8054 19.9785 9.9143 0.0000 19.7238 0.0000
# 2 19.9785 149.8236 30.8079 0.0000 9.3630 0.0000
# 3 9.9143 30.8079 17.8257 0.0000 4.9480 0.0000
# 4 0.0000 0.0000 0.0000 38.9936 0.0000 6.2030
# 5 19.7238 9.3630 4.9480 0.0000 17.3056 0.0000
# 6 0.0000 0.0000 0.0000 6.2030 0.0000 26.5339
#
#
#
# Elastic Compliance Matrix: (Units=1/GPa)
#
#
# Indices 1 2 3 4 5 6 
#
# 1 0.011090 -0.000227 -0.002499 0.000000 -0.011802 0.000000
# 2 -0.000227 0.010363 -0.017705 0.000000 -0.000286 0.000000
# 3 -0.002499 -0.017705 0.091935 0.000000 -0.013859 0.000000
# 4 0.000000 0.000000 0.000000 0.026636 0.000000 -0.006227
# 5 -0.011802 -0.000286 -0.013859 0.000000 0.075353 0.000000
# 6 0.000000 0.000000 0.000000 -0.006227 0.000000 0.039143
#
#
# Mechanical properties :
#
#
# Convention : Reuss Voigt Hill
#
# Bulk Modulus (GPa) = 13.78828 44.76180 29.27504
# Shear Modulus (GPa) = 15.64657 31.28355 23.46506
#
# Velocity S-wave (km/s) = 2.75409 3.89428 3.37271
# Velocity P-wave (km/s) = 4.09848 6.47455 5.41836
#
# Compressibility (1/GPa) = 0.07252537
#
# Stress axis : x y z
#
# Youngs Moduli (GPa) = 90.17125 96.49402 10.87725
#
# Poissons Ratio (x) = 0.02194 0.02718
# Poissons Ratio (y) = 0.02050 0.19258
# Poissons Ratio (z) = 0.22534 1.70843
#
# Static dielectric constant tensor:
#      x y z
#    x 3.846500 0.000000 0.263200 
#    y 0.000000 3.924580 0.000000 
#    z 0.263200 0.000000 3.350960 
# 
# 
# High freq. dielectric constant tensor:
#      x y z
#    x 1.800170 0.000000 0.013500 
#    y 0.000000 1.824050 0.000000 
#    z 0.013500 0.000000 1.766500 
# 
# From -- ./inp_files/31147.got.cif
#   From: 2010.06.25/outbox.cif.g09.slc.cpg/sg11_16_cif.got.tgz:31147.got - 2010.06.27 23:14:04.
