data_PCOD8071702
_publ_section_title
;
Structure prediction by ZEFSAII (Michael W. Deem and Ramdas Pophale) SiO2 
 PCOD8071702
Probable space group: P 21/M
;
_chemical_formula_sum "Si O2"
_cell_formula_units_Z 32
_cell_length_a 16.308554
_cell_length_b 8.725400
_cell_length_c 12.185596
_cell_angle_alpha 90.000000
_cell_angle_beta 91.905146
_cell_angle_gamma 90.000000
_cell_volume 1733.035454
_symmetry_space_group_name_H-M "P 21/M"
_symmetry_group_IT_number 11
_symmetry_cell_setting 'monoclinic'
loop_
_space_group_symop_operation_xyz
x,y,z
-x,1/2+y,-z
-x,-y,-z
x,1/2-y,z
loop_
_atom_site_type_symbol
_atom_site_label
_atom_site_fract_x
_atom_site_fract_y
_atom_site_fract_z
Si Si1 0.380727 0.572560 0.764841
Si Si2 0.793403 0.931638 0.643329
Si Si3 0.765164 0.429262 0.076007
Si Si4 0.472884 0.930254 0.113515
Si Si5 0.877754 0.571842 0.253743
Si Si6 0.023383 0.432133 0.384368
Si Si7 0.703018 0.568393 0.856846
Si Si8 0.269739 0.427569 0.589655
O O1 0.404364 0.750000 0.763252
O O2 0.316330 0.535152 0.857991
O O3 0.462333 0.474932 0.789681
O O4 0.343076 0.524794 0.646317
O O5 0.795784 0.750000 0.640626
O O6 0.886427 0.992658 0.644319
O O7 0.748421 0.991818 0.749825
O O8 0.743119 0.988874 0.534357
O O9 0.776080 0.250000 0.055559
O O10 0.844492 0.493523 0.141837
O O11 0.758309 0.517119 0.961317
O O12 0.467936 0.750000 0.098882
O O13 0.385201 0.991410 0.145222
O O14 0.500000 0.000000 0.000000
O O15 0.892403 0.750000 0.231718
O O16 0.815082 0.544737 0.350464
O O17 0.962920 0.491807 0.287494
O O18 0.019401 0.250000 0.391799
O O19 0.000000 0.500000 0.500000
O O20 0.692522 0.750000 0.857492
O O21 0.294925 0.250000 0.595146
#
# Coordination Sequence:
#
# PCOD8071702 Si02
#       8
#     4   4   4   4   4   4   4   4
#     4  10  20  34  55  85 115 142 183 235 283 329
#     4   9  20  38  58  82 115 153 188 228 281 340
#     4  10  20  35  55  82 116 148 185 232 282 334
#     4  12  23  37  58  85 114 146 188 234 280 331
#     4  10  19  33  56  85 114 145 188 236 285 334
#     4  11  20  35  57  85 116 148 191 237 283 333
#     4  11  22  38  60  83 113 152 189 229 282 337
#     4   9  17  34  56  80 113 149 186 228 279 334
#
# _framework density 18.464711999999999
#
# number of rings (size 3 to 8) (size 9 to 14) (size 15 to 20)
#    0.000    1.750    2.500    3.000    0.000    1.500 
#    0.000    5.000    0.000    0.000    0.000    0.000 
#    0.000    0.000    0.000    0.000    0.000    0.000 
#
# Total GULP energy -396919.760169 kJ/mol
# GULP energy per Si atom -12403.742505 kJ/mol
# Density = 1.842269 g / cm^3
# Si number density = 18.464712 Si / 1000 Ang^3
#
#
#
# Elastic Constant Matrix: (Units=GPa)
#
#
# Indices 1 2 3 4 5 6 
#
# 1 130.4309 51.7074 79.5996 0.0000 10.8135 0.0000
# 2 51.7074 92.5740 47.9658 0.0000 3.2629 0.0000
# 3 79.5996 47.9658 139.7556 0.0000 13.3676 0.0000
# 4 0.0000 0.0000 0.0000 27.5970 0.0000 9.3371
# 5 10.8135 3.2629 13.3676 0.0000 31.4020 0.0000
# 6 0.0000 0.0000 0.0000 9.3371 0.0000 30.5194
#
#
#
# Elastic Compliance Matrix: (Units=1/GPa)
#
#
# Indices 1 2 3 4 5 6 
#
# 1 0.013014 -0.004197 -0.005822 0.000000 -0.001567 0.000000
# 2 -0.004197 0.014502 -0.002691 0.000000 0.001084 0.000000
# 3 -0.005822 -0.002691 0.011650 0.000000 -0.002675 0.000000
# 4 0.000000 0.000000 0.000000 0.040420 0.000000 -0.012366
# 5 -0.001567 0.001084 -0.002675 0.000000 0.033411 0.000000
# 6 0.000000 0.000000 0.000000 -0.012366 0.000000 0.036549
#
#
# Mechanical properties :
#
#
# Convention : Reuss Voigt Hill
#
# Bulk Modulus (GPa) = 72.73913 80.14512 76.44213
# Shear Modulus (GPa) = 27.84780 30.13619 28.99199
#
# Velocity S-wave (km/s) = 3.88772 4.04430 3.96679
# Velocity P-wave (km/s) = 7.72215 8.08129 7.90376
#
# Compressibility (1/GPa) = 0.01374776
#
# Stress axis : x y z
#
# Youngs Moduli (GPa) = 76.84300 68.95448 85.83366
#
# Poissons Ratio (x) = 0.28941 0.49969
# Poissons Ratio (y) = 0.32252 0.23094
# Poissons Ratio (z) = 0.44735 0.18552
#
# Static dielectric constant tensor:
#      x y z
#    x 3.479590 0.000000 0.165260 
#    y 0.000000 3.401440 0.000000 
#    z 0.165260 0.000000 3.487910 
# 
# 
# High freq. dielectric constant tensor:
#      x y z
#    x 1.711570 0.000000 0.024520 
#    y 0.000000 1.718120 0.000000 
#    z 0.024520 0.000000 1.711710 
# 
# From -- ./inp_files/38127.got.cif
#   From: 2010.06.25/outbox.cif.g09.slc.cpg/sg11_20_cif.got.tgz:38127.got - 2010.06.27 23:14:04.
