data_PCOD8071454
_publ_section_title
;
Structure prediction by ZEFSAII (Michael W. Deem and Ramdas Pophale) SiO2 
 PCOD8071454
Probable space group: P 21/M
;
_chemical_formula_sum "Si O2"
_cell_formula_units_Z 32
_cell_length_a 20.337809
_cell_length_b 9.007365
_cell_length_c 26.456221
_cell_angle_alpha 90.000000
_cell_angle_beta 159.618921
_cell_angle_gamma 90.000000
_cell_volume 1687.860139
_symmetry_space_group_name_H-M "P 21/M"
_symmetry_group_IT_number 11
_symmetry_cell_setting 'monoclinic'
loop_
_space_group_symop_operation_xyz
x,y,z
-x,1/2+y,-z
-x,-y,-z
x,1/2-y,z
loop_
_atom_site_type_symbol
_atom_site_label
_atom_site_fract_x
_atom_site_fract_y
_atom_site_fract_z
Si Si1 0.558754 0.426524 0.906397
Si Si2 0.821773 0.427084 0.897578
Si Si3 0.182225 0.573776 0.607716
Si Si4 0.848055 0.076418 0.528686
Si Si5 0.153280 0.926087 0.969837
Si Si6 0.833457 0.915546 0.669957
Si Si7 0.131965 0.913251 0.795478
Si Si8 0.557252 0.074817 0.404428
O O1 0.525493 0.250000 0.879318
O O2 0.362466 0.512739 0.767423
O O3 0.676462 0.485741 0.942565
O O4 0.669971 0.469675 0.038182
O O5 0.832442 0.250000 0.901378
O O6 0.637615 0.486729 0.736722
O O7 0.816400 0.483210 0.951631
O O8 0.000000 0.500000 0.000000
O O9 0.169682 0.750000 0.604023
O O10 0.198377 0.522335 0.561048
O O11 0.000000 0.500000 0.500000
O O12 0.868061 0.250000 0.546166
O O13 0.679504 0.022933 0.443945
O O14 0.052194 0.015423 0.693260
O O15 0.154370 0.750000 0.967330
O O16 0.946693 0.978712 0.800530
O O17 0.750671 0.750000 0.620279
O O18 0.985066 0.906615 0.735008
O O19 0.665286 0.027353 0.533682
O O20 0.159411 0.750000 0.791876
O O21 0.519834 0.250000 0.378199
#
# Coordination Sequence:
#
# PCOD8071454 Si02
#       8
#     4   4   4   4   4   4   4   4
#     4   9  17  33  56  81 104 129 164 209 254 302
#     4  11  22  36  52  73 102 138 174 210 251 298
#     4  11  23  37  51  72 102 138 174 210 250 296
#     4   9  19  34  53  77 105 132 165 208 252 296
#     4   8  16  32  56  80 102 130 168 209 252 300
#     4   8  14  29  52  78 103 128 161 205 250 297
#     4   8  15  28  51  80 105 127 159 202 251 302
#     4  10  19  33  53  79 106 132 163 205 253 303
#
# _framework density 18.958917
#
# number of rings (size 3 to 8) (size 9 to 14) (size 15 to 20)
#    0.000    2.750    0.000    3.375    0.000    2.000 
#    0.000    5.000    0.000    0.000    0.000    0.000 
#    0.000    0.000    0.000    0.000    0.000    0.000 
#
# Total GULP energy -396691.767861 kJ/mol
# GULP energy per Si atom -12396.617746 kJ/mol
# Density = 1.891577 g / cm^3
# Si number density = 18.958917 Si / 1000 Ang^3
#
#
#
# Elastic Constant Matrix: (Units=GPa)
#
#
# Indices 1 2 3 4 5 6 
#
# 1 26.0677 20.6430 35.8331 0.0000 11.0382 0.0000
# 2 20.6430 55.2617 46.8911 0.0000 4.5648 0.0000
# 3 35.8331 46.8911 159.7182 0.0000 2.0688 0.0000
# 4 0.0000 0.0000 0.0000 36.0536 0.0000 0.5278
# 5 11.0382 4.5648 2.0688 0.0000 22.1978 0.0000
# 6 0.0000 0.0000 0.0000 0.5278 0.0000 21.7948
#
#
#
# Elastic Compliance Matrix: (Units=1/GPa)
#
#
# Indices 1 2 3 4 5 6 
#
# 1 0.088320 -0.017832 -0.014075 0.000000 -0.038940 0.000000
# 2 -0.017832 0.028117 -0.004299 0.000000 0.003486 0.000000
# 3 -0.014075 -0.004299 0.010592 0.000000 0.006896 0.000000
# 4 0.000000 0.000000 0.000000 0.027746 0.000000 -0.000672
# 5 -0.038940 0.003486 0.006896 0.000000 0.063053 0.000000
# 6 0.000000 0.000000 0.000000 -0.000672 0.000000 0.045899
#
#
# Mechanical properties :
#
#
# Convention : Reuss Voigt Hill
#
# Bulk Modulus (GPa) = 18.30988 49.75356 34.03172
# Shear Modulus (GPa) = 14.11055 25.18792 19.64923
#
# Velocity S-wave (km/s) = 2.73109 3.64889 3.22283
# Velocity P-wave (km/s) = 4.42987 6.63719 5.64252
#
# Compressibility (1/GPa) = 0.05461532
#
# Stress axis : x y z
#
# Youngs Moduli (GPa) = 11.32251 35.56566 94.41400
#
# Poissons Ratio (x) = 0.63422 1.32888
# Poissons Ratio (y) = 0.20191 0.40591
# Poissons Ratio (z) = 0.15936 0.15290
#
# Static dielectric constant tensor:
#      x y z
#    x 3.500770 0.000000 -0.259990 
#    y 0.000000 3.336130 0.000000 
#    z -0.259990 0.000000 3.734190 
# 
# 
# High freq. dielectric constant tensor:
#      x y z
#    x 1.706580 0.000000 -0.015500 
#    y 0.000000 1.722070 0.000000 
#    z -0.015500 0.000000 1.751340 
# 
# From -- ./inp_files/67060.got.cif
#   From: 2010.06.25/outbox.cif.g09.slc.cpg/sg11_34_cif.got.tgz:67060.got - 2010.06.27 23:14:04.
