data_PCOD8071077
_publ_section_title
;
Structure prediction by ZEFSAII (Michael W. Deem and Ramdas Pophale) SiO2 
 PCOD8071077
Probable space group: P 21/M
;
_chemical_formula_sum "Si O2"
_cell_formula_units_Z 32
_cell_length_a 14.183265
_cell_length_b 8.876262
_cell_length_c 14.057234
_cell_angle_alpha 90.000000
_cell_angle_beta 92.363020
_cell_angle_gamma 90.000000
_cell_volume 1768.221817
_symmetry_space_group_name_H-M "P 21/M"
_symmetry_group_IT_number 11
_symmetry_cell_setting 'monoclinic'
loop_
_space_group_symop_operation_xyz
x,y,z
-x,1/2+y,-z
-x,-y,-z
x,1/2-y,z
loop_
_atom_site_type_symbol
_atom_site_label
_atom_site_fract_x
_atom_site_fract_y
_atom_site_fract_z
Si Si1 0.664483 0.575857 0.707274
Si Si2 0.479366 0.573227 0.599524
Si Si3 0.730943 0.422728 0.372218
Si Si4 0.870825 0.077067 0.215859
Si Si5 0.814656 0.924189 0.553010
Si Si6 0.953917 0.076047 0.691809
Si Si7 0.900024 0.927699 0.020046
Si Si8 0.199118 0.576686 0.152277
O O1 0.671008 0.750000 0.737120
O O2 0.557693 0.523770 0.680454
O O3 0.724217 0.543728 0.614784
O O4 0.703310 0.478328 0.796675
O O5 0.500000 0.500000 0.500000
O O6 0.486695 0.750000 0.583603
O O7 0.377643 0.523259 0.635034
O O8 0.737793 0.250000 0.407483
O O9 0.772514 0.440718 0.268146
O O10 0.790795 0.525406 0.445858
O O11 0.889275 0.250000 0.187426
O O12 0.865404 0.974819 0.122591
O O13 0.953520 0.022708 0.288974
O O14 0.843269 0.750000 0.554391
O O15 0.903575 0.019316 0.594068
O O16 0.981571 0.250000 0.680954
O O17 0.886502 0.050374 0.779050
O O18 0.912220 0.750000 0.016805
O O19 0.820789 0.980262 0.942531
O O20 0.000000 0.000000 0.000000
O O21 0.209536 0.750000 0.123722
#
# Coordination Sequence:
#
# PCOD8071077 Si02
#       8
#     4   4   4   4   4   4   4   4
#     4   9  18  32  52  81 112 142 178 224 274 320
#     4  10  19  34  56  82 111 143 183 226 272 321
#     4  10  22  37  54  78 111 149 185 225 274 324
#     4  11  23  38  55  78 110 147 185 226 271 323
#     4  10  19  32  52  78 109 146 185 226 269 320
#     4  10  20  34  53  77 108 146 185 224 268 322
#     4  12  23  37  59  84 110 142 179 225 272 323
#     4  10  20  34  55  83 111 140 177 224 273 322
#
# _framework density 18.097276999999998
#
# number of rings (size 3 to 8) (size 9 to 14) (size 15 to 20)
#    0.000    1.750    2.500    2.625    0.000    3.500 
#    0.000    0.000    0.000    0.750    0.000    0.000 
#    0.000    0.000    0.000    0.000    0.000    0.000 
#
# Total GULP energy -396930.552175 kJ/mol
# GULP energy per Si atom -12404.079755 kJ/mol
# Density = 1.805609 g / cm^3
# Si number density = 18.097277 Si / 1000 Ang^3
#
#
#
# Elastic Constant Matrix: (Units=GPa)
#
#
# Indices 1 2 3 4 5 6 
#
# 1 104.7096 42.5847 53.7380 0.0000 9.7963 0.0000
# 2 42.5847 99.1031 47.4660 0.0000 6.8194 0.0000
# 3 53.7380 47.4660 95.6486 0.0000 12.0959 0.0000
# 4 0.0000 0.0000 0.0000 32.9977 0.0000 6.1352
# 5 9.7963 6.8194 12.0959 0.0000 24.9694 0.0000
# 6 0.0000 0.0000 0.0000 6.1352 0.0000 23.0284
#
#
#
# Elastic Compliance Matrix: (Units=1/GPa)
#
#
# Indices 1 2 3 4 5 6 
#
# 1 0.014120 -0.002956 -0.006250 0.000000 -0.001704 0.000000
# 2 -0.002956 0.013861 -0.005204 0.000000 -0.000105 0.000000
# 3 -0.006250 -0.005204 0.017107 0.000000 -0.004414 0.000000
# 4 0.000000 0.000000 0.000000 0.031885 0.000000 -0.008495
# 5 -0.001704 -0.000105 -0.004414 0.000000 0.042884 0.000000
# 6 0.000000 0.000000 0.000000 -0.008495 0.000000 0.045688
#
#
# Mechanical properties :
#
#
# Convention : Reuss Voigt Hill
#
# Bulk Modulus (GPa) = 61.47779 65.22652 63.35216
# Shear Modulus (GPa) = 25.02659 26.57730 25.80194
#
# Velocity S-wave (km/s) = 3.72276 3.83636 3.77999
# Velocity P-wave (km/s) = 7.24728 7.46619 7.35755
#
# Compressibility (1/GPa) = 0.01626604
#
# Stress axis : x y z
#
# Youngs Moduli (GPa) = 70.82329 72.14674 58.45496
#
# Poissons Ratio (x) = 0.21330 0.36535
# Poissons Ratio (y) = 0.20938 0.30421
# Poissons Ratio (z) = 0.44265 0.37547
#
# Static dielectric constant tensor:
#      x y z
#    x 3.436330 0.000000 0.139940 
#    y 0.000000 3.421820 0.000000 
#    z 0.139940 0.000000 3.236130 
# 
# 
# High freq. dielectric constant tensor:
#      x y z
#    x 1.690360 0.000000 0.015680 
#    y 0.000000 1.710140 0.000000 
#    z 0.015680 0.000000 1.688100 
# 
# From -- ./inp_files/38073.got.cif
#   From: 2010.06.25/outbox.cif.g09.slc.cpg/sg11_20_cif.got.tgz:38073.got - 2010.06.27 23:14:04.
