data_PCOD8071161
_publ_section_title
;
Structure prediction by ZEFSAII (Michael W. Deem and Ramdas Pophale) SiO2 
 PCOD8071161
Probable space group: P 21/M
;
_chemical_formula_sum "Si O2"
_cell_formula_units_Z 28
_cell_length_a 9.169809
_cell_length_b 13.276705
_cell_length_c 19.823034
_cell_angle_alpha 90.000000
_cell_angle_beta 143.042625
_cell_angle_gamma 90.000000
_cell_volume 1450.957383
_symmetry_space_group_name_H-M "P 21/M"
_symmetry_group_IT_number 11
_symmetry_cell_setting 'monoclinic'
loop_
_space_group_symop_operation_xyz
x,y,z
-x,1/2+y,-z
-x,-y,-z
x,1/2-y,z
loop_
_atom_site_type_symbol
_atom_site_label
_atom_site_fract_x
_atom_site_fract_y
_atom_site_fract_z
Si Si1 0.191491 0.057000 0.815687
Si Si2 0.845529 0.526995 0.350389
Si Si3 0.685009 0.001086 0.838496
Si Si4 0.757859 0.132864 0.740668
Si Si5 0.104834 0.638245 0.980837
Si Si6 0.641262 0.360056 0.059834
Si Si7 0.191918 0.135331 0.528380
O O1 0.168864 0.080897 0.727739
O O2 0.924829 0.078387 0.746849
O O3 0.287431 0.941879 0.857814
O O4 0.383583 0.125252 0.926935
O O5 0.592701 0.472525 0.276485
O O6 0.883050 0.612108 0.421575
O O7 0.052300 0.441666 0.427476
O O8 0.804559 0.076294 0.828204
O O9 0.702499 0.061089 0.915615
O O10 0.831760 0.897248 0.895486
O O11 0.828818 0.250000 0.774212
O O12 0.475749 0.120950 0.617136
O O13 0.140451 0.750000 0.023953
O O14 0.144964 0.636746 0.915932
O O15 0.632870 0.250000 0.091639
O O16 0.113813 0.250000 0.484299
#
# Coordination Sequence:
#
# PCOD8071161 Si02
#       7
#     4   4   4   4   4   4   4
#     4  11  21  36  56  84 113 150 183 222 271 328
#     4  10  21  37  60  81 109 142 180 229 280 325
#     4  10  19  35  53  80 109 145 185 225 269 322
#     4  10  20  35  55  79 107 141 183 228 274 324
#     4  10  19  32  53  79 111 148 186 225 263 318
#     4  10  21  35  52  82 119 151 183 222 265 323
#     4   9  21  40  59  81 107 137 183 236 280 325
#
# _framework density 19.297602000000001
#
# number of rings (size 3 to 8) (size 9 to 14) (size 15 to 20)
#    0.000    2.000    2.857    0.857    0.000    3.429 
#    0.000    1.429    0.000    0.000    0.000    0.000 
#    0.000    0.000    0.000    0.000    0.000    0.000 
#
# Total GULP energy -347127.836909 kJ/mol
# GULP energy per Si atom -12397.422747 kJ/mol
# Density = 1.925368 g / cm^3
# Si number density = 19.297602 Si / 1000 Ang^3
#
#
#
# Elastic Constant Matrix: (Units=GPa)
#
#
# Indices 1 2 3 4 5 6 
#
# 1 68.5947 15.3318 17.8544 0.0000 2.8873 0.0000
# 2 15.3318 89.8649 15.9308 0.0000 15.5262 0.0000
# 3 17.8544 15.9308 57.6080 0.0000 6.6892 0.0000
# 4 0.0000 0.0000 0.0000 19.2793 0.0000 3.7059
# 5 2.8873 15.5262 6.6892 0.0000 27.0762 0.0000
# 6 0.0000 0.0000 0.0000 3.7059 0.0000 21.9145
#
#
#
# Elastic Compliance Matrix: (Units=1/GPa)
#
#
# Indices 1 2 3 4 5 6 
#
# 1 0.016190 -0.002060 -0.004514 0.000000 0.000570 0.000000
# 2 -0.002060 0.013026 -0.002184 0.000000 -0.006710 0.000000
# 3 -0.004514 -0.002184 0.019726 0.000000 -0.003139 0.000000
# 4 0.000000 0.000000 0.000000 0.053612 0.000000 -0.009066
# 5 0.000570 -0.006710 -0.003139 0.000000 0.041495 0.000000
# 6 0.000000 0.000000 0.000000 -0.009066 0.000000 0.047165
#
#
# Mechanical properties :
#
#
# Convention : Reuss Voigt Hill
#
# Bulk Modulus (GPa) = 31.82266 34.92242 33.37254
# Shear Modulus (GPa) = 22.80947 24.78403 23.79675
#
# Velocity S-wave (km/s) = 3.44173 3.58761 3.51543
# Velocity P-wave (km/s) = 5.68509 5.94115 5.81453
#
# Compressibility (1/GPa) = 0.03142414
#
# Stress axis : x y z
#
# Youngs Moduli (GPa) = 61.76688 76.77016 50.69355
#
# Poissons Ratio (x) = 0.15818 0.22884
# Poissons Ratio (y) = 0.12727 0.11074
# Poissons Ratio (z) = 0.27883 0.16770
#
# Static dielectric constant tensor:
#      x y z
#    x 3.452630 0.000000 0.101150 
#    y 0.000000 3.503280 0.000000 
#    z 0.101150 0.000000 3.346640 
# 
# 
# High freq. dielectric constant tensor:
#      x y z
#    x 1.751020 0.000000 0.010020 
#    y 0.000000 1.746930 0.000000 
#    z 0.010020 0.000000 1.734830 
# 
# From -- ./inp_files/21952.got.cif
#   From: 2010.06.25/outbox.cif.g09.slc.cpg/sg11_11_cif.got.tgz:21952.got - 2010.06.27 23:14:04.
