data_PCOD8071371
_publ_section_title
;
Structure prediction by ZEFSAII (Michael W. Deem and Ramdas Pophale) SiO2 
 PCOD8071371
Probable space group: P 21/M
;
_chemical_formula_sum "Si O2"
_cell_formula_units_Z 28
_cell_length_a 18.070587
_cell_length_b 9.072255
_cell_length_c 9.434947
_cell_angle_alpha 90.000000
_cell_angle_beta 85.896206
_cell_angle_gamma 90.000000
_cell_volume 1542.808536
_symmetry_space_group_name_H-M "P 21/M"
_symmetry_group_IT_number 11
_symmetry_cell_setting 'monoclinic'
loop_
_space_group_symop_operation_xyz
x,y,z
-x,1/2+y,-z
-x,-y,-z
x,1/2-y,z
loop_
_atom_site_type_symbol
_atom_site_label
_atom_site_fract_x
_atom_site_fract_y
_atom_site_fract_z
Si Si1 0.568755 0.576481 0.417054
Si Si2 0.063306 0.917303 0.806708
Si Si3 0.509017 0.420900 0.848728
Si Si4 0.648277 0.423882 0.638084
Si Si5 0.924254 0.923057 0.468336
Si Si6 0.205172 0.081196 0.305173
Si Si7 0.097965 0.085428 0.071905
O O1 0.500000 0.500000 0.500000
O O2 0.567620 0.750000 0.448059
O O3 0.561355 0.547895 0.247737
O O4 0.639976 0.503174 0.484290
O O5 0.086280 0.750000 0.770756
O O6 0.974148 0.935624 0.818719
O O7 0.098097 0.024864 0.685361
O O8 0.098600 0.962679 0.951260
O O9 0.514237 0.250000 0.884104
O O10 0.583666 0.472025 0.756794
O O11 0.500000 0.500000 0.000000
O O12 0.647170 0.250000 0.612664
O O13 0.725195 0.473895 0.695374
O O14 0.937296 0.750000 0.474345
O O15 0.857012 0.972758 0.576862
O O16 0.000000 0.000000 0.500000
O O17 0.228844 0.250000 0.332425
O O18 0.172082 0.065205 0.152512
O O19 0.094857 0.250000 0.005728
#
# Coordination Sequence:
#
# PCOD8071371 Si02
#       7
#     4   4   4   4   4   4   4
#     4   9  17  32  54  80 109 142 179 216 256 309
#     4  10  19  33  52  77 103 132 176 225 272 324
#     4   9  19  34  55  84 112 138 175 216 256 309
#     4  10  21  36  54  81 111 141 180 222 268 321
#     4  11  21  35  54  78 105 136 178 227 274 323
#     4  10  21  37  55  77 107 142 181 223 272 328
#     4   9  18  34  52  74 103 137 176 220 270 324
#
# _framework density 18.148720000000001
#
# number of rings (size 3 to 8) (size 9 to 14) (size 15 to 20)
#    0.000    2.286    1.429    2.571    0.000    5.714 
#    0.000    1.429    0.000    1.714    0.000    0.000 
#    0.000    0.000    0.000    0.000    0.000    0.000 
#
# Total GULP energy -347103.669594 kJ/mol
# GULP energy per Si atom -12396.559628 kJ/mol
# Density = 1.810741 g / cm^3
# Si number density = 18.148720 Si / 1000 Ang^3
#
#
#
# Elastic Constant Matrix: (Units=GPa)
#
#
# Indices 1 2 3 4 5 6 
#
# 1 84.7156 41.6252 41.4570 0.0000 12.6365 0.0000
# 2 41.6252 81.1686 47.9216 0.0000 4.0154 0.0000
# 3 41.4570 47.9216 100.3544 0.0000 7.7616 0.0000
# 4 0.0000 0.0000 0.0000 35.9335 0.0000 3.6768
# 5 12.6365 4.0154 7.7616 0.0000 23.3642 0.0000
# 6 0.0000 0.0000 0.0000 3.6768 0.0000 30.1063
#
#
#
# Elastic Compliance Matrix: (Units=1/GPa)
#
#
# Indices 1 2 3 4 5 6 
#
# 1 0.017985 -0.006696 -0.003663 0.000000 -0.007359 0.000000
# 2 -0.006696 0.019652 -0.006812 0.000000 0.002507 0.000000
# 3 -0.003663 -0.006812 0.014869 0.000000 -0.001788 0.000000
# 4 0.000000 0.000000 0.000000 0.028181 0.000000 -0.003442
# 5 -0.007359 0.002507 -0.001788 0.000000 0.046944 0.000000
# 6 0.000000 0.000000 0.000000 -0.003442 0.000000 0.033636
#
#
# Mechanical properties :
#
#
# Convention : Reuss Voigt Hill
#
# Bulk Modulus (GPa) = 55.05559 58.69403 56.87481
# Shear Modulus (GPa) = 24.79386 26.89643 25.84514
#
# Velocity S-wave (km/s) = 3.70016 3.85385 3.77779
# Velocity P-wave (km/s) = 6.97542 7.22591 7.10177
#
# Compressibility (1/GPa) = 0.01816346
#
# Stress axis : x y z
#
# Youngs Moduli (GPa) = 55.60284 50.88603 67.25492
#
# Poissons Ratio (x) = 0.34076 0.24633
# Poissons Ratio (y) = 0.37234 0.45812
# Poissons Ratio (z) = 0.20365 0.34662
#
# Static dielectric constant tensor:
#      x y z
#    x 3.092690 0.000000 0.138780 
#    y 0.000000 3.439470 0.000000 
#    z 0.138780 0.000000 3.490570 
# 
# 
# High freq. dielectric constant tensor:
#      x y z
#    x 1.676110 0.000000 0.020430 
#    y 0.000000 1.710980 0.000000 
#    z 0.020430 0.000000 1.705340 
# 
# From -- ./inp_files/25562.got.cif
#   From: 2010.06.25/outbox.cif.g09.slc.cpg/sg11_13_cif.got.tgz:25562.got - 2010.06.27 23:14:04.
