data_PCOD8071199
_publ_section_title
;
Structure prediction by ZEFSAII (Michael W. Deem and Ramdas Pophale) SiO2 
 PCOD8071199
Probable space group: P 21/M
;
_chemical_formula_sum "Si O2"
_cell_formula_units_Z 32
_cell_length_a 11.400373
_cell_length_b 9.320224
_cell_length_c 31.312017
_cell_angle_alpha 90.000000
_cell_angle_beta 148.182737
_cell_angle_gamma 90.000000
_cell_volume 1754.048554
_symmetry_space_group_name_H-M "P 21/M"
_symmetry_group_IT_number 11
_symmetry_cell_setting 'monoclinic'
loop_
_space_group_symop_operation_xyz
x,y,z
-x,1/2+y,-z
-x,-y,-z
x,1/2-y,z
loop_
_atom_site_type_symbol
_atom_site_label
_atom_site_fract_x
_atom_site_fract_y
_atom_site_fract_z
Si Si1 0.377474 0.583345 0.156666
Si Si2 0.344166 0.582658 0.602006
Si Si3 0.035645 0.413663 0.449177
Si Si4 0.016524 0.416586 0.904728
Si Si5 0.889306 0.582830 0.231941
Si Si6 0.174255 0.917338 0.704740
Si Si7 0.609794 0.086441 0.936935
Si Si8 0.794335 0.415815 0.747825
O O1 0.432423 0.750000 0.182916
O O2 0.178225 0.525983 0.124520
O O3 0.593180 0.491262 0.234955
O O4 0.308437 0.560403 0.086190
O O5 0.376998 0.750000 0.603989
O O6 0.188167 0.549132 0.594147
O O7 0.579948 0.513862 0.685146
O O8 0.237815 0.514311 0.526488
O O9 0.105956 0.250000 0.479911
O O10 0.994144 0.440596 0.386501
O O11 0.053902 0.250000 0.924599
O O12 0.955602 0.450512 0.837162
O O13 0.248103 0.492769 0.986538
O O14 0.888676 0.750000 0.244816
O O15 0.940634 0.489511 0.289739
O O16 0.648031 0.541177 0.138516
O O17 0.075879 0.546236 0.255192
O O18 0.217570 0.750000 0.726896
O O19 0.643344 0.250000 0.961014
O O20 0.720542 0.250000 0.725976
#
# Coordination Sequence:
#
# PCOD8071199 Si02
#       8
#     4   4   4   4   4   4   4   4
#     4   9  18  32  49  73 107 138 164 202 255 310
#     4  10  20  34  55  82 108 134 166 203 245 299
#     4   9  19  35  54  80 112 137 159 198 253 304
#     4  10  20  32  50  76 101 132 173 210 251 307
#     4   9  20  38  54  70  99 138 174 210 256 302
#     4  10  19  32  54  80 102 130 171 212 249 295
#     4   9  18  32  49  70  99 135 171 211 257 298
#     4  10  21  37  54  72 101 138 172 210 256 301
#
# _framework density 18.243507999999999
#
# number of rings (size 3 to 8) (size 9 to 14) (size 15 to 20)
#    0.000    2.500    0.000    2.625    0.000    5.500 
#    0.000    0.625    0.000    0.000    0.000    0.000 
#    0.000    0.000    0.000    0.000    0.000    0.000 
#
# Total GULP energy -396896.579375 kJ/mol
# GULP energy per Si atom -12403.018105 kJ/mol
# Density = 1.820199 g / cm^3
# Si number density = 18.243508 Si / 1000 Ang^3
#
#
#
# Elastic Constant Matrix: (Units=GPa)
#
#
# Indices 1 2 3 4 5 6 
#
# 1 62.3280 32.0417 27.3028 0.0000 -8.0503 0.0000
# 2 32.0417 76.4452 47.3213 0.0000 -9.3620 0.0000
# 3 27.3028 47.3213 75.9382 0.0000 -16.6512 0.0000
# 4 0.0000 0.0000 0.0000 39.1675 0.0000 -0.2919
# 5 -8.0503 -9.3620 -16.6512 0.0000 17.7639 0.0000
# 6 0.0000 0.0000 0.0000 -0.2919 0.0000 21.1651
#
#
#
# Elastic Compliance Matrix: (Units=1/GPa)
#
#
# Indices 1 2 3 4 5 6 
#
# 1 0.021143 -0.006844 -0.002551 0.000000 0.003583 0.000000
# 2 -0.006844 0.023545 -0.012802 0.000000 -0.002693 0.000000
# 3 -0.002551 -0.012802 0.025590 0.000000 0.016084 0.000000
# 4 0.000000 0.000000 0.000000 0.025534 0.000000 0.000352
# 5 0.003583 -0.002693 0.016084 0.000000 0.071575 0.000000
# 6 0.000000 0.000000 0.000000 0.000352 0.000000 0.047252
#
#
# Mechanical properties :
#
#
# Convention : Reuss Voigt Hill
#
# Bulk Modulus (GPa) = 38.63389 47.56034 43.09711
# Shear Modulus (GPa) = 18.68033 22.82235 20.75134
#
# Velocity S-wave (km/s) = 3.20338 3.54076 3.37629
# Velocity P-wave (km/s) = 5.90804 6.54541 6.23487
#
# Compressibility (1/GPa) = 0.02588401
#
# Stress axis : x y z
#
# Youngs Moduli (GPa) = 47.29734 42.47242 39.07735
#
# Poissons Ratio (x) = 0.29068 0.09969
# Poissons Ratio (y) = 0.32370 0.50026
# Poissons Ratio (z) = 0.12066 0.54373
#
# Static dielectric constant tensor:
#      x y z
#    x 3.336480 0.000000 -0.074980 
#    y 0.000000 3.346220 0.000000 
#    z -0.074980 0.000000 3.233380 
# 
# 
# High freq. dielectric constant tensor:
#      x y z
#    x 1.699520 0.000000 -0.006330 
#    y 0.000000 1.706690 0.000000 
#    z -0.006330 0.000000 1.703890 
# 
# From -- ./inp_files/73189.got.cif
#   From: 2010.06.25/outbox.cif.g09.slc.cpg/sg11_37_cif.got.tgz:73189.got - 2010.06.27 23:14:04.
