data_PCOD8071909
_publ_section_title
;
Structure prediction by ZEFSAII (Michael W. Deem and Ramdas Pophale) SiO2 
 PCOD8071909
Probable space group: P 21/M
;
_chemical_formula_sum "Si O2"
_cell_formula_units_Z 28
_cell_length_a 26.430405
_cell_length_b 8.685438
_cell_length_c 9.494345
_cell_angle_alpha 90.000000
_cell_angle_beta 39.751591
_cell_angle_gamma 90.000000
_cell_volume 1393.715638
_symmetry_space_group_name_H-M "P 21/M"
_symmetry_group_IT_number 11
_symmetry_cell_setting 'monoclinic'
loop_
_space_group_symop_operation_xyz
x,y,z
-x,1/2+y,-z
-x,-y,-z
x,1/2-y,z
loop_
_atom_site_type_symbol
_atom_site_label
_atom_site_fract_x
_atom_site_fract_y
_atom_site_fract_z
Si Si1 0.258667 0.069278 0.899365
Si Si2 0.425234 0.569778 0.579586
Si Si3 0.916166 0.069628 0.213781
Si Si4 0.814870 0.429304 0.686548
Si Si5 0.486938 0.074736 0.880987
Si Si6 0.232375 0.567843 0.651857
Si Si7 0.313745 0.069703 0.227126
O O1 0.260009 0.250000 0.868150
O O2 0.342714 0.016192 0.786622
O O3 0.237404 0.980058 0.803065
O O4 0.189975 0.027818 0.159392
O O5 0.500000 0.500000 0.500000
O O6 0.417400 0.750000 0.632739
O O7 0.441680 0.542336 0.378649
O O8 0.925040 0.250000 0.192258
O O9 0.888710 0.018073 0.430118
O O10 0.852669 0.018911 0.231236
O O11 0.000000 0.000000 0.000000
O O12 0.819909 0.250000 0.715163
O O13 0.737196 0.458744 0.761006
O O14 0.479120 0.250000 0.936379
O O15 0.403110 0.025006 0.993028
O O16 0.500000 0.000000 0.000000
O O17 0.247058 0.750000 0.607185
O O18 0.299218 0.475784 0.421685
O O19 0.294107 0.250000 0.243186
#
# Coordination Sequence:
#
# PCOD8071909 Si02
#       7
#     4   4   4   4   4   4   4
#     4  12  24  38  57  84 114 150 196 244 290 341
#     4  11  23  39  57  80 112 152 194 241 293 347
#     4   9  20  38  63  91 118 146 182 225 276 338
#     4  10  21  38  59  84 112 148 186 226 278 338
#     4  10  22  35  50  74 104 138 182 231 281 330
#     4  10  21  38  58  84 116 153 191 232 284 342
#     4  10  19  34  55  81 109 141 187 239 281 334
#
# _framework density 20.090181000000001
#
# number of rings (size 3 to 8) (size 9 to 14) (size 15 to 20)
#    0.000    1.714    0.000    5.571    0.000    9.143 
#    0.000    0.714    0.000    0.000    0.000    0.000 
#    0.000    0.000    0.000    0.000    0.000    0.000 
#
# Total GULP energy -347148.526582 kJ/mol
# GULP energy per Si atom -12398.161664 kJ/mol
# Density = 2.004445 g / cm^3
# Si number density = 20.090181 Si / 1000 Ang^3
#
#
#
# Elastic Constant Matrix: (Units=GPa)
#
#
# Indices 1 2 3 4 5 6 
#
# 1 45.8438 8.3015 13.9821 0.0000 0.2808 0.0000
# 2 8.3015 53.7454 17.4442 0.0000 -15.7706 0.0000
# 3 13.9821 17.4442 96.4402 0.0000 -12.3863 0.0000
# 4 0.0000 0.0000 0.0000 34.4005 0.0000 1.5275
# 5 0.2808 -15.7706 -12.3863 0.0000 26.1992 0.0000
# 6 0.0000 0.0000 0.0000 1.5275 0.0000 34.4092
#
#
#
# Elastic Compliance Matrix: (Units=1/GPa)
#
#
# Indices 1 2 3 4 5 6 
#
# 1 0.023511 -0.003767 -0.003248 0.000000 -0.004055 0.000000
# 2 -0.003767 0.023778 -0.002035 0.000000 0.013391 0.000000
# 3 -0.003248 -0.002035 0.011770 0.000000 0.004374 0.000000
# 4 0.000000 0.000000 0.000000 0.029127 0.000000 -0.001293
# 5 -0.004055 0.013391 0.004374 0.000000 0.048342 0.000000
# 6 0.000000 0.000000 0.000000 -0.001293 0.000000 0.029119
#
#
# Mechanical properties :
#
#
# Convention : Reuss Voigt Hill
#
# Bulk Modulus (GPa) = 24.41491 30.60942 27.51217
# Shear Modulus (GPa) = 25.32931 29.42189 27.37560
#
# Velocity S-wave (km/s) = 3.55460 3.83102 3.69539
# Velocity P-wave (km/s) = 5.38757 5.90237 5.65084
#
# Compressibility (1/GPa) = 0.04095858
#
# Stress axis : x y z
#
# Youngs Moduli (GPa) = 42.53355 42.05554 84.96217
#
# Poissons Ratio (x) = 0.15843 0.27596
# Poissons Ratio (y) = 0.16023 0.17289
# Poissons Ratio (z) = 0.13815 0.08558
#
# Static dielectric constant tensor:
#      x y z
#    x 3.362490 0.000000 0.298140 
#    y 0.000000 3.609050 0.000000 
#    z 0.298140 0.000000 3.687930 
# 
# 
# High freq. dielectric constant tensor:
#      x y z
#    x 1.769180 0.000000 0.013580 
#    y 0.000000 1.788330 0.000000 
#    z 0.013580 0.000000 1.794380 
# 
# From -- ./inp_files/28343.got.cif
#   From: 2010.06.25/outbox.cif.g09.slc.cpg/sg11_15_cif.got.tgz:28343.got - 2010.06.27 23:14:04.
