data_PCOD8071771
_publ_section_title
;
Structure prediction by ZEFSAII (Michael W. Deem and Ramdas Pophale) SiO2 
 PCOD8071771
Probable space group: P 21/M
;
_chemical_formula_sum "Si O2"
_cell_formula_units_Z 24
_cell_length_a 11.850837
_cell_length_b 18.855537
_cell_length_c 5.299645
_cell_angle_alpha 90.000000
_cell_angle_beta 89.710763
_cell_angle_gamma 90.000000
_cell_volume 1184.211231
_symmetry_space_group_name_H-M "P 21/M"
_symmetry_group_IT_number 11
_symmetry_cell_setting 'monoclinic'
loop_
_space_group_symop_operation_xyz
x,y,z
-x,1/2+y,-z
-x,-y,-z
x,1/2-y,z
loop_
_atom_site_type_symbol
_atom_site_label
_atom_site_fract_x
_atom_site_fract_y
_atom_site_fract_z
Si Si1 0.976280 0.110879 0.967340
Si Si2 0.680324 0.250000 0.466532
Si Si3 0.229819 0.516657 0.164028
Si Si4 0.405112 0.022082 0.809352
Si Si5 0.589751 0.398400 0.575727
Si Si6 0.170782 0.750000 0.038104
Si Si7 0.920704 0.934085 0.525659
O O1 0.888832 0.044405 0.949159
O O2 0.907250 0.182219 0.950963
O O3 0.067801 0.109885 0.735284
O O4 0.040613 0.111966 0.232587
O O5 0.600586 0.319197 0.469970
O O6 0.753555 0.250000 0.715615
O O7 0.754606 0.250000 0.215064
O O8 0.312895 0.583604 0.216877
O O9 0.204192 0.466650 0.410972
O O10 0.288442 0.463709 0.959657
O O11 0.459233 0.090868 0.668086
O O12 0.381892 0.955634 0.633726
O O13 0.500000 0.000000 0.000000
O O14 0.000000 0.000000 0.500000
#
# Coordination Sequence:
#
# PCOD8071771 Si02
#       7
#     4   2   4   4   4   2   4
#     4  11  22  37  54  88 120 153 193 235 293 349
#     4  12  24  38  62  90 121 162 189 236 308 367
#     4  10  19  33  59  82 117 148 195 244 294 345
#     4   9  20  36  56  86 117 152 197 249 301 343
#     4  10  21  36  58  88 121 152 196 247 301 356
#     4  12  24  38  60  84 125 162 187 236 300 363
#     4  10  22  34  55  85 118 151 194 244 284 337
#
# _framework density 20.266653000000002
#
# number of rings (size 3 to 8) (size 9 to 14) (size 15 to 20)
#    0.000    1.667    1.667    4.000   11.667    0.000 
#    0.000    0.000    0.000    2.000    0.000    1.167 
#    0.000    0.000    0.000    0.000    0.000    0.000 
#
# Total GULP energy -297336.393134 kJ/mol
# GULP energy per Si atom -12389.016381 kJ/mol
# Density = 2.022053 g / cm^3
# Si number density = 20.266653 Si / 1000 Ang^3
#
#
#
# Elastic Constant Matrix: (Units=GPa)
#
#
# Indices 1 2 3 4 5 6 
#
# 1 82.7801 43.0320 30.8704 0.0000 -43.2732 0.0000
# 2 43.0320 96.7843 26.2473 0.0000 -29.8140 0.0000
# 3 30.8704 26.2473 115.4962 0.0000 -34.3927 0.0000
# 4 0.0000 0.0000 0.0000 16.6684 0.0000 -0.6424
# 5 -43.2732 -29.8140 -34.3927 0.0000 53.2106 0.0000
# 6 0.0000 0.0000 0.0000 -0.6424 0.0000 35.4391
#
#
#
# Elastic Compliance Matrix: (Units=1/GPa)
#
#
# Indices 1 2 3 4 5 6 
#
# 1 0.023167 -0.005407 -0.000316 0.000000 0.015607 0.000000
# 2 -0.005407 0.013832 -0.000867 0.000000 0.002792 0.000000
# 3 -0.000316 -0.000867 0.010797 0.000000 0.006236 0.000000
# 4 0.000000 0.000000 0.000000 0.060036 0.000000 0.001088
# 5 0.015607 0.002792 0.006236 0.000000 0.037080 0.000000
# 6 0.000000 0.000000 0.000000 0.001088 0.000000 0.028237
#
#
# Mechanical properties :
#
#
# Convention : Reuss Voigt Hill
#
# Bulk Modulus (GPa) = 28.88855 55.03998 41.96427
# Shear Modulus (GPa) = 25.26948 34.05769 29.66359
#
# Velocity S-wave (km/s) = 3.53491 4.10381 3.82994
# Velocity P-wave (km/s) = 5.56291 7.04783 6.34893
#
# Compressibility (1/GPa) = 0.03461579
#
# Stress axis : x y z
#
# Youngs Moduli (GPa) = 43.16412 72.29822 92.62161
#
# Poissons Ratio (x) = 0.39094 0.02927
# Poissons Ratio (y) = 0.23340 0.08026
# Poissons Ratio (z) = 0.01364 0.06265
#
# Static dielectric constant tensor:
#      x y z
#    x 4.292090 0.000000 -0.685610 
#    y 0.000000 3.577950 0.000000 
#    z -0.685610 0.000000 4.415100 
# 
# 
# High freq. dielectric constant tensor:
#      x y z
#    x 1.785190 0.000000 -0.015240 
#    y 0.000000 1.750540 0.000000 
#    z -0.015240 0.000000 1.816430 
# 
# From -- ./inp_files/4646.got.cif
#   From: 2010.06.25/outbox.cif.g09.slc.cpg/sg11_3_cif.got.tgz:4646.got - 2010.06.27 23:14:04.
