data_PCOD8071892
_publ_section_title
;
Structure prediction by ZEFSAII (Michael W. Deem and Ramdas Pophale) SiO2 
 PCOD8071892
Probable space group: P 21/M
;
_chemical_formula_sum "Si O2"
_cell_formula_units_Z 24
_cell_length_a 8.332389
_cell_length_b 17.414600
_cell_length_c 10.071204
_cell_angle_alpha 90.000000
_cell_angle_beta 56.850417
_cell_angle_gamma 90.000000
_cell_volume 1223.537876
_symmetry_space_group_name_H-M "P 21/M"
_symmetry_group_IT_number 11
_symmetry_cell_setting 'monoclinic'
loop_
_space_group_symop_operation_xyz
x,y,z
-x,1/2+y,-z
-x,-y,-z
x,1/2-y,z
loop_
_atom_site_type_symbol
_atom_site_label
_atom_site_fract_x
_atom_site_fract_y
_atom_site_fract_z
Si Si1 0.170993 0.949589 0.979821
Si Si2 0.584084 0.840772 0.012867
Si Si3 0.169848 0.340373 0.573790
Si Si4 0.407015 0.069366 0.265219
Si Si5 0.217582 0.575171 0.251888
Si Si6 0.134990 0.162027 0.890870
O O1 0.199782 0.969718 0.120573
O O2 0.087238 0.863208 0.003268
O O3 0.371196 0.954742 0.811114
O O4 0.000000 0.000000 0.000000
O O5 0.607422 0.750000 0.979327
O O6 0.374377 0.857605 0.166364
O O7 0.733539 0.876350 0.053762
O O8 0.617857 0.884740 0.860518
O O9 0.147014 0.250000 0.555367
O O10 0.345924 0.375078 0.412012
O O11 0.216841 0.356024 0.707024
O O12 0.977404 0.384132 0.613239
O O13 0.281521 0.991203 0.325717
O O14 0.139657 0.250000 0.921864
#
# Coordination Sequence:
#
# PCOD8071892 Si02
#       6
#     4   4   4   4   4   4
#     4  10  19  34  55  79 107 140 177 220 263 315
#     4  10  19  35  58  81 105 140 182 223 263 315
#     4  10  21  37  54  78 109 141 175 218 270 321
#     4  11  21  34  56  83 108 136 179 230 265 305
#     4  10  20  35  55  78 108 145 179 214 267 328
#     4   9  19  35  54  75 106 144 179 213 265 328
#
# _framework density 19.615251000000001
#
# number of rings (size 3 to 8) (size 9 to 14) (size 15 to 20)
#    0.000    2.000    0.000    5.500    0.000    4.667 
#    0.000   10.833    0.000    4.000    0.000    0.000 
#    0.000    0.000    0.000    0.000    0.000    0.000 
#
# Total GULP energy -297510.068858 kJ/mol
# GULP energy per Si atom -12396.252869 kJ/mol
# Density = 1.957061 g / cm^3
# Si number density = 19.615251 Si / 1000 Ang^3
#
#
#
# Elastic Constant Matrix: (Units=GPa)
#
#
# Indices 1 2 3 4 5 6 
#
# 1 105.8898 38.1897 33.6273 0.0000 -9.9150 0.0000
# 2 38.1897 75.3945 41.8353 0.0000 -3.8981 0.0000
# 3 33.6273 41.8353 78.0459 0.0000 -17.3346 0.0000
# 4 0.0000 0.0000 0.0000 29.5198 0.0000 -5.0256
# 5 -9.9150 -3.8981 -17.3346 0.0000 24.5031 0.0000
# 6 0.0000 0.0000 0.0000 -5.0256 0.0000 32.3448
#
#
#
# Elastic Compliance Matrix: (Units=1/GPa)
#
#
# Indices 1 2 3 4 5 6 
#
# 1 0.012089 -0.004878 -0.001993 0.000000 0.002706 0.000000
# 2 -0.004878 0.021363 -0.010717 0.000000 -0.006157 0.000000
# 3 -0.001993 -0.010717 0.022374 0.000000 0.013317 0.000000
# 4 0.000000 0.000000 0.000000 0.034796 0.000000 0.005407
# 5 0.002706 -0.006157 0.013317 0.000000 0.050348 0.000000
# 6 0.000000 0.000000 0.000000 0.005407 0.000000 0.031757
#
#
# Mechanical properties :
#
#
# Convention : Reuss Voigt Hill
#
# Bulk Modulus (GPa) = 48.42533 54.07054 51.24794
# Shear Modulus (GPa) = 23.27895 26.98540 25.13218
#
# Velocity S-wave (km/s) = 3.44870 3.71311 3.58335
# Velocity P-wave (km/s) = 6.37175 6.78295 6.58056
#
# Compressibility (1/GPa) = 0.02065035
#
# Stress axis : x y z
#
# Youngs Moduli (GPa) = 82.71784 46.81070 44.69406
#
# Poissons Ratio (x) = 0.22833 0.08909
# Poissons Ratio (y) = 0.40347 0.47899
# Poissons Ratio (z) = 0.16488 0.50167
#
# Static dielectric constant tensor:
#      x y z
#    x 4.291100 0.000000 -0.373420 
#    y 0.000000 3.785450 0.000000 
#    z -0.373420 0.000000 3.540530 
# 
# 
# High freq. dielectric constant tensor:
#      x y z
#    x 1.771320 0.000000 -0.006750 
#    y 0.000000 1.780240 0.000000 
#    z -0.006750 0.000000 1.738840 
# 
# From -- ./inp_files/18548.got.cif
#   From: 2010.06.25/outbox.cif.g09.slc.cpg/sg11_10_cif.got.tgz:18548.got - 2010.06.27 23:14:04.
