data_PCOD8071303
_publ_section_title
;
Structure prediction by ZEFSAII (Michael W. Deem and Ramdas Pophale) SiO2 
 PCOD8071303
Probable space group: P 21/M
;
_chemical_formula_sum "Si O2"
_cell_formula_units_Z 32
_cell_length_a 14.901144
_cell_length_b 9.307430
_cell_length_c 21.811005
_cell_angle_alpha 90.000000
_cell_angle_beta 145.982306
_cell_angle_gamma 90.000000
_cell_volume 1692.331706
_symmetry_space_group_name_H-M "P 21/M"
_symmetry_group_IT_number 11
_symmetry_cell_setting 'monoclinic'
loop_
_space_group_symop_operation_xyz
x,y,z
-x,1/2+y,-z
-x,-y,-z
x,1/2-y,z
loop_
_atom_site_type_symbol
_atom_site_label
_atom_site_fract_x
_atom_site_fract_y
_atom_site_fract_z
Si Si1 0.120589 0.583350 0.730218
Si Si2 0.167049 0.578527 0.385925
Si Si3 0.329751 0.588356 0.963137
Si Si4 0.395411 0.079878 0.185326
Si Si5 0.132728 0.589397 0.974758
Si Si6 0.418684 0.583998 0.827775
Si Si7 0.509297 0.919938 0.628272
Si Si8 0.180896 0.081079 0.268047
O O1 0.069027 0.750000 0.707581
O O2 0.227480 0.558550 0.729085
O O3 0.963652 0.483107 0.640086
O O4 0.231106 0.532984 0.849153
O O5 0.154634 0.750000 0.375735
O O6 0.339335 0.524440 0.507516
O O7 0.135763 0.511707 0.301677
O O8 0.389707 0.750000 0.985949
O O9 0.486377 0.492488 0.063300
O O10 0.212319 0.577249 0.953820
O O11 0.377937 0.250000 0.177378
O O12 0.524223 0.028531 0.206720
O O13 0.457597 0.017347 0.285138
O O14 0.218700 0.017377 0.071030
O O15 0.149062 0.750000 0.010707
O O16 0.945986 0.549424 0.858510
O O17 0.461659 0.750000 0.858704
O O18 0.509717 0.750000 0.632959
O O19 0.646371 0.970453 0.658696
O O20 0.177193 0.250000 0.283409
#
# Coordination Sequence:
#
# PCOD8071303 Si02
#       8
#     4   4   4   4   4   4   4   4
#     4  10  19  33  50  73 104 140 173 205 261 318
#     4  11  22  35  53  79 105 132 175 225 261 301
#     4   9  16  28  46  70 104 138 165 201 257 314
#     4   9  18  35  54  75 106 140 174 213 253 301
#     4   9  17  30  50  77 105 136 167 205 258 313
#     4   9  18  30  50  76 102 135 175 212 249 302
#     4   9  20  37  56  75 101 141 178 211 262 313
#     4  10  19  36  58  77 104 139 169 207 267 325
#
# _framework density 18.908823999999999
#
# number of rings (size 3 to 8) (size 9 to 14) (size 15 to 20)
#    0.000    2.500    1.250    1.125    0.000    2.000 
#    0.000    3.125    0.000    0.000    0.000    0.000 
#    0.000    0.000    0.000    0.000    0.000    0.000 
#
# Total GULP energy -396737.303587 kJ/mol
# GULP energy per Si atom -12398.040737 kJ/mol
# Density = 1.886579 g / cm^3
# Si number density = 18.908824 Si / 1000 Ang^3
#
#
#
# Elastic Constant Matrix: (Units=GPa)
#
#
# Indices 1 2 3 4 5 6 
#
# 1 49.9238 24.8441 41.0729 0.0000 11.4853 0.0000
# 2 24.8441 49.3111 38.9332 0.0000 7.1988 0.0000
# 3 41.0729 38.9332 97.2400 0.0000 16.4030 0.0000
# 4 0.0000 0.0000 0.0000 27.9911 0.0000 5.1605
# 5 11.4853 7.1988 16.4030 0.0000 33.6658 0.0000
# 6 0.0000 0.0000 0.0000 5.1605 0.0000 18.5719
#
#
#
# Elastic Compliance Matrix: (Units=1/GPa)
#
#
# Indices 1 2 3 4 5 6 
#
# 1 0.033494 -0.008253 -0.010038 0.000000 -0.004771 0.000000
# 2 -0.008253 0.031698 -0.009302 0.000000 0.000569 0.000000
# 3 -0.010038 -0.009302 0.018887 0.000000 -0.003789 0.000000
# 4 0.000000 0.000000 0.000000 0.037655 0.000000 -0.010463
# 5 -0.004771 0.000569 -0.003789 0.000000 0.033056 0.000000
# 6 0.000000 0.000000 0.000000 -0.010463 0.000000 0.056752
#
#
# Mechanical properties :
#
#
# Convention : Reuss Voigt Hill
#
# Bulk Modulus (GPa) = 34.60950 45.13059 39.87005
# Shear Modulus (GPa) = 18.09248 22.15407 20.12328
#
# Velocity S-wave (km/s) = 3.09662 3.42662 3.26579
# Velocity P-wave (km/s) = 5.57929 6.29086 5.94573
#
# Compressibility (1/GPa) = 0.02889380
#
# Stress axis : x y z
#
# Youngs Moduli (GPa) = 29.85647 31.54742 52.94606
#
# Poissons Ratio (x) = 0.26036 0.53148
# Poissons Ratio (y) = 0.24640 0.49248
# Poissons Ratio (z) = 0.29970 0.29344
#
# Static dielectric constant tensor:
#      x y z
#    x 3.587930 0.000000 0.165690 
#    y 0.000000 3.305980 0.000000 
#    z 0.165690 0.000000 3.547470 
# 
# 
# High freq. dielectric constant tensor:
#      x y z
#    x 1.736110 0.000000 0.014670 
#    y 0.000000 1.713480 0.000000 
#    z 0.014670 0.000000 1.724230 
# 
# From -- ./inp_files/69082.got.cif
#   From: 2010.06.25/outbox.cif.g09.slc.cpg/sg11_35_cif.got.tgz:69082.got - 2010.06.27 23:14:04.
