data_PCOD8071478
_publ_section_title
;
Structure prediction by ZEFSAII (Michael W. Deem and Ramdas Pophale) SiO2 
 PCOD8071478
Probable space group: P 21/M
;
_chemical_formula_sum "Si O2"
_cell_formula_units_Z 32
_cell_length_a 8.921887
_cell_length_b 20.096892
_cell_length_c 13.977766
_cell_angle_alpha 90.000000
_cell_angle_beta 40.190002
_cell_angle_gamma 90.000000
_cell_volume 1617.340519
_symmetry_space_group_name_H-M "P 21/M"
_symmetry_group_IT_number 11
_symmetry_cell_setting 'monoclinic'
loop_
_space_group_symop_operation_xyz
x,y,z
-x,1/2+y,-z
-x,-y,-z
x,1/2-y,z
loop_
_atom_site_type_symbol
_atom_site_label
_atom_site_fract_x
_atom_site_fract_y
_atom_site_fract_z
Si Si1 0.153386 0.431746 0.216038
Si Si2 0.370652 0.886939 0.507034
Si Si3 0.356805 0.827348 0.714575
Si Si4 0.802150 0.322594 0.589129
Si Si5 0.962972 0.915922 0.930028
Si Si6 0.217976 0.531413 0.337303
Si Si7 0.337966 0.027417 0.764689
Si Si8 0.322166 0.175943 0.270612
O O1 0.218412 0.503534 0.228917
O O2 0.311814 0.374249 0.186368
O O3 0.879672 0.421781 0.366078
O O4 0.207919 0.430667 0.076159
O O5 0.450834 0.858906 0.569839
O O6 0.344003 0.830527 0.438023
O O7 0.572281 0.938041 0.376229
O O8 0.388453 0.750000 0.687090
O O9 0.082625 0.843450 0.864113
O O10 0.502403 0.852752 0.734884
O O11 0.727228 0.250000 0.670459
O O12 0.763943 0.387798 0.674485
O O13 0.073376 0.319516 0.439687
O O14 0.184494 0.964567 0.812598
O O15 0.820943 0.921355 0.096804
O O16 0.444464 0.502909 0.279499
O O17 0.000000 0.500000 0.500000
O O18 0.399153 0.250000 0.198046
#
# Coordination Sequence:
#
# PCOD8071478 Si02
#       8
#     4   4   4   4   4   4   4   4
#     4  10  19  33  53  85 104 148 187 237 287 331
#     4   9  18  33  57  80 109 137 187 236 284 334
#     4  10  20  34  55  84 111 148 191 234 283 344
#     4   9  17  29  48  77 107 136 172 228 288 334
#     4  10  23  36  55  81 118 154 193 232 287 349
#     4  11  18  33  56  80 110 143 189 239 289 338
#     4  10  21  39  54  82 114 151 189 237 292 343
#     4   9  17  30  52  79 111 142 181 233 281 329
#
# _framework density 19.785568999999999
#
# number of rings (size 3 to 8) (size 9 to 14) (size 15 to 20)
#    0.000    2.250    3.750    1.125    0.000    6.500 
#    0.000    3.125    0.000    0.000    0.000   12.250 
#    0.000    0.000    0.000    0.000    0.000    0.000 
#
# Total GULP energy -396533.549557 kJ/mol
# GULP energy per Si atom -12391.673424 kJ/mol
# Density = 1.974054 g / cm^3
# Si number density = 19.785569 Si / 1000 Ang^3
#
#
#
# Elastic Constant Matrix: (Units=GPa)
#
#
# Indices 1 2 3 4 5 6 
#
# 1 106.9791 32.5831 12.3259 0.0000 1.7283 0.0000
# 2 32.5831 95.0016 6.0327 0.0000 7.2136 0.0000
# 3 12.3259 6.0327 41.1211 0.0000 0.0602 0.0000
# 4 0.0000 0.0000 0.0000 16.0108 0.0000 2.1928
# 5 1.7283 7.2136 0.0602 0.0000 20.8664 0.0000
# 6 0.0000 0.0000 0.0000 2.1928 0.0000 24.6227
#
#
#
# Elastic Compliance Matrix: (Units=1/GPa)
#
#
# Indices 1 2 3 4 5 6 
#
# 1 0.010730 -0.003535 -0.002698 0.000000 0.000341 0.000000
# 2 -0.003535 0.012078 -0.000707 0.000000 -0.003881 0.000000
# 3 -0.002698 -0.000707 0.025230 0.000000 0.000395 0.000000
# 4 0.000000 0.000000 0.000000 0.063229 0.000000 -0.005631
# 5 0.000341 -0.003881 0.000395 0.000000 0.049236 0.000000
# 6 0.000000 0.000000 0.000000 -0.005631 0.000000 0.041114
#
#
# Mechanical properties :
#
#
# Convention : Reuss Voigt Hill
#
# Bulk Modulus (GPa) = 29.27487 38.33170 33.80328
# Shear Modulus (GPa) = 22.03785 25.11065 23.57425
#
# Velocity S-wave (km/s) = 3.34104 3.56636 3.45554
# Velocity P-wave (km/s) = 5.45083 6.03110 5.74829
#
# Compressibility (1/GPa) = 0.03415899
#
# Stress axis : x y z
#
# Youngs Moduli (GPa) = 93.20096 82.79566 39.63488
#
# Poissons Ratio (x) = 0.29264 0.10694
# Poissons Ratio (y) = 0.32942 0.02801
# Poissons Ratio (z) = 0.25147 0.05852
#
# Static dielectric constant tensor:
#      x y z
#    x 3.969920 0.000000 -0.026940 
#    y 0.000000 3.899210 0.000000 
#    z -0.026940 0.000000 3.314630 
# 
# 
# High freq. dielectric constant tensor:
#      x y z
#    x 1.778650 0.000000 -0.005320 
#    y 0.000000 1.771590 0.000000 
#    z -0.005320 0.000000 1.732910 
# 
# From -- ./inp_files/48248.got.cif
#   From: 2010.06.25/outbox.cif.g09.slc.cpg/sg11_25_cif.got.tgz:48248.got - 2010.06.27 23:14:04.
