data_PCOD8071434
_publ_section_title
;
Structure prediction by ZEFSAII (Michael W. Deem and Ramdas Pophale) SiO2 
 PCOD8071434
Probable space group: P 21/M
;
_chemical_formula_sum "Si O2"
_cell_formula_units_Z 28
_cell_length_a 12.516651
_cell_length_b 9.253030
_cell_length_c 14.809960
_cell_angle_alpha 90.000000
_cell_angle_beta 73.275519
_cell_angle_gamma 90.000000
_cell_volume 1642.688877
_symmetry_space_group_name_H-M "P 21/M"
_symmetry_group_IT_number 11
_symmetry_cell_setting 'monoclinic'
loop_
_space_group_symop_operation_xyz
x,y,z
-x,1/2+y,-z
-x,-y,-z
x,1/2-y,z
loop_
_atom_site_type_symbol
_atom_site_label
_atom_site_fract_x
_atom_site_fract_y
_atom_site_fract_z
Si Si1 0.636849 0.581890 0.611478
Si Si2 0.779785 0.417349 0.722524
Si Si3 0.749573 0.583203 0.396069
Si Si4 0.388765 0.582253 0.712226
Si Si5 0.592704 0.414686 0.086911
Si Si6 0.341417 0.417365 0.097836
Si Si7 0.016997 0.084087 0.587547
O O1 0.648105 0.750000 0.637230
O O2 0.719385 0.489672 0.652568
O O3 0.668182 0.556105 0.500209
O O4 0.511398 0.525020 0.655872
O O5 0.744249 0.250000 0.736204
O O6 0.749832 0.496422 0.822797
O O7 0.912193 0.434819 0.678950
O O8 0.753269 0.750000 0.368289
O O9 0.705645 0.498503 0.320425
O O10 0.873363 0.524839 0.388314
O O11 0.380807 0.750000 0.690765
O O12 0.364862 0.551943 0.823137
O O13 0.618051 0.250000 0.052065
O O14 0.460208 0.442139 0.116790
O O15 0.657177 0.521065 0.003960
O O16 0.308088 0.250000 0.102059
O O17 0.036713 0.250000 0.555453
O O18 0.000000 0.000000 0.500000
#
# Coordination Sequence:
#
# PCOD8071434 Si02
#       7
#     4   4   4   4   4   4   4
#     4  10  19  34  52  74 107 143 173 211 258 307
#     4  11  21  32  52  80 107 136 174 217 260 308
#     4  10  21  35  52  74 105 142 178 216 258 304
#     4  10  20  34  52  76 108 141 173 210 258 312
#     4   9  18  33  52  76 106 136 169 212 259 310
#     4  10  19  33  53  77 106 138 169 210 264 315
#     4  10  21  36  54  76 103 137 178 222 261 300
#
# _framework density 17.045224999999999
#
# number of rings (size 3 to 8) (size 9 to 14) (size 15 to 20)
#    0.000    2.000    2.857    1.286    0.000    3.429 
#    0.000    0.000    0.000    0.857    0.000    0.000 
#    0.000    0.000    0.000    0.000    0.000    0.000 
#
# Total GULP energy -347307.751174 kJ/mol
# GULP energy per Si atom -12403.848256 kJ/mol
# Density = 1.700643 g / cm^3
# Si number density = 17.045225 Si / 1000 Ang^3
#
#
#
# Elastic Constant Matrix: (Units=GPa)
#
#
# Indices 1 2 3 4 5 6 
#
# 1 100.8164 41.6517 43.0729 0.0000 12.3661 0.0000
# 2 41.6517 79.4725 50.3669 0.0000 3.7794 0.0000
# 3 43.0729 50.3669 88.9260 0.0000 5.2189 0.0000
# 4 0.0000 0.0000 0.0000 29.5748 0.0000 5.1205
# 5 12.3661 3.7794 5.2189 0.0000 22.0359 0.0000
# 6 0.0000 0.0000 0.0000 5.1205 0.0000 26.8949
#
#
#
# Elastic Compliance Matrix: (Units=1/GPa)
#
#
# Indices 1 2 3 4 5 6 
#
# 1 0.014306 -0.004744 -0.003873 0.000000 -0.006297 0.000000
# 2 -0.004744 0.021214 -0.009797 0.000000 0.001344 0.000000
# 3 -0.003873 -0.009797 0.018704 0.000000 -0.000576 0.000000
# 4 0.000000 0.000000 0.000000 0.034965 0.000000 -0.006657
# 5 -0.006297 0.001344 -0.000576 0.000000 0.048820 0.000000
# 6 0.000000 0.000000 0.000000 -0.006657 0.000000 0.038449
#
#
# Mechanical properties :
#
#
# Convention : Reuss Voigt Hill
#
# Bulk Modulus (GPa) = 57.48068 59.93311 58.70689
# Shear Modulus (GPa) = 22.82228 24.64267 23.73247
#
# Velocity S-wave (km/s) = 3.66310 3.80639 3.73543
# Velocity P-wave (km/s) = 7.18935 7.38618 7.28843
#
# Compressibility (1/GPa) = 0.01739715
#
# Stress axis : x y z
#
# Youngs Moduli (GPa) = 69.90072 47.13869 53.46523
#
# Poissons Ratio (x) = 0.22362 0.20707
# Poissons Ratio (y) = 0.33159 0.52378
# Poissons Ratio (z) = 0.27072 0.46180
#
# Static dielectric constant tensor:
#      x y z
#    x 3.122340 0.000000 -0.107520 
#    y 0.000000 3.213050 0.000000 
#    z -0.107520 0.000000 3.170490 
# 
# 
# High freq. dielectric constant tensor:
#      x y z
#    x 1.638790 0.000000 -0.002630 
#    y 0.000000 1.660970 0.000000 
#    z -0.002630 0.000000 1.659150 
# 
# From -- ./inp_files/37415.got.cif
#   From: 2010.06.25/outbox.cif.g09.slc.cpg/sg11_19_cif.got.tgz:37415.got - 2010.06.27 23:14:04.
