data_PCOD8071983
_publ_section_title
;
Structure prediction by ZEFSAII (Michael W. Deem and Ramdas Pophale) SiO2 
 PCOD8071983
Probable space group: P 21/M
;
_chemical_formula_sum "Si O2"
_cell_formula_units_Z 28
_cell_length_a 12.018994
_cell_length_b 8.724897
_cell_length_c 19.744801
_cell_angle_alpha 90.000000
_cell_angle_beta 134.035496
_cell_angle_gamma 90.000000
_cell_volume 1488.522123
_symmetry_space_group_name_H-M "P 21/M"
_symmetry_group_IT_number 11
_symmetry_cell_setting 'monoclinic'
loop_
_space_group_symop_operation_xyz
x,y,z
-x,1/2+y,-z
-x,-y,-z
x,1/2-y,z
loop_
_atom_site_type_symbol
_atom_site_label
_atom_site_fract_x
_atom_site_fract_y
_atom_site_fract_z
Si Si1 0.909973 0.426909 0.270763
Si Si2 0.098608 0.069818 0.481182
Si Si3 0.703096 0.569532 0.952210
Si Si4 0.023325 0.928419 0.852169
Si Si5 0.382828 0.070351 0.800671
Si Si6 0.265377 0.430796 0.186933
Si Si7 0.608484 0.431448 0.340610
O O1 0.862109 0.250000 0.259459
O O2 0.996004 0.454053 0.235981
O O3 0.755368 0.529348 0.206486
O O4 0.027280 0.479419 0.379147
O O5 0.100835 0.250000 0.491731
O O6 0.273941 0.007115 0.556588
O O7 0.000000 0.000000 0.500000
O O8 0.672819 0.750000 0.942364
O O9 0.543049 0.484591 0.901845
O O10 0.760953 0.518509 0.901963
O O11 0.828451 0.521056 0.060006
O O12 0.045792 0.750000 0.879951
O O13 0.870707 0.998889 0.823841
O O14 0.388958 0.250000 0.789116
O O15 0.346484 0.981643 0.715938
O O16 0.262416 0.250000 0.191653
O O17 0.433964 0.488635 0.283558
O O18 0.623484 0.250000 0.351219
#
# Coordination Sequence:
#
# PCOD8071983 Si02
#       7
#     4   4   4   4   4   4   4
#     4  10  22  37  54  77 111 145 178 223 273 321
#     4  11  21  34  55  82 109 143 181 224 272 321
#     4  10  20  35  56  82 111 141 177 225 273 318
#     4  10  20  37  57  78 106 145 186 222 265 321
#     4  11  21  34  55  81 108 141 182 224 268 324
#     4   8  17  34  57  81 107 141 180 221 268 316
#     4  10  19  34  56  83 112 139 175 226 274 317
#
# _framework density 18.810603
#
# number of rings (size 3 to 8) (size 9 to 14) (size 15 to 20)
#    0.000    2.000    1.429    3.857    0.000    1.714 
#    0.000    4.286    0.000    0.000    0.000    0.000 
#    0.000    0.000    0.000    0.000    0.000    0.000 
#
# Total GULP energy -347251.918607 kJ/mol
# GULP energy per Si atom -12401.854236 kJ/mol
# Density = 1.876779 g / cm^3
# Si number density = 18.810603 Si / 1000 Ang^3
#
#
#
# Elastic Constant Matrix: (Units=GPa)
#
#
# Indices 1 2 3 4 5 6 
#
# 1 77.0725 24.5774 52.8841 0.0000 2.1938 0.0000
# 2 24.5774 63.1510 33.6370 0.0000 1.0022 0.0000
# 3 52.8841 33.6370 131.3053 0.0000 6.6961 0.0000
# 4 0.0000 0.0000 0.0000 31.3558 0.0000 5.4461
# 5 2.1938 1.0022 6.6961 0.0000 25.4428 0.0000
# 6 0.0000 0.0000 0.0000 5.4461 0.0000 19.3675
#
#
#
# Elastic Compliance Matrix: (Units=1/GPa)
#
#
# Indices 1 2 3 4 5 6 
#
# 1 0.018679 -0.003774 -0.006570 0.000000 0.000267 0.000000
# 2 -0.003774 0.019107 -0.003398 0.000000 0.000467 0.000000
# 3 -0.006570 -0.003398 0.011248 0.000000 -0.002260 0.000000
# 4 0.000000 0.000000 0.000000 0.033530 0.000000 -0.009428
# 5 0.000267 0.000467 -0.002260 0.000000 0.039857 0.000000
# 6 0.000000 0.000000 0.000000 -0.009428 0.000000 0.054284
#
#
# Mechanical properties :
#
#
# Convention : Reuss Voigt Hill
#
# Bulk Modulus (GPa) = 46.40756 54.85843 50.63299
# Shear Modulus (GPa) = 23.65506 25.92858 24.79182
#
# Velocity S-wave (km/s) = 3.55003 3.71671 3.63432
# Velocity P-wave (km/s) = 6.44423 6.90257 6.67733
#
# Compressibility (1/GPa) = 0.02154821
#
# Stress axis : x y z
#
# Youngs Moduli (GPa) = 53.53709 52.33782 88.90765
#
# Poissons Ratio (x) = 0.19754 0.58410
# Poissons Ratio (y) = 0.20207 0.30213
# Poissons Ratio (z) = 0.35172 0.17786
#
# Static dielectric constant tensor:
#      x y z
#    x 3.469790 0.000000 0.197640 
#    y 0.000000 3.340160 0.000000 
#    z 0.197640 0.000000 3.550770 
# 
# 
# High freq. dielectric constant tensor:
#      x y z
#    x 1.721360 0.000000 0.014860 
#    y 0.000000 1.722810 0.000000 
#    z 0.014860 0.000000 1.731350 
# 
# From -- ./inp_files/64264.got.cif
#   From: 2010.06.25/outbox.cif.g09.slc.cpg/sg11_33_cif.got.tgz:64264.got - 2010.06.27 23:14:04.
