data_PCOD8071842
_publ_section_title
;
Structure prediction by ZEFSAII (Michael W. Deem and Ramdas Pophale) SiO2 
 PCOD8071842
Probable space group: P 21/M
;
_chemical_formula_sum "Si O2"
_cell_formula_units_Z 32
_cell_length_a 27.325690
_cell_length_b 8.983895
_cell_length_c 21.279365
_cell_angle_alpha 90.000000
_cell_angle_beta 161.573154
_cell_angle_gamma 90.000000
_cell_volume 1651.239884
_symmetry_space_group_name_H-M "P 21/M"
_symmetry_group_IT_number 11
_symmetry_cell_setting 'monoclinic'
loop_
_space_group_symop_operation_xyz
x,y,z
-x,1/2+y,-z
-x,-y,-z
x,1/2-y,z
loop_
_atom_site_type_symbol
_atom_site_label
_atom_site_fract_x
_atom_site_fract_y
_atom_site_fract_z
Si Si1 0.114449 0.426149 0.451662
Si Si2 0.558441 0.923761 0.755975
Si Si3 0.916069 0.577502 0.991720
Si Si4 0.156244 0.572730 0.966879
Si Si5 0.221157 0.921368 0.292435
Si Si6 0.025324 0.916647 0.594443
Si Si7 0.541238 0.924751 0.115744
Si Si8 0.618449 0.081854 0.954115
O O1 0.092023 0.250000 0.427027
O O2 0.290383 0.472931 0.652490
O O3 0.995874 0.488656 0.255135
O O4 0.074491 0.492281 0.471826
O O5 0.597777 0.750000 0.802060
O O6 0.392127 0.959327 0.523987
O O7 0.547259 0.976618 0.814379
O O8 0.688580 0.010729 0.875766
O O9 0.884650 0.750000 0.967814
O O10 0.859761 0.481626 0.981760
O O11 0.097161 0.547440 0.197074
O O12 0.812201 0.529038 0.806272
O O13 0.166727 0.750000 0.978380
O O14 0.206356 0.750000 0.252524
O O15 0.969196 0.750000 0.513237
O O16 0.199025 0.921379 0.830679
O O17 0.000000 0.000000 0.500000
O O18 0.533338 0.750000 0.093557
O O19 0.424413 0.976245 0.028231
O O20 0.500000 0.000000 0.000000
O O21 0.554178 0.250000 0.866814
#
# Coordination Sequence:
#
# PCOD8071842 Si02
#       8
#     4   4   4   4   4   4   4   4
#     4   9  19  36  55  78 111 149 187 230 280 341
#     4  11  23  39  60  87 119 154 195 242 289 339
#     4  10  21  39  63  92 121 151 193 240 284 340
#     4  11  22  39  61  86 119 158 196 238 289 345
#     4   9  21  41  62  88 122 156 192 236 286 343
#     4  10  19  34  54  77 107 144 187 232 279 334
#     4  10  21  37  57  82 112 147 189 237 289 347
#     4  10  21  37  56  81 115 150 190 236 287 348
#
# _framework density 19.379377000000002
#
# number of rings (size 3 to 8) (size 9 to 14) (size 15 to 20)
#    0.000    2.000    1.250    1.875    1.750    3.000 
#    0.000    1.250    0.000    0.000    0.000    0.000 
#    0.000    0.000    0.000    0.000    0.000    0.000 
#
# Total GULP energy -396802.149130 kJ/mol
# GULP energy per Si atom -12400.067160 kJ/mol
# Density = 1.933527 g / cm^3
# Si number density = 19.379377 Si / 1000 Ang^3
#
#
#
# Elastic Constant Matrix: (Units=GPa)
#
#
# Indices 1 2 3 4 5 6 
#
# 1 113.2668 41.3117 29.4997 0.0000 -2.2796 0.0000
# 2 41.3117 74.5996 39.7031 0.0000 -5.1408 0.0000
# 3 29.4997 39.7031 91.7097 0.0000 -2.8975 0.0000
# 4 0.0000 0.0000 0.0000 26.2988 0.0000 -4.2158
# 5 -2.2796 -5.1408 -2.8975 0.0000 27.5813 0.0000
# 6 0.0000 0.0000 0.0000 -4.2158 0.0000 36.0376
#
#
#
# Elastic Compliance Matrix: (Units=1/GPa)
#
#
# Indices 1 2 3 4 5 6 
#
# 1 0.011164 -0.005566 -0.001189 0.000000 -0.000240 0.000000
# 2 -0.005566 0.020362 -0.006942 0.000000 0.002606 0.000000
# 3 -0.001189 -0.006942 0.014295 0.000000 0.000110 0.000000
# 4 0.000000 0.000000 0.000000 0.038751 0.000000 0.004533
# 5 -0.000240 0.002606 0.000110 0.000000 0.036734 0.000000
# 6 0.000000 0.000000 0.000000 0.004533 0.000000 0.028279
#
#
# Mechanical properties :
#
#
# Convention : Reuss Voigt Hill
#
# Bulk Modulus (GPa) = 54.27031 55.62281 54.94656
# Shear Modulus (GPa) = 27.30435 29.25430 28.27933
#
# Velocity S-wave (km/s) = 3.75766 3.88952 3.82416
# Velocity P-wave (km/s) = 6.84774 6.99539 6.92196
#
# Compressibility (1/GPa) = 0.01842628
#
# Stress axis : x y z
#
# Youngs Moduli (GPa) = 89.57691 49.11213 69.95302
#
# Poissons Ratio (x) = 0.27336 0.08317
# Poissons Ratio (y) = 0.49858 0.48563
# Poissons Ratio (z) = 0.10650 0.34095
#
# Static dielectric constant tensor:
#      x y z
#    x 3.613590 0.000000 0.126240 
#    y 0.000000 3.462790 0.000000 
#    z 0.126240 0.000000 3.676160 
# 
# 
# High freq. dielectric constant tensor:
#      x y z
#    x 1.766340 0.000000 0.003840 
#    y 0.000000 1.740470 0.000000 
#    z 0.003840 0.000000 1.759790 
# 
# From -- ./inp_files/67307.got.cif
#   From: 2010.06.25/outbox.cif.g09.slc.cpg/sg11_34_cif.got.tgz:67307.got - 2010.06.27 23:14:04.
