data_PCOD8071427
_publ_section_title
;
Structure prediction by ZEFSAII (Michael W. Deem and Ramdas Pophale) SiO2 
 PCOD8071427
Probable space group: P 21/M
;
_chemical_formula_sum "Si O2"
_cell_formula_units_Z 32
_cell_length_a 12.202417
_cell_length_b 16.148809
_cell_length_c 10.247622
_cell_angle_alpha 90.000000
_cell_angle_beta 126.306594
_cell_angle_gamma 90.000000
_cell_volume 1627.305659
_symmetry_space_group_name_H-M "P 21/M"
_symmetry_group_IT_number 11
_symmetry_cell_setting 'monoclinic'
loop_
_space_group_symop_operation_xyz
x,y,z
-x,1/2+y,-z
-x,-y,-z
x,1/2-y,z
loop_
_atom_site_type_symbol
_atom_site_label
_atom_site_fract_x
_atom_site_fract_y
_atom_site_fract_z
Si Si1 0.939219 0.414340 0.296049
Si Si2 0.360040 0.846806 0.565170
Si Si3 0.650483 0.407130 0.155644
Si Si4 0.074655 0.108469 0.654974
Si Si5 0.941485 0.847741 0.879739
Si Si6 0.640561 0.904600 0.073712
Si Si7 0.339199 0.345717 0.193702
Si Si8 0.106738 0.656742 0.239349
O O1 0.786031 0.376013 0.176341
O O2 0.930615 0.511885 0.312688
O O3 0.015401 0.371649 0.471111
O O4 0.021596 0.396579 0.224067
O O5 0.330464 0.750000 0.567625
O O6 0.326844 0.893958 0.675017
O O7 0.516424 0.861408 0.631127
O O8 0.254351 0.882469 0.381457
O O9 0.632048 0.503851 0.122612
O O10 0.509398 0.362303 0.008218
O O11 0.232076 0.140549 0.766487
O O12 0.991117 0.157333 0.704485
O O13 0.963104 0.750000 0.875255
O O14 0.783539 0.868017 0.796284
O O15 0.034266 0.885288 0.063062
O O16 0.669602 0.904117 0.939019
O O17 0.328461 0.250000 0.140061
O O18 0.132135 0.750000 0.213646
#
# Coordination Sequence:
#
# PCOD8071427 Si02
#       8
#     4   4   4   4   4   4   4   4
#     4  10  21  34  51  76 107 138 168 212 264 302
#     4   9  17  30  53  77  99 134 177 216 254 306
#     4   9  17  31  49  76 105 136 169 212 261 300
#     4  10  19  34  53  77 101 137 176 213 248 302
#     4  10  21  36  53  76 107 136 166 211 261 307
#     4   9  17  30  52  75 104 135 172 214 253 299
#     4   9  17  32  52  75 102 136 176 212 254 309
#     4  10  19  33  53  77 101 131 173 215 252 304
#
# _framework density 19.664407000000001
#
# number of rings (size 3 to 8) (size 9 to 14) (size 15 to 20)
#    0.000    2.500    2.500    0.000    0.000    1.500 
#    0.000    1.250    0.000    0.750    0.000    0.000 
#    0.000    0.000    0.000    0.000    0.000    0.000 
#
# Total GULP energy -396464.935485 kJ/mol
# GULP energy per Si atom -12389.529234 kJ/mol
# Density = 1.961965 g / cm^3
# Si number density = 19.664407 Si / 1000 Ang^3
#
#
#
# Elastic Constant Matrix: (Units=GPa)
#
#
# Indices 1 2 3 4 5 6 
#
# 1 151.5420 20.9301 79.0415 0.0000 20.9016 0.0000
# 2 20.9301 18.4903 20.2362 0.0000 -1.5473 0.0000
# 3 79.0415 20.2362 127.8926 0.0000 16.4870 0.0000
# 4 0.0000 0.0000 0.0000 14.5225 0.0000 -2.6175
# 5 20.9016 -1.5473 16.4870 0.0000 44.4654 0.0000
# 6 0.0000 0.0000 0.0000 -2.6175 0.0000 20.9744
#
#
#
# Elastic Compliance Matrix: (Units=1/GPa)
#
#
# Indices 1 2 3 4 5 6 
#
# 1 0.010644 -0.006778 -0.005073 0.000000 -0.003358 0.000000
# 2 -0.006778 0.071518 -0.008253 0.000000 0.008735 0.000000
# 3 -0.005073 -0.008253 0.012592 0.000000 -0.002571 0.000000
# 4 0.000000 0.000000 0.000000 0.070443 0.000000 0.008791
# 5 -0.003358 0.008735 -0.002571 0.000000 0.025325 0.000000
# 6 0.000000 0.000000 0.000000 0.008791 0.000000 0.048774
#
#
# Mechanical properties :
#
#
# Convention : Reuss Voigt Hill
#
# Bulk Modulus (GPa) = 18.33320 59.81559 39.07440
# Shear Modulus (GPa) = 16.79615 27.84026 22.31820
#
# Velocity S-wave (km/s) = 2.92574 3.76675 3.37256
# Velocity P-wave (km/s) = 4.55593 7.02867 5.92278
#
# Compressibility (1/GPa) = 0.05454585
#
# Stress axis : x y z
#
# Youngs Moduli (GPa) = 93.94869 13.98246 79.41693
#
# Poissons Ratio (x) = 0.09477 0.40289
# Poissons Ratio (y) = 0.63674 0.65547
# Poissons Ratio (z) = 0.47661 0.11540
#
# Static dielectric constant tensor:
#      x y z
#    x 3.948720 0.000000 0.661090 
#    y 0.000000 3.233300 0.000000 
#    z 0.661090 0.000000 3.933380 
# 
# 
# High freq. dielectric constant tensor:
#      x y z
#    x 1.770190 0.000000 0.033670 
#    y 0.000000 1.730060 0.000000 
#    z 0.033670 0.000000 1.766030 
# 
# From -- ./inp_files/19222.got.cif
#   From: 2010.06.25/outbox.cif.g09.slc.cpg/sg11_10_cif.got.tgz:19222.got - 2010.06.27 23:14:04.
