data_PCOD8071270
_publ_section_title
;
Structure prediction by ZEFSAII (Michael W. Deem and Ramdas Pophale) SiO2 
 PCOD8071270
Probable space group: P 21/M
;
_chemical_formula_sum "Si O2"
_cell_formula_units_Z 32
_cell_length_a 28.807990
_cell_length_b 8.859632
_cell_length_c 11.288593
_cell_angle_alpha 90.000000
_cell_angle_beta 145.415630
_cell_angle_gamma 90.000000
_cell_volume 1635.405730
_symmetry_space_group_name_H-M "P 21/M"
_symmetry_group_IT_number 11
_symmetry_cell_setting 'monoclinic'
loop_
_space_group_symop_operation_xyz
x,y,z
-x,1/2+y,-z
-x,-y,-z
x,1/2-y,z
loop_
_atom_site_type_symbol
_atom_site_label
_atom_site_fract_x
_atom_site_fract_y
_atom_site_fract_z
Si Si1 0.672097 0.078128 0.623064
Si Si2 0.722817 0.925032 0.111893
Si Si3 0.043660 0.073860 0.767020
Si Si4 0.890530 0.925525 0.349845
Si Si5 0.415076 0.923293 0.798384
Si Si6 0.739336 0.573629 0.416572
Si Si7 0.173489 0.929536 0.192584
Si Si8 0.410521 0.570533 0.315430
O O1 0.692213 0.250000 0.695582
O O2 0.602151 0.063899 0.377277
O O3 0.756061 0.005270 0.748572
O O4 0.637438 0.002973 0.670194
O O5 0.699147 0.750000 0.049935
O O6 0.797342 0.969661 0.181719
O O7 0.753073 0.962347 0.307569
O O8 0.642589 0.021663 0.910187
O O9 0.045831 0.250000 0.798687
O O10 0.092471 0.031145 0.750166
O O11 0.950290 0.019795 0.560878
O O12 0.085819 0.986509 0.964194
O O13 0.907588 0.750000 0.410092
O O14 0.415745 0.750000 0.841254
O O15 0.349017 0.011710 0.735727
O O16 0.500000 0.000000 0.000000
O O17 0.743257 0.750000 0.452217
O O18 0.810077 0.491833 0.641010
O O19 0.176697 0.750000 0.205515
O O20 0.500000 0.500000 0.500000
O O21 0.419786 0.750000 0.339547
#
# Coordination Sequence:
#
# PCOD8071270 Si02
#       8
#     4   4   4   4   4   4   4   4
#     4   8  18  35  53  74 104 138 175 221 271 322
#     4  10  22  40  59  79 111 150 185 226 278 332
#     4  10  19  32  56  88 118 144 181 231 278 328
#     4   9  19  36  57  84 115 150 186 224 273 332
#     4  10  20  35  55  79 105 138 181 227 277 326
#     4  10  21  37  56  79 108 145 185 230 280 329
#     4  10  19  35  58  82 109 144 185 230 278 329
#     4  11  23  38  56  80 109 144 183 225 275 331
#
# _framework density 19.567011000000001
#
# number of rings (size 3 to 8) (size 9 to 14) (size 15 to 20)
#    0.000    2.250    0.000    3.375    1.750    2.000 
#    0.000    6.875    0.000    0.000    0.000    0.000 
#    0.000    0.000    0.000    0.000    0.000    0.000 
#
# Total GULP energy -396835.028217 kJ/mol
# GULP energy per Si atom -12401.094632 kJ/mol
# Density = 1.952248 g / cm^3
# Si number density = 19.567011 Si / 1000 Ang^3
#
#
#
# Elastic Constant Matrix: (Units=GPa)
#
#
# Indices 1 2 3 4 5 6 
#
# 1 59.5199 25.7933 22.6958 0.0000 -4.2722 0.0000
# 2 25.7933 81.7379 49.8880 0.0000 -5.5333 0.0000
# 3 22.6958 49.8880 126.2646 0.0000 0.3057 0.0000
# 4 0.0000 0.0000 0.0000 39.6637 0.0000 -0.6666
# 5 -4.2722 -5.5333 0.3057 0.0000 20.7817 0.0000
# 6 0.0000 0.0000 0.0000 -0.6666 0.0000 24.3566
#
#
#
# Elastic Compliance Matrix: (Units=1/GPa)
#
#
# Indices 1 2 3 4 5 6 
#
# 1 0.019806 -0.005124 -0.001542 0.000000 0.002730 0.000000
# 2 -0.005124 0.017858 -0.006144 0.000000 0.003792 0.000000
# 3 -0.001542 -0.006144 0.010630 0.000000 -0.002109 0.000000
# 4 0.000000 0.000000 0.000000 0.025224 0.000000 0.000690
# 5 0.002730 0.003792 -0.002109 0.000000 0.049721 0.000000
# 6 0.000000 0.000000 0.000000 0.000690 0.000000 0.041076
#
#
# Mechanical properties :
#
#
# Convention : Reuss Voigt Hill
#
# Bulk Modulus (GPa) = 44.10497 51.58629 47.84563
# Shear Modulus (GPa) = 25.31767 28.23674 26.77721
#
# Velocity S-wave (km/s) = 3.60098 3.80291 3.70332
# Velocity P-wave (km/s) = 6.31497 6.76047 6.54151
#
# Compressibility (1/GPa) = 0.02267318
#
# Stress axis : x y z
#
# Youngs Moduli (GPa) = 50.49089 55.99836 94.07625
#
# Poissons Ratio (x) = 0.28693 0.14508
# Poissons Ratio (y) = 0.25871 0.57799
# Poissons Ratio (z) = 0.07787 0.34405
#
# Static dielectric constant tensor:
#      x y z
#    x 3.626170 0.000000 -0.044090 
#    y 0.000000 3.490070 0.000000 
#    z -0.044090 0.000000 3.550500 
# 
# 
# High freq. dielectric constant tensor:
#      x y z
#    x 1.747740 0.000000 -0.004770 
#    y 0.000000 1.757600 0.000000 
#    z -0.004770 0.000000 1.770780 
# 
# From -- ./inp_files/45267.got.cif
#   From: 2010.06.25/outbox.cif.g09.slc.cpg/sg11_23_cif.got.tgz:45267.got - 2010.06.27 23:14:04.
