data_PCOD8071596
_publ_section_title
;
Structure prediction by ZEFSAII (Michael W. Deem and Ramdas Pophale) SiO2 
 PCOD8071596
Probable space group: P 21/M
;
_chemical_formula_sum "Si O2"
_cell_formula_units_Z 28
_cell_length_a 9.955408
_cell_length_b 8.725705
_cell_length_c 28.451219
_cell_angle_alpha 90.000000
_cell_angle_beta 37.175376
_cell_angle_gamma 90.000000
_cell_volume 1493.420015
_symmetry_space_group_name_H-M "P 21/M"
_symmetry_group_IT_number 11
_symmetry_cell_setting 'monoclinic'
loop_
_space_group_symop_operation_xyz
x,y,z
-x,1/2+y,-z
-x,-y,-z
x,1/2-y,z
loop_
_atom_site_type_symbol
_atom_site_label
_atom_site_fract_x
_atom_site_fract_y
_atom_site_fract_z
Si Si1 0.811210 0.071321 0.206187
Si Si2 0.225014 0.071635 0.953700
Si Si3 0.460878 0.569222 0.368601
Si Si4 0.135748 0.929090 0.377463
Si Si5 0.638100 0.932137 0.505128
Si Si6 0.717051 0.569690 0.959905
Si Si7 0.462423 0.427844 0.796021
O O1 0.779041 0.250000 0.226855
O O2 0.069890 0.024254 0.131010
O O3 0.694269 0.969051 0.278570
O O4 0.707452 0.035676 0.184340
O O5 0.182628 0.250000 0.970413
O O6 0.428102 0.038381 0.860806
O O7 0.276029 0.998586 0.989823
O O8 0.000000 0.000000 0.000000
O O9 0.444396 0.750000 0.382092
O O10 0.258182 0.510042 0.391125
O O11 0.467707 0.481307 0.415986
O O12 0.106559 0.750000 0.392401
O O13 0.286212 0.968388 0.289926
O O14 0.891488 0.999393 0.435991
O O15 0.634077 0.750000 0.501104
O O16 0.500000 0.000000 0.500000
O O17 0.695548 0.750000 0.968439
O O18 0.500000 0.500000 0.000000
O O19 0.412013 0.250000 0.797607
#
# Coordination Sequence:
#
# PCOD8071596 Si02
#       7
#     4   4   4   4   4   4   4
#     4  10  19  34  55  81 114 143 179 228 276 324
#     4  10  19  33  55  81 109 142 184 228 272 322
#     4  10  20  37  61  86 107 138 186 229 274 331
#     4   8  17  34  57  83 110 140 181 227 271 323
#     4  11  22  38  57  81 116 150 181 223 275 329
#     4  10  22  37  52  77 113 150 188 227 270 325
#     4   9  17  32  56  83 108 137 181 230 274 323
#
# _framework density 18.748912000000001
#
# number of rings (size 3 to 8) (size 9 to 14) (size 15 to 20)
#    0.000    2.286    1.429    2.571    0.000    1.714 
#    2.571    6.429    0.000    0.000    0.000    0.000 
#    0.000    0.000    0.000    0.000    0.000    0.000 
#
# Total GULP energy -347050.973143 kJ/mol
# GULP energy per Si atom -12394.677612 kJ/mol
# Density = 1.870624 g / cm^3
# Si number density = 18.748912 Si / 1000 Ang^3
#
#
#
# Elastic Constant Matrix: (Units=GPa)
#
#
# Indices 1 2 3 4 5 6 
#
# 1 143.0382 27.6872 84.4183 0.0000 0.7384 0.0000
# 2 27.6872 34.4388 32.1273 0.0000 -0.5237 0.0000
# 3 84.4183 32.1273 134.1310 0.0000 -1.0209 0.0000
# 4 0.0000 0.0000 0.0000 26.2705 0.0000 0.0929
# 5 0.7384 -0.5237 -1.0209 0.0000 31.0491 0.0000
# 6 0.0000 0.0000 0.0000 0.0929 0.0000 27.9428
#
#
#
# Elastic Compliance Matrix: (Units=1/GPa)
#
#
# Indices 1 2 3 4 5 6 
#
# 1 0.011395 -0.003187 -0.006413 0.000000 -0.000536 0.000000
# 2 -0.003187 0.038287 -0.007161 0.000000 0.000486 0.000000
# 3 -0.006413 -0.007161 0.013210 0.000000 0.000466 0.000000
# 4 0.000000 0.000000 0.000000 0.038066 0.000000 -0.000127
# 5 -0.000536 0.000486 0.000466 0.000000 0.032243 0.000000
# 6 0.000000 0.000000 0.000000 -0.000127 0.000000 0.035788
#
#
# Mechanical properties :
#
#
# Convention : Reuss Voigt Hill
#
# Bulk Modulus (GPa) = 34.04728 66.67484 50.36106
# Shear Modulus (GPa) = 23.55139 28.21081 25.88110
#
# Velocity S-wave (km/s) = 3.54806 3.88321 3.71941
# Velocity P-wave (km/s) = 5.91473 7.46625 6.73531
#
# Compressibility (1/GPa) = 0.02937092
#
# Stress axis : x y z
#
# Youngs Moduli (GPa) = 87.75415 26.11849 75.69996
#
# Poissons Ratio (x) = 0.08325 0.48544
# Poissons Ratio (y) = 0.27970 0.54208
# Poissons Ratio (z) = 0.56273 0.18703
#
# Static dielectric constant tensor:
#      x y z
#    x 3.236160 0.000000 -0.088120 
#    y 0.000000 3.317970 0.000000 
#    z -0.088120 0.000000 3.545020 
# 
# 
# High freq. dielectric constant tensor:
#      x y z
#    x 1.710400 0.000000 0.008540 
#    y 0.000000 1.715080 0.000000 
#    z 0.008540 0.000000 1.744210 
# 
# From -- ./inp_files/72713.got.cif
#   From: 2010.06.25/outbox.cif.g09.slc.cpg/sg11_37_cif.got.tgz:72713.got - 2010.06.27 23:14:04.
