data_PCOD8071052
_publ_section_title
;
Structure prediction by ZEFSAII (Michael W. Deem and Ramdas Pophale) SiO2 
 PCOD8071052
Probable space group: P 21/M
;
_chemical_formula_sum "Si O2"
_cell_formula_units_Z 28
_cell_length_a 14.171465
_cell_length_b 9.635611
_cell_length_c 17.387115
_cell_angle_alpha 90.000000
_cell_angle_beta 136.940673
_cell_angle_gamma 90.000000
_cell_volume 1621.013376
_symmetry_space_group_name_H-M "P 21/M"
_symmetry_group_IT_number 11
_symmetry_cell_setting 'monoclinic'
loop_
_space_group_symop_operation_xyz
x,y,z
-x,1/2+y,-z
-x,-y,-z
x,1/2-y,z
loop_
_atom_site_type_symbol
_atom_site_label
_atom_site_fract_x
_atom_site_fract_y
_atom_site_fract_z
Si Si1 0.371810 0.409491 0.896824
Si Si2 0.840348 0.588349 0.672727
Si Si3 0.107349 0.089492 0.835521
Si Si4 0.672685 0.910988 0.721493
Si Si5 0.591832 0.588894 0.415564
Si Si6 0.458144 0.092875 0.784698
Si Si7 0.714450 0.908709 0.918118
O O1 0.402337 0.250000 0.937414
O O2 0.231556 0.459189 0.853899
O O3 0.352814 0.426562 0.793099
O O4 0.500000 0.500000 0.000000
O O5 0.877666 0.750000 0.690275
O O6 0.782880 0.548068 0.722439
O O7 0.729180 0.545684 0.542248
O O8 0.976425 0.501837 0.736161
O O9 0.070275 0.250000 0.799531
O O10 0.149629 0.062590 0.949840
O O11 0.630388 0.750000 0.689052
O O12 0.743173 0.944694 0.845916
O O13 0.535272 0.000525 0.627356
O O14 0.556906 0.750000 0.409147
O O15 0.616928 0.554974 0.340305
O O16 0.513570 0.250000 0.813898
O O17 0.590414 0.998050 0.878413
O O18 0.667673 0.750000 0.899500
#
# Coordination Sequence:
#
# PCOD8071052 Si02
#       7
#     4   4   4   4   4   4   4
#     4  10  19  32  52  76  99 125 159 199 243 292
#     4  10  21  35  49  69 100 135 167 201 240 285
#     4  10  21  34  48  70 101 132 161 198 245 293
#     4   9  18  32  52  75  97 126 165 205 244 286
#     4   9  18  33  52  74  99 127 163 204 243 284
#     4   9  17  30  51  76  98 123 158 201 245 288
#     4   9  17  31  49  72 101 127 157 201 246 287
#
# _framework density 17.273146000000001
#
# number of rings (size 3 to 8) (size 9 to 14) (size 15 to 20)
#    0.000    2.571    1.429    0.429    0.000    2.857 
#    0.000    0.714    0.000    0.000    0.000    0.000 
#    0.000    0.000    0.000    0.000    0.000    0.000 
#
# Total GULP energy -347174.009664 kJ/mol
# GULP energy per Si atom -12399.071774 kJ/mol
# Density = 1.723383 g / cm^3
# Si number density = 17.273146 Si / 1000 Ang^3
#
#
#
# Elastic Constant Matrix: (Units=GPa)
#
#
# Indices 1 2 3 4 5 6 
#
# 1 107.4611 41.6186 46.1783 0.0000 6.0889 0.0000
# 2 41.6186 54.6310 36.0484 0.0000 12.4925 0.0000
# 3 46.1783 36.0484 69.3093 0.0000 9.9973 0.0000
# 4 0.0000 0.0000 0.0000 27.8229 0.0000 6.8189
# 5 6.0889 12.4925 9.9973 0.0000 24.8347 0.0000
# 6 0.0000 0.0000 0.0000 6.8189 0.0000 27.0075
#
#
#
# Elastic Compliance Matrix: (Units=1/GPa)
#
#
# Indices 1 2 3 4 5 6 
#
# 1 0.014864 -0.007863 -0.006220 0.000000 0.002815 0.000000
# 2 -0.007863 0.033914 -0.010847 0.000000 -0.010765 0.000000
# 3 -0.006220 -0.010847 0.024637 0.000000 -0.002936 0.000000
# 4 0.000000 0.000000 0.000000 0.038312 0.000000 -0.009673
# 5 0.002815 -0.010765 -0.002936 0.000000 0.046173 0.000000
# 6 0.000000 0.000000 0.000000 -0.009673 0.000000 0.039469
#
#
# Mechanical properties :
#
#
# Convention : Reuss Voigt Hill
#
# Bulk Modulus (GPa) = 42.45340 53.23245 47.84292
# Shear Modulus (GPa) = 19.60141 23.10343 21.35242
#
# Velocity S-wave (km/s) = 3.37232 3.66120 3.51972
# Velocity P-wave (km/s) = 6.30828 6.98265 6.65402
#
# Compressibility (1/GPa) = 0.02355524
#
# Stress axis : x y z
#
# Youngs Moduli (GPa) = 67.27469 29.48602 40.58870
#
# Poissons Ratio (x) = 0.23186 0.25245
# Poissons Ratio (y) = 0.52901 0.44027
# Poissons Ratio (z) = 0.41844 0.31984
#
# Static dielectric constant tensor:
#      x y z
#    x 3.283790 0.000000 -0.337370 
#    y 0.000000 3.214040 0.000000 
#    z -0.337370 0.000000 3.218790 
# 
# 
# High freq. dielectric constant tensor:
#      x y z
#    x 1.662460 0.000000 -0.024210 
#    y 0.000000 1.667740 0.000000 
#    z -0.024210 0.000000 1.658940 
# 
# From -- ./inp_files/42330.got.cif
#   From: 2010.06.25/outbox.cif.g09.slc.cpg/sg11_22_cif.got.tgz:42330.got - 2010.06.27 23:14:04.
