data_PCOD8071885
_publ_section_title
;
Structure prediction by ZEFSAII (Michael W. Deem and Ramdas Pophale) SiO2 
 PCOD8071885
Probable space group: P 21/M
;
_chemical_formula_sum "Si O2"
_cell_formula_units_Z 28
_cell_length_a 17.695594
_cell_length_b 14.025907
_cell_length_c 8.074442
_cell_angle_alpha 90.000000
_cell_angle_beta 45.811585
_cell_angle_gamma 90.000000
_cell_volume 1437.007395
_symmetry_space_group_name_H-M "P 21/M"
_symmetry_group_IT_number 11
_symmetry_cell_setting 'monoclinic'
loop_
_space_group_symop_operation_xyz
x,y,z
-x,1/2+y,-z
-x,-y,-z
x,1/2-y,z
loop_
_atom_site_type_symbol
_atom_site_label
_atom_site_fract_x
_atom_site_fract_y
_atom_site_fract_z
Si Si1 0.240898 0.960127 0.987012
Si Si2 0.798304 0.859997 0.354919
Si Si3 0.419152 0.644834 0.856129
Si Si4 0.153256 0.985461 0.468404
Si Si5 0.383885 0.026804 0.499229
Si Si6 0.332056 0.860917 0.343017
Si Si7 0.058488 0.029272 0.076573
O O1 0.303121 0.864587 0.947560
O O2 0.328868 0.025332 0.762992
O O3 0.197273 0.009374 0.219913
O O4 0.139874 0.946566 0.019183
O O5 0.796164 0.750000 0.399856
O O6 0.678986 0.898038 0.518757
O O7 0.848713 0.913946 0.434020
O O8 0.867858 0.880040 0.082249
O O9 0.461646 0.750000 0.749784
O O10 0.497428 0.565187 0.662859
O O11 0.410175 0.630389 0.067207
O O12 0.219274 0.905601 0.466822
O O13 0.031442 0.947611 0.649366
O O14 0.381390 0.920960 0.420303
O O15 0.317786 0.750000 0.417227
O O16 0.000000 0.000000 0.000000
#
# Coordination Sequence:
#
# PCOD8071885 Si02
#       7
#     4   4   4   4   4   4   4
#     4  10  20  34  53  77 107 141 177 218 268 324
#     4   9  18  33  53  78 104 138 181 219 258 316
#     4  10  20  35  54  78 109 145 181 223 271 319
#     4   9  18  34  54  78 110 142 172 219 273 319
#     4  10  19  34  55  78 110 146 178 221 268 316
#     4   9  19  34  55  81 106 139 187 228 264 315
#     4   9  18  34  55  76 100 137 176 218 269 317
#
# _framework density 19.484939000000001
#
# number of rings (size 3 to 8) (size 9 to 14) (size 15 to 20)
#    0.000    2.571    0.000    2.571    0.000    1.143 
#    0.000    6.429    0.000    4.286    0.000    0.000 
#    0.000    0.000    0.000    0.000    0.000    0.000 
#
# Total GULP energy -346885.956612 kJ/mol
# GULP energy per Si atom -12388.784165 kJ/mol
# Density = 1.944059 g / cm^3
# Si number density = 19.484939 Si / 1000 Ang^3
#
#
#
# Elastic Constant Matrix: (Units=GPa)
#
#
# Indices 1 2 3 4 5 6 
#
# 1 89.5900 35.8104 41.7726 0.0000 -6.1143 0.0000
# 2 35.8104 127.3797 48.8011 0.0000 -1.6760 0.0000
# 3 41.7726 48.8011 130.2051 0.0000 1.6102 0.0000
# 4 0.0000 0.0000 0.0000 18.7971 0.0000 -0.5077
# 5 -6.1143 -1.6760 1.6102 0.0000 32.3877 0.0000
# 6 0.0000 0.0000 0.0000 -0.5077 0.0000 16.0939
#
#
#
# Elastic Compliance Matrix: (Units=1/GPa)
#
#
# Indices 1 2 3 4 5 6 
#
# 1 0.014031 -0.002536 -0.003584 0.000000 0.002696 0.000000
# 2 -0.002536 0.009639 -0.002801 0.000000 0.000159 0.000000
# 3 -0.003584 -0.002801 0.009896 0.000000 -0.001314 0.000000
# 4 0.000000 0.000000 0.000000 0.053245 0.000000 0.001680
# 5 0.002696 0.000159 -0.001314 0.000000 0.031458 0.000000
# 6 0.000000 0.000000 0.000000 0.001680 0.000000 0.062188
#
#
# Mechanical properties :
#
#
# Convention : Reuss Voigt Hill
#
# Bulk Modulus (GPa) = 63.59962 66.66035 65.12999
# Shear Modulus (GPa) = 24.56507 28.17509 26.37008
#
# Velocity S-wave (km/s) = 3.55452 3.80675 3.68279
# Velocity P-wave (km/s) = 7.03970 7.32170 7.18208
#
# Compressibility (1/GPa) = 0.01572336
#
# Stress axis : x y z
#
# Youngs Moduli (GPa) = 71.27192 103.74893 101.04915
#
# Poissons Ratio (x) = 0.26309 0.36219
# Poissons Ratio (y) = 0.18073 0.28304
# Poissons Ratio (z) = 0.25546 0.29060
#
# Static dielectric constant tensor:
#      x y z
#    x 3.631040 0.000000 -0.121920 
#    y 0.000000 3.213400 0.000000 
#    z -0.121920 0.000000 4.005170 
# 
# 
# High freq. dielectric constant tensor:
#      x y z
#    x 1.756040 0.000000 -0.005580 
#    y 0.000000 1.718390 0.000000 
#    z -0.005580 0.000000 1.775850 
# 
# From -- ./inp_files/24908.got.cif
#   From: 2010.06.25/outbox.cif.g09.slc.cpg/sg11_13_cif.got.tgz:24908.got - 2010.06.27 23:14:04.
