data_PCOD8071551
_publ_section_title
;
Structure prediction by ZEFSAII (Michael W. Deem and Ramdas Pophale) SiO2 
 PCOD8071551
Probable space group: P 21/M
;
_chemical_formula_sum "Si O2"
_cell_formula_units_Z 28
_cell_length_a 15.318530
_cell_length_b 8.627263
_cell_length_c 19.575977
_cell_angle_alpha 90.000000
_cell_angle_beta 36.151551
_cell_angle_gamma 90.000000
_cell_volume 1526.191302
_symmetry_space_group_name_H-M "P 21/M"
_symmetry_group_IT_number 11
_symmetry_cell_setting 'monoclinic'
loop_
_space_group_symop_operation_xyz
x,y,z
-x,1/2+y,-z
-x,-y,-z
x,1/2-y,z
loop_
_atom_site_type_symbol
_atom_site_label
_atom_site_fract_x
_atom_site_fract_y
_atom_site_fract_z
Si Si1 0.113399 0.066057 0.743090
Si Si2 0.202653 0.931716 0.102322
Si Si3 0.506793 0.433120 0.160519
Si Si4 0.603629 0.431652 0.492727
Si Si5 0.367319 0.568161 0.126812
Si Si6 0.140419 0.567864 0.873569
Si Si7 0.566092 0.931043 0.263330
O O1 0.111925 0.250000 0.742546
O O2 0.952579 0.995839 0.824729
O O3 0.233225 0.005024 0.613449
O O4 0.161186 0.010397 0.787325
O O5 0.199070 0.750000 0.091981
O O6 0.222704 0.966339 0.171102
O O7 0.339893 0.995532 0.970491
O O8 0.506107 0.250000 0.171519
O O9 0.367979 0.481989 0.199656
O O10 0.482218 0.518933 0.247637
O O11 0.500000 0.500000 0.500000
O O12 0.614816 0.250000 0.473612
O O13 0.539364 0.474177 0.607139
O O14 0.388713 0.750000 0.125066
O O15 0.500000 0.500000 0.000000
O O16 0.121785 0.750000 0.876904
O O17 0.283434 0.529486 0.828338
O O18 0.000000 0.500000 0.000000
O O19 0.605115 0.750000 0.238198
#
# Coordination Sequence:
#
# PCOD8071551 Si02
#       7
#     4   4   4   4   4   4   4
#     4  11  21  36  57  80 108 142 184 229 273 325
#     4   8  17  32  52  79 110 143 175 215 269 325
#     4  10  19  33  54  82 113 144 179 221 275 333
#     4  11  23  39  58  78 104 141 187 232 277 326
#     4   9  16  30  51  77 110 145 181 220 267 325
#     4  12  24  37  54  78 111 145 180 220 272 328
#     4  11  23  38  56  78 106 142 184 228 274 326
#
# _framework density 18.346323000000002
#
# number of rings (size 3 to 8) (size 9 to 14) (size 15 to 20)
#    0.000    1.714    1.429    5.143    0.000    2.857 
#    0.000    7.857    0.000    0.857    0.000    0.000 
#    0.000    0.000    0.000    0.000    0.000    0.000 
#
# Total GULP energy -347177.249491 kJ/mol
# GULP energy per Si atom -12399.187482 kJ/mol
# Density = 1.830457 g / cm^3
# Si number density = 18.346323 Si / 1000 Ang^3
#
#
#
# Elastic Constant Matrix: (Units=GPa)
#
#
# Indices 1 2 3 4 5 6 
#
# 1 99.7622 22.1960 31.2228 0.0000 26.1751 0.0000
# 2 22.1960 74.1179 37.4843 0.0000 7.2263 0.0000
# 3 31.2228 37.4843 86.2121 0.0000 17.2842 0.0000
# 4 0.0000 0.0000 0.0000 28.2226 0.0000 2.5800
# 5 26.1751 7.2263 17.2842 0.0000 25.2253 0.0000
# 6 0.0000 0.0000 0.0000 2.5800 0.0000 29.0907
#
#
#
# Elastic Compliance Matrix: (Units=1/GPa)
#
#
# Indices 1 2 3 4 5 6 
#
# 1 0.014522 -0.002232 -0.001618 0.000000 -0.013320 0.000000
# 2 -0.002232 0.017639 -0.007318 0.000000 0.002276 0.000000
# 3 -0.001618 -0.007318 0.016937 0.000000 -0.007829 0.000000
# 4 0.000000 0.000000 0.000000 0.035722 0.000000 -0.003168
# 5 -0.013320 0.002276 -0.007829 0.000000 0.058177 0.000000
# 6 0.000000 0.000000 0.000000 -0.003168 0.000000 0.034656
#
#
# Mechanical properties :
#
#
# Convention : Reuss Voigt Hill
#
# Bulk Modulus (GPa) = 37.36577 49.09982 43.23280
# Shear Modulus (GPa) = 23.93383 27.78698 25.86041
#
# Velocity S-wave (km/s) = 3.61578 3.89598 3.75850
# Velocity P-wave (km/s) = 6.15166 6.85996 6.51545
#
# Compressibility (1/GPa) = 0.02676246
#
# Stress axis : x y z
#
# Youngs Moduli (GPa) = 68.86190 56.69214 59.04348
#
# Poissons Ratio (x) = 0.12651 0.09556
# Poissons Ratio (y) = 0.15367 0.43205
# Poissons Ratio (z) = 0.11145 0.41485
#
# Static dielectric constant tensor:
#      x y z
#    x 3.898080 0.000000 0.026890 
#    y 0.000000 3.423920 0.000000 
#    z 0.026890 0.000000 3.199390 
# 
# 
# High freq. dielectric constant tensor:
#      x y z
#    x 1.719760 0.000000 0.010780 
#    y 0.000000 1.715690 0.000000 
#    z 0.010780 0.000000 1.685900 
# 
# From -- ./inp_files/53234.got.cif
#   From: 2010.06.25/outbox.cif.g09.slc.cpg/sg11_27_cif.got.tgz:53234.got - 2010.06.27 23:14:04.
