data_PCOD8071988
_publ_section_title
;
Structure prediction by ZEFSAII (Michael W. Deem and Ramdas Pophale) SiO2 
 PCOD8071988
Probable space group: P 21/M
;
_chemical_formula_sum "Si O2"
_cell_formula_units_Z 32
_cell_length_a 14.382209
_cell_length_b 9.154830
_cell_length_c 23.402418
_cell_angle_alpha 90.000000
_cell_angle_beta 148.265174
_cell_angle_gamma 90.000000
_cell_volume 1620.738792
_symmetry_space_group_name_H-M "P 21/M"
_symmetry_group_IT_number 11
_symmetry_cell_setting 'monoclinic'
loop_
_space_group_symop_operation_xyz
x,y,z
-x,1/2+y,-z
-x,-y,-z
x,1/2-y,z
loop_
_atom_site_type_symbol
_atom_site_label
_atom_site_fract_x
_atom_site_fract_y
_atom_site_fract_z
Si Si1 0.747341 0.580575 0.505108
Si Si2 0.420598 0.581329 0.405540
Si Si3 0.953283 0.417211 0.256480
Si Si4 0.567885 0.415072 0.090111
Si Si5 0.884708 0.921131 0.987952
Si Si6 0.493007 0.578192 0.814335
Si Si7 0.814643 0.574835 0.414415
Si Si8 0.974586 0.422694 0.817107
O O1 0.796043 0.750000 0.528924
O O2 0.545480 0.550929 0.416764
O O3 0.765707 0.516731 0.451746
O O4 0.885056 0.510979 0.622776
O O5 0.500000 0.500000 0.500000
O O6 0.414416 0.750000 0.418604
O O7 0.227570 0.522678 0.289592
O O8 0.994410 0.250000 0.261299
O O9 0.779803 0.429856 0.204904
O O10 0.922050 0.505356 0.181594
O O11 0.508262 0.250000 0.048521
O O12 0.486583 0.468343 0.108170
O O13 0.500000 0.500000 0.000000
O O14 0.921656 0.750000 0.000721
O O15 0.674705 0.955488 0.874847
O O16 0.946491 0.978138 0.082066
O O17 0.000000 0.000000 0.000000
O O18 0.445336 0.750000 0.785812
O O19 0.335538 0.482748 0.706442
O O20 0.827088 0.750000 0.415764
O O21 0.000000 0.500000 0.500000
O O22 0.994256 0.250000 0.821678
#
# Coordination Sequence:
#
# PCOD8071988 Si02
#       8
#     4   4   4   4   4   4   4   4
#     4   9  19  35  56  81 111 149 189 228 283 345
#     4  10  19  34  56  83 114 149 188 232 286 346
#     4  10  19  34  57  83 111 146 184 226 282 348
#     4  10  21  37  60  85 113 149 190 239 293 349
#     4  10  23  41  61  84 115 156 200 248 298 349
#     4  10  22  42  62  85 120 159 199 247 301 355
#     4  11  23  40  64  90 120 159 199 245 295 352
#     4  10  21  36  57  84 115 150 190 238 289 341
#
# _framework density 19.744081999999999
#
# number of rings (size 3 to 8) (size 9 to 14) (size 15 to 20)
#    0.000    2.000    1.250    1.875    1.750    5.000 
#    0.000    3.750    0.000    0.000    0.000    0.000 
#    0.000    0.000    0.000    0.000    0.000    0.000 
#
# Total GULP energy -396768.194810 kJ/mol
# GULP energy per Si atom -12399.006088 kJ/mol
# Density = 1.969914 g / cm^3
# Si number density = 19.744082 Si / 1000 Ang^3
#
#
#
# Elastic Constant Matrix: (Units=GPa)
#
#
# Indices 1 2 3 4 5 6 
#
# 1 137.4720 44.9685 41.1993 0.0000 -6.3737 0.0000
# 2 44.9685 54.5159 39.7757 0.0000 -3.3461 0.0000
# 3 41.1993 39.7757 102.8523 0.0000 -3.6081 0.0000
# 4 0.0000 0.0000 0.0000 31.7338 0.0000 -1.6093
# 5 -6.3737 -3.3461 -3.6081 0.0000 37.9105 0.0000
# 6 0.0000 0.0000 0.0000 -1.6093 0.0000 32.7031
#
#
#
# Elastic Compliance Matrix: (Units=1/GPa)
#
#
# Indices 1 2 3 4 5 6 
#
# 1 0.010090 -0.007440 -0.001132 0.000000 0.000932 0.000000
# 2 -0.007440 0.031106 -0.009027 0.000000 0.000635 0.000000
# 3 -0.001132 -0.009027 0.013678 0.000000 0.000315 0.000000
# 4 0.000000 0.000000 0.000000 0.031591 0.000000 0.001555
# 5 0.000932 0.000635 0.000315 0.000000 0.026621 0.000000
# 6 0.000000 0.000000 0.000000 0.001555 0.000000 0.030655
#
#
# Mechanical properties :
#
#
# Convention : Reuss Voigt Hill
#
# Bulk Modulus (GPa) = 50.82260 60.74748 55.78504
# Shear Modulus (GPa) = 26.95468 31.72927 29.34198
#
# Velocity S-wave (km/s) = 3.69887 4.01312 3.85920
# Velocity P-wave (km/s) = 6.63617 7.23241 6.94070
#
# Compressibility (1/GPa) = 0.01967629
#
# Stress axis : x y z
#
# Youngs Moduli (GPa) = 99.10395 32.14862 73.11027
#
# Poissons Ratio (x) = 0.23919 0.08275
# Poissons Ratio (y) = 0.73736 0.65995
# Poissons Ratio (z) = 0.11217 0.29020
#
# Static dielectric constant tensor:
#      x y z
#    x 3.650110 0.000000 0.014020 
#    y 0.000000 3.388690 0.000000 
#    z 0.014020 0.000000 3.629180 
# 
# 
# High freq. dielectric constant tensor:
#      x y z
#    x 1.783450 0.000000 0.007280 
#    y 0.000000 1.745080 0.000000 
#    z 0.007280 0.000000 1.779780 
# 
# From -- ./inp_files/69065.got.cif
#   From: 2010.06.25/outbox.cif.g09.slc.cpg/sg11_35_cif.got.tgz:69065.got - 2010.06.27 23:14:04.
