data_PCOD8071267
_publ_section_title
;
Structure prediction by ZEFSAII (Michael W. Deem and Ramdas Pophale) SiO2 
 PCOD8071267
Probable space group: P 21/M
;
_chemical_formula_sum "Si O2"
_cell_formula_units_Z 32
_cell_length_a 26.941029
_cell_length_b 8.950440
_cell_length_c 21.114737
_cell_angle_alpha 90.000000
_cell_angle_beta 19.236668
_cell_angle_gamma 90.000000
_cell_volume 1677.495567
_symmetry_space_group_name_H-M "P 21/M"
_symmetry_group_IT_number 11
_symmetry_cell_setting 'monoclinic'
loop_
_space_group_symop_operation_xyz
x,y,z
-x,1/2+y,-z
-x,-y,-z
x,1/2-y,z
loop_
_atom_site_type_symbol
_atom_site_label
_atom_site_fract_x
_atom_site_fract_y
_atom_site_fract_z
Si Si1 0.946711 0.923068 0.854226
Si Si2 0.351525 0.572662 0.207001
Si Si3 0.266621 0.577323 0.797359
Si Si4 0.210658 0.421410 0.085510
Si Si5 0.043683 0.573753 0.512854
Si Si6 0.517489 0.924253 0.710795
Si Si7 0.257285 0.074454 0.449246
Si Si8 0.571297 0.923079 0.505640
O O1 0.992708 0.750000 0.806507
O O2 0.825648 0.944813 0.944405
O O3 0.090126 0.020512 0.664103
O O4 0.874276 0.984216 0.006092
O O5 0.369264 0.750000 0.188004
O O6 0.210710 0.524591 0.332833
O O7 0.328409 0.513647 0.305371
O O8 0.500000 0.500000 0.000000
O O9 0.220826 0.750000 0.848623
O O10 0.303945 0.517849 0.682314
O O11 0.407835 0.550523 0.672849
O O12 0.238275 0.250000 0.068603
O O13 0.072430 0.483517 0.293859
O O14 0.361557 0.506719 0.922320
O O15 0.035261 0.750000 0.515097
O O16 0.000000 0.500000 0.500000
O O17 0.488122 0.750000 0.740285
O O18 0.645525 0.965362 0.606290
O O19 0.568638 0.985250 0.580486
O O20 0.258026 0.250000 0.433405
O O21 0.618012 0.750000 0.445878
#
# Coordination Sequence:
#
# PCOD8071267 Si02
#       8
#     4   4   4   4   4   4   4   4
#     4  11  21  38  61  86 117 156 198 243 292 345
#     4  11  24  44  64  87 121 158 198 240 290 351
#     4  10  19  32  56  87 117 152 195 242 294 350
#     4  10  21  38  60  86 116 151 195 243 291 345
#     4  10  23  42  61  88 120 152 193 243 291 344
#     4  10  22  39  59  87 120 154 194 243 294 347
#     4  11  24  41  62  88 119 156 198 241 291 350
#     4   9  18  34  54  82 119 154 190 240 297 348
#
# _framework density 19.076056999999999
#
# number of rings (size 3 to 8) (size 9 to 14) (size 15 to 20)
#    0.000    1.750    2.500    1.500    1.750    4.000 
#    0.000    0.625    0.000    0.000    0.000    0.000 
#    0.000    0.000    0.000    0.000    0.000    0.000 
#
# Total GULP energy -396923.672213 kJ/mol
# GULP energy per Si atom -12403.864757 kJ/mol
# Density = 1.903264 g / cm^3
# Si number density = 19.076057 Si / 1000 Ang^3
#
#
#
# Elastic Constant Matrix: (Units=GPa)
#
#
# Indices 1 2 3 4 5 6 
#
# 1 98.9322 43.8792 35.8402 0.0000 19.5888 0.0000
# 2 43.8792 59.9005 38.4506 0.0000 4.1273 0.0000
# 3 35.8402 38.4506 92.2449 0.0000 32.3847 0.0000
# 4 0.0000 0.0000 0.0000 39.4695 0.0000 3.5754
# 5 19.5888 4.1273 32.3847 0.0000 23.7133 0.0000
# 6 0.0000 0.0000 0.0000 3.5754 0.0000 30.2885
#
#
#
# Elastic Compliance Matrix: (Units=1/GPa)
#
#
# Indices 1 2 3 4 5 6 
#
# 1 0.020367 -0.018982 0.009117 0.000000 -0.025971 0.000000
# 2 -0.018982 0.044897 -0.027088 0.000000 0.044860 0.000000
# 3 0.009117 -0.027088 0.037612 0.000000 -0.054182 0.000000
# 4 0.000000 0.000000 0.000000 0.025610 0.000000 -0.003023
# 5 -0.025971 0.044860 -0.054182 0.000000 0.129812 0.000000
# 6 0.000000 0.000000 0.000000 -0.003023 0.000000 0.033373
#
#
# Mechanical properties :
#
#
# Convention : Reuss Voigt Hill
#
# Bulk Modulus (GPa) = 34.52101 54.15753 44.33927
# Shear Modulus (GPa) = 13.32510 27.55475 20.43992
#
# Velocity S-wave (km/s) = 2.64583 3.80474 3.27692
# Velocity P-wave (km/s) = 5.24115 6.91038 6.13282
#
# Compressibility (1/GPa) = 0.02896787
#
# Stress axis : x y z
#
# Youngs Moduli (GPa) = 49.10020 22.27336 26.58760
#
# Poissons Ratio (x) = 0.42279 -0.24240
# Poissons Ratio (y) = 0.93202 0.72022
# Poissons Ratio (z) = -0.44765 0.60335
#
# Static dielectric constant tensor:
#      x y z
#    x 3.413970 0.000000 -0.075410 
#    y 0.000000 3.483300 0.000000 
#    z -0.075410 0.000000 3.163480 
# 
# 
# High freq. dielectric constant tensor:
#      x y z
#    x 1.737450 0.000000 0.012550 
#    y 0.000000 1.743860 0.000000 
#    z 0.012550 0.000000 1.749400 
# 
# From -- ./inp_files/66921.got.cif
#   From: 2010.06.25/outbox.cif.g09.slc.cpg/sg11_34_cif.got.tgz:66921.got - 2010.06.27 23:14:04.
