data_PCOD8071590
_publ_section_title
;
Structure prediction by ZEFSAII (Michael W. Deem and Ramdas Pophale) SiO2 
 PCOD8071590
Probable space group: P 21/M
;
_chemical_formula_sum "Si O2"
_cell_formula_units_Z 32
_cell_length_a 21.242054
_cell_length_b 9.089301
_cell_length_c 27.910117
_cell_angle_alpha 90.000000
_cell_angle_beta 161.346181
_cell_angle_gamma 90.000000
_cell_volume 1723.591032
_symmetry_space_group_name_H-M "P 21/M"
_symmetry_group_IT_number 11
_symmetry_cell_setting 'monoclinic'
loop_
_space_group_symop_operation_xyz
x,y,z
-x,1/2+y,-z
-x,-y,-z
x,1/2-y,z
loop_
_atom_site_type_symbol
_atom_site_label
_atom_site_fract_x
_atom_site_fract_y
_atom_site_fract_z
Si Si1 0.595521 0.576431 0.920524
Si Si2 0.842530 0.422947 0.919699
Si Si3 0.153946 0.577251 0.577044
Si Si4 0.916364 0.079483 0.581397
Si Si5 0.108813 0.921504 0.935340
Si Si6 0.803351 0.912897 0.641077
Si Si7 0.169581 0.914543 0.834262
Si Si8 0.558162 0.079719 0.393765
O O1 0.627803 0.750000 0.946706
O O2 0.371367 0.531767 0.749826
O O3 0.721807 0.516804 0.967194
O O4 0.655876 0.505579 0.014839
O O5 0.845002 0.250000 0.911849
O O6 0.628246 0.483721 0.753953
O O7 0.899695 0.461403 0.015229
O O8 0.000000 0.500000 0.000000
O O9 0.122479 0.750000 0.558134
O O10 0.120633 0.522795 0.498820
O O11 0.000000 0.500000 0.500000
O O12 0.972049 0.250000 0.623471
O O13 0.718578 0.049530 0.468640
O O14 0.102409 0.991159 0.736560
O O15 0.157814 0.750000 0.961591
O O16 0.892800 0.959398 0.757280
O O17 0.707610 0.750000 0.574239
O O18 0.987204 0.911483 0.738293
O O19 0.641298 0.028379 0.505588
O O20 0.244303 0.750000 0.876689
O O21 0.499123 0.250000 0.354931
#
# Coordination Sequence:
#
# PCOD8071590 Si02
#       8
#     4   4   4   4   4   4   4   4
#     4  10  19  33  55  81 107 135 170 213 261 311
#     4  11  23  38  54  75 106 141 176 215 258 305
#     4  10  22  37  52  74 105 140 177 217 261 310
#     4   9  18  34  55  79 106 135 171 217 263 307
#     4   9  19  35  56  81 106 134 172 216 259 306
#     4   8  15  30  51  77 106 131 162 209 258 302
#     4   9  17  30  51  80 108 134 169 212 258 308
#     4  10  19  33  55  81 106 134 170 211 258 311
#
# _framework density 18.565888999999999
#
# number of rings (size 3 to 8) (size 9 to 14) (size 15 to 20)
#    0.000    2.500    0.000    3.000    0.000    7.000 
#    0.000    1.250    0.000    0.000    0.000    0.000 
#    0.000    0.000    0.000    0.000    0.000    0.000 
#
# Total GULP energy -396800.266483 kJ/mol
# GULP energy per Si atom -12400.008328 kJ/mol
# Density = 1.852363 g / cm^3
# Si number density = 18.565889 Si / 1000 Ang^3
#
#
#
# Elastic Constant Matrix: (Units=GPa)
#
#
# Indices 1 2 3 4 5 6 
#
# 1 87.0907 58.8109 87.8722 0.0000 -14.3911 0.0000
# 2 58.8109 100.1607 74.4710 0.0000 -12.4094 0.0000
# 3 87.8722 74.4710 129.6347 0.0000 -44.7904 0.0000
# 4 0.0000 0.0000 0.0000 33.7900 0.0000 -0.1621
# 5 -14.3911 -12.4094 -44.7904 0.0000 20.6580 0.0000
# 6 0.0000 0.0000 0.0000 -0.1621 0.0000 25.9884
#
#
#
# Elastic Compliance Matrix: (Units=1/GPa)
#
#
# Indices 1 2 3 4 5 6 
#
# 1 -0.014715 -0.020810 0.056079 0.000000 0.098838 0.000000
# 2 -0.020810 0.013792 0.016090 0.000000 0.028674 0.000000
# 3 0.056079 0.016090 -0.090505 0.000000 -0.147501 0.000000
# 4 0.000000 0.000000 0.000000 0.029595 0.000000 0.000185
# 5 0.098838 0.028674 -0.147501 0.000000 -0.185324 0.000000
# 6 0.000000 0.000000 0.000000 0.000185 0.000000 0.038480
#
#
# Mechanical properties :
#
#
# Convention : Reuss Voigt Hill
#
# Bulk Modulus (GPa) = 88.57570 84.35493 86.46531
# Shear Modulus (GPa) = -16.25322 22.46941 3.10809
#
# Velocity S-wave (km/s) = -2.96198 3.48264 1.29527
# Velocity P-wave (km/s) = 6.00954 7.85530 6.99358
#
# Compressibility (1/GPa) = 0.01128978
#
# Stress axis : x y z
#
# Youngs Moduli (GPa) = -67.95805 72.50481 -11.04908
#
# Poissons Ratio (x) = 1.50881 0.61962
# Poissons Ratio (y) = -1.41419 0.17778
# Poissons Ratio (z) = 3.81100 -1.16660
#
# Static dielectric constant tensor:
#      x y z
#    x 3.296100 0.000000 -0.362270 
#    y 0.000000 3.507740 0.000000 
#    z -0.362270 0.000000 3.604150 
# 
# 
# High freq. dielectric constant tensor:
#      x y z
#    x 1.697590 0.000000 -0.025880 
#    y 0.000000 1.726460 0.000000 
#    z -0.025880 0.000000 1.727020 
# 
# From -- ./inp_files/72183.got.cif
#   From: 2010.06.25/outbox.cif.g09.slc.cpg/sg11_37_cif.got.tgz:72183.got - 2010.06.27 23:14:04.
