data_PCOD8071007
_publ_section_title
;
Structure prediction by ZEFSAII (Michael W. Deem and Ramdas Pophale) SiO2 
 PCOD8071007
Probable space group: P 21/M
;
_chemical_formula_sum "Si O2"
_cell_formula_units_Z 32
_cell_length_a 32.755840
_cell_length_b 8.812807
_cell_length_c 12.713687
_cell_angle_alpha 90.000000
_cell_angle_beta 26.449534
_cell_angle_gamma 90.000000
_cell_volume 1634.684249
_symmetry_space_group_name_H-M "P 21/M"
_symmetry_group_IT_number 11
_symmetry_cell_setting 'monoclinic'
loop_
_space_group_symop_operation_xyz
x,y,z
-x,1/2+y,-z
-x,-y,-z
x,1/2-y,z
loop_
_atom_site_type_symbol
_atom_site_label
_atom_site_fract_x
_atom_site_fract_y
_atom_site_fract_z
Si Si1 0.657025 0.576432 0.734223
Si Si2 0.864630 0.925031 0.321388
Si Si3 0.380487 0.570274 0.603510
Si Si4 0.907956 0.428704 0.438881
Si Si5 0.572375 0.070271 0.123354
Si Si6 0.711050 0.427827 0.401550
Si Si7 0.087973 0.928488 0.999790
Si Si8 0.283886 0.929842 0.037007
O O1 0.626466 0.750000 0.798422
O O2 0.757343 0.554927 0.549727
O O3 0.652572 0.508477 0.627476
O O4 0.586108 0.491124 0.973702
O O5 0.891208 0.750000 0.280458
O O6 0.891423 0.029020 0.356467
O O7 0.919454 0.987376 0.094827
O O8 0.395581 0.750000 0.571332
O O9 0.477376 0.488861 0.388616
O O10 0.327710 0.518230 0.620503
O O11 0.320288 0.512958 0.840749
O O12 0.921471 0.250000 0.419299
O O13 0.820500 0.487408 0.707608
O O14 0.999927 0.512682 0.269193
O O15 0.571345 0.250000 0.122324
O O16 0.652045 0.007285 0.016712
O O17 0.699662 0.250000 0.445249
O O18 0.818288 0.474543 0.157500
O O19 0.082405 0.750000 0.994699
O O20 0.285675 0.750000 0.038279
#
# Coordination Sequence:
#
# PCOD8071007 Si02
#       8
#     4   4   4   4   4   4   4   4
#     4  10  20  34  56  84 114 146 181 225 273 325
#     4  10  19  32  51  79 111 144 179 221 270 323
#     4  10  21  40  61  81 105 144 191 230 273 325
#     4  11  20  33  53  79 110 146 180 219 270 326
#     4  11  21  36  58  86 115 143 178 224 280 333
#     4   9  20  38  59  79 109 148 186 228 273 322
#     4  10  20  34  52  78 109 144 182 223 269 322
#     4   9  20  37  58  82 112 145 181 225 275 329
#
# _framework density 19.575645999999999
#
# number of rings (size 3 to 8) (size 9 to 14) (size 15 to 20)
#    0.000    2.000    1.250    2.625    0.000    2.500 
#    0.000    2.500    0.000    0.000    0.000    0.000 
#    0.000    0.000    0.000    0.000    0.000    0.000 
#
# Total GULP energy -396858.638232 kJ/mol
# GULP energy per Si atom -12401.832445 kJ/mol
# Density = 1.953109 g / cm^3
# Si number density = 19.575646 Si / 1000 Ang^3
#
#
#
# Elastic Constant Matrix: (Units=GPa)
#
#
# Indices 1 2 3 4 5 6 
#
# 1 78.5808 16.5177 38.7068 0.0000 17.1079 0.0000
# 2 16.5177 47.1917 27.4028 0.0000 4.8333 0.0000
# 3 38.7068 27.4028 139.3495 0.0000 13.3371 0.0000
# 4 0.0000 0.0000 0.0000 33.2357 0.0000 -3.8975
# 5 17.1079 4.8333 13.3371 0.0000 17.1896 0.0000
# 6 0.0000 0.0000 0.0000 -3.8975 0.0000 17.8846
#
#
#
# Elastic Compliance Matrix: (Units=1/GPa)
#
#
# Indices 1 2 3 4 5 6 
#
# 1 0.018069 -0.003067 -0.003000 0.000000 -0.014793 0.000000
# 2 -0.003067 0.024619 -0.003909 0.000000 -0.000836 0.000000
# 3 -0.003000 -0.003909 0.009060 0.000000 -0.002945 0.000000
# 4 0.000000 0.000000 0.000000 0.030877 0.000000 0.006729
# 5 -0.014793 -0.000836 -0.002945 0.000000 0.075417 0.000000
# 6 0.000000 0.000000 0.000000 0.006729 0.000000 0.057380
#
#
# Mechanical properties :
#
#
# Convention : Reuss Voigt Hill
#
# Bulk Modulus (GPa) = 31.45120 47.81959 39.63540
# Shear Modulus (GPa) = 20.32729 25.82829 23.07779
#
# Velocity S-wave (km/s) = 3.22591 3.63631 3.43724
# Velocity P-wave (km/s) = 5.47510 6.48933 6.00367
#
# Compressibility (1/GPa) = 0.03179529
#
# Stress axis : x y z
#
# Youngs Moduli (GPa) = 55.34409 40.61829 110.37440
#
# Poissons Ratio (x) = 0.12459 0.33111
# Poissons Ratio (y) = 0.16976 0.43149
# Poissons Ratio (z) = 0.16603 0.15879
#
# Static dielectric constant tensor:
#      x y z
#    x 3.513240 0.000000 -0.084430 
#    y 0.000000 3.431480 0.000000 
#    z -0.084430 0.000000 3.885500 
# 
# 
# High freq. dielectric constant tensor:
#      x y z
#    x 1.744780 0.000000 -0.008040 
#    y 0.000000 1.753630 0.000000 
#    z -0.008040 0.000000 1.775750 
# 
# From -- ./inp_files/45202.got.cif
#   From: 2010.06.25/outbox.cif.g09.slc.cpg/sg11_23_cif.got.tgz:45202.got - 2010.06.27 23:14:04.
