data_PCOD8071969
_publ_section_title
;
Structure prediction by ZEFSAII (Michael W. Deem and Ramdas Pophale) SiO2 
 PCOD8071969
Probable space group: P 21/M
;
_chemical_formula_sum "Si O2"
_cell_formula_units_Z 32
_cell_length_a 14.480125
_cell_length_b 8.630175
_cell_length_c 12.561266
_cell_angle_alpha 90.000000
_cell_angle_beta 90.918567
_cell_angle_gamma 90.000000
_cell_volume 1569.529601
_symmetry_space_group_name_H-M "P 21/M"
_symmetry_group_IT_number 11
_symmetry_cell_setting 'monoclinic'
loop_
_space_group_symop_operation_xyz
x,y,z
-x,1/2+y,-z
-x,-y,-z
x,1/2-y,z
loop_
_atom_site_type_symbol
_atom_site_label
_atom_site_fract_x
_atom_site_fract_y
_atom_site_fract_z
Si Si1 0.772146 0.068412 0.678121
Si Si2 0.970937 0.067365 0.612772
Si Si3 0.276595 0.077120 0.528468
Si Si4 0.484272 0.931549 0.826493
Si Si5 0.473759 0.423640 0.609004
Si Si6 0.843721 0.932459 0.288638
Si Si7 0.327718 0.566498 0.112750
Si Si8 0.291049 0.066387 0.895348
O O1 0.779407 0.250000 0.692020
O O2 0.873966 0.998108 0.654377
O O3 0.728119 0.000839 0.785779
O O4 0.706597 0.026097 0.576727
O O5 0.962992 0.250000 0.597434
O O6 0.047431 0.026486 0.705582
O O7 0.000000 0.000000 0.500000
O O8 0.251423 0.250000 0.488492
O O9 0.363430 0.082096 0.608864
O O10 0.196794 0.001734 0.600366
O O11 0.468318 0.750000 0.843614
O O12 0.510664 0.970159 0.705045
O O13 0.571173 0.988872 0.897307
O O14 0.392232 0.023197 0.854848
O O15 0.500000 0.500000 0.500000
O O16 0.515403 0.250000 0.621278
O O17 0.825335 0.750000 0.289578
O O18 0.789576 0.998800 0.184907
O O19 0.340507 0.750000 0.118478
O O20 0.270972 0.516804 0.007298
O O21 0.284994 0.250000 0.909604
#
# Coordination Sequence:
#
# PCOD8071969 Si02
#       8
#     4   4   4   4   4   4   4   4
#     4  10  22  37  57  86 120 153 190 239 292 342
#     4  10  19  35  59  88 117 151 189 231 286 346
#     4  10  19  34  56  81 113 152 188 229 284 346
#     4  12  24  39  60  87 115 153 199 243 292 350
#     4  11  22  36  53  80 118 157 197 240 290 348
#     4   9  18  35  59  85 114 148 185 232 288 343
#     4  11  24  42  59  82 118 157 196 244 294 343
#     4  11  22  41  64  86 114 153 200 244 289 345
#
# _framework density 20.388275
#
# number of rings (size 3 to 8) (size 9 to 14) (size 15 to 20)
#    0.000    1.500    2.500    3.375    0.000    4.000 
#    0.000    1.875    0.000    0.000    0.000    0.000 
#    0.000    0.000    0.000    0.000    0.000    0.000 
#
# Total GULP energy -396746.615833 kJ/mol
# GULP energy per Si atom -12398.331745 kJ/mol
# Density = 2.034187 g / cm^3
# Si number density = 20.388275 Si / 1000 Ang^3
#
#
#
# Elastic Constant Matrix: (Units=GPa)
#
#
# Indices 1 2 3 4 5 6 
#
# 1 81.5201 16.1813 30.2900 0.0000 10.9939 0.0000
# 2 16.1813 45.6889 13.8296 0.0000 0.5754 0.0000
# 3 30.2900 13.8296 122.6891 0.0000 11.8208 0.0000
# 4 0.0000 0.0000 0.0000 33.5648 0.0000 1.3515
# 5 10.9939 0.5754 11.8208 0.0000 29.3877 0.0000
# 6 0.0000 0.0000 0.0000 1.3515 0.0000 20.0297
#
#
#
# Elastic Compliance Matrix: (Units=1/GPa)
#
#
# Indices 1 2 3 4 5 6 
#
# 1 0.014725 -0.004334 -0.002730 0.000000 -0.004326 0.000000
# 2 -0.004334 0.023946 -0.001810 0.000000 0.001881 0.000000
# 3 -0.002730 -0.001810 0.009287 0.000000 -0.002679 0.000000
# 4 0.000000 0.000000 0.000000 0.029874 0.000000 -0.002016
# 5 -0.004326 0.001881 -0.002679 0.000000 0.036687 0.000000
# 6 0.000000 0.000000 0.000000 -0.002016 0.000000 0.050062
#
#
# Mechanical properties :
#
#
# Convention : Reuss Voigt Hill
#
# Bulk Modulus (GPa) = 33.10277 41.16666 37.13471
# Shear Modulus (GPa) = 25.98749 29.23624 27.61187
#
# Velocity S-wave (km/s) = 3.57407 3.79089 3.68408
# Velocity P-wave (km/s) = 5.77091 6.27665 6.02908
#
# Compressibility (1/GPa) = 0.03020895
#
# Stress axis : x y z
#
# Youngs Moduli (GPa) = 67.91181 41.75983 107.67915
#
# Poissons Ratio (x) = 0.18100 0.29397
# Poissons Ratio (y) = 0.29434 0.19494
# Poissons Ratio (z) = 0.18540 0.07560
#
# Static dielectric constant tensor:
#      x y z
#    x 4.080380 0.000000 0.118810 
#    y 0.000000 3.497060 0.000000 
#    z 0.118810 0.000000 3.827720 
# 
# 
# High freq. dielectric constant tensor:
#      x y z
#    x 1.796510 0.000000 0.007420 
#    y 0.000000 1.777840 0.000000 
#    z 0.007420 0.000000 1.799370 
# 
# From -- ./inp_files/38147.got.cif
#   From: 2010.06.25/outbox.cif.g09.slc.cpg/sg11_20_cif.got.tgz:38147.got - 2010.06.27 23:14:04.
