data_PCOD8071836
_publ_section_title
;
Structure prediction by ZEFSAII (Michael W. Deem and Ramdas Pophale) SiO2 
 PCOD8071836
Probable space group: P 21/M
;
_chemical_formula_sum "Si O2"
_cell_formula_units_Z 28
_cell_length_a 32.308090
_cell_length_b 8.515327
_cell_length_c 31.464893
_cell_angle_alpha 90.000000
_cell_angle_beta 170.808836
_cell_angle_gamma 90.000000
_cell_volume 1382.682660
_symmetry_space_group_name_H-M "P 21/M"
_symmetry_group_IT_number 11
_symmetry_cell_setting 'monoclinic'
loop_
_space_group_symop_operation_xyz
x,y,z
-x,1/2+y,-z
-x,-y,-z
x,1/2-y,z
loop_
_atom_site_type_symbol
_atom_site_label
_atom_site_fract_x
_atom_site_fract_y
_atom_site_fract_z
Si Si1 0.238337 0.436275 0.715136
Si Si2 0.623939 0.936477 0.860097
Si Si3 0.011306 0.063720 0.920177
Si Si4 0.531942 0.564041 0.485399
Si Si5 0.191653 0.063600 0.571934
Si Si6 0.900360 0.063595 0.712837
Si Si7 0.333048 0.936447 0.002234
O O1 0.238970 0.250000 0.716916
O O2 0.213954 0.500704 0.642408
O O3 0.000000 0.500000 0.500000
O O4 0.500000 0.500000 0.000000
O O5 0.622724 0.750000 0.858824
O O6 0.365396 0.003783 0.575913
O O7 0.639505 0.995710 0.923410
O O8 0.865475 0.003646 0.078233
O O9 0.042747 0.250000 0.954582
O O10 0.287648 0.986307 0.209721
O O11 0.928520 0.004809 0.789601
O O12 0.795816 0.008249 0.734769
O O13 0.500000 0.500000 0.500000
O O14 0.558241 0.750000 0.512740
O O15 0.191023 0.250000 0.571712
O O16 0.431734 0.998957 0.787932
O O17 0.929580 0.998497 0.285097
O O18 0.901145 0.250000 0.712482
O O19 0.333864 0.750000 0.005436
#
# Coordination Sequence:
#
# PCOD8071836 Si02
#       7
#     4   4   4   4   4   4   4
#     4  11  22  39  61  86 115 152 193 240 292 350
#     4  10  19  34  54  80 110 143 180 227 281 334
#     4  11  22  41  66  90 116 157 204 243 285 348
#     4  12  25  42  62  90 124 158 195 244 298 349
#     4   9  19  35  55  75 105 146 185 222 277 344
#     4   9  19  35  57  80 109 147 186 224 278 345
#     4  10  19  34  54  77 103 141 186 226 269 332
#
# _framework density 20.250489999999999
#
# number of rings (size 3 to 8) (size 9 to 14) (size 15 to 20)
#    0.000    1.714    0.000    5.143    0.000    4.571 
#    0.000    8.571    0.000    0.000    0.000    0.000 
#    0.000    0.000    0.000    0.000    0.000    0.000 
#
# Total GULP energy -347317.639747 kJ/mol
# GULP energy per Si atom -12404.201420 kJ/mol
# Density = 2.020440 g / cm^3
# Si number density = 20.250490 Si / 1000 Ang^3
#
#
#
# Elastic Constant Matrix: (Units=GPa)
#
#
# Indices 1 2 3 4 5 6 
#
# 1 153.5129 2.7526 51.4468 0.0000 1.0072 0.0000
# 2 2.7526 156.7992 14.9160 0.0000 -7.4151 0.0000
# 3 51.4468 14.9160 154.0367 0.0000 -0.0036 0.0000
# 4 0.0000 0.0000 0.0000 23.9242 0.0000 -1.9385
# 5 1.0072 -7.4151 -0.0036 0.0000 51.0051 0.0000
# 6 0.0000 0.0000 0.0000 -1.9385 0.0000 30.3716
#
#
#
# Elastic Compliance Matrix: (Units=1/GPa)
#
#
# Indices 1 2 3 4 5 6 
#
# 1 0.007338 0.000099 -0.002460 0.000000 -0.000131 0.000000
# 2 0.000099 0.006483 -0.000661 0.000000 0.000941 0.000000
# 3 -0.002460 -0.000661 0.007378 0.000000 -0.000047 0.000000
# 4 0.000000 0.000000 0.000000 0.042016 0.000000 0.002682
# 5 -0.000131 0.000941 -0.000047 0.000000 0.019745 0.000000
# 6 0.000000 0.000000 0.000000 0.002682 0.000000 0.033097
#
#
# Mechanical properties :
#
#
# Convention : Reuss Voigt Hill
#
# Bulk Modulus (GPa) = 65.98772 66.95329 66.47050
# Shear Modulus (GPa) = 39.32302 47.40910 43.36606
#
# Velocity S-wave (km/s) = 4.41140 4.84377 4.63264
# Velocity P-wave (km/s) = 7.65531 8.02603 7.84286
#
# Compressibility (1/GPa) = 0.01515434
#
# Stress axis : x y z
#
# Youngs Moduli (GPa) = 136.28211 154.24511 135.54399
#
# Poissons Ratio (x) = -0.01528 0.33348
# Poissons Ratio (y) = -0.01350 0.08958
# Poissons Ratio (z) = 0.33530 0.10193
#
# Static dielectric constant tensor:
#      x y z
#    x 3.925980 0.000000 0.010200 
#    y 0.000000 3.404030 0.000000 
#    z 0.010200 0.000000 4.114900 
# 
# 
# High freq. dielectric constant tensor:
#      x y z
#    x 1.811860 0.000000 0.000090 
#    y 0.000000 1.765330 0.000000 
#    z 0.000090 0.000000 1.814310 
# 
# From -- ./inp_files/73837.got.cif
#   From: 2010.06.25/outbox.cif.g09.slc.cpg/sg11_37_cif.got.tgz:73837.got - 2010.06.27 23:14:04.
