data_PCOD8071756
_publ_section_title
;
Structure prediction by ZEFSAII (Michael W. Deem and Ramdas Pophale) SiO2 
 PCOD8071756
Probable space group: P 21/M
;
_chemical_formula_sum "Si O2"
_cell_formula_units_Z 32
_cell_length_a 12.155893
_cell_length_b 8.762921
_cell_length_c 28.914325
_cell_angle_alpha 90.000000
_cell_angle_beta 145.986345
_cell_angle_gamma 90.000000
_cell_volume 1722.915130
_symmetry_space_group_name_H-M "P 21/M"
_symmetry_group_IT_number 11
_symmetry_cell_setting 'monoclinic'
loop_
_space_group_symop_operation_xyz
x,y,z
-x,1/2+y,-z
-x,-y,-z
x,1/2-y,z
loop_
_atom_site_type_symbol
_atom_site_label
_atom_site_fract_x
_atom_site_fract_y
_atom_site_fract_z
Si Si1 0.657819 0.572950 0.521022
Si Si2 0.451142 0.424822 0.798374
Si Si3 0.920854 0.072785 0.287406
Si Si4 0.060657 0.070723 0.239358
Si Si5 0.500533 0.431343 0.378271
Si Si6 0.425588 0.573569 0.259861
Si Si7 0.170031 0.429036 0.028143
Si Si8 0.995173 0.929686 0.881757
O O1 0.500000 0.500000 0.500000
O O2 0.607714 0.750000 0.498597
O O3 0.652535 0.493231 0.469073
O O4 0.873606 0.546212 0.615827
O O5 0.496380 0.250000 0.826998
O O6 0.239741 0.471610 0.743369
O O7 0.445997 0.447677 0.741446
O O8 0.616213 0.529103 0.879032
O O9 0.858360 0.250000 0.266804
O O10 0.939426 0.009244 0.241096
O O11 0.080768 0.250000 0.252340
O O12 0.953475 0.028115 0.153740
O O13 0.283379 0.007804 0.316591
O O14 0.513501 0.250000 0.379629
O O15 0.550998 0.501904 0.345668
O O16 0.377766 0.750000 0.253066
O O17 0.223175 0.483572 0.181796
O O18 0.141196 0.250000 0.019005
O O19 0.152070 0.487730 0.969205
O O20 0.000000 0.500000 0.000000
O O21 0.005475 0.750000 0.893790
#
# Coordination Sequence:
#
# PCOD8071756 Si02
#       8
#     4   4   4   4   4   4   4   4
#     4  11  21  35  58  87 118 151 193 241 288 342
#     4  11  24  40  58  84 117 151 192 239 287 344
#     4  10  21  39  59  82 116 155 192 231 285 348
#     4   8  16  33  55  82 114 148 185 231 283 336
#     4  10  19  34  57  85 116 147 189 240 289 341
#     4  10  20  35  55  82 116 149 188 237 288 342
#     4  12  23  37  59  86 116 150 192 239 285 339
#     4  10  19  33  58  87 116 148 187 237 288 338
#
# _framework density 18.573173000000001
#
# number of rings (size 3 to 8) (size 9 to 14) (size 15 to 20)
#    0.000    1.750    2.500    3.750    0.000    2.500 
#    0.000    2.500    0.000    0.000    0.000    0.000 
#    0.000    0.000    0.000    0.000    0.000    0.000 
#
# Total GULP energy -396836.833213 kJ/mol
# GULP energy per Si atom -12401.151038 kJ/mol
# Density = 1.853090 g / cm^3
# Si number density = 18.573173 Si / 1000 Ang^3
#
#
#
# Elastic Constant Matrix: (Units=GPa)
#
#
# Indices 1 2 3 4 5 6 
#
# 1 130.6586 54.8798 56.4741 0.0000 -18.0209 0.0000
# 2 54.8798 112.2563 48.5780 0.0000 -12.7856 0.0000
# 3 56.4741 48.5780 82.6489 0.0000 -20.7502 0.0000
# 4 0.0000 0.0000 0.0000 32.2761 0.0000 -3.8589
# 5 -18.0209 -12.7856 -20.7502 0.0000 34.1926 0.0000
# 6 0.0000 0.0000 0.0000 -3.8589 0.0000 29.5563
#
#
#
# Elastic Compliance Matrix: (Units=1/GPa)
#
#
# Indices 1 2 3 4 5 6 
#
# 1 0.011630 -0.003003 -0.005810 0.000000 0.001481 0.000000
# 2 -0.003003 0.012724 -0.005462 0.000000 -0.000139 0.000000
# 3 -0.005810 -0.005462 0.021233 0.000000 0.007781 0.000000
# 4 0.000000 0.000000 0.000000 0.031474 0.000000 0.004109
# 5 0.001481 -0.000139 0.007781 0.000000 0.034696 0.000000
# 6 0.000000 0.000000 0.000000 0.004109 0.000000 0.034370
#
#
# Mechanical properties :
#
#
# Convention : Reuss Voigt Hill
#
# Bulk Modulus (GPa) = 58.69318 71.71419 65.20369
# Shear Modulus (GPa) = 27.72270 30.24712 28.98491
#
# Velocity S-wave (km/s) = 3.86764 4.03989 3.95470
# Velocity P-wave (km/s) = 7.18432 7.77538 7.48569
#
# Compressibility (1/GPa) = 0.01703775
#
# Stress axis : x y z
#
# Youngs Moduli (GPa) = 85.98137 78.59237 47.09567
#
# Poissons Ratio (x) = 0.23600 0.27364
# Poissons Ratio (y) = 0.25819 0.25723
# Poissons Ratio (z) = 0.49958 0.42925
#
# Static dielectric constant tensor:
#      x y z
#    x 3.565600 0.000000 -0.273940 
#    y 0.000000 3.446900 0.000000 
#    z -0.273940 0.000000 3.466330 
# 
# 
# High freq. dielectric constant tensor:
#      x y z
#    x 1.718720 0.000000 -0.028240 
#    y 0.000000 1.724990 0.000000 
#    z -0.028240 0.000000 1.708720 
# 
# From -- ./inp_files/73148.got.cif
#   From: 2010.06.25/outbox.cif.g09.slc.cpg/sg11_37_cif.got.tgz:73148.got - 2010.06.27 23:14:04.
