data_PCOD8071151
_publ_section_title
;
Structure prediction by ZEFSAII (Michael W. Deem and Ramdas Pophale) SiO2 
 PCOD8071151
Probable space group: P 21/M
;
_chemical_formula_sum "Si O2"
_cell_formula_units_Z 32
_cell_length_a 12.372240
_cell_length_b 9.101344
_cell_length_c 16.616676
_cell_angle_alpha 90.000000
_cell_angle_beta 76.600483
_cell_angle_gamma 90.000000
_cell_volume 1820.168870
_symmetry_space_group_name_H-M "P 21/M"
_symmetry_group_IT_number 11
_symmetry_cell_setting 'monoclinic'
loop_
_space_group_symop_operation_xyz
x,y,z
-x,1/2+y,-z
-x,-y,-z
x,1/2-y,z
loop_
_atom_site_type_symbol
_atom_site_label
_atom_site_fract_x
_atom_site_fract_y
_atom_site_fract_z
Si Si1 0.887400 0.082979 0.016771
Si Si2 0.110798 0.080668 0.459392
Si Si3 0.673011 0.923354 0.496198
Si Si4 0.453018 0.077408 0.328407
Si Si5 0.331728 0.076216 0.685859
Si Si6 0.893029 0.422160 0.840737
Si Si7 0.868093 0.076423 0.194369
Si Si8 0.230580 0.081664 0.274902
O O1 0.922965 0.250000 0.015538
O O2 0.832760 0.050314 0.938787
O O3 0.821485 0.044773 0.110812
O O4 0.000000 0.000000 0.000000
O O5 0.092297 0.250000 0.482170
O O6 0.207131 0.012537 0.499123
O O7 0.142271 0.056807 0.361072
O O8 0.000000 0.000000 0.500000
O O9 0.680554 0.750000 0.506171
O O10 0.581014 0.978874 0.575963
O O11 0.645944 0.969921 0.410444
O O12 0.479819 0.250000 0.322927
O O13 0.354453 0.040102 0.283091
O O14 0.563655 0.989171 0.282866
O O15 0.323583 0.250000 0.699708
O O16 0.216730 0.003266 0.731812
O O17 0.917659 0.250000 0.822774
O O18 0.009003 0.510102 0.813391
O O19 0.803137 0.477223 0.792400
O O20 0.872047 0.250000 0.212869
O O21 0.228030 0.250000 0.246264
#
# Coordination Sequence:
#
# PCOD8071151 Si02
#       8
#     4   4   4   4   4   4   4   4
#     4   8  16  31  50  72  99 131 162 197 242 298
#     4   9  18  32  47  66  96 133 167 201 244 290
#     4   8  17  33  50  68  95 130 167 207 249 290
#     4   9  18  36  55  69  94 135 175 208 247 295
#     4  11  21  32  50  77 104 128 164 214 257 293
#     4  10  19  32  53  79 104 129 163 206 251 296
#     4  10  20  34  51  74 105 136 165 197 246 305
#     4   9  19  34  51  72  99 132 171 206 244 299
#
# _framework density 17.580786
#
# number of rings (size 3 to 8) (size 9 to 14) (size 15 to 20)
#    0.000    2.750    0.000    3.000    1.750    2.000 
#    0.000    3.125    0.000    0.750    0.000    0.000 
#    0.000    0.000    0.000    0.000    0.000    0.000 
#
# Total GULP energy -396486.019192 kJ/mol
# GULP energy per Si atom -12390.188100 kJ/mol
# Density = 1.754077 g / cm^3
# Si number density = 17.580786 Si / 1000 Ang^3
#
#
#
# Elastic Constant Matrix: (Units=GPa)
#
#
# Indices 1 2 3 4 5 6 
#
# 1 70.9977 30.8933 32.9088 0.0000 8.4813 0.0000
# 2 30.8933 67.3373 41.4131 0.0000 8.2065 0.0000
# 3 32.9088 41.4131 74.0149 0.0000 15.7255 0.0000
# 4 0.0000 0.0000 0.0000 25.2782 0.0000 1.0497
# 5 8.4813 8.2065 15.7255 0.0000 17.3067 0.0000
# 6 0.0000 0.0000 0.0000 1.0497 0.0000 30.6132
#
#
#
# Elastic Compliance Matrix: (Units=1/GPa)
#
#
# Indices 1 2 3 4 5 6 
#
# 1 0.018996 -0.005398 -0.004947 0.000000 -0.002255 0.000000
# 2 -0.005398 0.024189 -0.011474 0.000000 0.001602 0.000000
# 3 -0.004947 -0.011474 0.025354 0.000000 -0.015172 0.000000
# 4 0.000000 0.000000 0.000000 0.039616 0.000000 -0.001358
# 5 -0.002255 0.001602 -0.015172 0.000000 0.071913 0.000000
# 6 0.000000 0.000000 0.000000 -0.001358 0.000000 0.032712
#
#
# Mechanical properties :
#
#
# Convention : Reuss Voigt Hill
#
# Bulk Modulus (GPa) = 40.15965 46.97559 43.56762
# Shear Modulus (GPa) = 18.88796 21.78192 20.33494
#
# Velocity S-wave (km/s) = 3.28129 3.52371 3.40466
# Velocity P-wave (km/s) = 6.10314 6.58280 6.34750
#
# Compressibility (1/GPa) = 0.02490061
#
# Stress axis : x y z
#
# Youngs Moduli (GPa) = 52.64248 41.34141 39.44144
#
# Poissons Ratio (x) = 0.22316 0.19511
# Poissons Ratio (y) = 0.28417 0.45257
# Poissons Ratio (z) = 0.26041 0.47437
#
# Static dielectric constant tensor:
#      x y z
#    x 3.138960 0.000000 0.204220 
#    y 0.000000 3.211760 0.000000 
#    z 0.204220 0.000000 4.145380 
# 
# 
# High freq. dielectric constant tensor:
#      x y z
#    x 1.662630 0.000000 0.007190 
#    y 0.000000 1.675580 0.000000 
#    z 0.007190 0.000000 1.678090 
# 
# From -- ./inp_files/49299.got.cif
#   From: 2010.06.25/outbox.cif.g09.slc.cpg/sg11_25_cif.got.tgz:49299.got - 2010.06.27 23:14:04.
