data_PCOD8071947
_publ_section_title
;
Structure prediction by ZEFSAII (Michael W. Deem and Ramdas Pophale) SiO2 
 PCOD8071947
Probable space group: P 21/M
;
_chemical_formula_sum "Si O2"
_cell_formula_units_Z 24
_cell_length_a 31.716576
_cell_length_b 8.866684
_cell_length_c 9.042737
_cell_angle_alpha 90.000000
_cell_angle_beta 150.739854
_cell_angle_gamma 90.000000
_cell_volume 1242.959752
_symmetry_space_group_name_H-M "P 21/M"
_symmetry_group_IT_number 11
_symmetry_cell_setting 'monoclinic'
loop_
_space_group_symop_operation_xyz
x,y,z
-x,1/2+y,-z
-x,-y,-z
x,1/2-y,z
loop_
_atom_site_type_symbol
_atom_site_label
_atom_site_fract_x
_atom_site_fract_y
_atom_site_fract_z
Si Si1 0.666055 0.429090 0.301862
Si Si2 0.498030 0.573676 0.834968
Si Si3 0.822447 0.571670 0.618022
Si Si4 0.011773 0.426451 0.693352
Si Si5 0.151745 0.929176 0.616529
Si Si6 0.690096 0.425495 0.708215
O O1 0.663577 0.250000 0.286807
O O2 0.734716 0.491087 0.396575
O O3 0.687629 0.491549 0.533224
O O4 0.571728 0.492206 0.962745
O O5 0.518774 0.750000 0.908791
O O6 0.399824 0.545888 0.477413
O O7 0.500000 0.500000 0.000000
O O8 0.809231 0.750000 0.575968
O O9 0.849418 0.515587 0.540353
O O10 0.897412 0.522146 0.960304
O O11 0.008042 0.250000 0.657886
O O12 0.000000 0.500000 0.500000
O O13 0.935501 0.477253 0.568587
O O14 0.158643 0.750000 0.611194
O O15 0.231592 0.994001 0.957837
O O16 0.707349 0.250000 0.741373
#
# Coordination Sequence:
#
# PCOD8071947 Si02
#       6
#     4   4   4   4   4   4
#     4  10  19  34  56  80 105 142 185 226 271 321
#     4   9  16  29  50  79 111 141 176 225 273 318
#     4  11  23  37  52  79 113 143 176 221 270 318
#     4  10  22  38  59  84 110 139 177 220 265 316
#     4  10  20  37  57  78 106 144 181 215 260 322
#     4   8  16  31  54  80 105 135 178 223 265 313
#
# _framework density 19.308751000000001
#
# number of rings (size 3 to 8) (size 9 to 14) (size 15 to 20)
#    0.000    2.333    0.000    4.000    0.000    3.333 
#    0.000    5.833    0.000    0.000    0.000    0.000 
#    0.000    0.000    0.000    0.000    0.000    0.000 
#
# Total GULP energy -297525.823074 kJ/mol
# GULP energy per Si atom -12396.909295 kJ/mol
# Density = 1.926480 g / cm^3
# Si number density = 19.308751 Si / 1000 Ang^3
#
#
#
# Elastic Constant Matrix: (Units=GPa)
#
#
# Indices 1 2 3 4 5 6 
#
# 1 120.0658 39.2571 40.7760 0.0000 20.2121 0.0000
# 2 39.2571 64.9855 30.7267 0.0000 11.4412 0.0000
# 3 40.7760 30.7267 58.0853 0.0000 25.9928 0.0000
# 4 0.0000 0.0000 0.0000 22.0467 0.0000 1.1872
# 5 20.2121 11.4412 25.9928 0.0000 37.9229 0.0000
# 6 0.0000 0.0000 0.0000 1.1872 0.0000 33.1101
#
#
#
# Elastic Compliance Matrix: (Units=1/GPa)
#
#
# Indices 1 2 3 4 5 6 
#
# 1 0.011803 -0.004344 -0.005423 0.000000 -0.001264 0.000000
# 2 -0.004344 0.022205 -0.009715 0.000000 0.002275 0.000000
# 3 -0.005423 -0.009715 0.033979 0.000000 -0.017468 0.000000
# 4 0.000000 0.000000 0.000000 0.045446 0.000000 -0.001630
# 5 -0.001264 0.002275 -0.017468 0.000000 0.038330 0.000000
# 6 0.000000 0.000000 0.000000 -0.001630 0.000000 0.030261
#
#
# Mechanical properties :
#
#
# Convention : Reuss Voigt Hill
#
# Bulk Modulus (GPa) = 34.45343 51.62844 43.04094
# Shear Modulus (GPa) = 21.67686 27.44109 24.55898
#
# Velocity S-wave (km/s) = 3.35422 3.77394 3.57025
# Velocity P-wave (km/s) = 5.73439 6.76657 6.27175
#
# Compressibility (1/GPa) = 0.02902469
#
# Stress axis : x y z
#
# Youngs Moduli (GPa) = 84.72143 45.03485 29.43014
#
# Poissons Ratio (x) = 0.19563 0.15959
# Poissons Ratio (y) = 0.36802 0.28591
# Poissons Ratio (z) = 0.45941 0.43750
#
# Static dielectric constant tensor:
#      x y z
#    x 3.486500 0.000000 0.305550 
#    y 0.000000 3.457980 0.000000 
#    z 0.305550 0.000000 4.051070 
# 
# 
# High freq. dielectric constant tensor:
#      x y z
#    x 1.744280 0.000000 0.023010 
#    y 0.000000 1.739100 0.000000 
#    z 0.023010 0.000000 1.760320 
# 
# From -- ./inp_files/20579.got.cif
#   From: 2010.06.25/outbox.cif.g09.slc.cpg/sg11_11_cif.got.tgz:20579.got - 2010.06.27 23:14:04.
