data_PCOD8071144
_publ_section_title
;
Structure prediction by ZEFSAII (Michael W. Deem and Ramdas Pophale) SiO2 
 PCOD8071144
Probable space group: P 21/M
;
_chemical_formula_sum "Si O2"
_cell_formula_units_Z 28
_cell_length_a 22.271566
_cell_length_b 9.144192
_cell_length_c 24.692031
_cell_angle_alpha 90.000000
_cell_angle_beta 162.558031
_cell_angle_gamma 90.000000
_cell_volume 1507.291185
_symmetry_space_group_name_H-M "P 21/M"
_symmetry_group_IT_number 11
_symmetry_cell_setting 'monoclinic'
loop_
_space_group_symop_operation_xyz
x,y,z
-x,1/2+y,-z
-x,-y,-z
x,1/2-y,z
loop_
_atom_site_type_symbol
_atom_site_label
_atom_site_fract_x
_atom_site_fract_y
_atom_site_fract_z
Si Si1 0.372685 0.922503 0.735044
Si Si2 0.781359 0.076168 0.070463
Si Si3 0.979305 0.923124 0.827015
Si Si4 0.545023 0.579383 0.483124
Si Si5 0.977765 0.421181 0.351371
Si Si6 0.858415 0.079589 0.920179
Si Si7 0.187704 0.583477 0.682211
O O1 0.382965 0.750000 0.731787
O O2 0.370906 0.955491 0.799175
O O3 0.175983 0.987352 0.536459
O O4 0.566918 0.001075 0.878709
O O5 0.750462 0.250000 0.042726
O O6 0.916857 0.016289 0.137715
O O7 0.891520 0.025109 0.219999
O O8 0.982346 0.750000 0.826707
O O9 0.750981 0.980179 0.634387
O O10 0.099887 0.978821 0.983507
O O11 0.500000 0.500000 0.500000
O O12 0.561706 0.750000 0.511052
O O13 0.372480 0.545992 0.291258
O O14 0.036237 0.250000 0.399722
O O15 0.796587 0.449085 0.239721
O O16 0.908789 0.250000 0.958932
O O17 0.000000 0.000000 0.000000
O O18 0.132815 0.750000 0.625718
O O19 0.000000 0.500000 0.500000
#
# Coordination Sequence:
#
# PCOD8071144 Si02
#       7
#     4   4   4   4   4   4   4
#     4  10  20  34  53  77 109 144 176 219 276 325
#     4  10  21  36  55  78 104 141 185 224 260 310
#     4   9  19  35  52  75 106 135 171 214 255 304
#     4  10  19  32  53  78 101 129 163 203 252 301
#     4   9  18  34  56  79 104 138 184 228 263 311
#     4  10  19  32  54  80 104 131 163 203 254 306
#     4   8  15  29  49  75 104 135 174 221 269 314
#
# _framework density 18.576371000000002
#
# number of rings (size 3 to 8) (size 9 to 14) (size 15 to 20)
#    0.000    2.571    1.429    0.429    0.000    2.857 
#    0.000    5.714    0.000    1.714    0.000    0.000 
#    0.000    0.000    0.000    0.000    0.000    0.000 
#
# Total GULP energy -346961.541270 kJ/mol
# GULP energy per Si atom -12391.483617 kJ/mol
# Density = 1.853409 g / cm^3
# Si number density = 18.576371 Si / 1000 Ang^3
#
#
#
# Elastic Constant Matrix: (Units=GPa)
#
#
# Indices 1 2 3 4 5 6 
#
# 1 133.8619 21.6604 50.1792 0.0000 2.0649 0.0000
# 2 21.6604 33.7206 25.4978 0.0000 1.6012 0.0000
# 3 50.1792 25.4978 107.8745 0.0000 2.8470 0.0000
# 4 0.0000 0.0000 0.0000 19.2651 0.0000 0.9414
# 5 2.0649 1.6012 2.8470 0.0000 34.8533 0.0000
# 6 0.0000 0.0000 0.0000 0.9414 0.0000 22.4712
#
#
#
# Elastic Compliance Matrix: (Units=1/GPa)
#
#
# Indices 1 2 3 4 5 6 
#
# 1 0.009342 -0.003302 -0.003562 0.000000 -0.000111 0.000000
# 2 -0.003302 0.037309 -0.007258 0.000000 -0.000925 0.000000
# 3 -0.003562 -0.007258 0.012655 0.000000 -0.000489 0.000000
# 4 0.000000 0.000000 0.000000 0.052014 0.000000 -0.002179
# 5 -0.000111 -0.000925 -0.000489 0.000000 0.028781 0.000000
# 6 0.000000 0.000000 0.000000 -0.002179 0.000000 0.044593
#
#
# Mechanical properties :
#
#
# Convention : Reuss Voigt Hill
#
# Bulk Modulus (GPa) = 32.19412 52.23688 42.21550
# Shear Modulus (GPa) = 22.39231 27.19255 24.79243
#
# Velocity S-wave (km/s) = 3.47568 3.83015 3.65721
# Velocity P-wave (km/s) = 5.78580 6.90950 6.37246
#
# Compressibility (1/GPa) = 0.03106157
#
# Stress axis : x y z
#
# Youngs Moduli (GPa) = 107.04771 26.80349 79.01752
#
# Poissons Ratio (x) = 0.08850 0.28146
# Poissons Ratio (y) = 0.35346 0.57352
# Poissons Ratio (z) = 0.38130 0.19454
#
# Static dielectric constant tensor:
#      x y z
#    x 3.849850 0.000000 -0.148080 
#    y 0.000000 3.228370 0.000000 
#    z -0.148080 0.000000 4.311920 
# 
# 
# High freq. dielectric constant tensor:
#      x y z
#    x 1.730170 0.000000 0.002090 
#    y 0.000000 1.701040 0.000000 
#    z 0.002090 0.000000 1.714840 
# 
# From -- ./inp_files/29087.got.cif
#   From: 2010.06.25/outbox.cif.g09.slc.cpg/sg11_15_cif.got.tgz:29087.got - 2010.06.27 23:14:04.
