data_PCOD8071865
_publ_section_title
;
Structure prediction by ZEFSAII (Michael W. Deem and Ramdas Pophale) SiO2 
 PCOD8071865
Probable space group: P 21/M
;
_chemical_formula_sum "Si O2"
_cell_formula_units_Z 24
_cell_length_a 13.607741
_cell_length_b 8.704538
_cell_length_c 9.976920
_cell_angle_alpha 90.000000
_cell_angle_beta 116.870063
_cell_angle_gamma 90.000000
_cell_volume 1054.167354
_symmetry_space_group_name_H-M "P 21/M"
_symmetry_group_IT_number 11
_symmetry_cell_setting 'monoclinic'
loop_
_space_group_symop_operation_xyz
x,y,z
-x,1/2+y,-z
-x,-y,-z
x,1/2-y,z
loop_
_atom_site_type_symbol
_atom_site_label
_atom_site_fract_x
_atom_site_fract_y
_atom_site_fract_z
Si Si1 0.281580 0.573663 0.776186
Si Si2 0.180311 0.571664 0.278627
Si Si3 0.505665 0.578272 0.157598
Si Si4 0.603637 0.922601 0.499792
Si Si5 0.266623 0.572369 0.059790
Si Si6 0.898735 0.569873 0.515971
O O1 0.280700 0.750000 0.729717
O O2 0.411708 0.523378 0.888141
O O3 0.216234 0.477817 0.624707
O O4 0.217725 0.551788 0.879674
O O5 0.148317 0.750000 0.264023
O O6 0.299951 0.541932 0.412243
O O7 0.185393 0.506096 0.126588
O O8 0.095690 0.482197 0.324104
O O9 0.484380 0.750000 0.085966
O O10 0.588750 0.588288 0.332740
O O11 0.390692 0.500134 0.136407
O O12 0.627074 0.750000 0.570874
O O13 0.500000 0.000000 0.500000
O O14 0.282095 0.750000 0.108107
O O15 0.909107 0.750000 0.518427
O O16 0.000000 0.500000 0.500000
#
# Coordination Sequence:
#
# PCOD8071865 Si02
#       6
#     4   4   4   4   4   4
#     4  11  22  38  61  90 123 163 203 245 298 355
#     4  11  21  39  63  88 120 158 199 249 303 353
#     4  10  19  34  54  83 125 169 207 246 286 342
#     4  11  20  31  52  83 122 162 206 251 294 347
#     4   9  20  37  58  88 128 166 202 241 290 352
#     4  12  26  46  68  92 116 147 197 253 306 363
#
# _framework density 22.766784999999999
#
# number of rings (size 3 to 8) (size 9 to 14) (size 15 to 20)
#    0.000    1.333    3.333    3.500    0.000    0.667 
#    0.000    5.000    0.000    0.000    0.000    0.000 
#    0.000    0.000    0.000    0.000    0.000    0.000 
#
# Total GULP energy -297351.399706 kJ/mol
# GULP energy per Si atom -12389.641654 kJ/mol
# Density = 2.271497 g / cm^3
# Si number density = 22.766785 Si / 1000 Ang^3
#
#
#
# Elastic Constant Matrix: (Units=GPa)
#
#
# Indices 1 2 3 4 5 6 
#
# 1 131.2444 37.1028 19.4549 0.0000 -38.9205 0.0000
# 2 37.1028 109.4604 16.3891 0.0000 -18.3859 0.0000
# 3 19.4549 16.3891 51.8401 0.0000 -35.8720 0.0000
# 4 0.0000 0.0000 0.0000 27.6045 0.0000 -2.7603
# 5 -38.9205 -18.3859 -35.8720 0.0000 44.4025 0.0000
# 6 0.0000 0.0000 0.0000 -2.7603 0.0000 34.0743
#
#
#
# Elastic Compliance Matrix: (Units=1/GPa)
#
#
# Indices 1 2 3 4 5 6 
#
# 1 0.011604 -0.002485 0.006253 0.000000 0.014194 0.000000
# 2 -0.002485 0.010361 -0.001999 0.000000 0.000496 0.000000
# 3 0.006253 -0.001999 0.047158 0.000000 0.042751 0.000000
# 4 0.000000 0.000000 0.000000 0.036522 0.000000 0.002959
# 5 0.014194 0.000496 0.042751 0.000000 0.069706 0.000000
# 6 0.000000 0.000000 0.000000 0.002959 0.000000 0.029587
#
#
# Mechanical properties :
#
#
# Convention : Reuss Voigt Hill
#
# Bulk Modulus (GPa) = 13.76294 48.71539 31.23917
# Shear Modulus (GPa) = 22.16088 35.85613 29.00850
#
# Velocity S-wave (km/s) = 3.12330 3.97285 3.57341
# Velocity P-wave (km/s) = 4.36634 6.51834 5.54769
#
# Compressibility (1/GPa) = 0.07265888
#
# Stress axis : x y z
#
# Youngs Moduli (GPa) = 86.17473 96.51645 21.20519
#
# Poissons Ratio (x) = 0.23989 -0.13259
# Poissons Ratio (y) = 0.21419 0.04240
# Poissons Ratio (z) = -0.53881 0.19297
#
# Static dielectric constant tensor:
#      x y z
#    x 4.292360 0.000000 -0.494100 
#    y 0.000000 3.264850 0.000000 
#    z -0.494100 0.000000 4.356820 
# 
# 
# High freq. dielectric constant tensor:
#      x y z
#    x 1.896000 0.000000 -0.033400 
#    y 0.000000 1.877030 0.000000 
#    z -0.033400 0.000000 1.903540 
# 
# From -- ./inp_files/37241.got.cif
#   From: 2010.06.25/outbox.cif.g09.slc.cpg/sg11_19_cif.got.tgz:37241.got - 2010.06.27 23:14:04.
