data_PCOD8071128
_publ_section_title
;
Structure prediction by ZEFSAII (Michael W. Deem and Ramdas Pophale) SiO2 
 PCOD8071128
Probable space group: P 21/M
;
_chemical_formula_sum "Si O2"
_cell_formula_units_Z 26
_cell_length_a 12.008246
_cell_length_b 23.086774
_cell_length_c 9.407876
_cell_angle_alpha 90.000000
_cell_angle_beta 144.292823
_cell_angle_gamma 90.000000
_cell_volume 1522.234784
_symmetry_space_group_name_H-M "P 21/M"
_symmetry_group_IT_number 11
_symmetry_cell_setting 'monoclinic'
loop_
_space_group_symop_operation_xyz
x,y,z
-x,1/2+y,-z
-x,-y,-z
x,1/2-y,z
loop_
_atom_site_type_symbol
_atom_site_label
_atom_site_fract_x
_atom_site_fract_y
_atom_site_fract_z
Si Si1 0.000475 0.250000 0.049352
Si Si2 0.253224 0.250000 0.041991
Si Si3 0.979159 0.472175 0.631248
Si Si4 0.021840 0.847638 0.276769
Si Si5 0.699775 0.531878 0.544718
Si Si6 0.290969 0.750000 0.496731
Si Si7 0.988300 0.626057 0.911589
Si Si8 0.730051 0.031611 0.871983
O O1 0.013155 0.191359 0.155337
O O2 0.799480 0.250000 0.755252
O O3 0.181343 0.250000 0.130019
O O4 0.164723 0.308335 0.878925
O O5 0.480921 0.250000 0.268400
O O6 0.964805 0.402333 0.603677
O O7 0.789100 0.498173 0.504577
O O8 0.000000 0.500000 0.500000
O O9 0.163929 0.486463 0.916803
O O10 0.211949 0.807987 0.492748
O O11 0.009401 0.871665 0.103217
O O12 0.479079 0.541903 0.282929
O O13 0.731234 0.492683 0.714803
O O14 0.793058 0.594506 0.666088
O O15 0.164217 0.593056 0.021481
#
# Coordination Sequence:
#
# PCOD8071128 Si02
#       8
#     2   2   4   4   4   2   4   4
#     4   8  18  26  44  76 104 120 166 204 250 306
#     4   8  16  28  46  69  98 130 160 204 250 291
#     4  11  21  35  51  73 107 135 166 216 252 296
#     4   9  17  30  46  75 101 125 168 200 248 306
#     4  10  19  32  53  74  98 135 169 200 248 303
#     4   8  16  28  46  69  98 130 160 204 250 291
#     4   9  15  31  48  71 105 128 164 207 248 301
#     4  10  19  32  53  74  98 135 169 200 248 303
#
# _framework density 17.080151999999998
#
# number of rings (size 3 to 8) (size 9 to 14) (size 15 to 20)
#    0.000    3.077    3.077    0.923    0.000    6.769 
#    0.000    0.000    0.000    7.385    0.000    0.000 
#    0.000    0.000    0.000    0.000    0.000    0.000 
#
# Total GULP energy -322230.589165 kJ/mol
# GULP energy per Si atom -12393.484199 kJ/mol
# Density = 1.704128 g / cm^3
# Si number density = 17.080152 Si / 1000 Ang^3
#
#
#
# Elastic Constant Matrix: (Units=GPa)
#
#
# Indices 1 2 3 4 5 6 
#
# 1 93.9637 49.1699 56.2217 0.0000 25.7353 0.0000
# 2 49.1699 162.1678 31.1148 0.0000 18.9711 0.0000
# 3 56.2217 31.1148 50.4088 0.0000 34.1979 0.0000
# 4 0.0000 0.0000 0.0000 14.7306 0.0000 -4.0897
# 5 25.7353 18.9711 34.1979 0.0000 40.4981 0.0000
# 6 0.0000 0.0000 0.0000 -4.0897 0.0000 17.5924
#
#
#
# Elastic Compliance Matrix: (Units=1/GPa)
#
#
# Indices 1 2 3 4 5 6 
#
# 1 0.047195 -0.004278 -0.072601 0.000000 0.033320 0.000000
# 2 -0.004278 0.007396 0.001667 0.000000 -0.002154 0.000000
# 3 -0.072601 0.001667 0.161574 0.000000 -0.091083 0.000000
# 4 0.000000 0.000000 0.000000 0.072570 0.000000 0.016870
# 5 0.033320 -0.002154 -0.091083 0.000000 0.081441 0.000000
# 6 0.000000 0.000000 0.000000 0.016870 0.000000 0.060765
#
#
# Mechanical properties :
#
#
# Convention : Reuss Voigt Hill
#
# Bulk Modulus (GPa) = 15.21119 64.39481 39.80300
# Shear Modulus (GPa) = 8.28807 25.89980 17.09393
#
# Velocity S-wave (km/s) = 2.20522 3.89828 3.16699
# Velocity P-wave (km/s) = 3.92544 7.61876 6.06031
#
# Compressibility (1/GPa) = 0.06574107
#
# Stress axis : x y z
#
# Youngs Moduli (GPa) = 21.18869 135.21683 6.18912
#
# Poissons Ratio (x) = 0.57841 0.44934
# Poissons Ratio (y) = 0.09064 -0.01032
# Poissons Ratio (z) = 1.53833 -0.22546
#
# Static dielectric constant tensor:
#      x y z
#    x 2.963280 0.000000 0.250220 
#    y 0.000000 3.582530 0.000000 
#    z 0.250220 0.000000 2.988940 
# 
# 
# High freq. dielectric constant tensor:
#      x y z
#    x 1.630230 0.000000 0.029040 
#    y 0.000000 1.677480 0.000000 
#    z 0.029040 0.000000 1.628060 
# 
# From -- ./inp_files/19635.got.cif
#   From: 2010.06.25/outbox.cif.g09.slc.cpg/sg11_10_cif.got.tgz:19635.got - 2010.06.27 23:14:04.
