data_PCOD8071424
_publ_section_title
;
Structure prediction by ZEFSAII (Michael W. Deem and Ramdas Pophale) SiO2 
 PCOD8071424
Probable space group: P 21/M
;
_chemical_formula_sum "Si O2"
_cell_formula_units_Z 28
_cell_length_a 9.720575
_cell_length_b 13.413586
_cell_length_c 13.467662
_cell_angle_alpha 90.000000
_cell_angle_beta 57.036363
_cell_angle_gamma 90.000000
_cell_volume 1473.327631
_symmetry_space_group_name_H-M "P 21/M"
_symmetry_group_IT_number 11
_symmetry_cell_setting 'monoclinic'
loop_
_space_group_symop_operation_xyz
x,y,z
-x,1/2+y,-z
-x,-y,-z
x,1/2-y,z
loop_
_atom_site_type_symbol
_atom_site_label
_atom_site_fract_x
_atom_site_fract_y
_atom_site_fract_z
Si Si1 0.830113 0.861460 0.399119
Si Si2 0.103702 0.516044 0.361848
Si Si3 0.782260 0.634048 0.835237
Si Si4 0.823291 0.526454 0.024068
Si Si5 0.602453 0.517706 0.635065
Si Si6 0.341188 0.362609 0.733084
Si Si7 0.444142 0.865057 0.864484
O O1 0.806230 0.750000 0.450258
O O2 0.708609 0.934425 0.505742
O O3 0.799634 0.866537 0.294066
O O4 0.020434 0.893222 0.335153
O O5 0.106829 0.416317 0.293773
O O6 0.287672 0.539981 0.325277
O O7 0.000000 0.500000 0.500000
O O8 0.826638 0.750000 0.817743
O O9 0.839073 0.586921 0.916312
O O10 0.588720 0.617048 0.888652
O O11 0.726485 0.597732 0.136894
O O12 0.717708 0.427238 0.042916
O O13 0.000000 0.500000 0.000000
O O14 0.486871 0.432675 0.635129
O O15 0.501886 0.604210 0.731045
O O16 0.405867 0.250000 0.722111
O O17 0.392545 0.750000 0.881910
#
# Coordination Sequence:
#
# PCOD8071424 Si02
#       7
#     4   4   4   4   4   4   4
#     4  10  19  33  53  76 106 140 173 213 265 318
#     4   9  19  34  54  81 106 131 170 218 265 314
#     4  10  20  37  58  78 106 145 183 220 266 321
#     4  11  22  36  55  78 110 143 180 226 269 318
#     4   9  18  34  55  77 104 136 175 219 264 318
#     4  10  21  35  51  74 105 141 177 216 263 314
#     4   9  19  35  56  80 104 136 180 224 267 317
#
# _framework density 19.004598000000001
#
# number of rings (size 3 to 8) (size 9 to 14) (size 15 to 20)
#    0.000    2.286    0.000    2.571    0.000    5.143 
#    0.000    2.857    0.000    6.000    0.000    0.000 
#    0.000    0.000    0.000    0.000    0.000    0.000 
#
# Total GULP energy -347099.515239 kJ/mol
# GULP energy per Si atom -12396.411259 kJ/mol
# Density = 1.896134 g / cm^3
# Si number density = 19.004598 Si / 1000 Ang^3
#
#
#
# Elastic Constant Matrix: (Units=GPa)
#
#
# Indices 1 2 3 4 5 6 
#
# 1 102.5093 69.5894 31.4358 0.0000 6.0890 0.0000
# 2 69.5894 138.0236 46.0964 0.0000 3.6955 0.0000
# 3 31.4358 46.0964 80.5470 0.0000 7.1832 0.0000
# 4 0.0000 0.0000 0.0000 28.5660 0.0000 -0.3276
# 5 6.0890 3.6955 7.1832 0.0000 26.2113 0.0000
# 6 0.0000 0.0000 0.0000 -0.3276 0.0000 32.8228
#
#
#
# Elastic Compliance Matrix: (Units=1/GPa)
#
#
# Indices 1 2 3 4 5 6 
#
# 1 0.015170 -0.007019 -0.001720 0.000000 -0.002063 0.000000
# 2 -0.007019 0.012205 -0.004344 0.000000 0.001100 0.000000
# 3 -0.001720 -0.004344 0.015870 0.000000 -0.003337 0.000000
# 4 0.000000 0.000000 0.000000 0.035011 0.000000 0.000349
# 5 -0.002063 0.001100 -0.003337 0.000000 0.039390 0.000000
# 6 0.000000 0.000000 0.000000 0.000349 0.000000 0.030470
#
#
# Mechanical properties :
#
#
# Convention : Reuss Voigt Hill
#
# Bulk Modulus (GPa) = 58.54680 68.36923 63.45802
# Shear Modulus (GPa) = 27.78182 29.11726 28.44954
#
# Velocity S-wave (km/s) = 3.82756 3.91847 3.87328
# Velocity P-wave (km/s) = 7.09980 7.51836 7.31208
#
# Compressibility (1/GPa) = 0.01708035
#
# Stress axis : x y z
#
# Youngs Moduli (GPa) = 65.91975 81.93236 63.01304
#
# Poissons Ratio (x) = 0.57507 0.10836
# Poissons Ratio (y) = 0.46268 0.27371
# Poissons Ratio (z) = 0.11336 0.35589
#
# Static dielectric constant tensor:
#      x y z
#    x 3.877580 0.000000 0.043950 
#    y 0.000000 3.567810 0.000000 
#    z 0.043950 0.000000 3.324380 
# 
# 
# High freq. dielectric constant tensor:
#      x y z
#    x 1.745120 0.000000 0.010460 
#    y 0.000000 1.737450 0.000000 
#    z 0.010460 0.000000 1.731710 
# 
# From -- ./inp_files/31786.got.cif
#   From: 2010.06.25/outbox.cif.g09.slc.cpg/sg11_16_cif.got.tgz:31786.got - 2010.06.27 23:14:04.
