data_PCOD8071857
_publ_section_title
;
Structure prediction by ZEFSAII (Michael W. Deem and Ramdas Pophale) SiO2 
 PCOD8071857
Probable space group: P 21/M
;
_chemical_formula_sum "Si O2"
_cell_formula_units_Z 28
_cell_length_a 31.165936
_cell_length_b 8.653654
_cell_length_c 31.165881
_cell_angle_alpha 90.000000
_cell_angle_beta 9.556250
_cell_angle_gamma 90.000000
_cell_volume 1395.431613
_symmetry_space_group_name_H-M "P 21/M"
_symmetry_group_IT_number 11
_symmetry_cell_setting 'monoclinic'
loop_
_space_group_symop_operation_xyz
x,y,z
-x,1/2+y,-z
-x,-y,-z
x,1/2-y,z
loop_
_atom_site_type_symbol
_atom_site_label
_atom_site_fract_x
_atom_site_fract_y
_atom_site_fract_z
Si Si1 0.619571 0.569114 0.119563
Si Si2 0.239104 0.569446 0.739102
Si Si3 0.523723 0.433611 0.023664
Si Si4 0.902641 0.933646 0.402652
Si Si5 0.806872 0.928272 0.306803
Si Si6 0.048614 0.066472 0.548567
Si Si7 0.334572 0.928543 0.834528
O O1 0.615128 0.750000 0.115088
O O2 0.359575 0.493904 0.358867
O O3 0.644883 0.538058 0.144914
O O4 0.858894 0.493897 0.859554
O O5 0.500000 0.500000 0.500000
O O6 0.243273 0.750000 0.743269
O O7 0.213839 0.536323 0.713839
O O8 0.000000 0.500000 0.000000
O O9 0.522528 0.250000 0.022462
O O10 0.785423 0.496925 0.787187
O O11 0.500000 0.500000 0.000000
O O12 0.287284 0.496920 0.285336
O O13 0.901883 0.750000 0.401918
O O14 0.927094 0.996317 0.427068
O O15 0.799498 0.750000 0.299395
O O16 0.570745 0.968217 0.570638
O O17 0.070720 0.968243 0.070655
O O18 0.048793 0.250000 0.548779
O O19 0.341992 0.750000 0.842009
#
# Coordination Sequence:
#
# PCOD8071857 Si02
#       7
#     4   4   4   4   4   4   4
#     4  12  25  40  60  92 129 157 191 252 312 354
#     4  12  25  42  65  93 127 165 206 251 304 362
#     4  10  19  34  54  80 110 142 183 232 287 343
#     4  11  22  41  66  87 113 160 211 246 289 359
#     4  10  21  38  61  89 120 154 200 253 299 346
#     4   9  19  35  57  80 106 144 193 240 278 336
#     4  10  21  38  61  87 118 160 203 242 291 362
#
# _framework density 20.065477000000001
#
# number of rings (size 3 to 8) (size 9 to 14) (size 15 to 20)
#    0.000    1.429    0.000    6.000    0.000    5.714 
#    0.000    4.286    0.000    0.000    0.000    0.000 
#    0.000    0.000    0.000    0.000    0.000    0.000 
#
# Total GULP energy -347362.783838 kJ/mol
# GULP energy per Si atom -12405.813709 kJ/mol
# Density = 2.001981 g / cm^3
# Si number density = 20.065477 Si / 1000 Ang^3
#
#
#
# Elastic Constant Matrix: (Units=GPa)
#
#
# Indices 1 2 3 4 5 6 
#
# 1 159.8718 49.3162 93.1610 0.0000 -0.3476 0.0000
# 2 49.3162 95.7654 51.7216 0.0000 -0.2122 0.0000
# 3 93.1610 51.7216 216.3908 0.0000 -4.6691 0.0000
# 4 0.0000 0.0000 0.0000 24.1540 0.0000 1.0019
# 5 -0.3476 -0.2122 -4.6691 0.0000 35.6126 0.0000
# 6 0.0000 0.0000 0.0000 1.0019 0.0000 35.5387
#
#
#
# Elastic Compliance Matrix: (Units=1/GPa)
#
#
# Indices 1 2 3 4 5 6 
#
# 1 0.009014 -0.002920 -0.003190 0.000000 -0.000348 0.000000
# 2 -0.002920 0.012939 -0.001840 0.000000 -0.000193 0.000000
# 3 -0.003190 -0.001840 0.006452 0.000000 0.000804 0.000000
# 4 0.000000 0.000000 0.000000 0.041450 0.000000 -0.001169
# 5 -0.000348 -0.000193 0.000804 0.000000 0.028181 0.000000
# 6 0.000000 0.000000 0.000000 -0.001169 0.000000 0.028171
#
#
# Mechanical properties :
#
#
# Convention : Reuss Voigt Hill
#
# Bulk Modulus (GPa) = 79.96709 95.60284 87.78496
# Shear Modulus (GPa) = 34.18231 37.58301 35.88266
#
# Velocity S-wave (km/s) = 4.13187 4.33253 4.23339
# Velocity P-wave (km/s) = 7.91851 8.53092 8.23041
#
# Compressibility (1/GPa) = 0.01250514
#
# Stress axis : x y z
#
# Youngs Moduli (GPa) = 110.93875 77.28600 154.99306
#
# Poissons Ratio (x) = 0.22565 0.49449
# Poissons Ratio (y) = 0.32390 0.28517
# Poissons Ratio (z) = 0.35394 0.14220
#
# Static dielectric constant tensor:
#      x y z
#    x 3.811200 0.000000 -0.015870 
#    y 0.000000 3.499510 0.000000 
#    z -0.015870 0.000000 3.990650 
# 
# 
# High freq. dielectric constant tensor:
#      x y z
#    x 1.801180 0.000000 -0.000710 
#    y 0.000000 1.766680 0.000000 
#    z -0.000710 0.000000 1.809250 
# 
# From -- ./inp_files/73859.got.cif
#   From: 2010.06.25/outbox.cif.g09.slc.cpg/sg11_37_cif.got.tgz:73859.got - 2010.06.27 23:14:04.
