data_PCOD8071410
_publ_section_title
;
Structure prediction by ZEFSAII (Michael W. Deem and Ramdas Pophale) SiO2 
 PCOD8071410
Probable space group: P 21/M
;
_chemical_formula_sum "Si O2"
_cell_formula_units_Z 28
_cell_length_a 23.809847
_cell_length_b 9.080133
_cell_length_c 19.220995
_cell_angle_alpha 90.000000
_cell_angle_beta 20.867467
_cell_angle_gamma 90.000000
_cell_volume 1480.224987
_symmetry_space_group_name_H-M "P 21/M"
_symmetry_group_IT_number 11
_symmetry_cell_setting 'monoclinic'
loop_
_space_group_symop_operation_xyz
x,y,z
-x,1/2+y,-z
-x,-y,-z
x,1/2-y,z
loop_
_atom_site_type_symbol
_atom_site_label
_atom_site_fract_x
_atom_site_fract_y
_atom_site_fract_z
Si Si1 0.444941 0.579805 0.402858
Si Si2 0.413819 0.912699 0.876960
Si Si3 0.752557 0.925101 0.129019
Si Si4 0.085290 0.916931 0.176275
Si Si5 0.789883 0.079300 0.769117
Si Si6 0.055456 0.918862 0.543429
Si Si7 0.163902 0.575596 0.826516
O O1 0.466431 0.750000 0.367062
O O2 0.457914 0.513210 0.310185
O O3 0.585742 0.524230 0.289735
O O4 0.277770 0.539499 0.629864
O O5 0.483230 0.750000 0.789499
O O6 0.244123 0.926822 0.036832
O O7 0.381324 0.952672 0.996249
O O8 0.769187 0.750000 0.118608
O O9 0.758935 0.003994 0.195419
O O10 0.894932 0.985417 0.916147
O O11 0.043365 0.750000 0.203736
O O12 0.942670 0.983070 0.388500
O O13 0.838141 0.250000 0.731224
O O14 0.788186 0.059208 0.686655
O O15 0.911124 0.963226 0.660973
O O16 0.035443 0.750000 0.589718
O O17 0.143575 0.750000 0.860728
O O18 0.000000 0.500000 0.000000
#
# Coordination Sequence:
#
# PCOD8071410 Si02
#       7
#     4   4   4   4   4   4   4
#     4   9  19  33  50  72  97 124 158 198 238 282
#     4   8  14  24  39  59  85 118 155 192 231 275
#     4  10  19  33  53  75  96 123 159 197 239 285
#     4   9  16  26  39  59  88 120 154 192 232 275
#     4   8  14  22  31  49  80 117 153 189 230 274
#     4   9  14  20  32  51  79 116 155 191 228 272
#     4  11  23  38  53  72  98 126 156 194 239 286
#
# _framework density 18.916043999999999
#
# number of rings (size 3 to 8) (size 9 to 14) (size 15 to 20)
#    0.000    2.857    0.000    3.000    0.000    5.714 
#    0.000    0.000    0.000    0.000    0.000    0.000 
#    0.000    1.143    0.000    3.429    0.000   11.286 
#
# Total GULP energy -346918.121051 kJ/mol
# GULP energy per Si atom -12389.932895 kJ/mol
# Density = 1.887299 g / cm^3
# Si number density = 18.916044 Si / 1000 Ang^3
#
#
#
# Elastic Constant Matrix: (Units=GPa)
#
#
# Indices 1 2 3 4 5 6 
#
# 1 17.8262 25.8788 40.7649 0.0000 13.4559 0.0000
# 2 25.8788 87.1362 56.9679 0.0000 17.4126 0.0000
# 3 40.7649 56.9679 115.7438 0.0000 32.7132 0.0000
# 4 0.0000 0.0000 0.0000 29.5360 0.0000 11.0306
# 5 13.4559 17.4126 32.7132 0.0000 26.2878 0.0000
# 6 0.0000 0.0000 0.0000 11.0306 0.0000 23.6377
#
#
#
# Elastic Compliance Matrix: (Units=1/GPa)
#
#
# Indices 1 2 3 4 5 6 
#
# 1 0.369668 -0.035502 -0.101636 0.000000 -0.039226 0.000000
# 2 -0.035502 0.020360 0.001787 0.000000 0.002463 0.000000
# 3 -0.101636 0.001787 0.045022 0.000000 -0.005186 0.000000
# 4 0.000000 0.000000 0.000000 0.041003 0.000000 -0.019134
# 5 -0.039226 0.002463 -0.005186 0.000000 0.062942 0.000000
# 6 0.000000 0.000000 0.000000 -0.019134 0.000000 0.051234
#
#
# Mechanical properties :
#
#
# Convention : Reuss Voigt Hill
#
# Bulk Modulus (GPa) = 6.08470 51.99215 29.03842
# Shear Modulus (GPa) = 5.46023 22.36530 13.91276
#
# Velocity S-wave (km/s) = 1.70083 3.44226 2.71495
# Velocity P-wave (km/s) = 2.66097 6.58363 5.02121
#
# Compressibility (1/GPa) = 0.16434671
#
# Stress axis : x y z
#
# Youngs Moduli (GPa) = 2.70513 49.11645 22.21125
#
# Poissons Ratio (x) = 1.74374 2.25747
# Poissons Ratio (y) = 0.09604 -0.03969
# Poissons Ratio (z) = 0.27494 -0.08777
#
# Static dielectric constant tensor:
#      x y z
#    x 3.263030 0.000000 0.637160 
#    y 0.000000 3.548750 0.000000 
#    z 0.637160 0.000000 3.701390 
# 
# 
# High freq. dielectric constant tensor:
#      x y z
#    x 1.687420 0.000000 0.059560 
#    y 0.000000 1.743610 0.000000 
#    z 0.059560 0.000000 1.725130 
# 
# From -- ./inp_files/61276.got.cif
#   From: 2010.06.25/outbox.cif.g09.slc.cpg/sg11_31_cif.got.tgz:61276.got - 2010.06.27 23:14:04.
