data_PCOD8071536
_publ_section_title
;
Structure prediction by ZEFSAII (Michael W. Deem and Ramdas Pophale) SiO2 
 PCOD8071536
Probable space group: P 21/M
;
_chemical_formula_sum "Si O2"
_cell_formula_units_Z 24
_cell_length_a 15.073640
_cell_length_b 13.696804
_cell_length_c 9.059426
_cell_angle_alpha 90.000000
_cell_angle_beta 42.496908
_cell_angle_gamma 90.000000
_cell_volume 1263.559885
_symmetry_space_group_name_H-M "P 21/M"
_symmetry_group_IT_number 11
_symmetry_cell_setting 'monoclinic'
loop_
_space_group_symop_operation_xyz
x,y,z
-x,1/2+y,-z
-x,-y,-z
x,1/2-y,z
loop_
_atom_site_type_symbol
_atom_site_label
_atom_site_fract_x
_atom_site_fract_y
_atom_site_fract_z
Si Si1 0.037017 0.136406 0.037268
Si Si2 0.562157 0.137984 0.333388
Si Si3 0.985791 0.361168 0.765891
Si Si4 0.172058 0.526543 0.522468
Si Si5 0.742617 0.359642 0.857979
Si Si6 0.298589 0.473813 0.661488
O O1 0.070666 0.250000 0.015341
O O2 0.971646 0.113715 0.957812
O O3 0.169377 0.073413 0.893616
O O4 0.934247 0.104635 0.288038
O O5 0.578970 0.250000 0.364771
O O6 0.412577 0.106312 0.536290
O O7 0.660672 0.073712 0.310129
O O8 0.603061 0.126989 0.110970
O O9 0.031772 0.250000 0.688532
O O10 0.098424 0.428885 0.557985
O O11 0.850953 0.383146 0.849168
O O12 0.250500 0.568127 0.287569
O O13 0.277933 0.498735 0.515646
O O14 0.759898 0.250000 0.776464
#
# Coordination Sequence:
#
# PCOD8071536 Si02
#       6
#     4   4   4   4   4   4
#     4  10  19  33  54  81 109 135 170 215 261 307
#     4  10  21  38  57  75 103 141 178 215 256 308
#     4   9  18  32  50  73 104 140 174 210 257 312
#     4  11  20  32  53  80 108 134 169 217 264 309
#     4  10  20  33  51  76 104 137 172 207 258 316
#     4  10  21  36  56  79 102 136 180 219 257 300
#
# _framework density 18.993955
#
# number of rings (size 3 to 8) (size 9 to 14) (size 15 to 20)
#    0.000    2.000    0.000    5.500    0.000    4.000 
#    0.000    0.000    0.000    4.000    0.000    0.000 
#    0.000    0.000    0.000    0.000    0.000    0.000 
#
# Total GULP energy -297637.382087 kJ/mol
# GULP energy per Si atom -12401.557587 kJ/mol
# Density = 1.895072 g / cm^3
# Si number density = 18.993955 Si / 1000 Ang^3
#
#
#
# Elastic Constant Matrix: (Units=GPa)
#
#
# Indices 1 2 3 4 5 6 
#
# 1 41.7720 21.6159 3.5650 0.0000 -7.8546 0.0000
# 2 21.6159 98.0164 17.8516 0.0000 0.3396 0.0000
# 3 3.5650 17.8516 37.6543 0.0000 3.0301 0.0000
# 4 0.0000 0.0000 0.0000 23.7230 0.0000 7.1537
# 5 -7.8546 0.3396 3.0301 0.0000 19.6521 0.0000
# 6 0.0000 0.0000 0.0000 7.1537 0.0000 24.8014
#
#
#
# Elastic Compliance Matrix: (Units=1/GPa)
#
#
# Indices 1 2 3 4 5 6 
#
# 1 0.029599 -0.006438 -0.000720 0.000000 0.012052 0.000000
# 2 -0.006438 0.012575 -0.005192 0.000000 -0.001990 0.000000
# 3 -0.000720 -0.005192 0.029469 0.000000 -0.004742 0.000000
# 4 0.000000 0.000000 0.000000 0.046169 0.000000 -0.013317
# 5 0.012052 -0.001990 -0.004742 0.000000 0.056468 0.000000
# 6 0.000000 0.000000 0.000000 -0.013317 0.000000 0.044161
#
#
# Mechanical properties :
#
#
# Convention : Reuss Voigt Hill
#
# Bulk Modulus (GPa) = 21.30283 29.27863 25.29073
# Shear Modulus (GPa) = 19.32087 22.59598 20.95843
#
# Velocity S-wave (km/s) = 3.19284 3.45286 3.32539
# Velocity P-wave (km/s) = 4.98319 5.59861 5.29984
#
# Compressibility (1/GPa) = 0.04694211
#
# Stress axis : x y z
#
# Youngs Moduli (GPa) = 33.78519 79.52486 33.93451
#
# Poissons Ratio (x) = 0.51199 0.02443
# Poissons Ratio (y) = 0.21751 0.17618
# Poissons Ratio (z) = 0.02432 0.41288
#
# Static dielectric constant tensor:
#      x y z
#    x 3.335820 0.000000 -0.056590 
#    y 0.000000 3.655930 0.000000 
#    z -0.056590 0.000000 3.299490 
# 
# 
# High freq. dielectric constant tensor:
#      x y z
#    x 1.726230 0.000000 -0.005930 
#    y 0.000000 1.756670 0.000000 
#    z -0.005930 0.000000 1.723550 
# 
# From -- ./inp_files/17539.got.cif
#   From: 2010.06.25/outbox.cif.g09.slc.cpg/sg11_9_cif.got.tgz:17539.got - 2010.06.27 23:14:04.
