data_PCOD8071656
_publ_section_title
;
Structure prediction by ZEFSAII (Michael W. Deem and Ramdas Pophale) SiO2 
 PCOD8071656
Probable space group: P 21/M
;
_chemical_formula_sum "Si O2"
_cell_formula_units_Z 28
_cell_length_a 15.750895
_cell_length_b 8.881483
_cell_length_c 18.244907
_cell_angle_alpha 90.000000
_cell_angle_beta 143.482880
_cell_angle_gamma 90.000000
_cell_volume 1518.781478
_symmetry_space_group_name_H-M "P 21/M"
_symmetry_group_IT_number 11
_symmetry_cell_setting 'monoclinic'
loop_
_space_group_symop_operation_xyz
x,y,z
-x,1/2+y,-z
-x,-y,-z
x,1/2-y,z
loop_
_atom_site_type_symbol
_atom_site_label
_atom_site_fract_x
_atom_site_fract_y
_atom_site_fract_z
Si Si1 0.573226 0.574298 0.120707
Si Si2 0.848985 0.424137 0.817065
Si Si3 0.647750 0.572065 0.399997
Si Si4 0.371584 0.927753 0.457070
Si Si5 0.155408 0.073687 0.599553
Si Si6 0.568450 0.922467 0.848900
Si Si7 0.162506 0.421536 0.049549
O O1 0.580868 0.750000 0.110868
O O2 0.731415 0.517712 0.258273
O O3 0.463768 0.537862 0.109041
O O4 0.500000 0.500000 0.000000
O O5 0.850696 0.250000 0.835041
O O6 0.769426 0.458825 0.687208
O O7 0.771145 0.497802 0.833048
O O8 0.009268 0.490587 0.921092
O O9 0.614943 0.750000 0.377197
O O10 0.670221 0.513515 0.497558
O O11 0.780713 0.537264 0.437110
O O12 0.513196 0.476200 0.279992
O O13 0.400604 0.750000 0.490284
O O14 0.500000 0.000000 0.500000
O O15 0.133610 0.250000 0.594011
O O16 0.000000 0.000000 0.500000
O O17 0.527124 0.750000 0.840164
O O18 0.735957 0.938411 0.949948
O O19 0.146403 0.250000 0.061500
#
# Coordination Sequence:
#
# PCOD8071656 Si02
#       7
#     4   4   4   4   4   4   4
#     4  10  21  38  58  84 115 145 183 230 279 334
#     4   9  19  34  50  71 102 137 174 216 262 313
#     4  10  21  37  55  79 112 143 182 227 268 327
#     4  11  22  35  53  77 107 144 183 224 275 322
#     4   9  20  38  60  84 112 148 187 232 285 339
#     4  10  19  33  56  81 106 138 177 219 269 323
#     4   9  18  33  52  74 101 134 173 215 262 315
#
# _framework density 18.435831
#
# number of rings (size 3 to 8) (size 9 to 14) (size 15 to 20)
#    0.000    2.286    0.000    3.429    0.000    8.000 
#    2.571    0.000    0.000    0.000    0.000    0.000 
#    0.000    0.000    0.000    0.000    0.000    0.000 
#
# Total GULP energy -346952.441228 kJ/mol
# GULP energy per Si atom -12391.158615 kJ/mol
# Density = 1.839387 g / cm^3
# Si number density = 18.435831 Si / 1000 Ang^3
#
#
#
# Elastic Constant Matrix: (Units=GPa)
#
#
# Indices 1 2 3 4 5 6 
#
# 1 101.1805 34.4403 66.9379 0.0000 1.3685 0.0000
# 2 34.4403 51.9166 44.3805 0.0000 3.5089 0.0000
# 3 66.9379 44.3805 103.4459 0.0000 -4.4293 0.0000
# 4 0.0000 0.0000 0.0000 30.8213 0.0000 -4.1174
# 5 1.3685 3.5089 -4.4293 0.0000 26.3121 0.0000
# 6 0.0000 0.0000 0.0000 -4.1174 0.0000 35.4894
#
#
#
# Elastic Compliance Matrix: (Units=1/GPa)
#
#
# Indices 1 2 3 4 5 6 
#
# 1 0.017718 -0.002704 -0.010404 0.000000 -0.002312 0.000000
# 2 -0.002704 0.031902 -0.012201 0.000000 -0.006168 0.000000
# 3 -0.010404 -0.012201 0.021884 0.000000 0.005852 0.000000
# 4 0.000000 0.000000 0.000000 0.032956 0.000000 0.003824
# 5 -0.002312 -0.006168 0.005852 0.000000 0.039933 0.000000
# 6 0.000000 0.000000 0.000000 0.003824 0.000000 0.028621
#
#
# Mechanical properties :
#
#
# Convention : Reuss Voigt Hill
#
# Bulk Modulus (GPa) = 47.87774 60.89561 54.38667
# Shear Modulus (GPa) = 21.68306 25.91019 23.79662
#
# Velocity S-wave (km/s) = 3.43321 3.75297 3.59664
# Velocity P-wave (km/s) = 6.46082 7.20295 6.84195
#
# Compressibility (1/GPa) = 0.02088653
#
# Stress axis : x y z
#
# Youngs Moduli (GPa) = 56.44041 31.34569 45.69474
#
# Poissons Ratio (x) = 0.08474 0.47541
# Poissons Ratio (y) = 0.15259 0.55754
# Poissons Ratio (z) = 0.58721 0.38246
#
# Static dielectric constant tensor:
#      x y z
#    x 3.632750 0.000000 0.308840 
#    y 0.000000 3.460850 0.000000 
#    z 0.308840 0.000000 4.319290 
# 
# 
# High freq. dielectric constant tensor:
#      x y z
#    x 1.712650 0.000000 0.000820 
#    y 0.000000 1.720580 0.000000 
#    z 0.000820 0.000000 1.715160 
# 
# From -- ./inp_files/60152.got.cif
#   From: 2010.06.25/outbox.cif.g09.slc.cpg/sg11_31_cif.got.tgz:60152.got - 2010.06.27 23:14:04.
