data_PCOD8071198
_publ_section_title
;
Structure prediction by ZEFSAII (Michael W. Deem and Ramdas Pophale) SiO2 
 PCOD8071198
Probable space group: P 21/M
;
_chemical_formula_sum "Si O2"
_cell_formula_units_Z 32
_cell_length_a 13.980194
_cell_length_b 15.068625
_cell_length_c 11.077009
_cell_angle_alpha 90.000000
_cell_angle_beta 129.027694
_cell_angle_gamma 90.000000
_cell_volume 1812.766450
_symmetry_space_group_name_H-M "P 21/M"
_symmetry_group_IT_number 11
_symmetry_cell_setting 'monoclinic'
loop_
_space_group_symop_operation_xyz
x,y,z
-x,1/2+y,-z
-x,-y,-z
x,1/2-y,z
loop_
_atom_site_type_symbol
_atom_site_label
_atom_site_fract_x
_atom_site_fract_y
_atom_site_fract_z
Si Si1 0.275244 0.649632 0.829414
Si Si2 0.662720 0.481633 0.324430
Si Si3 0.105655 0.584207 0.898620
Si Si4 0.448180 0.149945 0.895883
Si Si5 0.157247 0.011171 0.315661
Si Si6 0.446790 0.350455 0.171956
Si Si7 0.207603 0.416978 0.101349
Si Si8 0.056036 0.654056 0.114540
O O1 0.268188 0.750000 0.770984
O O2 0.261799 0.577593 0.711977
O O3 0.166584 0.637634 0.838448
O O4 0.405458 0.635703 0.999454
O O5 0.616862 0.574486 0.233354
O O6 0.750870 0.512502 0.500647
O O7 0.551489 0.422072 0.288911
O O8 0.963928 0.568005 0.749391
O O9 0.181277 0.494264 0.983465
O O10 0.110958 0.640412 0.025117
O O11 0.412200 0.250000 0.823123
O O12 0.407336 0.136784 0.001819
O O13 0.226116 0.046878 0.251517
O O14 0.113521 0.911586 0.256875
O O15 0.496726 0.250000 0.231526
O O16 0.329566 0.364437 0.163248
O O17 0.091330 0.352073 0.007988
O O18 0.094596 0.750000 0.192023
#
# Coordination Sequence:
#
# PCOD8071198 Si02
#       8
#     4   4   4   4   4   4   4   4
#     4  10  19  32  54  78  98 128 172 213 249 294
#     4  11  20  34  51  73 109 141 159 201 254 300
#     4   9  17  33  52  72  96 129 170 211 251 292
#     4   9  19  34  52  75  97 129 176 213 248 292
#     4   9  21  33  49  74 104 137 166 196 251 312
#     4  10  19  32  54  78  98 128 172 213 249 294
#     4   9  17  33  52  72  96 129 170 211 251 292
#     4   9  17  31  52  74  97 127 168 216 254 292
#
# _framework density 17.652577000000001
#
# number of rings (size 3 to 8) (size 9 to 14) (size 15 to 20)
#    0.000    2.500    0.000    6.375    0.000    2.000 
#    0.000    3.750    0.000    6.000    0.000    0.000 
#    0.000    0.000    0.000    0.000    0.000    0.000 
#
# Total GULP energy -396703.496582 kJ/mol
# GULP energy per Si atom -12396.984268 kJ/mol
# Density = 1.761240 g / cm^3
# Si number density = 17.652577 Si / 1000 Ang^3
#
#
#
# Elastic Constant Matrix: (Units=GPa)
#
#
# Indices 1 2 3 4 5 6 
#
# 1 106.8222 27.8971 25.3759 0.0000 6.7595 0.0000
# 2 27.8971 108.9970 42.7422 0.0000 -0.7518 0.0000
# 3 25.3759 42.7422 100.1054 0.0000 -5.4822 0.0000
# 4 0.0000 0.0000 0.0000 11.9738 0.0000 0.6388
# 5 6.7595 -0.7518 -5.4822 0.0000 10.4410 0.0000
# 6 0.0000 0.0000 0.0000 0.6388 0.0000 22.4588
#
#
#
# Elastic Compliance Matrix: (Units=1/GPa)
#
#
# Indices 1 2 3 4 5 6 
#
# 1 0.010978 -0.001915 -0.002432 0.000000 -0.008522 0.000000
# 2 -0.001915 0.011384 -0.004389 0.000000 -0.000245 0.000000
# 3 -0.002432 -0.004389 0.012920 0.000000 0.008042 0.000000
# 4 0.000000 0.000000 0.000000 0.083643 0.000000 -0.002379
# 5 -0.008522 -0.000245 0.008042 0.000000 0.105498 0.000000
# 6 0.000000 0.000000 0.000000 -0.002379 0.000000 0.044594
#
#
# Mechanical properties :
#
#
# Convention : Reuss Voigt Hill
#
# Bulk Modulus (GPa) = 56.14370 56.43945 56.29157
# Shear Modulus (GPa) = 17.09836 23.63534 20.36685
#
# Velocity S-wave (km/s) = 3.11562 3.66309 3.40039
# Velocity P-wave (km/s) = 6.69452 7.06631 6.88293
#
# Compressibility (1/GPa) = 0.01781144
#
# Stress axis : x y z
#
# Youngs Moduli (GPa) = 91.08747 87.84296 77.39804
#
# Poissons Ratio (x) = 0.16822 0.18823
# Poissons Ratio (y) = 0.17443 0.33967
# Poissons Ratio (z) = 0.22153 0.38551
#
# Static dielectric constant tensor:
#      x y z
#    x 3.254000 0.000000 0.045940 
#    y 0.000000 3.380200 0.000000 
#    z 0.045940 0.000000 2.893970 
# 
# 
# High freq. dielectric constant tensor:
#      x y z
#    x 1.687200 0.000000 0.004320 
#    y 0.000000 1.696240 0.000000 
#    z 0.004320 0.000000 1.646500 
# 
# From -- ./inp_files/39678.got.cif
#   From: 2010.06.25/outbox.cif.g09.slc.cpg/sg11_20_cif.got.tgz:39678.got - 2010.06.27 23:14:04.
