data_PCOD8071292
_publ_section_title
;
Structure prediction by ZEFSAII (Michael W. Deem and Ramdas Pophale) SiO2 
 PCOD8071292
Probable space group: P 21/M
;
_chemical_formula_sum "Si O2"
_cell_formula_units_Z 32
_cell_length_a 14.516394
_cell_length_b 8.887429
_cell_length_c 23.234090
_cell_angle_alpha 90.000000
_cell_angle_beta 144.262723
_cell_angle_gamma 90.000000
_cell_volume 1750.753641
_symmetry_space_group_name_H-M "P 21/M"
_symmetry_group_IT_number 11
_symmetry_cell_setting 'monoclinic'
loop_
_space_group_symop_operation_xyz
x,y,z
-x,1/2+y,-z
-x,-y,-z
x,1/2-y,z
loop_
_atom_site_type_symbol
_atom_site_label
_atom_site_fract_x
_atom_site_fract_y
_atom_site_fract_z
Si Si1 0.632287 0.581544 0.688154
Si Si2 0.599910 0.926690 0.500728
Si Si3 0.965955 0.426035 0.397402
Si Si4 0.114213 0.570925 0.009937
Si Si5 0.252658 0.075433 0.623357
Si Si6 0.411389 0.419594 0.204793
Si Si7 0.951122 0.571483 0.684737
Si Si8 0.967048 0.571771 0.817957
O O1 0.590873 0.750000 0.645792
O O2 0.484176 0.472432 0.601622
O O3 0.671027 0.581595 0.774941
O O4 0.785559 0.519964 0.732343
O O5 0.602538 0.750000 0.509216
O O6 0.775060 0.993943 0.590387
O O7 0.500000 0.000000 0.500000
O O8 0.924885 0.250000 0.384054
O O9 0.142003 0.456711 0.511698
O O10 0.838657 0.525590 0.365601
O O11 0.954781 0.479083 0.324789
O O12 0.100723 0.750000 0.008245
O O13 0.296396 0.521006 0.107787
O O14 0.000000 0.500000 0.000000
O O15 0.067891 0.509265 0.922646
O O16 0.294833 0.250000 0.649639
O O17 0.413325 0.983494 0.701199
O O18 0.420394 0.250000 0.184529
O O19 0.942031 0.750000 0.679810
O O20 0.026849 0.516436 0.784528
O O21 0.973968 0.750000 0.824724
#
# Coordination Sequence:
#
# PCOD8071292 Si02
#       8
#     4   4   4   4   4   4   4   4
#     4  10  19  33  49  70 103 140 176 214 260 311
#     4  11  20  30  46  71 104 142 178 214 253 307
#     4   9  18  34  57  82 107 139 177 216 262 320
#     4  11  21  35  55  78 106 142 184 227 273 321
#     4  10  20  35  55  82 112 139 173 220 269 321
#     4  11  22  36  55  78 107 142 179 225 275 321
#     4   9  17  31  52  73 101 139 177 212 256 315
#     4   9  17  32  51  72 102 139 175 214 262 311
#
# _framework density 18.277842
#
# number of rings (size 3 to 8) (size 9 to 14) (size 15 to 20)
#    0.000    2.000    2.500    2.250    0.000    2.500 
#    0.000    1.250    0.000    0.750    0.000    0.000 
#    0.000    0.000    0.000    0.000    0.000    0.000 
#
# Total GULP energy -396603.183168 kJ/mol
# GULP energy per Si atom -12393.849474 kJ/mol
# Density = 1.823624 g / cm^3
# Si number density = 18.277842 Si / 1000 Ang^3
#
#
#
# Elastic Constant Matrix: (Units=GPa)
#
#
# Indices 1 2 3 4 5 6 
#
# 1 91.4678 21.0961 38.0750 0.0000 -22.4599 0.0000
# 2 21.0961 58.9417 23.7319 0.0000 -2.9991 0.0000
# 3 38.0750 23.7319 87.3234 0.0000 -19.7984 0.0000
# 4 0.0000 0.0000 0.0000 26.7561 0.0000 3.0607
# 5 -22.4599 -2.9991 -19.7984 0.0000 30.5999 0.0000
# 6 0.0000 0.0000 0.0000 3.0607 0.0000 24.5197
#
#
#
# Elastic Compliance Matrix: (Units=1/GPa)
#
#
# Indices 1 2 3 4 5 6 
#
# 1 0.015436 -0.003546 -0.003840 0.000000 0.008498 0.000000
# 2 -0.003546 0.019944 -0.004712 0.000000 -0.003697 0.000000
# 3 -0.003840 -0.004712 0.016012 0.000000 0.007079 0.000000
# 4 0.000000 0.000000 0.000000 0.037916 0.000000 -0.004733
# 5 0.008498 -0.003697 0.007079 0.000000 0.043135 0.000000
# 6 0.000000 0.000000 0.000000 -0.004733 0.000000 0.041374
#
#
# Mechanical properties :
#
#
# Convention : Reuss Voigt Hill
#
# Bulk Modulus (GPa) = 36.77150 44.83764 40.80457
# Shear Modulus (GPa) = 24.14537 26.69713 25.42125
#
# Velocity S-wave (km/s) = 3.63852 3.82596 3.73342
# Velocity P-wave (km/s) = 6.14927 6.64091 6.39982
#
# Compressibility (1/GPa) = 0.02719498
#
# Stress axis : x y z
#
# Youngs Moduli (GPa) = 64.78476 50.13954 62.45416
#
# Poissons Ratio (x) = 0.17780 0.23982
# Poissons Ratio (y) = 0.22974 0.29430
# Poissons Ratio (z) = 0.24877 0.23627
#
# Static dielectric constant tensor:
#      x y z
#    x 3.472840 0.000000 -0.315090 
#    y 0.000000 3.309830 0.000000 
#    z -0.315090 0.000000 3.685950 
# 
# 
# High freq. dielectric constant tensor:
#      x y z
#    x 1.702060 0.000000 -0.015900 
#    y 0.000000 1.689440 0.000000 
#    z -0.015900 0.000000 1.698950 
# 
# From -- ./inp_files/69162.got.cif
#   From: 2010.06.25/outbox.cif.g09.slc.cpg/sg11_35_cif.got.tgz:69162.got - 2010.06.27 23:14:04.
