data_PCOD8071152
_publ_section_title
;
Structure prediction by ZEFSAII (Michael W. Deem and Ramdas Pophale) SiO2 
 PCOD8071152
Probable space group: P 21/M
;
_chemical_formula_sum "Si O2"
_cell_formula_units_Z 32
_cell_length_a 25.511269
_cell_length_b 9.041003
_cell_length_c 20.107390
_cell_angle_alpha 90.000000
_cell_angle_beta 157.512481
_cell_angle_gamma 90.000000
_cell_volume 1773.844608
_symmetry_space_group_name_H-M "P 21/M"
_symmetry_group_IT_number 11
_symmetry_cell_setting 'monoclinic'
loop_
_space_group_symop_operation_xyz
x,y,z
-x,1/2+y,-z
-x,-y,-z
x,1/2-y,z
loop_
_atom_site_type_symbol
_atom_site_label
_atom_site_fract_x
_atom_site_fract_y
_atom_site_fract_z
Si Si1 0.944522 0.077592 0.614656
Si Si2 0.601321 0.412629 0.713923
Si Si3 0.899880 0.919853 0.930147
Si Si4 0.912936 0.423708 0.340403
Si Si5 0.638625 0.412107 0.602042
Si Si6 0.671129 0.577939 0.263717
Si Si7 0.130467 0.420464 0.956829
Si Si8 0.364099 0.920345 0.914553
O O1 0.936790 0.250000 0.586152
O O2 0.010520 0.052315 0.763916
O O3 0.791098 0.012799 0.440697
O O4 0.041299 0.995073 0.675252
O O5 0.576910 0.250000 0.717378
O O6 0.597859 0.394824 0.630740
O O7 0.481203 0.530299 0.587667
O O8 0.740142 0.476928 0.908238
O O9 0.924034 0.750000 0.948487
O O10 0.751371 0.962064 0.729892
O O11 0.925724 0.967401 0.036720
O O12 0.000000 0.000000 0.000000
O O13 0.946595 0.250000 0.378819
O O14 0.749076 0.450087 0.160476
O O15 0.000000 0.500000 0.500000
O O16 0.685919 0.250000 0.631274
O O17 0.709062 0.750000 0.311141
O O18 0.669758 0.528566 0.185596
O O19 0.521568 0.548121 0.122677
O O20 0.179410 0.250000 0.015106
O O21 0.353277 0.750000 0.877370
#
# Coordination Sequence:
#
# PCOD8071152 Si02
#       8
#     4   4   4   4   4   4   4   4
#     4  11  22  36  54  78 109 144 182 222 266 320
#     4   9  16  27  47  74 100 126 162 206 250 296
#     4  10  19  33  53  77 102 132 173 218 264 312
#     4  11  21  34  54  81 109 140 178 225 274 319
#     4   9  16  27  46  73 102 130 160 201 251 301
#     4  10  19  32  53  79 104 138 180 221 269 318
#     4   9  20  36  53  73 103 140 175 211 257 315
#     4   9  19  34  52  76 107 137 174 224 272 319
#
# _framework density 18.039911
#
# number of rings (size 3 to 8) (size 9 to 14) (size 15 to 20)
#    0.000    2.250    1.250    2.250    0.000    5.500 
#    0.000    0.000    2.750    0.000    0.000    0.000 
#    0.000    0.000    0.000    0.000    0.000    0.000 
#
# Total GULP energy -396594.944873 kJ/mol
# GULP energy per Si atom -12393.592027 kJ/mol
# Density = 1.799885 g / cm^3
# Si number density = 18.039911 Si / 1000 Ang^3
#
#
#
# Elastic Constant Matrix: (Units=GPa)
#
#
# Indices 1 2 3 4 5 6 
#
# 1 67.8842 40.0891 51.7825 0.0000 13.8151 0.0000
# 2 40.0891 92.5729 59.5280 0.0000 0.7673 0.0000
# 3 51.7825 59.5280 130.4485 0.0000 6.3260 0.0000
# 4 0.0000 0.0000 0.0000 31.3573 0.0000 5.1917
# 5 13.8151 0.7673 6.3260 0.0000 21.5928 0.0000
# 6 0.0000 0.0000 0.0000 5.1917 0.0000 23.2037
#
#
#
# Elastic Compliance Matrix: (Units=1/GPa)
#
#
# Indices 1 2 3 4 5 6 
#
# 1 0.027335 -0.007373 -0.006747 0.000000 -0.015250 0.000000
# 2 -0.007373 0.017327 -0.005254 0.000000 0.005641 0.000000
# 3 -0.006747 -0.005254 0.012704 0.000000 0.000782 0.000000
# 4 0.000000 0.000000 0.000000 0.033117 0.000000 -0.007410
# 5 -0.015250 0.005641 0.000782 0.000000 0.055640 0.000000
# 6 0.000000 0.000000 0.000000 -0.007410 0.000000 0.044754
#
#
# Mechanical properties :
#
#
# Convention : Reuss Voigt Hill
#
# Bulk Modulus (GPa) = 53.70881 65.96720 59.83801
# Shear Modulus (GPa) = 21.20177 24.53116 22.86647
#
# Velocity S-wave (km/s) = 3.43194 3.69158 3.56413
# Velocity P-wave (km/s) = 6.74842 7.40386 7.08372
#
# Compressibility (1/GPa) = 0.01861892
#
# Stress axis : x y z
#
# Youngs Moduli (GPa) = 36.58295 57.71480 78.71793
#
# Poissons Ratio (x) = 0.42551 0.53110
# Poissons Ratio (y) = 0.26971 0.41355
# Poissons Ratio (z) = 0.24682 0.30321
#
# Static dielectric constant tensor:
#      x y z
#    x 3.055150 0.000000 0.126890 
#    y 0.000000 3.687260 0.000000 
#    z 0.126890 0.000000 3.145080 
# 
# 
# High freq. dielectric constant tensor:
#      x y z
#    x 1.653540 0.000000 0.018280 
#    y 0.000000 1.718260 0.000000 
#    z 0.018280 0.000000 1.702270 
# 
# From -- ./inp_files/67272.got.cif
#   From: 2010.06.25/outbox.cif.g09.slc.cpg/sg11_34_cif.got.tgz:67272.got - 2010.06.27 23:14:04.
