data_PCOD8071602
_publ_section_title
;
Structure prediction by ZEFSAII (Michael W. Deem and Ramdas Pophale) SiO2 
 PCOD8071602
Probable space group: P 21/M
;
_chemical_formula_sum "Si O2"
_cell_formula_units_Z 32
_cell_length_a 21.182520
_cell_length_b 9.192662
_cell_length_c 11.677222
_cell_angle_alpha 90.000000
_cell_angle_beta 127.767374
_cell_angle_gamma 90.000000
_cell_volume 1797.473378
_symmetry_space_group_name_H-M "P 21/M"
_symmetry_group_IT_number 11
_symmetry_cell_setting 'monoclinic'
loop_
_space_group_symop_operation_xyz
x,y,z
-x,1/2+y,-z
-x,-y,-z
x,1/2-y,z
loop_
_atom_site_type_symbol
_atom_site_label
_atom_site_fract_x
_atom_site_fract_y
_atom_site_fract_z
Si Si1 0.422319 0.422149 0.960264
Si Si2 0.039653 0.920061 0.149849
Si Si3 0.797505 0.917043 0.660090
Si Si4 0.176798 0.587060 0.734635
Si Si5 0.901939 0.916398 0.166106
Si Si6 0.253416 0.418033 0.148864
Si Si7 0.662080 0.085048 0.941943
Si Si8 0.264255 0.084066 0.652184
O O1 0.436109 0.250000 0.986981
O O2 0.351684 0.461488 0.793076
O O3 0.500000 0.500000 0.000000
O O4 0.403121 0.488729 0.063751
O O5 0.043472 0.750000 0.125206
O O6 0.987318 0.949769 0.204960
O O7 0.127149 0.979479 0.271615
O O8 0.000000 0.000000 0.000000
O O9 0.827398 0.750000 0.701907
O O10 0.747547 0.957889 0.717917
O O11 0.738822 0.940835 0.487424
O O12 0.149303 0.750000 0.676559
O O13 0.106197 0.510693 0.727554
O O14 0.194011 0.508175 0.633766
O O15 0.256188 0.581075 0.897841
O O16 0.893730 0.750000 0.194677
O O17 0.833979 0.955567 0.997763
O O18 0.274995 0.250000 0.151585
O O19 0.321742 0.514828 0.164543
O O20 0.630628 0.250000 0.892395
O O21 0.247459 0.250000 0.667453
#
# Coordination Sequence:
#
# PCOD8071602 Si02
#       8
#     4   4   4   4   4   4   4   4
#     4  10  19  33  55  82 106 133 163 201 250 298
#     4  11  21  33  49  72 101 134 173 218 261 304
#     4  10  20  35  52  73 101 136 173 210 254 306
#     4   9  17  29  48  72  97 126 165 212 255 296
#     4   9  17  30  47  68  95 128 167 211 257 300
#     4   9  16  29  48  70  98 131 166 206 250 295
#     4   9  17  29  47  75 104 129 162 206 247 291
#     4   9  19  35  54  74 102 136 168 201 249 310
#
# _framework density 17.802766999999999
#
# number of rings (size 3 to 8) (size 9 to 14) (size 15 to 20)
#    0.000    2.500    1.250    1.500    0.000    5.500 
#    0.000    0.625    0.000    0.750    0.000    0.000 
#    0.000    0.000    0.000    0.000    0.000    0.000 
#
# Total GULP energy -396816.475382 kJ/mol
# GULP energy per Si atom -12400.514856 kJ/mol
# Density = 1.776225 g / cm^3
# Si number density = 17.802767 Si / 1000 Ang^3
#
#
#
# Elastic Constant Matrix: (Units=GPa)
#
#
# Indices 1 2 3 4 5 6 
#
# 1 145.8221 79.9311 47.9926 0.0000 -18.7512 0.0000
# 2 79.9311 113.0976 36.6325 0.0000 -8.2627 0.0000
# 3 47.9926 36.6325 60.3193 0.0000 -15.4314 0.0000
# 4 0.0000 0.0000 0.0000 17.4950 0.0000 -1.4501
# 5 -18.7512 -8.2627 -15.4314 0.0000 24.5559 0.0000
# 6 0.0000 0.0000 0.0000 -1.4501 0.0000 37.7648
#
#
#
# Elastic Compliance Matrix: (Units=1/GPa)
#
#
# Indices 1 2 3 4 5 6 
#
# 1 0.013020 -0.007333 -0.004759 0.000000 0.004484 0.000000
# 2 -0.007333 0.015144 -0.004161 0.000000 -0.003118 0.000000
# 3 -0.004759 -0.004161 0.025742 0.000000 0.011143 0.000000
# 4 0.000000 0.000000 0.000000 0.057342 0.000000 0.002202
# 5 0.004484 -0.003118 0.011143 0.000000 0.050101 0.000000
# 6 0.000000 0.000000 0.000000 0.002202 0.000000 0.026564
#
#
# Mechanical properties :
#
#
# Convention : Reuss Voigt Hill
#
# Bulk Modulus (GPa) = 46.72466 72.03904 59.38185
# Shear Modulus (GPa) = 21.97305 26.27532 24.12418
#
# Velocity S-wave (km/s) = 3.51700 3.84593 3.68514
# Velocity P-wave (km/s) = 6.54180 7.76366 7.17877
#
# Compressibility (1/GPa) = 0.02140197
#
# Stress axis : x y z
#
# Youngs Moduli (GPa) = 76.80577 66.03213 38.84667
#
# Poissons Ratio (x) = 0.48420 0.18486
# Poissons Ratio (y) = 0.56320 0.16163
# Poissons Ratio (z) = 0.36550 0.27474
#
# Static dielectric constant tensor:
#      x y z
#    x 3.363220 0.000000 -0.185480 
#    y 0.000000 3.450530 0.000000 
#    z -0.185480 0.000000 3.022780 
# 
# 
# High freq. dielectric constant tensor:
#      x y z
#    x 1.690760 0.000000 -0.021780 
#    y 0.000000 1.696700 0.000000 
#    z -0.021780 0.000000 1.648340 
# 
# From -- ./inp_files/42451.got.cif
#   From: 2010.06.25/outbox.cif.g09.slc.cpg/sg11_22_cif.got.tgz:42451.got - 2010.06.27 23:14:04.
