data_PCOD8071086
_publ_section_title
;
Structure prediction by ZEFSAII (Michael W. Deem and Ramdas Pophale) SiO2 
 PCOD8071086
Probable space group: P 21/M
;
_chemical_formula_sum "Si O2"
_cell_formula_units_Z 32
_cell_length_a 12.076712
_cell_length_b 9.312659
_cell_length_c 20.430096
_cell_angle_alpha 90.000000
_cell_angle_beta 52.174387
_cell_angle_gamma 90.000000
_cell_volume 1814.907330
_symmetry_space_group_name_H-M "P 21/M"
_symmetry_group_IT_number 11
_symmetry_cell_setting 'monoclinic'
loop_
_space_group_symop_operation_xyz
x,y,z
-x,1/2+y,-z
-x,-y,-z
x,1/2-y,z
loop_
_atom_site_type_symbol
_atom_site_label
_atom_site_fract_x
_atom_site_fract_y
_atom_site_fract_z
Si Si1 0.622661 0.913824 0.128204
Si Si2 0.643474 0.585181 0.270929
Si Si3 0.623527 0.916006 0.628184
Si Si4 0.949887 0.583422 0.195714
Si Si5 0.913557 0.083892 0.715085
Si Si6 0.924178 0.917952 0.969101
Si Si7 0.353051 0.081126 0.229664
Si Si8 0.919958 0.917175 0.472989
O O1 0.570050 0.750000 0.142530
O O2 0.666160 0.952175 0.186552
O O3 0.497993 0.016839 0.148958
O O4 0.757273 0.940207 0.034262
O O5 0.606217 0.750000 0.295128
O O6 0.513129 0.498403 0.348267
O O7 0.785721 0.542325 0.256539
O O8 0.585813 0.750000 0.638439
O O9 0.661501 0.960420 0.688767
O O10 0.755077 0.956733 0.534765
O O11 0.968189 0.750000 0.168123
O O12 0.008984 0.551922 0.245602
O O13 0.031496 0.482755 0.116033
O O14 0.870366 0.250000 0.724048
O O15 0.020533 0.038479 0.619005
O O16 0.774859 0.988348 0.763091
O O17 0.963758 0.750000 0.958848
O O18 0.000000 0.000000 0.000000
O O19 0.351855 0.250000 0.217776
O O20 0.940421 0.750000 0.480511
O O21 0.000000 0.000000 0.500000
#
# Coordination Sequence:
#
# PCOD8071086 Si02
#       8
#     4   4   4   4   4   4   4   4
#     4   9  18  33  53  78 106 136 174 217 262 316
#     4   9  17  32  52  74 104 139 174 213 260 314
#     4   9  18  31  49  77 108 134 170 223 269 308
#     4  10  21  38  55  78 110 144 182 220 263 320
#     4  10  21  36  56  77 107 148 181 215 268 327
#     4  11  21  35  57  84 110 139 178 224 267 314
#     4  10  19  32  52  79 109 138 174 222 270 314
#     4  10  19  33  53  79 106 138 178 222 267 313
#
# _framework density 17.631754999999998
#
# number of rings (size 3 to 8) (size 9 to 14) (size 15 to 20)
#    0.000    2.250    2.500    0.750    0.000    3.000 
#    0.000    1.250    0.000    0.000    0.000    0.000 
#    0.000    0.000    0.000    0.000    0.000    0.000 
#
# Total GULP energy -396868.851376 kJ/mol
# GULP energy per Si atom -12402.151606 kJ/mol
# Density = 1.759162 g / cm^3
# Si number density = 17.631755 Si / 1000 Ang^3
#
#
#
# Elastic Constant Matrix: (Units=GPa)
#
#
# Indices 1 2 3 4 5 6 
#
# 1 130.7330 68.7168 68.0332 0.0000 -18.5154 0.0000
# 2 68.7168 86.2881 62.1316 0.0000 -11.4593 0.0000
# 3 68.0332 62.1316 109.4146 0.0000 -11.8728 0.0000
# 4 0.0000 0.0000 0.0000 27.0422 0.0000 -7.3925
# 5 -18.5154 -11.4593 -11.8728 0.0000 28.4680 0.0000
# 6 0.0000 0.0000 0.0000 -7.3925 0.0000 29.1586
#
#
#
# Elastic Compliance Matrix: (Units=1/GPa)
#
#
# Indices 1 2 3 4 5 6 
#
# 1 0.014689 -0.008239 -0.003957 0.000000 0.004587 0.000000
# 2 -0.008239 0.024547 -0.008720 0.000000 0.000885 0.000000
# 3 -0.003957 -0.008720 0.016645 0.000000 0.000858 0.000000
# 4 0.000000 0.000000 0.000000 0.039733 0.000000 0.010073
# 5 0.004587 0.000885 0.000858 0.000000 0.038825 0.000000
# 6 0.000000 0.000000 0.000000 0.010073 0.000000 0.036849
#
#
# Mechanical properties :
#
#
# Convention : Reuss Voigt Hill
#
# Bulk Modulus (GPa) = 71.18378 80.46654 75.82516
# Shear Modulus (GPa) = 22.95666 25.43737 24.19701
#
# Velocity S-wave (km/s) = 3.61225 3.80241 3.70855
# Velocity P-wave (km/s) = 7.60644 8.06313 7.83811
#
# Compressibility (1/GPa) = 0.01404814
#
# Stress axis : x y z
#
# Youngs Moduli (GPa) = 68.07932 40.73844 60.07933
#
# Poissons Ratio (x) = 0.33566 0.23773
# Poissons Ratio (y) = 0.56093 0.52388
# Poissons Ratio (z) = 0.26939 0.35523
#
# Static dielectric constant tensor:
#      x y z
#    x 3.194450 0.000000 -0.181680 
#    y 0.000000 3.319460 0.000000 
#    z -0.181680 0.000000 3.399650 
# 
# 
# High freq. dielectric constant tensor:
#      x y z
#    x 1.671630 0.000000 -0.021760 
#    y 0.000000 1.683530 0.000000 
#    z -0.021760 0.000000 1.675110 
# 
# From -- ./inp_files/42885.got.cif
#   From: 2010.06.25/outbox.cif.g09.slc.cpg/sg11_22_cif.got.tgz:42885.got - 2010.06.27 23:14:04.
