data_PCOD8071903
_publ_section_title
;
Structure prediction by ZEFSAII (Michael W. Deem and Ramdas Pophale) SiO2 
 PCOD8071903
Probable space group: P 21/M
;
_chemical_formula_sum "Si O2"
_cell_formula_units_Z 24
_cell_length_a 8.539523
_cell_length_b 19.756353
_cell_length_c 11.930052
_cell_angle_alpha 90.000000
_cell_angle_beta 37.762449
_cell_angle_gamma 90.000000
_cell_volume 1232.565912
_symmetry_space_group_name_H-M "P 21/M"
_symmetry_group_IT_number 11
_symmetry_cell_setting 'monoclinic'
loop_
_space_group_symop_operation_xyz
x,y,z
-x,1/2+y,-z
-x,-y,-z
x,1/2-y,z
loop_
_atom_site_type_symbol
_atom_site_label
_atom_site_fract_x
_atom_site_fract_y
_atom_site_fract_z
Si Si1 0.276540 0.823566 0.054935
Si Si2 0.149920 0.176875 0.280993
Si Si3 0.372439 0.962279 0.909994
Si Si4 0.184203 0.325952 0.525790
Si Si5 0.602718 0.963497 0.551526
Si Si6 0.893340 0.962643 0.754160
O O1 0.210987 0.750000 0.034775
O O2 0.099005 0.835294 0.263424
O O3 0.567704 0.821227 0.933247
O O4 0.248034 0.886787 0.986405
O O5 0.013977 0.250000 0.338144
O O6 0.171179 0.161093 0.400986
O O7 0.001382 0.115242 0.304249
O O8 0.405692 0.982690 0.761967
O O9 0.648202 0.965726 0.812897
O O10 0.180111 0.014737 0.078304
O O11 0.289176 0.250000 0.491253
O O12 0.375320 0.381674 0.472109
O O13 0.500000 0.000000 0.500000
O O14 0.886233 0.989981 0.420261
#
# Coordination Sequence:
#
# PCOD8071903 Si02
#       6
#     4   4   4   4   4   4
#     4   9  16  29  52  81 105 131 179 231 268 311
#     4   9  18  32  56  83 107 139 182 231 280 324
#     4  10  20  34  57  82 108 144 179 231 281 316
#     4  10  19  34  55  80 109 141 184 229 268 324
#     4  12  24  36  53  84 116 152 185 222 272 332
#     4  10  20  35  56  81 113 138 183 232 275 321
#
# _framework density 19.471575000000001
#
# number of rings (size 3 to 8) (size 9 to 14) (size 15 to 20)
#    0.000    2.000    5.000    0.500    0.000    0.667 
#    0.000    0.833    0.000    1.000    0.000    0.000 
#    0.000    0.000    0.000    0.000    0.000    0.000 
#
# Total GULP energy -297350.136540 kJ/mol
# GULP energy per Si atom -12389.589022 kJ/mol
# Density = 1.942726 g / cm^3
# Si number density = 19.471575 Si / 1000 Ang^3
#
#
#
# Elastic Constant Matrix: (Units=GPa)
#
#
# Indices 1 2 3 4 5 6 
#
# 1 34.9480 43.4020 23.8395 0.0000 14.6903 0.0000
# 2 43.4020 183.3141 52.3042 0.0000 22.1004 0.0000
# 3 23.8395 52.3042 111.8659 0.0000 23.4906 0.0000
# 4 0.0000 0.0000 0.0000 30.9262 0.0000 3.1843
# 5 14.6903 22.1004 23.4906 0.0000 20.7285 0.0000
# 6 0.0000 0.0000 0.0000 3.1843 0.0000 18.8044
#
#
#
# Elastic Compliance Matrix: (Units=1/GPa)
#
#
# Indices 1 2 3 4 5 6 
#
# 1 0.050903 -0.008574 -0.001553 0.000000 -0.025174 0.000000
# 2 -0.008574 0.008065 -0.001856 0.000000 -0.000420 0.000000
# 3 -0.001553 -0.001856 0.012455 0.000000 -0.011036 0.000000
# 4 0.000000 0.000000 0.000000 0.032909 0.000000 -0.005573
# 5 -0.025174 -0.000420 -0.011036 0.000000 0.079037 0.000000
# 6 0.000000 0.000000 0.000000 -0.005573 0.000000 0.054123
#
#
# Mechanical properties :
#
#
# Convention : Reuss Voigt Hill
#
# Bulk Modulus (GPa) = 21.07093 63.24660 42.15877
# Shear Modulus (GPa) = 18.03253 28.13065 23.08159
#
# Velocity S-wave (km/s) = 3.04648 3.80505 3.44670
# Velocity P-wave (km/s) = 4.81867 7.20115 6.12683
#
# Compressibility (1/GPa) = 0.04745875
#
# Stress axis : x y z
#
# Youngs Moduli (GPa) = 19.64520 123.98988 80.28742
#
# Poissons Ratio (x) = 1.06308 0.12467
# Poissons Ratio (y) = 0.16844 0.14899
# Poissons Ratio (z) = 0.03050 0.23008
#
# Static dielectric constant tensor:
#      x y z
#    x 2.761220 0.000000 0.027060 
#    y 0.000000 4.304220 0.000000 
#    z 0.027060 0.000000 3.899580 
# 
# 
# High freq. dielectric constant tensor:
#      x y z
#    x 1.665300 0.000000 0.008090 
#    y 0.000000 1.787380 0.000000 
#    z 0.008090 0.000000 1.782430 
# 
# From -- ./inp_files/32593.got.cif
#   From: 2010.06.25/outbox.cif.g09.slc.cpg/sg11_17_cif.got.tgz:32593.got - 2010.06.27 23:14:04.
