data_PCOD8071054
_publ_section_title
;
Structure prediction by ZEFSAII (Michael W. Deem and Ramdas Pophale) SiO2 
 PCOD8071054
Probable space group: P 21/M
;
_chemical_formula_sum "Si O2"
_cell_formula_units_Z 28
_cell_length_a 14.300375
_cell_length_b 8.957503
_cell_length_c 19.043359
_cell_angle_alpha 90.000000
_cell_angle_beta 41.369800
_cell_angle_gamma 90.000000
_cell_volume 1612.220616
_symmetry_space_group_name_H-M "P 21/M"
_symmetry_group_IT_number 11
_symmetry_cell_setting 'monoclinic'
loop_
_space_group_symop_operation_xyz
x,y,z
-x,1/2+y,-z
-x,-y,-z
x,1/2-y,z
loop_
_atom_site_type_symbol
_atom_site_label
_atom_site_fract_x
_atom_site_fract_y
_atom_site_fract_z
Si Si1 0.720438 0.575134 0.374810
Si Si2 0.473030 0.576847 0.618181
Si Si3 0.510860 0.077118 0.882903
Si Si4 0.288704 0.077675 0.125451
Si Si5 0.035024 0.924442 0.687368
Si Si6 0.588282 0.574943 0.703038
Si Si7 0.113363 0.572904 0.486828
O O1 0.737586 0.750000 0.358760
O O2 0.613193 0.526822 0.497118
O O3 0.662765 0.513295 0.333174
O O4 0.872824 0.506901 0.305839
O O5 0.442753 0.750000 0.622622
O O6 0.495868 0.538076 0.686542
O O7 0.530191 0.250000 0.852795
O O8 0.647520 0.024589 0.849457
O O9 0.496132 0.979810 0.820861
O O10 0.368743 0.048337 0.007265
O O11 0.303846 0.250000 0.140521
O O12 0.126668 0.032082 0.206430
O O13 0.061704 0.750000 0.680507
O O14 0.078759 0.979044 0.585301
O O15 0.622718 0.750000 0.688610
O O16 0.733234 0.484218 0.621199
O O17 0.106013 0.750000 0.483028
O O18 0.000000 0.500000 0.500000
#
# Coordination Sequence:
#
# PCOD8071054 Si02
#       7
#     4   4   4   4   4   4   4
#     4  10  19  32  52  77 103 132 169 213 256 307
#     4   9  19  34  51  73 102 137 171 208 257 310
#     4  10  20  34  54  79 104 135 178 222 260 303
#     4   9  19  36  55  76 104 139 177 216 260 309
#     4  10  20  34  52  74 103 138 170 207 257 311
#     4  11  21  35  53  74 105 140 174 212 258 310
#     4  11  22  33  49  75 107 140 172 208 255 311
#
# _framework density 17.367350999999999
#
# number of rings (size 3 to 8) (size 9 to 14) (size 15 to 20)
#    0.000    2.000    1.429    2.571    0.000    4.571 
#    0.000    0.000    0.000    0.857    0.000    0.000 
#    0.000    0.000    0.000    0.000    0.000    0.000 
#
# Total GULP energy -347323.428107 kJ/mol
# GULP energy per Si atom -12404.408147 kJ/mol
# Density = 1.732782 g / cm^3
# Si number density = 17.367351 Si / 1000 Ang^3
#
#
#
# Elastic Constant Matrix: (Units=GPa)
#
#
# Indices 1 2 3 4 5 6 
#
# 1 127.2146 50.5219 51.0556 0.0000 3.4320 0.0000
# 2 50.5219 63.2135 29.8994 0.0000 4.4267 0.0000
# 3 51.0556 29.8994 77.5264 0.0000 5.4915 0.0000
# 4 0.0000 0.0000 0.0000 25.0444 0.0000 0.9325
# 5 3.4320 4.4267 5.4915 0.0000 23.1880 0.0000
# 6 0.0000 0.0000 0.0000 0.9325 0.0000 34.3192
#
#
#
# Elastic Compliance Matrix: (Units=1/GPa)
#
#
# Indices 1 2 3 4 5 6 
#
# 1 0.013317 -0.007985 -0.005755 0.000000 0.000916 0.000000
# 2 -0.007985 0.024225 -0.003906 0.000000 -0.002518 0.000000
# 3 -0.005755 -0.003906 0.018391 0.000000 -0.002758 0.000000
# 4 0.000000 0.000000 0.000000 0.039970 0.000000 -0.001086
# 5 0.000916 -0.002518 -0.002758 0.000000 0.044124 0.000000
# 6 0.000000 0.000000 0.000000 -0.001086 0.000000 0.029168
#
#
# Mechanical properties :
#
#
# Convention : Reuss Voigt Hill
#
# Bulk Modulus (GPa) = 48.44900 58.98981 53.71941
# Shear Modulus (GPa) = 23.65554 25.60883 24.63218
#
# Velocity S-wave (km/s) = 3.69463 3.84414 3.77012
# Velocity P-wave (km/s) = 6.79393 7.33095 7.06754
#
# Compressibility (1/GPa) = 0.02064026
#
# Stress axis : x y z
#
# Youngs Moduli (GPa) = 75.09133 41.27936 54.37528
#
# Poissons Ratio (x) = 0.32963 0.31295
# Poissons Ratio (y) = 0.59963 0.21237
# Poissons Ratio (z) = 0.43217 0.16123
#
# Static dielectric constant tensor:
#      x y z
#    x 3.266720 0.000000 0.027630 
#    y 0.000000 3.271210 0.000000 
#    z 0.027630 0.000000 3.201000 
# 
# 
# High freq. dielectric constant tensor:
#      x y z
#    x 1.671170 0.000000 0.003040 
#    y 0.000000 1.679770 0.000000 
#    z 0.003040 0.000000 1.653150 
# 
# From -- ./inp_files/37147.got.cif
#   From: 2010.06.25/outbox.cif.g09.slc.cpg/sg11_19_cif.got.tgz:37147.got - 2010.06.27 23:14:04.
