data_PCOD8071640
_publ_section_title
;
Structure prediction by ZEFSAII (Michael W. Deem and Ramdas Pophale) SiO2 
 PCOD8071640
Probable space group: P 21/M
;
_chemical_formula_sum "Si O2"
_cell_formula_units_Z 28
_cell_length_a 13.751649
_cell_length_b 8.874304
_cell_length_c 11.872535
_cell_angle_alpha 90.000000
_cell_angle_beta 108.445637
_cell_angle_gamma 90.000000
_cell_volume 1374.443148
_symmetry_space_group_name_H-M "P 21/M"
_symmetry_group_IT_number 11
_symmetry_cell_setting 'monoclinic'
loop_
_space_group_symop_operation_xyz
x,y,z
-x,1/2+y,-z
-x,-y,-z
x,1/2-y,z
loop_
_atom_site_type_symbol
_atom_site_label
_atom_site_fract_x
_atom_site_fract_y
_atom_site_fract_z
Si Si1 0.317111 0.575461 0.701972
Si Si2 0.983053 0.584373 0.380188
Si Si3 0.508451 0.573997 0.625739
Si Si4 0.193972 0.429055 0.840367
Si Si5 0.789979 0.084041 0.558466
Si Si6 0.113680 0.571403 0.033165
Si Si7 0.266412 0.422763 0.254705
O O1 0.326184 0.750000 0.739512
O O2 0.420068 0.516059 0.678405
O O3 0.295144 0.481977 0.808726
O O4 0.223755 0.546169 0.579346
O O5 0.941027 0.750000 0.394009
O O6 0.092427 0.590206 0.359771
O O7 0.000000 0.500000 0.500000
O O8 0.903646 0.509020 0.265504
O O9 0.500000 0.500000 0.500000
O O10 0.495216 0.750000 0.598840
O O11 0.615080 0.541617 0.731566
O O12 0.195984 0.250000 0.859546
O O13 0.182112 0.508219 0.955886
O O14 0.739613 0.250000 0.561205
O O15 0.736215 0.955759 0.612387
O O16 0.100113 0.750000 0.019280
O O17 0.183891 0.531242 0.166003
O O18 0.000000 0.500000 0.000000
O O19 0.237421 0.250000 0.218548
#
# Coordination Sequence:
#
# PCOD8071640 Si02
#       7
#     4   4   4   4   4   4   4
#     4  10  20  36  58  87 124 165 206 253 311 369
#     4  10  20  32  50  79 115 152 190 236 293 360
#     4  10  21  37  60  91 128 167 211 263 315 371
#     4  11  23  39  60  89 125 164 208 258 311 371
#     4  10  19  33  55  84 121 162 202 249 306 370
#     4  12  26  46  70  93 122 163 209 257 310 374
#     4  11  23  39  62  92 124 162 210 262 314 370
#
# _framework density 20.371884999999999
#
# number of rings (size 3 to 8) (size 9 to 14) (size 15 to 20)
#    0.000    1.429    2.857    3.000    0.000    4.000 
#    0.000    0.714    0.000    0.000    0.000    0.000 
#    0.000    0.000    0.000    0.000    0.000    0.000 
#
# Total GULP energy -347050.397593 kJ/mol
# GULP energy per Si atom -12394.657057 kJ/mol
# Density = 2.032552 g / cm^3
# Si number density = 20.371885 Si / 1000 Ang^3
#
#
#
# Elastic Constant Matrix: (Units=GPa)
#
#
# Indices 1 2 3 4 5 6 
#
# 1 114.3264 42.2626 34.8806 0.0000 -9.9285 0.0000
# 2 42.2626 93.6602 35.1086 0.0000 -8.3704 0.0000
# 3 34.8806 35.1086 70.7905 0.0000 -11.5865 0.0000
# 4 0.0000 0.0000 0.0000 33.8352 0.0000 -5.9125
# 5 -9.9285 -8.3704 -11.5865 0.0000 38.3877 0.0000
# 6 0.0000 0.0000 0.0000 -5.9125 0.0000 30.0027
#
#
#
# Elastic Compliance Matrix: (Units=1/GPa)
#
#
# Indices 1 2 3 4 5 6 
#
# 1 0.011280 -0.003657 -0.003574 0.000000 0.001041 0.000000
# 2 -0.003657 0.014333 -0.005207 0.000000 0.000608 0.000000
# 3 -0.003574 -0.005207 0.019075 0.000000 0.003698 0.000000
# 4 0.000000 0.000000 0.000000 0.030609 0.000000 0.006032
# 5 0.001041 0.000608 0.003698 0.000000 0.027568 0.000000
# 6 0.000000 0.000000 0.000000 0.006032 0.000000 0.034519
#
#
# Mechanical properties :
#
#
# Convention : Reuss Voigt Hill
#
# Bulk Modulus (GPa) = 50.47489 55.92009 53.19749
# Shear Modulus (GPa) = 29.60977 31.54681 30.57829
#
# Velocity S-wave (km/s) = 3.81657 3.93943 3.87848
# Velocity P-wave (km/s) = 6.65222 6.94272 6.79902
#
# Compressibility (1/GPa) = 0.01981183
#
# Stress axis : x y z
#
# Youngs Moduli (GPa) = 88.65637 69.76748 52.42536
#
# Poissons Ratio (x) = 0.25514 0.18735
# Poissons Ratio (y) = 0.32422 0.27299
# Poissons Ratio (z) = 0.31682 0.36329
#
# Static dielectric constant tensor:
#      x y z
#    x 4.235400 0.000000 0.172360 
#    y 0.000000 3.622840 0.000000 
#    z 0.172360 0.000000 3.605840 
# 
# 
# High freq. dielectric constant tensor:
#      x y z
#    x 1.804190 0.000000 -0.001170 
#    y 0.000000 1.790610 0.000000 
#    z -0.001170 0.000000 1.781380 
# 
# From -- ./inp_files/37677.got.cif
#   From: 2010.06.25/outbox.cif.g09.slc.cpg/sg11_19_cif.got.tgz:37677.got - 2010.06.27 23:14:04.
