data_PCOD8071606
_publ_section_title
;
Structure prediction by ZEFSAII (Michael W. Deem and Ramdas Pophale) SiO2 
 PCOD8071606
Probable space group: P 21/M
;
_chemical_formula_sum "Si O2"
_cell_formula_units_Z 32
_cell_length_a 12.212623
_cell_length_b 8.902081
_cell_length_c 23.015124
_cell_angle_alpha 90.000000
_cell_angle_beta 44.986949
_cell_angle_gamma 90.000000
_cell_volume 1768.886088
_symmetry_space_group_name_H-M "P 21/M"
_symmetry_group_IT_number 11
_symmetry_cell_setting 'monoclinic'
loop_
_space_group_symop_operation_xyz
x,y,z
-x,1/2+y,-z
-x,-y,-z
x,1/2-y,z
loop_
_atom_site_type_symbol
_atom_site_label
_atom_site_fract_x
_atom_site_fract_y
_atom_site_fract_z
Si Si1 0.944976 0.572815 0.782991
Si Si2 0.360129 0.422643 0.816732
Si Si3 0.194381 0.078918 0.997525
Si Si4 0.864102 0.577547 0.518347
Si Si5 0.316986 0.426584 0.307378
Si Si6 0.663490 0.073053 0.949832
Si Si7 0.967708 0.072666 0.653847
Si Si8 0.873215 0.421728 0.171428
O O1 0.917285 0.750000 0.789890
O O2 0.782877 0.494776 0.858623
O O3 0.006396 0.509530 0.699255
O O4 0.071580 0.532991 0.784695
O O5 0.406074 0.250000 0.791889
O O6 0.241569 0.450238 0.913829
O O7 0.514393 0.515039 0.772369
O O8 0.274037 0.477880 0.790789
O O9 0.232930 0.250000 0.002594
O O10 0.011749 0.049756 0.073629
O O11 0.287879 0.964623 0.002818
O O12 0.901722 0.750000 0.510540
O O13 0.707803 0.539571 0.613451
O O14 0.000000 0.500000 0.500000
O O15 0.880220 0.535583 0.443919
O O16 0.306301 0.250000 0.297830
O O17 0.189730 0.509994 0.315758
O O18 0.654666 0.250000 0.944166
O O19 0.500000 0.000000 0.000000
O O20 0.947146 0.250000 0.671895
O O21 0.818303 0.250000 0.190302
#
# Coordination Sequence:
#
# PCOD8071606 Si02
#       8
#     4   4   4   4   4   4   4   4
#     4  10  21  37  55  77 104 137 176 214 259 315
#     4  11  22  34  53  79 107 136 173 222 266 310
#     4   9  20  37  53  73 102 136 176 218 262 312
#     4   8  16  31  51  75 104 138 171 208 256 309
#     4  10  20  34  52  77 110 143 174 210 259 315
#     4  11  22  35  52  73 103 140 175 216 261 308
#     4  10  19  33  55  82 109 136 172 216 260 312
#     4   9  19  37  56  73  99 136 178 220 261 311
#
# _framework density 18.090481
#
# number of rings (size 3 to 8) (size 9 to 14) (size 15 to 20)
#    0.000    2.250    0.000    3.750    1.750    4.500 
#    0.000    0.000    0.000    0.750    0.000    0.000 
#    0.000    0.000    0.000    0.000    0.000    0.000 
#
# Total GULP energy -396622.734974 kJ/mol
# GULP energy per Si atom -12394.460468 kJ/mol
# Density = 1.804931 g / cm^3
# Si number density = 18.090481 Si / 1000 Ang^3
#
#
#
# Elastic Constant Matrix: (Units=GPa)
#
#
# Indices 1 2 3 4 5 6 
#
# 1 54.7517 24.1535 29.1996 0.0000 11.1931 0.0000
# 2 24.1535 82.0109 31.6904 0.0000 10.9552 0.0000
# 3 29.1996 31.6904 79.0569 0.0000 21.6600 0.0000
# 4 0.0000 0.0000 0.0000 26.0655 0.0000 2.6691
# 5 11.1931 10.9552 21.6600 0.0000 22.0566 0.0000
# 6 0.0000 0.0000 0.0000 2.6691 0.0000 31.7123
#
#
#
# Elastic Compliance Matrix: (Units=1/GPa)
#
#
# Indices 1 2 3 4 5 6 
#
# 1 0.024244 -0.004217 -0.006112 0.000000 -0.004207 0.000000
# 2 -0.004217 0.015229 -0.004188 0.000000 -0.001312 0.000000
# 3 -0.006112 -0.004188 0.020748 0.000000 -0.015193 0.000000
# 4 0.000000 0.000000 0.000000 0.038698 0.000000 -0.003257
# 5 -0.004207 -0.001312 -0.015193 0.000000 0.063044 0.000000
# 6 0.000000 0.000000 0.000000 -0.003257 0.000000 0.031808
#
#
# Mechanical properties :
#
#
# Convention : Reuss Voigt Hill
#
# Bulk Modulus (GPa) = 32.06308 42.87848 37.47078
# Shear Modulus (GPa) = 21.44094 24.68529 23.06311
#
# Velocity S-wave (km/s) = 3.44642 3.69798 3.57441
# Velocity P-wave (km/s) = 5.79649 6.47975 6.14762
#
# Compressibility (1/GPa) = 0.03118852
#
# Stress axis : x y z
#
# Youngs Moduli (GPa) = 41.24761 65.66509 48.19810
#
# Poissons Ratio (x) = 0.27688 0.29456
# Poissons Ratio (y) = 0.17392 0.20184
# Poissons Ratio (z) = 0.25209 0.27499
#
# Static dielectric constant tensor:
#      x y z
#    x 3.184400 0.000000 0.243870 
#    y 0.000000 3.432590 0.000000 
#    z 0.243870 0.000000 4.299980 
# 
# 
# High freq. dielectric constant tensor:
#      x y z
#    x 1.676150 0.000000 0.010870 
#    y 0.000000 1.712810 0.000000 
#    z 0.010870 0.000000 1.701700 
# 
# From -- ./inp_files/42764.got.cif
#   From: 2010.06.25/outbox.cif.g09.slc.cpg/sg11_22_cif.got.tgz:42764.got - 2010.06.27 23:14:04.
