data_PCOD8071444
_publ_section_title
;
Structure prediction by ZEFSAII (Michael W. Deem and Ramdas Pophale) SiO2 
 PCOD8071444
Probable space group: P 21/M
;
_chemical_formula_sum "Si O2"
_cell_formula_units_Z 32
_cell_length_a 22.488446
_cell_length_b 8.888630
_cell_length_c 27.999087
_cell_angle_alpha 90.000000
_cell_angle_beta 161.931091
_cell_angle_gamma 90.000000
_cell_volume 1735.900253
_symmetry_space_group_name_H-M "P 21/M"
_symmetry_group_IT_number 11
_symmetry_cell_setting 'monoclinic'
loop_
_space_group_symop_operation_xyz
x,y,z
-x,1/2+y,-z
-x,-y,-z
x,1/2-y,z
loop_
_atom_site_type_symbol
_atom_site_label
_atom_site_fract_x
_atom_site_fract_y
_atom_site_fract_z
Si Si1 0.651800 0.573637 0.151045
Si Si2 0.677435 0.923024 0.922004
Si Si3 0.075902 0.071593 0.215772
Si Si4 0.384013 0.070911 0.628214
Si Si5 0.913564 0.073033 0.533423
Si Si6 0.367076 0.579256 0.763848
Si Si7 0.404600 0.425492 0.537291
Si Si8 0.669284 0.426373 0.658790
O O1 0.627218 0.750000 0.127944
O O2 0.614572 0.528032 0.176969
O O3 0.865556 0.524207 0.299315
O O4 0.500000 0.500000 0.000000
O O5 0.714351 0.750000 0.936879
O O6 0.562593 0.937200 0.883635
O O7 0.561950 0.999671 0.791316
O O8 0.874298 0.009956 0.079385
O O9 0.069436 0.250000 0.206906
O O10 0.231371 0.010373 0.372679
O O11 0.132395 0.005128 0.206358
O O12 0.398777 0.250000 0.642051
O O13 0.397472 0.005452 0.584728
O O14 0.182908 0.017760 0.497055
O O15 0.883640 0.250000 0.519821
O O16 0.812741 0.029040 0.406294
O O17 0.338398 0.750000 0.759734
O O18 0.367416 0.250000 0.513525
O O19 0.612710 0.456134 0.671270
O O20 0.500000 0.500000 0.500000
O O21 0.680600 0.250000 0.656602
#
# Coordination Sequence:
#
# PCOD8071444 Si02
#       8
#     4   4   4   4   4   4   4   4
#     4  11  23  37  55  80 111 141 173 214 261 307
#     4  10  21  37  54  77 108 140 172 213 262 312
#     4  10  19  33  53  78 105 136 177 222 262 310
#     4  10  19  34  56  80 104 135 173 214 258 309
#     4   9  20  38  56  77 105 138 173 213 258 309
#     4   9  19  37  58  77 102 135 175 217 259 309
#     4   8  17  32  51  76 105 133 169 217 263 307
#     4   9  16  30  50  73 103 138 174 216 264 315
#
# _framework density 18.434239999999999
#
# number of rings (size 3 to 8) (size 9 to 14) (size 15 to 20)
#    0.000    2.500    0.000    3.750    0.000    4.500 
#    0.000   10.625    0.000    0.000    0.000    0.000 
#    0.000    0.000    0.000    0.000    0.000    0.000 
#
# Total GULP energy -396714.453186 kJ/mol
# GULP energy per Si atom -12397.326662 kJ/mol
# Density = 1.839228 g / cm^3
# Si number density = 18.434240 Si / 1000 Ang^3
#
#
#
# Elastic Constant Matrix: (Units=GPa)
#
#
# Indices 1 2 3 4 5 6 
#
# 1 112.8229 43.1036 32.7947 0.0000 -8.3766 0.0000
# 2 43.1036 80.5944 31.1791 0.0000 2.9612 0.0000
# 3 32.7947 31.1791 72.6577 0.0000 2.7426 0.0000
# 4 0.0000 0.0000 0.0000 31.4317 0.0000 5.0735
# 5 -8.3766 2.9612 2.7426 0.0000 19.0743 0.0000
# 6 0.0000 0.0000 0.0000 5.0735 0.0000 30.9963
#
#
#
# Elastic Compliance Matrix: (Units=1/GPa)
#
#
# Indices 1 2 3 4 5 6 
#
# 1 0.012534 -0.005596 -0.003516 0.000000 0.006879 0.000000
# 2 -0.005596 0.017414 -0.004778 0.000000 -0.004474 0.000000
# 3 -0.003516 -0.004778 0.017526 0.000000 -0.003322 0.000000
# 4 0.000000 0.000000 0.000000 0.032678 0.000000 -0.005349
# 5 0.006879 -0.004474 -0.003322 0.000000 0.056620 0.000000
# 6 0.000000 0.000000 0.000000 -0.005349 0.000000 0.033137
#
#
# Mechanical properties :
#
#
# Convention : Reuss Voigt Hill
#
# Bulk Modulus (GPa) = 50.77654 53.35887 52.06770
# Shear Modulus (GPa) = 24.47952 26.90029 25.68990
#
# Velocity S-wave (km/s) = 3.64804 3.82417 3.73714
# Velocity P-wave (km/s) = 6.73415 6.96472 6.85041
#
# Compressibility (1/GPa) = 0.01969413
#
# Stress axis : x y z
#
# Youngs Moduli (GPa) = 79.78277 57.42668 57.05944
#
# Poissons Ratio (x) = 0.32137 0.20059
# Poissons Ratio (y) = 0.44648 0.27262
# Poissons Ratio (z) = 0.28048 0.27437
#
# Static dielectric constant tensor:
#      x y z
#    x 3.666010 0.000000 0.149740 
#    y 0.000000 3.389800 0.000000 
#    z 0.149740 0.000000 3.373580 
# 
# 
# High freq. dielectric constant tensor:
#      x y z
#    x 1.720660 0.000000 0.015090 
#    y 0.000000 1.715180 0.000000 
#    z 0.015090 0.000000 1.703170 
# 
# From -- ./inp_files/72140.got.cif
#   From: 2010.06.25/outbox.cif.g09.slc.cpg/sg11_37_cif.got.tgz:72140.got - 2010.06.27 23:14:04.
