data_PCOD8071228
_publ_section_title
;
Structure prediction by ZEFSAII (Michael W. Deem and Ramdas Pophale) SiO2 
 PCOD8071228
Probable space group: P 21/M
;
_chemical_formula_sum "Si O2"
_cell_formula_units_Z 28
_cell_length_a 11.182934
_cell_length_b 8.856970
_cell_length_c 16.257233
_cell_angle_alpha 90.000000
_cell_angle_beta 119.884759
_cell_angle_gamma 90.000000
_cell_volume 1396.115501
_symmetry_space_group_name_H-M "P 21/M"
_symmetry_group_IT_number 11
_symmetry_cell_setting 'monoclinic'
loop_
_space_group_symop_operation_xyz
x,y,z
-x,1/2+y,-z
-x,-y,-z
x,1/2-y,z
loop_
_atom_site_type_symbol
_atom_site_label
_atom_site_fract_x
_atom_site_fract_y
_atom_site_fract_z
Si Si1 0.896085 0.924303 0.205680
Si Si2 0.912172 0.424251 0.040979
Si Si3 0.329538 0.926957 0.590995
Si Si4 0.359171 0.072932 0.304141
Si Si5 0.627789 0.076306 0.861198
Si Si6 0.657138 0.070637 0.222248
Si Si7 0.820023 0.425020 0.618968
O O1 0.861445 0.750000 0.179411
O O2 0.016593 0.945805 0.314406
O O3 0.759984 0.007427 0.189772
O O4 0.948460 0.995284 0.138755
O O5 0.955334 0.250000 0.061788
O O6 0.749569 0.442291 0.968692
O O7 0.000000 0.500000 0.000000
O O8 0.312479 0.750000 0.591428
O O9 0.484578 0.970440 0.617183
O O10 0.299203 0.991708 0.672008
O O11 0.222626 0.988486 0.485936
O O12 0.344337 0.250000 0.282741
O O13 0.317459 0.988137 0.206481
O O14 0.258589 0.023466 0.341363
O O15 0.585937 0.250000 0.834891
O O16 0.496952 0.984853 0.850696
O O17 0.658148 0.250000 0.218462
O O18 0.776465 0.250000 0.614533
#
# Coordination Sequence:
#
# PCOD8071228 Si02
#       7
#     4   4   4   4   4   4   4
#     4  11  24  39  57  82 113 150 189 230 275 327
#     4  11  24  41  62  87 115 147 182 225 277 331
#     4   8  17  34  55  80 111 146 185 229 276 328
#     4  10  19  32  54  85 116 146 183 229 280 330
#     4  10  21  38  60  84 111 146 185 227 278 332
#     4  10  21  39  61  84 111 145 186 232 279 326
#     4  10  20  35  54  78 112 152 190 229 275 327
#
# _framework density 20.055647
#
# number of rings (size 3 to 8) (size 9 to 14) (size 15 to 20)
#    0.000    2.000    0.000    4.286    0.000    8.000 
#    0.000    3.571    0.000    0.000    0.000    0.000 
#    0.000    0.000    0.000    0.000    0.000    0.000 
#
# Total GULP energy -347253.846947 kJ/mol
# GULP energy per Si atom -12401.923105 kJ/mol
# Density = 2.001000 g / cm^3
# Si number density = 20.055647 Si / 1000 Ang^3
#
#
#
# Elastic Constant Matrix: (Units=GPa)
#
#
# Indices 1 2 3 4 5 6 
#
# 1 97.4524 40.7695 20.0767 0.0000 -9.9453 0.0000
# 2 40.7695 107.3398 34.7030 0.0000 2.0834 0.0000
# 3 20.0767 34.7030 75.3891 0.0000 8.7345 0.0000
# 4 0.0000 0.0000 0.0000 27.1446 0.0000 -1.9649
# 5 -9.9453 2.0834 8.7345 0.0000 24.8286 0.0000
# 6 0.0000 0.0000 0.0000 -1.9649 0.0000 35.8978
#
#
#
# Elastic Compliance Matrix: (Units=1/GPa)
#
#
# Indices 1 2 3 4 5 6 
#
# 1 0.013234 -0.004430 -0.002233 0.000000 0.006458 0.000000
# 2 -0.004430 0.012447 -0.004403 0.000000 -0.001270 0.000000
# 3 -0.002233 -0.004403 0.016624 0.000000 -0.006374 0.000000
# 4 0.000000 0.000000 0.000000 0.036986 0.000000 0.002024
# 5 0.006458 -0.001270 -0.006374 0.000000 0.045212 0.000000
# 6 0.000000 0.000000 0.000000 0.002024 0.000000 0.027968
#
#
# Mechanical properties :
#
#
# Convention : Reuss Voigt Hill
#
# Bulk Modulus (GPa) = 49.57056 52.36442 50.96749
# Shear Modulus (GPa) = 27.57455 29.88301 28.72878
#
# Velocity S-wave (km/s) = 3.71199 3.86425 3.78888
# Velocity P-wave (km/s) = 6.56826 6.78794 6.67900
#
# Compressibility (1/GPa) = 0.02017326
#
# Stress axis : x y z
#
# Youngs Moduli (GPa) = 75.56397 80.34249 60.15273
#
# Poissons Ratio (x) = 0.35589 0.13435
# Poissons Ratio (y) = 0.33473 0.26483
# Poissons Ratio (z) = 0.16877 0.35372
#
# Static dielectric constant tensor:
#      x y z
#    x 3.480510 0.000000 0.047270 
#    y 0.000000 3.604280 0.000000 
#    z 0.047270 0.000000 3.989070 
# 
# 
# High freq. dielectric constant tensor:
#      x y z
#    x 1.778530 0.000000 0.004280 
#    y 0.000000 1.779910 0.000000 
#    z 0.004280 0.000000 1.789180 
# 
# From -- ./inp_files/37935.got.cif
#   From: 2010.06.25/outbox.cif.g09.slc.cpg/sg11_19_cif.got.tgz:37935.got - 2010.06.27 23:14:04.
