data_PCOD8071405
_publ_section_title
;
Structure prediction by ZEFSAII (Michael W. Deem and Ramdas Pophale) SiO2 
 PCOD8071405
Probable space group: P 21/M
;
_chemical_formula_sum "Si O2"
_cell_formula_units_Z 32
_cell_length_a 14.321414
_cell_length_b 9.227190
_cell_length_c 14.247242
_cell_angle_alpha 90.000000
_cell_angle_beta 107.770079
_cell_angle_gamma 90.000000
_cell_volume 1792.895130
_symmetry_space_group_name_H-M "P 21/M"
_symmetry_group_IT_number 11
_symmetry_cell_setting 'monoclinic'
loop_
_space_group_symop_operation_xyz
x,y,z
-x,1/2+y,-z
-x,-y,-z
x,1/2-y,z
loop_
_atom_site_type_symbol
_atom_site_label
_atom_site_fract_x
_atom_site_fract_y
_atom_site_fract_z
Si Si1 0.691389 0.581983 0.352311
Si Si2 0.290012 0.584962 0.308457
Si Si3 0.505752 0.582105 0.403313
Si Si4 0.110429 0.582709 0.126053
Si Si5 0.191052 0.416900 0.429683
Si Si6 0.182717 0.415625 0.775076
Si Si7 0.917427 0.080821 0.097469
Si Si8 0.990461 0.085563 0.592531
O O1 0.672067 0.750000 0.330469
O O2 0.590551 0.513123 0.362067
O O3 0.779461 0.559440 0.453209
O O4 0.727582 0.520803 0.261947
O O5 0.268963 0.750000 0.334243
O O6 0.403877 0.568565 0.313912
O O7 0.216179 0.541303 0.201902
O O8 0.278198 0.475540 0.391567
O O9 0.500000 0.500000 0.500000
O O10 0.530764 0.750000 0.433442
O O11 0.083676 0.750000 0.135339
O O12 0.023877 0.490577 0.147820
O O13 0.118143 0.547579 0.018549
O O14 0.169705 0.250000 0.401082
O O15 0.096012 0.511310 0.374166
O O16 0.203122 0.250000 0.812607
O O17 0.166487 0.513741 0.861512
O O18 0.087118 0.422933 0.682396
O O19 0.926756 0.250000 0.121541
O O20 0.962162 0.250000 0.559945
O O21 0.000000 0.000000 0.500000
#
# Coordination Sequence:
#
# PCOD8071405 Si02
#       8
#     4   4   4   4   4   4   4   4
#     4   9  18  33  49  68  98 135 169 201 245 297
#     4  10  20  33  52  77 101 132 169 209 259 310
#     4  10  19  33  53  75 100 132 173 213 253 301
#     4   9  19  36  54  75 106 135 163 206 258 309
#     4  11  20  32  48  70 102 137 169 207 249 295
#     4  10  20  35  51  68  98 139 171 202 251 303
#     4  10  20  34  54  79 102 130 170 212 253 300
#     4  11  21  32  46  68  99 135 170 204 244 297
#
# _framework density 17.848227999999999
#
# number of rings (size 3 to 8) (size 9 to 14) (size 15 to 20)
#    0.000    2.000    2.500    1.875    0.000    5.000 
#    0.000    0.625    0.000    0.750    0.000    0.000 
#    0.000    0.000    0.000    0.000    0.000    0.375 
#
# Total GULP energy -396688.930905 kJ/mol
# GULP energy per Si atom -12396.529091 kJ/mol
# Density = 1.780760 g / cm^3
# Si number density = 17.848228 Si / 1000 Ang^3
#
#
#
# Elastic Constant Matrix: (Units=GPa)
#
#
# Indices 1 2 3 4 5 6 
#
# 1 126.0603 41.4709 44.5845 0.0000 -19.4613 0.0000
# 2 41.4709 77.8128 32.7504 0.0000 -11.2136 0.0000
# 3 44.5845 32.7504 68.4119 0.0000 -15.6295 0.0000
# 4 0.0000 0.0000 0.0000 25.0630 0.0000 -6.4609
# 5 -19.4613 -11.2136 -15.6295 0.0000 31.6018 0.0000
# 6 0.0000 0.0000 0.0000 -6.4609 0.0000 22.9163
#
#
#
# Elastic Compliance Matrix: (Units=1/GPa)
#
#
# Indices 1 2 3 4 5 6 
#
# 1 0.011345 -0.003477 -0.004977 0.000000 0.003291 0.000000
# 2 -0.003477 0.017290 -0.005748 0.000000 0.001151 0.000000
# 3 -0.004977 -0.005748 0.021924 0.000000 0.005738 0.000000
# 4 0.000000 0.000000 0.000000 0.043027 0.000000 0.012131
# 5 0.003291 0.001151 0.005738 0.000000 0.036917 0.000000
# 6 0.000000 0.000000 0.000000 0.012131 0.000000 0.047057
#
#
# Mechanical properties :
#
#
# Convention : Reuss Voigt Hill
#
# Bulk Modulus (GPa) = 45.13904 56.65516 50.89710
# Shear Modulus (GPa) = 23.43591 26.14817 24.79204
#
# Velocity S-wave (km/s) = 3.62756 3.83172 3.73104
# Velocity P-wave (km/s) = 6.54912 7.16853 6.86581
#
# Compressibility (1/GPa) = 0.02215377
#
# Stress axis : x y z
#
# Youngs Moduli (GPa) = 88.14428 57.83793 45.61313
#
# Poissons Ratio (x) = 0.20112 0.22702
# Poissons Ratio (y) = 0.30651 0.26218
# Poissons Ratio (z) = 0.43870 0.33244
#
# Static dielectric constant tensor:
#      x y z
#    x 3.779110 0.000000 -0.247490 
#    y 0.000000 3.348660 0.000000 
#    z -0.247490 0.000000 3.285860 
# 
# 
# High freq. dielectric constant tensor:
#      x y z
#    x 1.692010 0.000000 -0.011460 
#    y 0.000000 1.682190 0.000000 
#    z -0.011460 0.000000 1.669540 
# 
# From -- ./inp_files/51373.got.cif
#   From: 2010.06.25/outbox.cif.g09.slc.cpg/sg11_26_cif.got.tgz:51373.got - 2010.06.27 23:14:04.
