data_PCOD8071799
_publ_section_title
;
Structure prediction by ZEFSAII (Michael W. Deem and Ramdas Pophale) SiO2 
 PCOD8071799
Probable space group: P 21/M
;
_chemical_formula_sum "Si O2"
_cell_formula_units_Z 28
_cell_length_a 16.734189
_cell_length_b 17.809806
_cell_length_c 9.317861
_cell_angle_alpha 90.000000
_cell_angle_beta 32.754083
_cell_angle_gamma 90.000000
_cell_volume 1502.467091
_symmetry_space_group_name_H-M "P 21/M"
_symmetry_group_IT_number 11
_symmetry_cell_setting 'monoclinic'
loop_
_space_group_symop_operation_xyz
x,y,z
-x,1/2+y,-z
-x,-y,-z
x,1/2-y,z
loop_
_atom_site_type_symbol
_atom_site_label
_atom_site_fract_x
_atom_site_fract_y
_atom_site_fract_z
Si Si1 0.385977 0.165975 0.061102
Si Si2 0.259609 0.834069 0.975120
Si Si3 0.343799 0.038852 0.597787
Si Si4 0.786178 0.974271 0.711841
Si Si5 0.504471 0.116604 0.586326
Si Si6 0.546521 0.404634 0.069013
Si Si7 0.107343 0.517768 0.147080
O O1 0.331150 0.250000 0.176078
O O2 0.246337 0.110843 0.286446
O O3 0.516850 0.144442 0.973336
O O4 0.449519 0.162066 0.805305
O O5 0.195385 0.750000 0.092830
O O6 0.360391 0.836073 0.681489
O O7 0.357323 0.856382 0.964864
O O8 0.126784 0.893116 0.149276
O O9 0.378600 0.106473 0.655791
O O10 0.383778 0.071955 0.379794
O O11 0.453461 0.968574 0.439903
O O12 0.177734 0.009885 0.888099
O O13 0.934278 0.002324 0.407503
O O14 0.807563 0.975564 0.851848
O O15 0.645277 0.023311 0.875895
#
# Coordination Sequence:
#
# PCOD8071799 Si02
#       7
#     4   4   4   4   4   4   4
#     4  12  22  32  50  80 109 133 165 211 262 304
#     4   9  17  31  51  77 104 134 166 208 257 301
#     4   9  15  32  55  77  97 127 178 213 245 294
#     4  10  19  34  52  79 103 131 170 215 254 291
#     4   9  16  29  51  78 101 128 168 216 249 293
#     4  10  20  33  54  74 102 137 174 210 243 304
#     4   9  18  32  56  78 100 131 173 212 248 303
#
# _framework density 18.636013999999999
#
# number of rings (size 3 to 8) (size 9 to 14) (size 15 to 20)
#    0.000    2.286    2.857    3.000    0.000    0.571 
#    0.000    0.714    0.000    0.000    0.000    0.000 
#    0.000    0.000    0.000    0.000    0.000    0.000 
#
# Total GULP energy -346931.927502 kJ/mol
# GULP energy per Si atom -12390.425982 kJ/mol
# Density = 1.859360 g / cm^3
# Si number density = 18.636014 Si / 1000 Ang^3
#
#
#
# Elastic Constant Matrix: (Units=GPa)
#
#
# Indices 1 2 3 4 5 6 
#
# 1 45.1183 31.5877 19.6867 0.0000 0.7212 0.0000
# 2 31.5877 106.3871 27.3625 0.0000 3.4510 0.0000
# 3 19.6867 27.3625 85.5082 0.0000 -6.2676 0.0000
# 4 0.0000 0.0000 0.0000 14.0964 0.0000 1.6410
# 5 0.7212 3.4510 -6.2676 0.0000 14.0499 0.0000
# 6 0.0000 0.0000 0.0000 1.6410 0.0000 16.3519
#
#
#
# Elastic Compliance Matrix: (Units=1/GPa)
#
#
# Indices 1 2 3 4 5 6 
#
# 1 0.029418 -0.007527 -0.004486 0.000000 -0.001663 0.000000
# 2 -0.007527 0.012404 -0.002513 0.000000 -0.003781 0.000000
# 3 -0.004486 -0.002513 0.014054 0.000000 0.007117 0.000000
# 4 0.000000 0.000000 0.000000 0.071779 0.000000 -0.007203
# 5 -0.001663 -0.003781 0.007117 0.000000 0.075364 0.000000
# 6 0.000000 0.000000 0.000000 -0.007203 0.000000 0.061878
#
#
# Mechanical properties :
#
#
# Convention : Reuss Voigt Hill
#
# Bulk Modulus (GPa) = 37.28271 43.80972 40.54621
# Shear Modulus (GPa) = 16.50775 19.45809 17.98292
#
# Velocity S-wave (km/s) = 2.97947 3.23478 3.10974
# Velocity P-wave (km/s) = 5.64672 6.12461 5.89051
#
# Compressibility (1/GPa) = 0.02682209
#
# Stress axis : x y z
#
# Youngs Moduli (GPa) = 33.99333 80.62240 71.15630
#
# Poissons Ratio (x) = 0.60682 0.31922
# Poissons Ratio (y) = 0.25586 0.17884
# Poissons Ratio (z) = 0.15250 0.20264
#
# Static dielectric constant tensor:
#      x y z
#    x 3.128670 0.000000 0.206990 
#    y 0.000000 3.343910 0.000000 
#    z 0.206990 0.000000 3.375980 
# 
# 
# High freq. dielectric constant tensor:
#      x y z
#    x 1.692310 0.000000 0.018310 
#    y 0.000000 1.711420 0.000000 
#    z 0.018310 0.000000 1.717260 
# 
# From -- ./inp_files/22730.got.cif
#   From: 2010.06.25/outbox.cif.g09.slc.cpg/sg11_12_cif.got.tgz:22730.got - 2010.06.27 23:14:04.
