data_PCOD8071065
_publ_section_title
;
Structure prediction by ZEFSAII (Michael W. Deem and Ramdas Pophale) SiO2 
 PCOD8071065
Probable space group: P 21/M
;
_chemical_formula_sum "Si O2"
_cell_formula_units_Z 28
_cell_length_a 19.328887
_cell_length_b 8.709907
_cell_length_c 15.545175
_cell_angle_alpha 90.000000
_cell_angle_beta 37.401880
_cell_angle_gamma 90.000000
_cell_volume 1589.615653
_symmetry_space_group_name_H-M "P 21/M"
_symmetry_group_IT_number 11
_symmetry_cell_setting 'monoclinic'
loop_
_space_group_symop_operation_xyz
x,y,z
-x,1/2+y,-z
-x,-y,-z
x,1/2-y,z
loop_
_atom_site_type_symbol
_atom_site_label
_atom_site_fract_x
_atom_site_fract_y
_atom_site_fract_z
Si Si1 0.376543 0.068696 0.116842
Si Si2 0.643826 0.068239 0.181198
Si Si3 0.996329 0.431803 0.598803
Si Si4 0.376139 0.069699 0.626824
Si Si5 0.759446 0.932201 0.585096
Si Si6 0.771792 0.931633 0.896426
Si Si7 0.383816 0.069849 0.431039
O O1 0.385033 0.250000 0.112680
O O2 0.303700 0.003636 0.268200
O O3 0.317434 0.013683 0.087594
O O4 0.500000 0.000000 0.000000
O O5 0.652468 0.250000 0.164206
O O6 0.513927 0.006656 0.296005
O O7 0.689328 0.015952 0.230876
O O8 0.727492 0.989824 0.031217
O O9 0.989091 0.250000 0.596733
O O10 0.892923 0.493966 0.756999
O O11 0.000000 0.500000 0.500000
O O12 0.109272 0.483263 0.539436
O O13 0.380624 0.250000 0.641798
O O14 0.324562 0.036282 0.582500
O O15 0.500000 0.000000 0.500000
O O16 0.751027 0.750000 0.590678
O O17 0.697028 0.003631 0.562552
O O18 0.786327 0.750000 0.882646
O O19 0.393900 0.250000 0.406624
#
# Coordination Sequence:
#
# PCOD8071065 Si02
#       7
#     4   4   4   4   4   4   4
#     4  10  20  33  49  73 104 136 166 203 254 307
#     4  10  19  32  52  78 105 138 173 210 258 313
#     4  11  21  36  56  74  98 134 178 220 258 303
#     4   9  16  28  48  76 107 139 170 207 253 308
#     4   9  17  32  51  72 100 133 168 209 252 301
#     4  11  22  36  52  74 104 136 173 217 259 305
#     4   8  15  28  50  77 105 134 167 204 253 309
#
# _framework density 17.614321
#
# number of rings (size 3 to 8) (size 9 to 14) (size 15 to 20)
#    0.000    2.286    1.429    3.429    0.000    2.286 
#    0.000    0.000    0.000   11.143    0.000    0.000 
#    0.000    0.000    0.000    0.000    0.000    0.000 
#
# Total GULP energy -347065.311090 kJ/mol
# GULP energy per Si atom -12395.189682 kJ/mol
# Density = 1.757423 g / cm^3
# Si number density = 17.614321 Si / 1000 Ang^3
#
#
#
# Elastic Constant Matrix: (Units=GPa)
#
#
# Indices 1 2 3 4 5 6 
#
# 1 85.4340 29.0768 76.4103 0.0000 12.8462 0.0000
# 2 29.0768 43.5185 27.9795 0.0000 -1.2031 0.0000
# 3 76.4103 27.9795 142.8971 0.0000 6.7065 0.0000
# 4 0.0000 0.0000 0.0000 29.0988 0.0000 1.5987
# 5 12.8462 -1.2031 6.7065 0.0000 33.7818 0.0000
# 6 0.0000 0.0000 0.0000 1.5987 0.0000 19.4333
#
#
#
# Elastic Compliance Matrix: (Units=1/GPa)
#
#
# Indices 1 2 3 4 5 6 
#
# 1 0.027611 -0.010805 -0.012252 0.000000 -0.008452 0.000000
# 2 -0.010805 0.030648 -0.000472 0.000000 0.005294 0.000000
# 3 -0.012252 -0.000472 0.013550 0.000000 0.001952 0.000000
# 4 0.000000 0.000000 0.000000 0.034522 0.000000 -0.002840
# 5 -0.008452 0.005294 0.001952 0.000000 0.032617 0.000000
# 6 0.000000 0.000000 0.000000 -0.002840 0.000000 0.051692
#
#
# Mechanical properties :
#
#
# Convention : Reuss Voigt Hill
#
# Bulk Modulus (GPa) = 40.40102 59.86476 50.13289
# Shear Modulus (GPa) = 20.32962 25.68832 23.00897
#
# Velocity S-wave (km/s) = 3.40097 3.82301 3.61815
# Velocity P-wave (km/s) = 6.19745 7.31761 6.78070
#
# Compressibility (1/GPa) = 0.02475185
#
# Stress axis : x y z
#
# Youngs Moduli (GPa) = 36.21739 32.62907 73.79962
#
# Poissons Ratio (x) = 0.35255 0.90419
# Poissons Ratio (y) = 0.39132 0.03482
# Poissons Ratio (z) = 0.44374 0.01539
#
# Static dielectric constant tensor:
#      x y z
#    x 3.860340 0.000000 0.339780 
#    y 0.000000 3.190410 0.000000 
#    z 0.339780 0.000000 3.417190 
# 
# 
# High freq. dielectric constant tensor:
#      x y z
#    x 1.678350 0.000000 0.018520 
#    y 0.000000 1.667030 0.000000 
#    z 0.018520 0.000000 1.674820 
# 
# From -- ./inp_files/53237.got.cif
#   From: 2010.06.25/outbox.cif.g09.slc.cpg/sg11_27_cif.got.tgz:53237.got - 2010.06.27 23:14:04.
