data_PCOD8071476
_publ_section_title
;
Structure prediction by ZEFSAII (Michael W. Deem and Ramdas Pophale) SiO2 
 PCOD8071476
Probable space group: P 21/M
;
_chemical_formula_sum "Si O2"
_cell_formula_units_Z 20
_cell_length_a 14.783358
_cell_length_b 13.732200
_cell_length_c 8.817701
_cell_angle_alpha 90.000000
_cell_angle_beta 147.094383
_cell_angle_gamma 90.000000
_cell_volume 972.464421
_symmetry_space_group_name_H-M "P 21/M"
_symmetry_group_IT_number 11
_symmetry_cell_setting 'monoclinic'
loop_
_space_group_symop_operation_xyz
x,y,z
-x,1/2+y,-z
-x,-y,-z
x,1/2-y,z
loop_
_atom_site_type_symbol
_atom_site_label
_atom_site_fract_x
_atom_site_fract_y
_atom_site_fract_z
Si Si1 0.350004 0.865321 0.355738
Si Si2 0.891353 0.861340 0.063403
Si Si3 0.620970 0.510660 0.855812
Si Si4 0.131023 0.988249 0.550608
Si Si5 0.964595 0.639365 0.825755
O O1 0.387364 0.750000 0.412599
O O2 0.454479 0.923070 0.632822
O O3 0.157584 0.890169 0.110989
O O4 0.410163 0.909467 0.278320
O O5 0.860999 0.750000 0.064499
O O6 0.877925 0.878572 0.864840
O O7 0.755040 0.926777 0.951565
O O8 0.077552 0.891557 0.382390
O O9 0.685611 0.483130 0.115504
O O10 0.000000 0.000000 0.500000
O O11 0.128842 0.079184 0.434208
O O12 0.949582 0.750000 0.751862
#
# Coordination Sequence:
#
# PCOD8071476 Si02
#       5
#     4   4   4   4   4
#     4  10  20  35  55  78 109 143 177 218 267 320
#     4  10  20  34  56  81 108 143 179 217 262 317
#     4  10  21  36  55  82 106 141 180 220 268 312
#     4  10  19  33  53  83 105 136 178 224 260 307
#     4  10  20  35  57  79 107 143 179 217 265 317
#
# _framework density 20.566306999999998
#
# number of rings (size 3 to 8) (size 9 to 14) (size 15 to 20)
#    0.000    2.000    4.000    1.200    0.000    4.800 
#    0.000    1.000    0.000    0.000    0.000    0.000 
#    0.000    0.000    0.000    0.000    0.000    0.000 
#
# Total GULP energy -247907.629923 kJ/mol
# GULP energy per Si atom -12395.381496 kJ/mol
# Density = 2.051950 g / cm^3
# Si number density = 20.566307 Si / 1000 Ang^3
#
#
#
# Elastic Constant Matrix: (Units=GPa)
#
#
# Indices 1 2 3 4 5 6 
#
# 1 20.8036 -4.0358 -7.9908 0.0000 -6.1460 0.0000
# 2 -4.0358 52.5326 -3.7743 0.0000 -6.9120 0.0000
# 3 -7.9908 -3.7743 103.7917 0.0000 -12.3427 0.0000
# 4 0.0000 0.0000 0.0000 17.3335 0.0000 -0.2964
# 5 -6.1460 -6.9120 -12.3427 0.0000 25.1522 0.0000
# 6 0.0000 0.0000 0.0000 -0.2964 0.0000 24.4234
#
#
#
# Elastic Compliance Matrix: (Units=1/GPa)
#
#
# Indices 1 2 3 4 5 6 
#
# 1 0.058103 0.007574 0.007099 0.000000 0.019763 0.000000
# 2 0.007574 0.020944 0.002389 0.000000 0.008779 0.000000
# 3 0.007099 0.002389 0.011206 0.000000 0.007890 0.000000
# 4 0.000000 0.000000 0.000000 0.057704 0.000000 0.000700
# 5 0.019763 0.008779 0.007890 0.000000 0.050871 0.000000
# 6 0.000000 0.000000 0.000000 0.000700 0.000000 0.040953
#
#
# Mechanical properties :
#
#
# Convention : Reuss Voigt Hill
#
# Bulk Modulus (GPa) = 8.04006 16.16957 12.10481
# Shear Modulus (GPa) = 20.23327 26.24374 23.23851
#
# Velocity S-wave (km/s) = 3.13997 3.57607 3.36509
# Velocity P-wave (km/s) = 4.13083 4.99302 4.58225
#
# Compressibility (1/GPa) = 0.12437717
#
# Stress axis : x y z
#
# Youngs Moduli (GPa) = 17.21076 47.74559 89.23493
#
# Poissons Ratio (x) = -0.36163 -0.63347
# Poissons Ratio (y) = -0.13036 -0.21315
# Poissons Ratio (z) = -0.12218 -0.11405
#
# Static dielectric constant tensor:
#      x y z
#    x 3.404970 0.000000 -0.077730 
#    y 0.000000 3.981960 0.000000 
#    z -0.077730 0.000000 4.458030 
# 
# 
# High freq. dielectric constant tensor:
#      x y z
#    x 1.772730 0.000000 -0.005590 
#    y 0.000000 1.812170 0.000000 
#    z -0.005590 0.000000 1.809710 
# 
# From -- ./inp_files/12243.got.cif
#   From: 2010.06.25/outbox.cif.g09.slc.cpg/sg11_7_cif.got.tgz:12243.got - 2010.06.27 23:14:04.
