data_PCOD8071621
_publ_section_title
;
Structure prediction by ZEFSAII (Michael W. Deem and Ramdas Pophale) SiO2 
 PCOD8071621
Probable space group: P 21/M
;
_chemical_formula_sum "Si O2"
_cell_formula_units_Z 32
_cell_length_a 12.064552
_cell_length_b 8.753732
_cell_length_c 32.369617
_cell_angle_alpha 90.000000
_cell_angle_beta 149.414343
_cell_angle_gamma 90.000000
_cell_volume 1739.447159
_symmetry_space_group_name_H-M "P 21/M"
_symmetry_group_IT_number 11
_symmetry_cell_setting 'monoclinic'
loop_
_space_group_symop_operation_xyz
x,y,z
-x,1/2+y,-z
-x,-y,-z
x,1/2-y,z
loop_
_atom_site_type_symbol
_atom_site_label
_atom_site_fract_x
_atom_site_fract_y
_atom_site_fract_z
Si Si1 0.165046 0.570420 0.718319
Si Si2 0.182366 0.575659 0.506496
Si Si3 0.984730 0.569676 0.807521
Si Si4 0.684961 0.570366 0.152157
Si Si5 0.722267 0.076060 0.558381
Si Si6 0.660198 0.426445 0.019834
Si Si7 0.259114 0.570031 0.656058
Si Si8 0.472217 0.929410 0.323728
O O1 0.174581 0.750000 0.728295
O O2 0.309118 0.488352 0.799198
O O3 0.263475 0.521810 0.705514
O O4 0.916422 0.516034 0.642457
O O5 0.184166 0.750000 0.523353
O O6 0.262202 0.566085 0.485485
O O7 0.342351 0.472495 0.584328
O O8 0.939421 0.509283 0.432042
O O9 0.944649 0.750000 0.790177
O O10 0.756742 0.484278 0.731665
O O11 0.136199 0.515589 0.818304
O O12 0.094484 0.525635 0.887718
O O13 0.734809 0.750000 0.166302
O O14 0.434738 0.534379 0.056244
O O15 0.731321 0.250000 0.576990
O O16 0.500000 0.000000 0.500000
O O17 0.640789 0.250000 0.022109
O O18 0.500000 0.500000 0.000000
O O19 0.233175 0.750000 0.643408
O O20 0.479393 0.511546 0.704755
O O21 0.467344 0.750000 0.315153
#
# Coordination Sequence:
#
# PCOD8071621 Si02
#       8
#     4   4   4   4   4   4   4   4
#     4  10  21  36  55  78 104 138 179 217 261 314
#     4  10  21  37  55  76 102 138 180 220 265 313
#     4  10  20  35  54  79 111 142 175 215 263 315
#     4  10  19  33  55  83 112 140 174 214 260 317
#     4  10  21  35  52  73 104 141 176 217 264 312
#     4   8  16  31  52  77 106 140 172 209 258 312
#     4  10  21  39  58  76 102 138 181 225 266 311
#     4  12  24  36  54  79 107 139 177 223 269 314
#
# _framework density 18.396650999999999
#
# number of rings (size 3 to 8) (size 9 to 14) (size 15 to 20)
#    0.000    2.000    0.000    3.750    1.750    4.000 
#    0.000    0.000    0.000    0.750    0.000    0.000 
#    0.000    0.000    0.000    0.000    0.000    0.000 
#
# Total GULP energy -396665.652707 kJ/mol
# GULP energy per Si atom -12395.801647 kJ/mol
# Density = 1.835478 g / cm^3
# Si number density = 18.396651 Si / 1000 Ang^3
#
#
#
# Elastic Constant Matrix: (Units=GPa)
#
#
# Indices 1 2 3 4 5 6 
#
# 1 43.4753 18.9241 32.1682 0.0000 -2.4326 0.0000
# 2 18.9241 63.5505 24.5620 0.0000 -4.3551 0.0000
# 3 32.1682 24.5620 87.4913 0.0000 -22.7438 0.0000
# 4 0.0000 0.0000 0.0000 25.8001 0.0000 -1.7002
# 5 -2.4326 -4.3551 -22.7438 0.0000 22.6827 0.0000
# 6 0.0000 0.0000 0.0000 -1.7002 0.0000 29.2738
#
#
#
# Elastic Compliance Matrix: (Units=1/GPa)
#
#
# Indices 1 2 3 4 5 6 
#
# 1 0.035639 -0.005797 -0.014570 0.000000 -0.011900 0.000000
# 2 -0.005797 0.018671 -0.003165 0.000000 -0.000210 0.000000
# 3 -0.014570 -0.003165 0.023143 0.000000 0.021035 0.000000
# 4 0.000000 0.000000 0.000000 0.038909 0.000000 0.002260
# 5 -0.011900 -0.000210 0.021035 0.000000 0.063862 0.000000
# 6 0.000000 0.000000 0.000000 0.002260 0.000000 0.034291
#
#
# Mechanical properties :
#
#
# Convention : Reuss Voigt Hill
#
# Bulk Modulus (GPa) = 32.90507 38.42507 35.66507
# Shear Modulus (GPa) = 18.40213 23.47552 20.93882
#
# Velocity S-wave (km/s) = 3.16618 3.57610 3.37736
# Velocity P-wave (km/s) = 5.59388 6.16308 5.88537
#
# Compressibility (1/GPa) = 0.03039045
#
# Stress axis : x y z
#
# Youngs Moduli (GPa) = 28.05881 53.56039 43.20925
#
# Poissons Ratio (x) = 0.31050 0.62954
# Poissons Ratio (y) = 0.16266 0.13674
# Poissons Ratio (z) = 0.40880 0.16950
#
# Static dielectric constant tensor:
#      x y z
#    x 3.327190 0.000000 -0.167480 
#    y 0.000000 3.516970 0.000000 
#    z -0.167480 0.000000 3.908520 
# 
# 
# High freq. dielectric constant tensor:
#      x y z
#    x 1.694120 0.000000 -0.011300 
#    y 0.000000 1.730080 0.000000 
#    z -0.011300 0.000000 1.714480 
# 
# From -- ./inp_files/73157.got.cif
#   From: 2010.06.25/outbox.cif.g09.slc.cpg/sg11_37_cif.got.tgz:73157.got - 2010.06.27 23:14:04.
