data_PCOD8071734
_publ_section_title
;
Structure prediction by ZEFSAII (Michael W. Deem and Ramdas Pophale) SiO2 
 PCOD8071734
Probable space group: P 21/M
;
_chemical_formula_sum "Si O2"
_cell_formula_units_Z 32
_cell_length_a 25.724893
_cell_length_b 8.810268
_cell_length_c 19.908652
_cell_angle_alpha 90.000000
_cell_angle_beta 21.274526
_cell_angle_gamma 90.000000
_cell_volume 1637.178645
_symmetry_space_group_name_H-M "P 21/M"
_symmetry_group_IT_number 11
_symmetry_cell_setting 'monoclinic'
loop_
_space_group_symop_operation_xyz
x,y,z
-x,1/2+y,-z
-x,-y,-z
x,1/2-y,z
loop_
_atom_site_type_symbol
_atom_site_label
_atom_site_fract_x
_atom_site_fract_y
_atom_site_fract_z
Si Si1 0.651959 0.425228 0.805271
Si Si2 0.156616 0.430261 0.315702
Si Si3 0.779052 0.077368 0.508071
Si Si4 0.709280 0.070833 0.975359
Si Si5 0.694973 0.926215 0.226925
Si Si6 0.388074 0.572210 0.543648
Si Si7 0.105344 0.426713 0.134358
Si Si8 0.605174 0.927474 0.603445
O O1 0.650233 0.250000 0.830456
O O2 0.773117 0.514718 0.699879
O O3 0.683743 0.440599 0.688681
O O4 0.500000 0.500000 0.000000
O O5 0.144934 0.250000 0.329134
O O6 0.254697 0.484587 0.136381
O O7 0.000000 0.500000 0.500000
O O8 0.775865 0.250000 0.485334
O O9 0.940180 0.027633 0.330643
O O10 0.717712 0.967863 0.525418
O O11 0.712732 0.250000 0.957902
O O12 0.823683 0.029175 0.894273
O O13 0.552875 0.013084 0.186545
O O14 0.685112 0.750000 0.256478
O O15 0.550080 0.980867 0.364485
O O16 0.716164 0.015342 0.271254
O O17 0.827125 0.964246 0.019406
O O18 0.373912 0.750000 0.554195
O O19 0.340246 0.501615 0.530983
O O20 0.128157 0.250000 0.125582
O O21 0.601510 0.750000 0.596903
#
# Coordination Sequence:
#
# PCOD8071734 Si02
#       8
#     4   4   4   4   4   4   4   4
#     4  11  23  41  63  89 119 158 203 248 299 359
#     4  12  25  41  62  88 120 156 196 248 302 359
#     4  10  23  40  60  84 115 153 194 238 290 351
#     4  11  23  38  60  89 118 151 195 245 294 352
#     4   9  18  33  56  86 118 151 188 237 293 348
#     4  10  19  33  57  86 117 152 192 239 289 344
#     4  10  20  38  61  87 118 155 195 241 297 353
#     4  11  23  38  58  86 119 153 194 243 288 340
#
# _framework density 19.545819999999999
#
# number of rings (size 3 to 8) (size 9 to 14) (size 15 to 20)
#    0.000    1.500    1.250    4.125    0.000    7.000 
#    0.000    0.625    0.000    0.000    0.000    0.000 
#    0.000    0.000    0.000    0.000    0.000    0.000 
#
# Total GULP energy -396999.669357 kJ/mol
# GULP energy per Si atom -12406.239667 kJ/mol
# Density = 1.950133 g / cm^3
# Si number density = 19.545820 Si / 1000 Ang^3
#
#
#
# Elastic Constant Matrix: (Units=GPa)
#
#
# Indices 1 2 3 4 5 6 
#
# 1 98.8129 37.3498 13.6677 0.0000 1.7205 0.0000
# 2 37.3498 87.1755 16.0306 0.0000 3.3807 0.0000
# 3 13.6677 16.0306 55.5836 0.0000 -1.9745 0.0000
# 4 0.0000 0.0000 0.0000 28.7098 0.0000 1.2850
# 5 1.7205 3.3807 -1.9745 0.0000 32.3908 0.0000
# 6 0.0000 0.0000 0.0000 1.2850 0.0000 40.9465
#
#
#
# Elastic Compliance Matrix: (Units=1/GPa)
#
#
# Indices 1 2 3 4 5 6 
#
# 1 0.012207 -0.004929 -0.001588 0.000000 -0.000231 0.000000
# 2 -0.004929 0.014175 -0.002926 0.000000 -0.001396 0.000000
# 3 -0.001588 -0.002926 0.019281 0.000000 0.001565 0.000000
# 4 0.000000 0.000000 0.000000 0.034880 0.000000 -0.001095
# 5 -0.000231 -0.001396 0.001565 0.000000 0.031126 0.000000
# 6 0.000000 0.000000 0.000000 -0.001095 0.000000 0.024456
#
#
# Mechanical properties :
#
#
# Convention : Reuss Voigt Hill
#
# Bulk Modulus (GPa) = 37.34567 41.74090 39.54329
# Shear Modulus (GPa) = 30.49943 32.04434 31.27189
#
# Velocity S-wave (km/s) = 3.95448 4.05340 4.00425
# Velocity P-wave (km/s) = 6.32446 6.58092 6.45396
#
# Compressibility (1/GPa) = 0.02677686
#
# Stress axis : x y z
#
# Youngs Moduli (GPa) = 81.92076 70.54653 51.86495
#
# Poissons Ratio (x) = 0.34772 0.08238
# Poissons Ratio (y) = 0.40378 0.15174
# Poissons Ratio (z) = 0.13011 0.20640
#
# Static dielectric constant tensor:
#      x y z
#    x 3.774820 0.000000 0.256120 
#    y 0.000000 3.608750 0.000000 
#    z 0.256120 0.000000 3.699930 
# 
# 
# High freq. dielectric constant tensor:
#      x y z
#    x 1.766210 0.000000 0.011680 
#    y 0.000000 1.765960 0.000000 
#    z 0.011680 0.000000 1.761510 
# 
# From -- ./inp_files/67111.got.cif
#   From: 2010.06.25/outbox.cif.g09.slc.cpg/sg11_34_cif.got.tgz:67111.got - 2010.06.27 23:14:04.
