data_PCOD8071255
_publ_section_title
;
Structure prediction by ZEFSAII (Michael W. Deem and Ramdas Pophale) SiO2 
 PCOD8071255
Probable space group: P 21/M
;
_chemical_formula_sum "Si O2"
_cell_formula_units_Z 32
_cell_length_a 11.359913
_cell_length_b 8.838178
_cell_length_c 31.374969
_cell_angle_alpha 90.000000
_cell_angle_beta 147.651316
_cell_angle_gamma 90.000000
_cell_volume 1685.512426
_symmetry_space_group_name_H-M "P 21/M"
_symmetry_group_IT_number 11
_symmetry_cell_setting 'monoclinic'
loop_
_space_group_symop_operation_xyz
x,y,z
-x,1/2+y,-z
-x,-y,-z
x,1/2-y,z
loop_
_atom_site_type_symbol
_atom_site_label
_atom_site_fract_x
_atom_site_fract_y
_atom_site_fract_z
Si Si1 0.858611 0.928221 0.649368
Si Si2 0.358611 0.075055 0.719280
Si Si3 0.648443 0.070740 0.194696
Si Si4 0.669807 0.076042 0.736510
Si Si5 0.902211 0.928971 0.567170
Si Si6 0.511109 0.428850 0.400750
Si Si7 0.168824 0.073519 0.901781
Si Si8 0.523051 0.073605 0.939982
O O1 0.850482 0.750000 0.651355
O O2 0.812412 0.976924 0.586470
O O3 0.674670 0.998395 0.624267
O O4 0.100963 0.985189 0.737172
O O5 0.301882 0.250000 0.709370
O O6 0.559207 0.052945 0.748350
O O7 0.436302 0.000799 0.787226
O O8 0.145365 0.993556 0.634528
O O9 0.636057 0.250000 0.195276
O O10 0.493799 0.014995 0.109468
O O11 0.655614 0.250000 0.717122
O O12 0.921267 0.022116 0.816832
O O13 0.547277 0.971363 0.665134
O O14 0.913096 0.750000 0.565367
O O15 0.744602 0.998011 0.483310
O O16 0.530790 0.250000 0.411275
O O17 0.185869 0.250000 0.918253
O O18 0.311697 0.032596 0.903989
O O19 0.256088 0.979989 0.968894
O O20 0.538687 0.250000 0.934997
#
# Coordination Sequence:
#
# PCOD8071255 Si02
#       8
#     4   4   4   4   4   4   4   4
#     4   8  17  32  51  78 108 137 169 211 261 311
#     4  10  21  38  57  76 101 135 179 225 263 304
#     4  10  19  34  56  80 108 141 176 213 260 314
#     4  10  22  39  56  75 103 139 177 218 264 311
#     4  10  20  36  55  76 106 140 175 215 263 314
#     4  11  21  33  53  80 107 136 174 217 262 314
#     4   9  19  36  56  80 111 143 172 209 261 313
#     4  10  19  32  55  86 114 139 171 210 255 311
#
# _framework density 18.985323999999999
#
# number of rings (size 3 to 8) (size 9 to 14) (size 15 to 20)
#    0.000    2.250    0.000    3.750    0.000    2.500 
#    0.000    6.875    0.000    0.000    0.000    0.000 
#    0.000    0.000    0.000    0.000    0.000    0.000 
#
# Total GULP energy -396910.683464 kJ/mol
# GULP energy per Si atom -12403.458858 kJ/mol
# Density = 1.894211 g / cm^3
# Si number density = 18.985324 Si / 1000 Ang^3
#
#
#
# Elastic Constant Matrix: (Units=GPa)
#
#
# Indices 1 2 3 4 5 6 
#
# 1 68.9657 33.1343 42.2680 0.0000 -7.1021 0.0000
# 2 33.1343 84.4334 45.3992 0.0000 -9.8483 0.0000
# 3 42.2680 45.3992 120.0325 0.0000 -19.9231 0.0000
# 4 0.0000 0.0000 0.0000 31.2135 0.0000 -4.0933
# 5 -7.1021 -9.8483 -19.9231 0.0000 19.9510 0.0000
# 6 0.0000 0.0000 0.0000 -4.0933 0.0000 26.3037
#
#
#
# Elastic Compliance Matrix: (Units=1/GPa)
#
#
# Indices 1 2 3 4 5 6 
#
# 1 0.020123 -0.005151 -0.005239 0.000000 -0.000611 0.000000
# 2 -0.005151 0.016257 -0.003964 0.000000 0.002232 0.000000
# 3 -0.005239 -0.003964 0.013235 0.000000 0.009394 0.000000
# 4 0.000000 0.000000 0.000000 0.032705 0.000000 0.005089
# 5 -0.000611 0.002232 0.009394 0.000000 0.060388 0.000000
# 6 0.000000 0.000000 0.000000 0.005089 0.000000 0.038809
#
#
# Mechanical properties :
#
#
# Convention : Reuss Voigt Hill
#
# Bulk Modulus (GPa) = 47.83483 57.22606 52.53044
# Shear Modulus (GPa) = 23.02079 25.66898 24.34489
#
# Velocity S-wave (km/s) = 3.48596 3.68100 3.58481
# Velocity P-wave (km/s) = 6.43839 6.94796 6.69802
#
# Compressibility (1/GPa) = 0.02090527
#
# Stress axis : x y z
#
# Youngs Moduli (GPa) = 49.69477 61.51151 75.55888
#
# Poissons Ratio (x) = 0.31685 0.39587
# Poissons Ratio (y) = 0.25598 0.29955
# Poissons Ratio (z) = 0.26036 0.24386
#
# Static dielectric constant tensor:
#      x y z
#    x 3.447600 0.000000 0.026350 
#    y 0.000000 3.389170 0.000000 
#    z 0.026350 0.000000 3.475060 
# 
# 
# High freq. dielectric constant tensor:
#      x y z
#    x 1.727610 0.000000 -0.005760 
#    y 0.000000 1.736080 0.000000 
#    z -0.005760 0.000000 1.740080 
# 
# From -- ./inp_files/73150.got.cif
#   From: 2010.06.25/outbox.cif.g09.slc.cpg/sg11_37_cif.got.tgz:73150.got - 2010.06.27 23:14:04.
