data_PCOD8071009
_publ_section_title
;
Structure prediction by ZEFSAII (Michael W. Deem and Ramdas Pophale) SiO2 
 PCOD8071009
Probable space group: P 21/M
;
_chemical_formula_sum "Si O2"
_cell_formula_units_Z 28
_cell_length_a 13.389552
_cell_length_b 8.499505
_cell_length_c 13.402500
_cell_angle_alpha 90.000000
_cell_angle_beta 114.375786
_cell_angle_gamma 90.000000
_cell_volume 1389.300688
_symmetry_space_group_name_H-M "P 21/M"
_symmetry_group_IT_number 11
_symmetry_cell_setting 'monoclinic'
loop_
_space_group_symop_operation_xyz
x,y,z
-x,1/2+y,-z
-x,-y,-z
x,1/2-y,z
loop_
_atom_site_type_symbol
_atom_site_label
_atom_site_fract_x
_atom_site_fract_y
_atom_site_fract_z
Si Si1 0.894755 0.063736 0.399856
Si Si2 0.126082 0.935234 0.198747
Si Si3 0.098599 0.936609 0.823224
Si Si4 0.326770 0.067456 0.379514
Si Si5 0.457559 0.933953 0.253460
Si Si6 0.329382 0.566057 0.593306
Si Si7 0.749388 0.064485 0.943276
O O1 0.899232 0.250000 0.401599
O O2 0.892548 0.999675 0.285645
O O3 0.784495 0.003465 0.407656
O O4 0.000000 0.000000 0.500000
O O5 0.141020 0.750000 0.219435
O O6 0.165318 0.994499 0.106052
O O7 0.199193 0.022872 0.312250
O O8 0.001342 0.982683 0.161705
O O9 0.082663 0.750000 0.819578
O O10 0.208068 0.988066 0.929920
O O11 0.348263 0.250000 0.366677
O O12 0.401748 0.964105 0.337586
O O13 0.358029 0.028999 0.505583
O O14 0.482297 0.750000 0.252411
O O15 0.373643 0.996829 0.132498
O O16 0.571284 0.029277 0.289187
O O17 0.322391 0.750000 0.567416
O O18 0.745145 0.250000 0.933989
#
# Coordination Sequence:
#
# PCOD8071009 Si02
#       7
#     4   4   4   4   4   4   4
#     4  10  23  39  57  78 105 138 177 220 264 310
#     4  10  19  32  51  81 114 143 172 215 269 321
#     4  10  19  35  56  78 103 141 184 222 263 313
#     4  11  21  34  54  81 109 142 178 218 264 318
#     4  10  20  36  56  81 109 140 174 216 265 318
#     4  11  22  37  54  77 108 143 178 220 266 314
#     4   8  17  33  54  78 108 139 174 217 264 314
#
# _framework density 20.154025000000001
#
# number of rings (size 3 to 8) (size 9 to 14) (size 15 to 20)
#    0.000    2.000    0.000    5.143    0.000    4.000 
#    0.000    4.286    0.000    0.000    0.000    0.000 
#    0.000    0.000    0.000    0.000    0.000    0.000 
#
# Total GULP energy -347188.374033 kJ/mol
# GULP energy per Si atom -12399.584787 kJ/mol
# Density = 2.010815 g / cm^3
# Si number density = 20.154025 Si / 1000 Ang^3
#
#
#
# Elastic Constant Matrix: (Units=GPa)
#
#
# Indices 1 2 3 4 5 6 
#
# 1 96.9022 9.6073 61.3244 0.0000 24.0620 0.0000
# 2 9.6073 43.9038 16.4812 0.0000 1.7775 0.0000
# 3 61.3244 16.4812 159.1419 0.0000 14.6515 0.0000
# 4 0.0000 0.0000 0.0000 25.7563 0.0000 7.5406
# 5 24.0620 1.7775 14.6515 0.0000 32.1210 0.0000
# 6 0.0000 0.0000 0.0000 7.5406 0.0000 24.3295
#
#
#
# Elastic Compliance Matrix: (Units=1/GPa)
#
#
# Indices 1 2 3 4 5 6 
#
# 1 0.016123 -0.001185 -0.005203 0.000000 -0.009639 0.000000
# 2 -0.001185 0.023787 -0.002054 0.000000 0.000508 0.000000
# 3 -0.005203 -0.002054 0.008488 0.000000 0.000139 0.000000
# 4 0.000000 0.000000 0.000000 0.042700 0.000000 -0.013234
# 5 -0.009639 0.000508 0.000139 0.000000 0.038262 0.000000
# 6 0.000000 0.000000 0.000000 -0.013234 0.000000 0.045204
#
#
# Mechanical properties :
#
#
# Convention : Reuss Voigt Hill
#
# Bulk Modulus (GPa) = 31.73009 52.75263 42.24136
# Shear Modulus (GPa) = 24.75831 30.61034 27.68433
#
# Velocity S-wave (km/s) = 3.50873 3.90143 3.71028
# Velocity P-wave (km/s) = 5.67388 6.82103 6.27373
#
# Compressibility (1/GPa) = 0.03151583
#
# Stress axis : x y z
#
# Youngs Moduli (GPa) = 62.02182 42.04033 117.80704
#
# Poissons Ratio (x) = 0.04981 0.61294
# Poissons Ratio (y) = 0.07349 0.24193
# Poissons Ratio (z) = 0.32269 0.08633
#
# Static dielectric constant tensor:
#      x y z
#    x 3.684820 0.000000 0.301330 
#    y 0.000000 3.443160 0.000000 
#    z 0.301330 0.000000 4.216520 
# 
# 
# High freq. dielectric constant tensor:
#      x y z
#    x 1.770950 0.000000 0.020370 
#    y 0.000000 1.771370 0.000000 
#    z 0.020370 0.000000 1.796670 
# 
# From -- ./inp_files/49068.got.cif
#   From: 2010.06.25/outbox.cif.g09.slc.cpg/sg11_25_cif.got.tgz:49068.got - 2010.06.27 23:14:04.
