data_PCOD8071751
_publ_section_title
;
Structure prediction by ZEFSAII (Michael W. Deem and Ramdas Pophale) SiO2 
 PCOD8071751
Probable space group: P 21/M
;
_chemical_formula_sum "Si O2"
_cell_formula_units_Z 32
_cell_length_a 28.064858
_cell_length_b 8.781561
_cell_length_c 21.669178
_cell_angle_alpha 90.000000
_cell_angle_beta 18.699599
_cell_angle_gamma 90.000000
_cell_volume 1712.178912
_symmetry_space_group_name_H-M "P 21/M"
_symmetry_group_IT_number 11
_symmetry_cell_setting 'monoclinic'
loop_
_space_group_symop_operation_xyz
x,y,z
-x,1/2+y,-z
-x,-y,-z
x,1/2-y,z
loop_
_atom_site_type_symbol
_atom_site_label
_atom_site_fract_x
_atom_site_fract_y
_atom_site_fract_z
Si Si1 0.344211 0.426044 0.705870
Si Si2 0.151865 0.569540 0.188000
Si Si3 0.955358 0.569495 0.989905
Si Si4 0.821539 0.572221 0.969163
Si Si5 0.913942 0.925462 0.285806
Si Si6 0.674338 0.069977 0.906798
Si Si7 0.661483 0.573497 0.687749
Si Si8 0.830611 0.070455 0.590780
O O1 0.500000 0.500000 0.500000
O O2 0.362094 0.250000 0.670460
O O3 0.209227 0.488453 0.828594
O O4 0.306586 0.458808 0.823464
O O5 0.164200 0.750000 0.167296
O O6 0.232111 0.494528 0.030245
O O7 0.235083 0.504578 0.146113
O O8 0.981755 0.521526 0.399401
O O9 0.959860 0.750000 0.988475
O O10 0.074271 0.516980 0.792716
O O11 0.000000 0.500000 0.000000
O O12 0.858149 0.750000 0.919088
O O13 0.972475 0.487948 0.802701
O O14 0.950300 0.750000 0.227798
O O15 0.749589 0.947000 0.515329
O O16 0.680770 0.250000 0.900384
O O17 0.748757 0.010559 0.752681
O O18 0.505017 0.014310 0.119317
O O19 0.666435 0.750000 0.703058
O O20 0.727230 0.467107 0.659942
O O21 0.863414 0.250000 0.552603
#
# Coordination Sequence:
#
# PCOD8071751 Si02
#       8
#     4   4   4   4   4   4   4   4
#     4   9  20  37  58  84 114 146 181 226 273 326
#     4  11  21  36  57  80 109 147 189 228 276 333
#     4  10  21  38  59  85 117 149 187 231 275 327
#     4  10  20  36  57  82 114 145 185 232 272 322
#     4  10  19  33  58  85 111 146 187 227 273 328
#     4   9  21  38  54  79 113 146 182 232 285 331
#     4  10  20  37  58  81 111 144 186 231 276 335
#     4  11  21  35  58  82 108 144 186 232 281 332
#
# _framework density 18.689634000000002
#
# number of rings (size 3 to 8) (size 9 to 14) (size 15 to 20)
#    0.000    2.000    1.250    3.375    0.000    3.500 
#    2.250    3.750    0.000    0.000    0.000    0.000 
#    0.000    0.000    0.000    0.000    0.000    0.000 
#
# Total GULP energy -396848.769430 kJ/mol
# GULP energy per Si atom -12401.524045 kJ/mol
# Density = 1.864710 g / cm^3
# Si number density = 18.689634 Si / 1000 Ang^3
#
#
#
# Elastic Constant Matrix: (Units=GPa)
#
#
# Indices 1 2 3 4 5 6 
#
# 1 145.1659 34.4297 62.7408 0.0000 11.9088 0.0000
# 2 34.4297 59.5886 34.3936 0.0000 7.3439 0.0000
# 3 62.7408 34.3936 114.3886 0.0000 9.3493 0.0000
# 4 0.0000 0.0000 0.0000 21.6072 0.0000 6.4338
# 5 11.9088 7.3439 9.3493 0.0000 27.0153 0.0000
# 6 0.0000 0.0000 0.0000 6.4338 0.0000 30.4487
#
#
#
# Elastic Compliance Matrix: (Units=1/GPa)
#
#
# Indices 1 2 3 4 5 6 
#
# 1 0.009549 -0.002836 -0.004223 0.000000 -0.001977 0.000000
# 2 -0.002836 0.021476 -0.004658 0.000000 -0.002976 0.000000
# 3 -0.004223 -0.004658 0.012559 0.000000 -0.001218 0.000000
# 4 0.000000 0.000000 0.000000 0.049388 0.000000 -0.010436
# 5 -0.001977 -0.002976 -0.001218 0.000000 0.039118 0.000000
# 6 0.000000 0.000000 0.000000 -0.010436 0.000000 0.035047
#
#
# Mechanical properties :
#
#
# Convention : Reuss Voigt Hill
#
# Bulk Modulus (GPa) = 49.63241 64.69681 57.16461
# Shear Modulus (GPa) = 25.34366 28.31949 26.83158
#
# Velocity S-wave (km/s) = 3.68642 3.89685 3.79309
# Velocity P-wave (km/s) = 6.68830 7.41207 7.05947
#
# Compressibility (1/GPa) = 0.02014813
#
# Stress axis : x y z
#
# Youngs Moduli (GPa) = 104.72658 46.56381 79.62620
#
# Poissons Ratio (x) = 0.13206 0.33627
# Poissons Ratio (y) = 0.29701 0.37094
# Poissons Ratio (z) = 0.44227 0.21692
#
# Static dielectric constant tensor:
#      x y z
#    x 3.735820 0.000000 0.025250 
#    y 0.000000 3.370300 0.000000 
#    z 0.025250 0.000000 3.586420 
# 
# 
# High freq. dielectric constant tensor:
#      x y z
#    x 1.727940 0.000000 0.012600 
#    y 0.000000 1.722770 0.000000 
#    z 0.012600 0.000000 1.726330 
# 
# From -- ./inp_files/66936.got.cif
#   From: 2010.06.25/outbox.cif.g09.slc.cpg/sg11_34_cif.got.tgz:66936.got - 2010.06.27 23:14:04.
