data_PCOD8071523
_publ_section_title
;
Structure prediction by ZEFSAII (Michael W. Deem and Ramdas Pophale) SiO2 
 PCOD8071523
Probable space group: P 21/M
;
_chemical_formula_sum "Si O2"
_cell_formula_units_Z 32
_cell_length_a 19.820562
_cell_length_b 9.338514
_cell_length_c 24.688108
_cell_angle_alpha 90.000000
_cell_angle_beta 23.298129
_cell_angle_gamma 90.000000
_cell_volume 1807.361665
_symmetry_space_group_name_H-M "P 21/M"
_symmetry_group_IT_number 11
_symmetry_cell_setting 'monoclinic'
loop_
_space_group_symop_operation_xyz
x,y,z
-x,1/2+y,-z
-x,-y,-z
x,1/2-y,z
loop_
_atom_site_type_symbol
_atom_site_label
_atom_site_fract_x
_atom_site_fract_y
_atom_site_fract_z
Si Si1 0.742990 0.083944 0.185433
Si Si2 0.959268 0.915223 0.334005
Si Si3 0.061722 0.413962 0.877511
Si Si4 0.764565 0.582879 0.809299
Si Si5 0.576419 0.583703 0.647576
Si Si6 0.556365 0.413574 0.881572
Si Si7 0.902137 0.083862 0.884767
Si Si8 0.445177 0.082732 0.844385
O O1 0.744024 0.250000 0.198434
O O2 0.561025 0.035242 0.295997
O O3 0.781579 0.003762 0.213395
O O4 0.883903 0.042073 0.036894
O O5 0.004053 0.750000 0.312042
O O6 0.759933 0.945573 0.486774
O O7 0.012159 0.960829 0.234670
O O8 0.058311 0.010516 0.304652
O O9 0.104815 0.250000 0.857292
O O10 0.042528 0.444990 0.827838
O O11 0.795602 0.750000 0.777537
O O12 0.700771 0.516010 0.799792
O O13 0.627564 0.549561 0.957210
O O14 0.548766 0.750000 0.683380
O O15 0.557638 0.489692 0.715111
O O16 0.604882 0.250000 0.859287
O O17 0.548181 0.442092 0.823901
O O18 0.845069 0.250000 0.927752
O O19 0.739284 0.987497 0.016043
O O20 0.420859 0.250000 0.850101
#
# Coordination Sequence:
#
# PCOD8071523 Si02
#       8
#     4   4   4   4   4   4   4   4
#     4   9  17  31  50  73 104 139 174 216 264 312
#     4  10  21  36  57  79 107 146 180 216 266 321
#     4   9  17  30  50  76 104 134 173 221 265 310
#     4  10  19  33  54  80 110 140 174 219 267 314
#     4  10  21  38  55  77 109 145 182 217 262 323
#     4   9  19  34  52  79 110 137 173 220 266 315
#     4  10  19  34  55  80 107 139 179 221 264 316
#     4  11  21  34  55  83 109 137 176 225 269 309
#
# _framework density 17.705366000000001
#
# number of rings (size 3 to 8) (size 9 to 14) (size 15 to 20)
#    0.000    2.250    2.500    0.750    0.000    3.000 
#    0.000    1.250    0.000    0.000    0.000    0.000 
#    0.000    0.000    0.000    0.000    0.000    0.000 
#
# Total GULP energy -396887.869584 kJ/mol
# GULP energy per Si atom -12402.745924 kJ/mol
# Density = 1.766507 g / cm^3
# Si number density = 17.705366 Si / 1000 Ang^3
#
#
#
# Elastic Constant Matrix: (Units=GPa)
#
#
# Indices 1 2 3 4 5 6 
#
# 1 112.0578 55.1127 40.9352 0.0000 -16.2725 0.0000
# 2 55.1127 73.1964 33.3950 0.0000 -9.8956 0.0000
# 3 40.9352 33.3950 64.5838 0.0000 -10.4663 0.0000
# 4 0.0000 0.0000 0.0000 19.4167 0.0000 -4.1855
# 5 -16.2725 -9.8956 -10.4663 0.0000 28.7431 0.0000
# 6 0.0000 0.0000 0.0000 -4.1855 0.0000 34.5850
#
#
#
# Elastic Compliance Matrix: (Units=1/GPa)
#
#
# Indices 1 2 3 4 5 6 
#
# 1 0.015695 -0.009200 -0.004532 0.000000 0.004068 0.000000
# 2 -0.009200 0.023514 -0.006227 0.000000 0.000619 0.000000
# 3 -0.004532 -0.006227 0.022118 0.000000 0.003345 0.000000
# 4 0.000000 0.000000 0.000000 0.052881 0.000000 0.006400
# 5 0.004068 0.000619 0.003345 0.000000 0.038525 0.000000
# 6 0.000000 0.000000 0.000000 0.006400 0.000000 0.029689
#
#
# Mechanical properties :
#
#
# Convention : Reuss Voigt Hill
#
# Bulk Modulus (GPa) = 46.70799 56.52488 51.61643
# Shear Modulus (GPa) = 21.78891 24.57531 23.18211
#
# Velocity S-wave (km/s) = 3.51185 3.72965 3.62239
# Velocity P-wave (km/s) = 6.54844 7.10926 6.83461
#
# Compressibility (1/GPa) = 0.02140961
#
# Stress axis : x y z
#
# Youngs Moduli (GPa) = 63.71532 42.52871 45.21248
#
# Poissons Ratio (x) = 0.39126 0.20488
# Poissons Ratio (y) = 0.58617 0.28153
# Poissons Ratio (z) = 0.28873 0.26482
#
# Static dielectric constant tensor:
#      x y z
#    x 3.421360 0.000000 -0.041560 
#    y 0.000000 3.322970 0.000000 
#    z -0.041560 0.000000 3.042210 
# 
# 
# High freq. dielectric constant tensor:
#      x y z
#    x 1.694790 0.000000 -0.009330 
#    y 0.000000 1.685860 0.000000 
#    z -0.009330 0.000000 1.656060 
# 
# From -- ./inp_files/72093.got.cif
#   From: 2010.06.25/outbox.cif.g09.slc.cpg/sg11_37_cif.got.tgz:72093.got - 2010.06.27 23:14:04.
