data_PCOD8071717
_publ_section_title
;
Structure prediction by ZEFSAII (Michael W. Deem and Ramdas Pophale) SiO2 
 PCOD8071717
Probable space group: P 21/M
;
_chemical_formula_sum "Si O2"
_cell_formula_units_Z 28
_cell_length_a 16.508758
_cell_length_b 9.665174
_cell_length_c 9.130843
_cell_angle_alpha 90.000000
_cell_angle_beta 67.998548
_cell_angle_gamma 90.000000
_cell_volume 1350.816532
_symmetry_space_group_name_H-M "P 21/M"
_symmetry_group_IT_number 11
_symmetry_cell_setting 'monoclinic'
loop_
_space_group_symop_operation_xyz
x,y,z
-x,1/2+y,-z
-x,-y,-z
x,1/2-y,z
loop_
_atom_site_type_symbol
_atom_site_label
_atom_site_fract_x
_atom_site_fract_y
_atom_site_fract_z
Si Si1 0.355877 0.089995 0.714172
Si Si2 0.219583 0.096225 0.055933
Si Si3 0.713694 0.404394 0.485090
Si Si4 0.639161 0.496127 0.829167
Si Si5 0.069560 0.910676 0.262310
Si Si6 0.090293 0.907984 0.589655
Si Si7 0.464154 0.899190 0.833297
O O1 0.378818 0.250000 0.671214
O O2 0.340996 0.015606 0.569735
O O3 0.438919 0.021456 0.738792
O O4 0.269705 0.070575 0.870040
O O5 0.177965 0.250000 0.086877
O O6 0.286657 0.089630 0.146021
O O7 0.144787 0.980618 0.114001
O O8 0.698760 0.250000 0.432535
O O9 0.683236 0.403800 0.673966
O O10 0.815836 0.442890 0.406173
O O11 0.565253 0.592526 0.808498
O O12 0.595330 0.399176 0.980876
O O13 0.061426 0.750000 0.224018
O O14 0.095081 0.932096 0.413019
O O15 0.978246 0.987133 0.290088
O O16 0.062100 0.750000 0.641610
O O17 0.449053 0.750000 0.767625
#
# Coordination Sequence:
#
# PCOD8071717 Si02
#       7
#     4   4   4   4   4   4   4
#     4  10  24  41  57  82 118 155 194 237 286 341
#     4  10  20  37  59  84 115 153 191 235 286 337
#     4  11  22  39  61  86 115 152 191 235 286 340
#     4  10  21  36  61  91 116 143 191 243 287 338
#     4  10  19  33  56  87 117 147 187 234 284 335
#     4   9  19  35  54  84 119 147 183 232 286 338
#     4  10  21  39  62  87 115 151 192 237 288 343
#
# _framework density 20.728203000000001
#
# number of rings (size 3 to 8) (size 9 to 14) (size 15 to 20)
#    0.000    2.000    1.429    1.714    0.000    9.714 
#    0.000    0.714    0.000    0.000    0.000    0.000 
#    0.000    0.000    0.000    0.000    0.000    0.000 
#
# Total GULP energy -347225.191678 kJ/mol
# GULP energy per Si atom -12400.899703 kJ/mol
# Density = 2.068102 g / cm^3
# Si number density = 20.728203 Si / 1000 Ang^3
#
#
#
# Elastic Constant Matrix: (Units=GPa)
#
#
# Indices 1 2 3 4 5 6 
#
# 1 71.0730 36.5689 19.9555 0.0000 -0.7144 0.0000
# 2 36.5689 132.7047 21.0313 0.0000 -3.0874 0.0000
# 3 19.9555 21.0313 47.9068 0.0000 0.5388 0.0000
# 4 0.0000 0.0000 0.0000 16.9196 0.0000 5.7080
# 5 -0.7144 -3.0874 0.5388 0.0000 29.5086 0.0000
# 6 0.0000 0.0000 0.0000 5.7080 0.0000 28.2850
#
#
#
# Elastic Compliance Matrix: (Units=1/GPa)
#
#
# Indices 1 2 3 4 5 6 
#
# 1 0.017700 -0.003983 -0.005626 0.000000 0.000115 0.000000
# 2 -0.003983 0.009020 -0.002311 0.000000 0.000889 0.000000
# 3 -0.005626 -0.002311 0.024241 0.000000 -0.000821 0.000000
# 4 0.000000 0.000000 0.000000 0.063421 0.000000 -0.012798
# 5 0.000115 0.000889 -0.000821 0.000000 0.033999 0.000000
# 6 0.000000 0.000000 0.000000 -0.012798 0.000000 0.037937
#
#
# Mechanical properties :
#
#
# Convention : Reuss Voigt Hill
#
# Bulk Modulus (GPa) = 36.87041 45.19955 41.03498
# Shear Modulus (GPa) = 22.81043 26.55123 24.68083
#
# Velocity S-wave (km/s) = 3.32091 3.58288 3.45438
# Velocity P-wave (km/s) = 5.70357 6.24253 5.97913
#
# Compressibility (1/GPa) = 0.02712202
#
# Stress axis : x y z
#
# Youngs Moduli (GPa) = 56.49637 110.86371 41.25281
#
# Poissons Ratio (x) = 0.44161 0.23207
# Poissons Ratio (y) = 0.22505 0.09532
# Poissons Ratio (z) = 0.31783 0.25616
#
# Static dielectric constant tensor:
#      x y z
#    x 3.636600 0.000000 -0.137030 
#    y 0.000000 3.677420 0.000000 
#    z -0.137030 0.000000 3.555730 
# 
# 
# High freq. dielectric constant tensor:
#      x y z
#    x 1.804040 0.000000 -0.012680 
#    y 0.000000 1.814360 0.000000 
#    z -0.012680 0.000000 1.797030 
# 
# From -- ./inp_files/21415.got.cif
#   From: 2010.06.25/outbox.cif.g09.slc.cpg/sg11_11_cif.got.tgz:21415.got - 2010.06.27 23:14:04.
