data_PCOD8071729
_publ_section_title
;
Structure prediction by ZEFSAII (Michael W. Deem and Ramdas Pophale) SiO2 
 PCOD8071729
Probable space group: P 21/M
;
_chemical_formula_sum "Si O2"
_cell_formula_units_Z 32
_cell_length_a 20.740793
_cell_length_b 8.870103
_cell_length_c 26.157466
_cell_angle_alpha 90.000000
_cell_angle_beta 21.263054
_cell_angle_gamma 90.000000
_cell_volume 1745.170319
_symmetry_space_group_name_H-M "P 21/M"
_symmetry_group_IT_number 11
_symmetry_cell_setting 'monoclinic'
loop_
_space_group_symop_operation_xyz
x,y,z
-x,1/2+y,-z
-x,-y,-z
x,1/2-y,z
loop_
_atom_site_type_symbol
_atom_site_label
_atom_site_fract_x
_atom_site_fract_y
_atom_site_fract_z
Si Si1 0.039491 0.079517 0.627093
Si Si2 0.923041 0.426974 0.250258
Si Si3 0.722297 0.572952 0.199281
Si Si4 0.044971 0.572947 0.890156
Si Si5 0.780176 0.574814 0.890237
Si Si6 0.910742 0.076061 0.613669
Si Si7 0.654658 0.924937 0.523307
Si Si8 0.454853 0.428228 0.087495
O O1 0.980432 0.250000 0.685542
O O2 0.231074 0.044075 0.509934
O O3 0.047224 0.060886 0.560367
O O4 0.893885 0.963660 0.755808
O O5 0.885780 0.250000 0.282067
O O6 0.948465 0.480246 0.173317
O O7 0.754806 0.510290 0.399517
O O8 0.105219 0.470236 0.144683
O O9 0.701627 0.750000 0.219554
O O10 0.796485 0.510626 0.197857
O O11 0.531431 0.504065 0.328897
O O12 0.854867 0.527876 0.055033
O O13 0.077878 0.750000 0.871060
O O14 0.731145 0.750000 0.925773
O O15 0.599301 0.479014 0.023154
O O16 0.865648 0.250000 0.635832
O O17 0.733354 0.985358 0.755137
O O18 0.000000 0.000000 0.500000
O O19 0.621180 0.750000 0.538128
O O20 0.454931 0.250000 0.081992
O O21 0.500000 0.500000 0.000000
#
# Coordination Sequence:
#
# PCOD8071729 Si02
#       8
#     4   4   4   4   4   4   4   4
#     4   9  19  36  57  78 109 147 185 226 274 329
#     4   9  19  36  57  82 112 142 179 228 276 323
#     4  10  20  35  56  81 109 144 185 222 267 327
#     4   9  19  37  58  79 109 144 179 224 272 319
#     4  10  19  33  57  85 112 142 183 229 279 332
#     4  11  23  40  59  82 114 149 187 234 285 335
#     4  10  20  35  56  82 110 143 183 224 270 325
#     4  12  23  37  59  85 112 147 191 234 278 333
#
# _framework density 18.336319
#
# number of rings (size 3 to 8) (size 9 to 14) (size 15 to 20)
#    0.000    2.000    1.250    2.625    0.000    3.000 
#    2.250    0.000    0.000    0.000    0.000    0.000 
#    0.000    0.000    0.000    0.000    0.000    0.000 
#
# Total GULP energy -396867.771467 kJ/mol
# GULP energy per Si atom -12402.117858 kJ/mol
# Density = 1.829458 g / cm^3
# Si number density = 18.336319 Si / 1000 Ang^3
#
#
#
# Elastic Constant Matrix: (Units=GPa)
#
#
# Indices 1 2 3 4 5 6 
#
# 1 118.4079 47.1726 68.6209 0.0000 2.8620 0.0000
# 2 47.1726 94.2619 53.4876 0.0000 -4.4321 0.0000
# 3 68.6209 53.4876 124.9365 0.0000 -9.7709 0.0000
# 4 0.0000 0.0000 0.0000 33.8179 0.0000 -2.3464
# 5 2.8620 -4.4321 -9.7709 0.0000 29.1424 0.0000
# 6 0.0000 0.0000 0.0000 -2.3464 0.0000 28.6666
#
#
#
# Elastic Compliance Matrix: (Units=1/GPa)
#
#
# Indices 1 2 3 4 5 6 
#
# 1 0.013539 -0.003390 -0.006295 0.000000 -0.003956 0.000000
# 2 -0.003390 0.014862 -0.004414 0.000000 0.001113 0.000000
# 3 -0.006295 -0.004414 0.013706 0.000000 0.004542 0.000000
# 4 0.000000 0.000000 0.000000 0.029739 0.000000 0.002434
# 5 -0.003956 0.001113 0.004542 0.000000 0.036395 0.000000
# 6 0.000000 0.000000 0.000000 0.002434 0.000000 0.035083
#
#
# Mechanical properties :
#
#
# Convention : Reuss Voigt Hill
#
# Bulk Modulus (GPa) = 71.88446 75.12982 73.50714
# Shear Modulus (GPa) = 28.38360 29.54706 28.96533
#
# Velocity S-wave (km/s) = 3.93866 4.01857 3.97882
# Velocity P-wave (km/s) = 7.74419 7.91164 7.82836
#
# Compressibility (1/GPa) = 0.01391121
#
# Stress axis : x y z
#
# Youngs Moduli (GPa) = 73.85871 67.28538 72.95999
#
# Poissons Ratio (x) = 0.22809 0.45925
# Poissons Ratio (y) = 0.25038 0.32203
# Poissons Ratio (z) = 0.46490 0.29698
#
# Static dielectric constant tensor:
#      x y z
#    x 3.508220 0.000000 -0.247860 
#    y 0.000000 3.484210 0.000000 
#    z -0.247860 0.000000 3.010450 
# 
# 
# High freq. dielectric constant tensor:
#      x y z
#    x 1.712880 0.000000 -0.011560 
#    y 0.000000 1.721270 0.000000 
#    z -0.011560 0.000000 1.703500 
# 
# From -- ./inp_files/71968.got.cif
#   From: 2010.06.25/outbox.cif.g09.slc.cpg/sg11_36_cif.got.tgz:71968.got - 2010.06.27 23:14:04.
