data_PCOD8071928
_publ_section_title
;
Structure prediction by ZEFSAII (Michael W. Deem and Ramdas Pophale) SiO2 
 PCOD8071928
Probable space group: P 21/M
;
_chemical_formula_sum "Si O2"
_cell_formula_units_Z 32
_cell_length_a 25.508097
_cell_length_b 9.264229
_cell_length_c 20.848608
_cell_angle_alpha 90.000000
_cell_angle_beta 159.428076
_cell_angle_gamma 90.000000
_cell_volume 1731.191265
_symmetry_space_group_name_H-M "P 21/M"
_symmetry_group_IT_number 11
_symmetry_cell_setting 'monoclinic'
loop_
_space_group_symop_operation_xyz
x,y,z
-x,1/2+y,-z
-x,-y,-z
x,1/2-y,z
loop_
_atom_site_type_symbol
_atom_site_label
_atom_site_fract_x
_atom_site_fract_y
_atom_site_fract_z
Si Si1 0.617235 0.920000 0.311478
Si Si2 0.898419 0.085122 0.432179
Si Si3 0.515498 0.577963 0.330843
Si Si4 0.091978 0.919024 0.015462
Si Si5 0.814127 0.078684 0.016132
Si Si6 0.436851 0.912670 0.985909
Si Si7 0.918869 0.920330 0.588820
Si Si8 0.216977 0.418605 0.274719
O O1 0.600944 0.750000 0.299317
O O2 0.572955 0.988649 0.329214
O O3 0.785531 0.961217 0.484710
O O4 0.500720 0.979336 0.125072
O O5 0.952854 0.250000 0.503449
O O6 0.739774 0.081373 0.215879
O O7 0.895685 0.007862 0.497367
O O8 0.000000 0.000000 0.500000
O O9 0.512078 0.750000 0.323478
O O10 0.350614 0.516875 0.157517
O O11 0.630410 0.528218 0.517431
O O12 0.124648 0.750000 0.057566
O O13 0.128508 0.980030 0.986646
O O14 0.201691 0.996702 0.190880
O O15 0.919927 0.954334 0.834258
O O16 0.811639 0.250000 0.010726
O O17 0.927344 0.029453 0.201766
O O18 0.497113 0.750000 0.047524
O O19 0.500000 0.000000 0.000000
O O20 0.918820 0.750000 0.572874
O O21 0.221087 0.250000 0.263457
#
# Coordination Sequence:
#
# PCOD8071928 Si02
#       8
#     4   4   4   4   4   4   4   4
#     4   9  17  30  51  77 102 130 166 214 260 304
#     4  11  24  38  55  80 110 143 178 218 266 318
#     4   9  17  29  48  75 103 129 169 215 253 299
#     4   9  17  31  50  74 101 130 167 208 249 301
#     4   9  18  30  49  76 103 134 172 212 252 301
#     4  10  20  35  56  81 106 135 176 220 266 313
#     4  10  19  34  56  78 103 136 174 215 263 312
#     4   9  17  30  50  74  99 130 167 208 254 300
#
# _framework density 18.484380999999999
#
# number of rings (size 3 to 8) (size 9 to 14) (size 15 to 20)
#    0.000    2.500    1.250    1.125    1.750    4.000 
#    0.000    0.625    0.000    3.750    0.000    0.000 
#    0.000    0.000    0.000    0.000    0.000    0.000 
#
# Total GULP energy -396757.556942 kJ/mol
# GULP energy per Si atom -12398.673654 kJ/mol
# Density = 1.844231 g / cm^3
# Si number density = 18.484381 Si / 1000 Ang^3
#
#
#
# Elastic Constant Matrix: (Units=GPa)
#
#
# Indices 1 2 3 4 5 6 
#
# 1 86.6845 23.4247 43.9813 0.0000 1.1779 0.0000
# 2 23.4247 39.9869 25.3321 0.0000 0.0035 0.0000
# 3 43.9813 25.3321 148.7006 0.0000 -3.7814 0.0000
# 4 0.0000 0.0000 0.0000 21.7279 0.0000 -5.1792
# 5 1.1779 0.0035 -3.7814 0.0000 28.2006 0.0000
# 6 0.0000 0.0000 0.0000 -5.1792 0.0000 22.4086
#
#
#
# Elastic Compliance Matrix: (Units=1/GPa)
#
#
# Indices 1 2 3 4 5 6 
#
# 1 0.015056 -0.006705 -0.003338 0.000000 -0.001076 0.000000
# 2 -0.006705 0.031031 -0.003307 0.000000 -0.000167 0.000000
# 3 -0.003338 -0.003307 0.008308 0.000000 0.001254 0.000000
# 4 0.000000 0.000000 0.000000 0.048707 0.000000 0.011257
# 5 -0.001076 -0.000167 0.001254 0.000000 0.035673 0.000000
# 6 0.000000 0.000000 0.000000 0.011257 0.000000 0.047227
#
#
# Mechanical properties :
#
#
# Convention : Reuss Voigt Hill
#
# Bulk Modulus (GPa) = 36.10953 51.20536 43.65744
# Shear Modulus (GPa) = 22.52897 26.64304 24.58601
#
# Velocity S-wave (km/s) = 3.49494 3.80067 3.65101
# Velocity P-wave (km/s) = 5.98863 6.85728 6.43762
#
# Compressibility (1/GPa) = 0.02769352
#
# Stress axis : x y z
#
# Youngs Moduli (GPa) = 66.41685 32.22536 120.37129
#
# Poissons Ratio (x) = 0.21608 0.40184
# Poissons Ratio (y) = 0.44534 0.39812
# Poissons Ratio (z) = 0.22172 0.10658
#
# Static dielectric constant tensor:
#      x y z
#    x 3.445860 0.000000 0.110740 
#    y 0.000000 3.037130 0.000000 
#    z 0.110740 0.000000 3.291100 
# 
# 
# High freq. dielectric constant tensor:
#      x y z
#    x 1.723820 0.000000 -0.003530 
#    y 0.000000 1.668860 0.000000 
#    z -0.003530 0.000000 1.732270 
# 
# From -- ./inp_files/27502.got.cif
#   From: 2010.06.25/outbox.cif.g09.slc.cpg/sg11_14_cif.got.tgz:27502.got - 2010.06.27 23:14:04.
