data_PCOD8071680
_publ_section_title
;
Structure prediction by ZEFSAII (Michael W. Deem and Ramdas Pophale) SiO2 
 PCOD8071680
Probable space group: P 21/M
;
_chemical_formula_sum "Si O2"
_cell_formula_units_Z 32
_cell_length_a 10.392548
_cell_length_b 13.147019
_cell_length_c 21.784041
_cell_angle_alpha 90.000000
_cell_angle_beta 31.903390
_cell_angle_gamma 90.000000
_cell_volume 1572.980613
_symmetry_space_group_name_H-M "P 21/M"
_symmetry_group_IT_number 11
_symmetry_cell_setting 'monoclinic'
loop_
_space_group_symop_operation_xyz
x,y,z
-x,1/2+y,-z
-x,-y,-z
x,1/2-y,z
loop_
_atom_site_type_symbol
_atom_site_label
_atom_site_fract_x
_atom_site_fract_y
_atom_site_fract_z
Si Si1 0.148528 0.537826 0.534354
Si Si2 0.958296 0.363600 0.298804
Si Si3 0.655736 0.637481 0.956413
Si Si4 0.180422 0.575243 0.092115
Si Si5 0.350262 0.482183 0.809076
Si Si6 0.136769 0.637618 0.979173
Si Si7 0.855452 0.130632 0.592555
Si Si8 0.693026 0.497850 0.312798
O O1 0.011353 0.571480 0.651479
O O2 0.090744 0.614440 0.501579
O O3 0.433148 0.542558 0.437210
O O4 0.064443 0.424378 0.548436
O O5 0.875650 0.250000 0.349629
O O6 0.757887 0.404685 0.331380
O O7 0.223700 0.364738 0.160003
O O8 0.694879 0.750000 0.970985
O O9 0.776099 0.544511 0.945623
O O10 0.368605 0.614576 0.066806
O O11 0.211424 0.643901 0.020068
O O12 0.908778 0.582814 0.231374
O O13 0.598713 0.419639 0.714497
O O14 0.319519 0.531783 0.754121
O O15 0.132507 0.408000 0.916443
O O16 0.343592 0.575836 0.858825
O O17 0.131927 0.750000 0.953214
O O18 0.855752 0.250000 0.607842
#
# Coordination Sequence:
#
# PCOD8071680 Si02
#       8
#     4   4   4   4   4   4   4   4
#     4  10  21  37  59  85 112 146 195 236 276 339
#     4  10  20  34  57  84 113 146 185 235 286 333
#     4   9  18  33  53  79 111 148 183 228 283 336
#     4   9  18  33  54  78 112 145 186 229 278 339
#     4   9  20  36  55  84 117 149 190 237 283 342
#     4  10  19  33  56  83 111 148 191 236 284 337
#     4  10  21  39  59  80 115 155 187 233 291 339
#     4   9  19  37  56  78 112 151 179 235 280 329
#
# _framework density 20.343543
#
# number of rings (size 3 to 8) (size 9 to 14) (size 15 to 20)
#    0.000    2.500    0.000    1.500    1.750    1.000 
#    0.000   13.750    0.000    7.500    0.000    0.000 
#    0.000    0.000    0.000    0.000    0.000    0.000 
#
# Total GULP energy -396602.624840 kJ/mol
# GULP energy per Si atom -12393.832026 kJ/mol
# Density = 2.029724 g / cm^3
# Si number density = 20.343543 Si / 1000 Ang^3
#
#
#
# Elastic Constant Matrix: (Units=GPa)
#
#
# Indices 1 2 3 4 5 6 
#
# 1 66.3304 31.5122 30.8895 0.0000 -6.6141 0.0000
# 2 31.5122 131.6920 29.0122 0.0000 9.4676 0.0000
# 3 30.8895 29.0122 79.2958 0.0000 -3.0077 0.0000
# 4 0.0000 0.0000 0.0000 21.2663 0.0000 2.6969
# 5 -6.6141 9.4676 -3.0077 0.0000 29.8156 0.0000
# 6 0.0000 0.0000 0.0000 2.6969 0.0000 21.6793
#
#
#
# Elastic Compliance Matrix: (Units=1/GPa)
#
#
# Indices 1 2 3 4 5 6 
#
# 1 0.020359 -0.003843 -0.006331 0.000000 0.005098 0.000000
# 2 -0.003843 0.009249 -0.002039 0.000000 -0.003995 0.000000
# 3 -0.006331 -0.002039 0.015855 0.000000 0.000842 0.000000
# 4 0.000000 0.000000 0.000000 0.047776 0.000000 -0.005943
# 5 0.005098 -0.003995 0.000842 0.000000 0.036024 0.000000
# 6 0.000000 0.000000 0.000000 -0.005943 0.000000 0.046866
#
#
# Mechanical properties :
#
#
# Convention : Reuss Voigt Hill
#
# Bulk Modulus (GPa) = 47.53473 51.12734 49.33103
# Shear Modulus (GPa) = 24.08848 26.94586 25.51717
#
# Velocity S-wave (km/s) = 3.44479 3.64337 3.54547
# Velocity P-wave (km/s) = 6.26409 6.54870 6.40797
#
# Compressibility (1/GPa) = 0.02103725
#
# Stress axis : x y z
#
# Youngs Moduli (GPa) = 49.11935 108.11450 63.07137
#
# Poissons Ratio (x) = 0.41552 0.39931
# Poissons Ratio (y) = 0.18878 0.12857
# Poissons Ratio (z) = 0.31098 0.22039
#
# Static dielectric constant tensor:
#      x y z
#    x 3.507850 0.000000 -0.094490 
#    y 0.000000 3.616290 0.000000 
#    z -0.094490 0.000000 3.769220 
# 
# 
# High freq. dielectric constant tensor:
#      x y z
#    x 1.781950 0.000000 -0.010120 
#    y 0.000000 1.781570 0.000000 
#    z -0.010120 0.000000 1.795300 
# 
# From -- ./inp_files/68572.got.cif
#   From: 2010.06.25/outbox.cif.g09.slc.cpg/sg11_35_cif.got.tgz:68572.got - 2010.06.27 23:14:04.
