data_PCOD8071141
_publ_section_title
;
Structure prediction by ZEFSAII (Michael W. Deem and Ramdas Pophale) SiO2 
 PCOD8071141
Probable space group: P 21/M
;
_chemical_formula_sum "Si O2"
_cell_formula_units_Z 32
_cell_length_a 5.416774
_cell_length_b 21.569725
_cell_length_c 14.768980
_cell_angle_alpha 90.000000
_cell_angle_beta 113.388705
_cell_angle_gamma 90.000000
_cell_volume 1583.796751
_symmetry_space_group_name_H-M "P 21/M"
_symmetry_group_IT_number 11
_symmetry_cell_setting 'monoclinic'
loop_
_space_group_symop_operation_xyz
x,y,z
-x,1/2+y,-z
-x,-y,-z
x,1/2-y,z
loop_
_atom_site_type_symbol
_atom_site_label
_atom_site_fract_x
_atom_site_fract_y
_atom_site_fract_z
Si Si1 0.835543 0.092992 0.724252
Si Si2 0.362116 0.930929 0.114061
Si Si3 0.485502 0.426277 0.512664
Si Si4 0.103912 0.608008 0.899587
Si Si5 0.650588 0.679359 0.933553
Si Si6 0.192532 0.516583 0.764244
Si Si7 0.097570 0.562124 0.563840
Si Si8 0.243492 0.180210 0.848554
O O1 0.810732 0.065107 0.820815
O O2 0.564967 0.096236 0.625765
O O3 0.977853 0.160062 0.753875
O O4 0.023022 0.042116 0.703243
O O5 0.515971 0.865386 0.142223
O O6 0.550603 0.991851 0.142077
O O7 0.179553 0.933249 0.998337
O O8 0.500000 0.500000 0.500000
O O9 0.700324 0.398343 0.471390
O O10 0.181190 0.401188 0.453440
O O11 0.357368 0.648772 0.902686
O O12 0.027528 0.562026 0.806778
O O13 0.837643 0.647631 0.884387
O O14 0.603518 0.750000 0.896782
O O15 0.812674 0.675973 0.051959
O O16 0.264579 0.550977 0.680845
O O17 0.000000 0.500000 0.500000
O O18 0.323527 0.250000 0.832006
#
# Coordination Sequence:
#
# PCOD8071141 Si02
#       8
#     4   4   4   4   4   4   4   4
#     4  11  20  33  56  80 115 154 183 234 290 343
#     4  10  21  35  50  80 120 159 178 227 285 345
#     4  10  19  32  53  77 109 141 186 221 275 330
#     4  11  23  37  55  88 114 153 191 225 286 343
#     4  10  21  41  60  79 111 150 196 244 278 325
#     4  11  23  33  55  81 123 149 187 229 283 353
#     4  10  19  35  51  76 109 147 186 227 266 326
#     4   9  20  36  54  79 109 150 198 238 278 334
#
# _framework density 20.204613999999999
#
# number of rings (size 3 to 8) (size 9 to 14) (size 15 to 20)
#    0.000    1.750    3.750    2.250    3.500    1.500 
#    0.000    0.000    0.000    0.000    0.000    5.250 
#    0.000    0.000    0.000    0.000    0.000    0.000 
#
# Total GULP energy -396580.521359 kJ/mol
# GULP energy per Si atom -12393.141292 kJ/mol
# Density = 2.015863 g / cm^3
# Si number density = 20.204614 Si / 1000 Ang^3
#
#
#
# Elastic Constant Matrix: (Units=GPa)
#
#
# Indices 1 2 3 4 5 6 
#
# 1 110.3602 6.5862 8.6197 0.0000 -11.4872 0.0000
# 2 6.5862 48.8328 19.0918 0.0000 0.0503 0.0000
# 3 8.6197 19.0918 76.4597 0.0000 -14.4534 0.0000
# 4 0.0000 0.0000 0.0000 15.2630 0.0000 -4.5637
# 5 -11.4872 0.0503 -14.4534 0.0000 25.7153 0.0000
# 6 0.0000 0.0000 0.0000 -4.5637 0.0000 19.8149
#
#
#
# Elastic Compliance Matrix: (Units=1/GPa)
#
#
# Indices 1 2 3 4 5 6 
#
# 1 0.009585 -0.001323 0.000067 0.000000 0.004322 0.000000
# 2 -0.001323 0.023180 -0.006444 0.000000 -0.004258 0.000000
# 3 0.000067 -0.006444 0.016434 0.000000 0.009279 0.000000
# 4 0.000000 0.000000 0.000000 0.070364 0.000000 0.016206
# 5 0.004322 -0.004258 0.009279 0.000000 0.046042 0.000000
# 6 0.000000 0.000000 0.000000 0.016206 0.000000 0.054200
#
#
# Mechanical properties :
#
#
# Convention : Reuss Voigt Hill
#
# Bulk Modulus (GPa) = 29.58683 33.80535 31.69609
# Shear Modulus (GPa) = 20.28634 25.58230 22.93432
#
# Velocity S-wave (km/s) = 3.17210 3.56218 3.37278
# Velocity P-wave (km/s) = 5.30016 5.80402 5.55780
#
# Compressibility (1/GPa) = 0.03379883
#
# Stress axis : x y z
#
# Youngs Moduli (GPa) = 104.33153 43.14031 60.84813
#
# Poissons Ratio (x) = 0.05709 -0.00407
# Poissons Ratio (y) = 0.13806 0.39209
# Poissons Ratio (z) = -0.00697 0.27799
#
# Static dielectric constant tensor:
#      x y z
#    x 2.976540 0.000000 0.050250 
#    y 0.000000 3.336050 0.000000 
#    z 0.050250 0.000000 3.536980 
# 
# 
# High freq. dielectric constant tensor:
#      x y z
#    x 1.800710 0.000000 -0.008880 
#    y 0.000000 1.736830 0.000000 
#    z -0.008880 0.000000 1.778890 
# 
# From -- ./inp_files/30194.got.cif
#   From: 2010.06.25/outbox.cif.g09.slc.cpg/sg11_16_cif.got.tgz:30194.got - 2010.06.27 23:14:04.
