data_PCOD8071576
_publ_section_title
;
Structure prediction by ZEFSAII (Michael W. Deem and Ramdas Pophale) SiO2 
 PCOD8071576
Probable space group: P 21/M
;
_chemical_formula_sum "Si O2"
_cell_formula_units_Z 32
_cell_length_a 20.751891
_cell_length_b 8.621964
_cell_length_c 21.474786
_cell_angle_alpha 90.000000
_cell_angle_beta 26.107640
_cell_angle_gamma 90.000000
_cell_volume 1690.844028
_symmetry_space_group_name_H-M "P 21/M"
_symmetry_group_IT_number 11
_symmetry_cell_setting 'monoclinic'
loop_
_space_group_symop_operation_xyz
x,y,z
-x,1/2+y,-z
-x,-y,-z
x,1/2-y,z
loop_
_atom_site_type_symbol
_atom_site_label
_atom_site_fract_x
_atom_site_fract_y
_atom_site_fract_z
Si Si1 0.850589 0.434140 0.312443
Si Si2 0.081781 0.434348 0.327111
Si Si3 0.384980 0.934810 0.391534
Si Si4 0.022008 0.433638 0.048590
Si Si5 0.250137 0.934286 0.377767
Si Si6 0.707004 0.934161 0.106816
Si Si7 0.882277 0.933823 0.840345
Si Si8 0.637157 0.566077 0.842382
O O1 0.857548 0.250000 0.307137
O O2 0.697258 0.492941 0.474191
O O3 0.886536 0.489428 0.210644
O O4 0.972639 0.500203 0.253152
O O5 0.079085 0.250000 0.327568
O O6 0.129433 0.503533 0.218552
O O7 0.207286 0.494130 0.264831
O O8 0.917986 0.493016 0.486886
O O9 0.390343 0.750000 0.384514
O O10 0.304929 0.992326 0.398021
O O11 0.547336 0.005591 0.257862
O O12 0.026263 0.250000 0.040490
O O13 0.173936 0.496965 0.946720
O O14 0.000000 0.500000 0.000000
O O15 0.259859 0.750000 0.364243
O O16 0.360037 0.006962 0.231193
O O17 0.705448 0.750000 0.113337
O O18 0.746299 0.983248 0.001840
O O19 0.893238 0.750000 0.825957
O O20 0.625381 0.750000 0.855026
O O21 0.500000 0.500000 0.000000
#
# Coordination Sequence:
#
# PCOD8071576 Si02
#       8
#     4   4   4   4   4   4   4   4
#     4   8  13  24  43  69  97 120 151 196 239 277
#     4   9  17  30  50  75 101 128 163 207 255 303
#     4   9  15  25  46  77 101 119 154 208 252 287
#     4   9  17  30  48  70  97 130 161 194 234 283
#     4  10  19  33  55  80 101 128 165 207 260 315
#     4   8  15  24  41  70 100 123 153 201 245 276
#     4   8  12  22  40  66  95 119 150 197 243 280
#     4  11  24  38  51  71 102 138 173 213 257 304
#
# _framework density 18.925460000000001
#
# number of rings (size 3 to 8) (size 9 to 14) (size 15 to 20)
#    0.000    3.000    1.250    2.250    1.750    0.000 
#    0.000    1.250    0.000    1.500    0.000    0.000 
#    0.000    0.000    0.000    0.000    0.000    0.000 
#
# Total GULP energy -396428.266631 kJ/mol
# GULP energy per Si atom -12388.383332 kJ/mol
# Density = 1.888238 g / cm^3
# Si number density = 18.925460 Si / 1000 Ang^3
#
#
#
# Elastic Constant Matrix: (Units=GPa)
#
#
# Indices 1 2 3 4 5 6 
#
# 1 101.1285 16.0561 74.6581 0.0000 18.1064 0.0000
# 2 16.0561 18.5319 18.7868 0.0000 1.7389 0.0000
# 3 74.6581 18.7868 185.8620 0.0000 9.2813 0.0000
# 4 0.0000 0.0000 0.0000 15.9874 0.0000 4.6768
# 5 18.1064 1.7389 9.2813 0.0000 35.7091 0.0000
# 6 0.0000 0.0000 0.0000 4.6768 0.0000 18.2083
#
#
#
# Elastic Compliance Matrix: (Units=1/GPa)
#
#
# Indices 1 2 3 4 5 6 
#
# 1 0.016328 -0.008042 -0.005422 0.000000 -0.006478 0.000000
# 2 -0.008042 0.064148 -0.003345 0.000000 0.001823 0.000000
# 3 -0.005422 -0.003345 0.007853 0.000000 0.000871 0.000000
# 4 0.000000 0.000000 0.000000 0.067631 0.000000 -0.017371
# 5 -0.006478 0.001823 0.000871 0.000000 0.030974 0.000000
# 6 0.000000 0.000000 0.000000 -0.017371 0.000000 0.059382
#
#
# Mechanical properties :
#
#
# Convention : Reuss Voigt Hill
#
# Bulk Modulus (GPa) = 18.27776 58.28049 38.27912
# Shear Modulus (GPa) = 16.76887 27.04905 21.90896
#
# Velocity S-wave (km/s) = 2.97989 3.78463 3.40611
# Velocity P-wave (km/s) = 4.63879 7.06821 5.97821
#
# Compressibility (1/GPa) = 0.05471131
#
# Stress axis : x y z
#
# Youngs Moduli (GPa) = 61.24359 15.58883 127.33942
#
# Poissons Ratio (x) = 0.12537 0.69049
# Poissons Ratio (y) = 0.49252 0.42592
# Poissons Ratio (z) = 0.33209 0.05214
#
# Static dielectric constant tensor:
#      x y z
#    x 3.686400 0.000000 0.057850 
#    y 0.000000 2.867900 0.000000 
#    z 0.057850 0.000000 3.966380 
# 
# 
# High freq. dielectric constant tensor:
#      x y z
#    x 1.725590 0.000000 0.009150 
#    y 0.000000 1.665990 0.000000 
#    z 0.009150 0.000000 1.753570 
# 
# From -- ./inp_files/60958.got.cif
#   From: 2010.06.25/outbox.cif.g09.slc.cpg/sg11_31_cif.got.tgz:60958.got - 2010.06.27 23:14:04.
