data_PCOD8071070
_publ_section_title
;
Structure prediction by ZEFSAII (Michael W. Deem and Ramdas Pophale) SiO2 
 PCOD8071070
Probable space group: P 21/M
;
_chemical_formula_sum "Si O2"
_cell_formula_units_Z 32
_cell_length_a 23.856737
_cell_length_b 8.997142
_cell_length_c 17.521162
_cell_angle_alpha 90.000000
_cell_angle_beta 27.737268
_cell_angle_gamma 90.000000
_cell_volume 1750.336541
_symmetry_space_group_name_H-M "P 21/M"
_symmetry_group_IT_number 11
_symmetry_cell_setting 'monoclinic'
loop_
_space_group_symop_operation_xyz
x,y,z
-x,1/2+y,-z
-x,-y,-z
x,1/2-y,z
loop_
_atom_site_type_symbol
_atom_site_label
_atom_site_fract_x
_atom_site_fract_y
_atom_site_fract_z
Si Si1 0.139970 0.577469 0.193843
Si Si2 0.379250 0.072905 0.481497
Si Si3 0.872310 0.577295 0.478447
Si Si4 0.791217 0.577521 0.742058
Si Si5 0.519439 0.577997 0.055897
Si Si6 0.373698 0.924345 0.637866
Si Si7 0.653296 0.423430 0.162861
Si Si8 0.696587 0.073823 0.577973
O O1 0.163390 0.750000 0.179436
O O2 0.130380 0.503593 0.288399
O O3 0.015075 0.552063 0.300230
O O4 0.247907 0.504814 0.013215
O O5 0.371065 0.250000 0.493503
O O6 0.518309 0.014357 0.310044
O O7 0.315505 0.006208 0.634725
O O8 0.303749 0.008660 0.502384
O O9 0.837199 0.750000 0.509487
O O10 0.824547 0.518588 0.617796
O O11 0.813343 0.478747 0.483536
O O12 0.823042 0.750000 0.708255
O O13 0.651799 0.543337 0.928297
O O14 0.500738 0.750000 0.062152
O O15 0.423211 0.520637 0.233254
O O16 0.500000 0.500000 0.000000
O O17 0.388855 0.750000 0.602490
O O18 0.301418 0.951065 0.804328
O O19 0.500000 0.000000 0.500000
O O20 0.647900 0.250000 0.153099
O O21 0.700783 0.250000 0.560751
#
# Coordination Sequence:
#
# PCOD8071070 Si02
#       8
#     4   4   4   4   4   4   4   4
#     4  10  20  34  53  75  97 130 174 209 247 300
#     4  10  19  32  52  78 107 136 164 202 253 305
#     4  10  21  36  52  69  97 136 173 213 253 293
#     4  10  20  34  50  72 101 130 165 211 259 295
#     4  10  20  33  50  72 100 131 165 205 251 300
#     4   9  16  29  50  76 107 136 163 201 250 304
#     4   8  16  31  51  77 105 131 161 201 250 299
#     4  11  22  34  51  75 101 134 173 210 251 302
#
# _framework density 18.282197
#
# number of rings (size 3 to 8) (size 9 to 14) (size 15 to 20)
#    0.000    2.250    1.250    3.000    0.000    2.000 
#    0.000    3.125    0.000    0.750    0.000    0.000 
#    0.000    0.000    0.000    0.000    0.000    0.000 
#
# Total GULP energy -396724.858827 kJ/mol
# GULP energy per Si atom -12397.651838 kJ/mol
# Density = 1.824059 g / cm^3
# Si number density = 18.282197 Si / 1000 Ang^3
#
#
#
# Elastic Constant Matrix: (Units=GPa)
#
#
# Indices 1 2 3 4 5 6 
#
# 1 135.4868 48.9582 35.8923 0.0000 18.0748 0.0000
# 2 48.9582 63.0500 18.4623 0.0000 5.3917 0.0000
# 3 35.8923 18.4623 46.5939 0.0000 4.0067 0.0000
# 4 0.0000 0.0000 0.0000 18.1278 0.0000 2.7670
# 5 18.0748 5.3917 4.0067 0.0000 23.5103 0.0000
# 6 0.0000 0.0000 0.0000 2.7670 0.0000 36.6724
#
#
#
# Elastic Compliance Matrix: (Units=1/GPa)
#
#
# Indices 1 2 3 4 5 6 
#
# 1 0.012620 -0.007391 -0.006195 0.000000 -0.006952 0.000000
# 2 -0.007391 0.022474 -0.003306 0.000000 0.001091 0.000000
# 3 -0.006195 -0.003306 0.027472 0.000000 0.000839 0.000000
# 4 0.000000 0.000000 0.000000 0.055807 0.000000 -0.004211
# 5 -0.006952 0.001091 0.000839 0.000000 0.047486 0.000000
# 6 0.000000 0.000000 0.000000 -0.004211 0.000000 0.027586
#
#
# Mechanical properties :
#
#
# Convention : Reuss Voigt Hill
#
# Bulk Modulus (GPa) = 34.74297 50.19514 42.46906
# Shear Modulus (GPa) = 21.11289 25.11663 23.11476
#
# Velocity S-wave (km/s) = 3.40197 3.71054 3.55960
# Velocity P-wave (km/s) = 5.87164 6.77295 6.33834
#
# Compressibility (1/GPa) = 0.02878280
#
# Stress axis : x y z
#
# Youngs Moduli (GPa) = 79.23878 44.49570 36.40077
#
# Poissons Ratio (x) = 0.32887 0.22551
# Poissons Ratio (y) = 0.58565 0.12032
# Poissons Ratio (z) = 0.49090 0.14708
#
# Static dielectric constant tensor:
#      x y z
#    x 3.462510 0.000000 0.296280 
#    y 0.000000 3.265850 0.000000 
#    z 0.296280 0.000000 3.525680 
# 
# 
# High freq. dielectric constant tensor:
#      x y z
#    x 1.711200 0.000000 0.013240 
#    y 0.000000 1.698830 0.000000 
#    z 0.013240 0.000000 1.687850 
# 
# From -- ./inp_files/61761.got.cif
#   From: 2010.06.25/outbox.cif.g09.slc.cpg/sg11_31_cif.got.tgz:61761.got - 2010.06.27 23:14:04.
