data_PCOD8071845
_publ_section_title
;
Structure prediction by ZEFSAII (Michael W. Deem and Ramdas Pophale) SiO2 
 PCOD8071845
Probable space group: P 21/M
;
_chemical_formula_sum "Si O2"
_cell_formula_units_Z 32
_cell_length_a 19.346182
_cell_length_b 11.081501
_cell_length_c 15.570741
_cell_angle_alpha 90.000000
_cell_angle_beta 29.047926
_cell_angle_gamma 90.000000
_cell_volume 1620.798719
_symmetry_space_group_name_H-M "P 21/M"
_symmetry_group_IT_number 11
_symmetry_cell_setting 'monoclinic'
loop_
_space_group_symop_operation_xyz
x,y,z
-x,1/2+y,-z
-x,-y,-z
x,1/2-y,z
loop_
_atom_site_type_symbol
_atom_site_label
_atom_site_fract_x
_atom_site_fract_y
_atom_site_fract_z
Si Si1 0.780781 0.387234 0.513274
Si Si2 0.697583 0.884642 0.128433
Si Si3 0.995237 0.621992 0.107167
Si Si4 0.608878 0.388929 0.867282
Si Si5 0.618527 0.392763 0.524459
Si Si6 0.905180 0.112842 0.636529
Si Si7 0.774135 0.957033 0.225201
Si Si8 0.050651 0.964186 0.226091
O O1 0.821657 0.250000 0.454179
O O2 0.656102 0.402254 0.717621
O O3 0.726564 0.439575 0.480963
O O4 0.925661 0.445495 0.390367
O O5 0.722673 0.750000 0.066268
O O6 0.540247 0.932310 0.275711
O O7 0.703770 0.879507 0.226024
O O8 0.809201 0.969500 0.960409
O O9 0.065424 0.750000 0.007033
O O10 0.838133 0.619703 0.234608
O O11 0.983528 0.615854 0.223077
O O12 0.092663 0.518036 0.965738
O O13 0.547827 0.250000 0.947626
O O14 0.743600 0.409113 0.782723
O O15 0.500000 0.500000 0.000000
O O16 0.625040 0.250000 0.506337
O O17 0.660359 0.449938 0.387651
O O18 0.954156 0.250000 0.553265
O O19 0.907160 0.114900 0.737768
O O20 0.000000 0.000000 0.500000
#
# Coordination Sequence:
#
# PCOD8071845 Si02
#       8
#     4   4   4   4   4   4   4   4
#     4  10  20  37  60  85 117 154 194 241 295 359
#     4  10  22  35  55  84 114 151 197 249 296 355
#     4  10  20  33  52  80 110 144 190 236 284 340
#     4  10  23  43  65  93 126 162 202 249 301 366
#     4  10  20  35  55  82 114 151 196 242 298 358
#     4  11  24  42  66  94 126 160 202 252 305 368
#     4  10  19  34  54  77 109 152 190 240 295 344
#     4  11  21  38  59  85 117 150 193 240 297 350
#
# _framework density 19.743352999999999
#
# number of rings (size 3 to 8) (size 9 to 14) (size 15 to 20)
#    0.000    1.750    2.500    1.875    1.750    1.000 
#    0.000    0.000    0.000    2.250    0.000    0.000 
#    0.000    0.000    0.000    0.000    0.000    0.000 
#
# Total GULP energy -396506.957099 kJ/mol
# GULP energy per Si atom -12390.842409 kJ/mol
# Density = 1.969842 g / cm^3
# Si number density = 19.743353 Si / 1000 Ang^3
#
#
#
# Elastic Constant Matrix: (Units=GPa)
#
#
# Indices 1 2 3 4 5 6 
#
# 1 88.5139 30.4986 17.2803 0.0000 -0.0322 0.0000
# 2 30.4986 98.4924 40.0558 0.0000 -7.1687 0.0000
# 3 17.2803 40.0558 72.4462 0.0000 -7.2538 0.0000
# 4 0.0000 0.0000 0.0000 -45.5207 0.0000 -20.8762
# 5 -0.0322 -7.1687 -7.2538 0.0000 30.0741 0.0000
# 6 0.0000 0.0000 0.0000 -20.8762 0.0000 18.1284
#
#
#
# Elastic Compliance Matrix: (Units=1/GPa)
#
#
# Indices 1 2 3 4 5 6 
#
# 1 0.012752 -0.003545 -0.001194 0.000000 -0.001119 0.000000
# 2 -0.003545 0.014142 -0.006801 0.000000 0.001727 0.000000
# 3 -0.001194 -0.006801 0.018124 0.000000 0.002749 0.000000
# 4 0.000000 0.000000 0.000000 -0.014376 0.000000 -0.016555
# 5 -0.001119 0.001727 0.002749 0.000000 0.034325 0.000000
# 6 0.000000 0.000000 0.000000 -0.016555 0.000000 0.036098
#
#
# Mechanical properties :
#
#
# Convention : Reuss Voigt Hill
#
# Bulk Modulus (GPa) = 45.58127 48.34687 46.96407
# Shear Modulus (GPa) = 38.03562 11.97756 25.00659
#
# Velocity S-wave (km/s) = 4.39396 2.46572 3.56277
# Velocity P-wave (km/s) = 6.99139 5.71378 6.38462
#
# Compressibility (1/GPa) = 0.02193884
#
# Stress axis : x y z
#
# Youngs Moduli (GPa) = 78.42127 70.71034 55.17659
#
# Poissons Ratio (x) = 0.25063 0.06587
# Poissons Ratio (y) = 0.27797 0.37525
# Poissons Ratio (z) = 0.09362 0.48090
#
# Static dielectric constant tensor:
#      x y z
#    x 4.019140 0.000000 -0.043980 
#    y 0.000000 3.529110 0.000000 
#    z -0.043980 0.000000 3.322070 
# 
# 
# High freq. dielectric constant tensor:
#      x y z
#    x 1.788520 0.000000 -0.001030 
#    y 0.000000 1.762880 0.000000 
#    z -0.001030 0.000000 1.750810 
# 
# From -- ./inp_files/53625.got.cif
#   From: 2010.06.25/outbox.cif.g09.slc.cpg/sg11_27_cif.got.tgz:53625.got - 2010.06.27 23:14:04.
