data_PCOD8071260
_publ_section_title
;
Structure prediction by ZEFSAII (Michael W. Deem and Ramdas Pophale) SiO2 
 PCOD8071260
Probable space group: P 21/M
;
_chemical_formula_sum "Si O2"
_cell_formula_units_Z 32
_cell_length_a 9.479454
_cell_length_b 21.607190
_cell_length_c 19.211667
_cell_angle_alpha 90.000000
_cell_angle_beta 26.292790
_cell_angle_gamma 90.000000
_cell_volume 1743.048944
_symmetry_space_group_name_H-M "P 21/M"
_symmetry_group_IT_number 11
_symmetry_cell_setting 'monoclinic'
loop_
_space_group_symop_operation_xyz
x,y,z
-x,1/2+y,-z
-x,-y,-z
x,1/2-y,z
loop_
_atom_site_type_symbol
_atom_site_label
_atom_site_fract_x
_atom_site_fract_y
_atom_site_fract_z
Si Si1 0.865262 0.576973 0.269291
Si Si2 0.473983 0.004511 0.350145
Si Si3 0.540568 0.179619 0.627350
Si Si4 0.264053 0.179444 0.266357
Si Si5 0.725295 0.100561 0.139393
Si Si6 0.444844 0.396339 0.797246
Si Si7 0.515600 0.066823 0.089579
Si Si8 0.088475 0.956428 0.311457
O O1 0.688947 0.515509 0.320324
O O2 0.690446 0.638080 0.318049
O O3 0.863354 0.577362 0.354245
O O4 0.230833 0.573349 0.083587
O O5 0.504549 0.954345 0.276102
O O6 0.592590 0.069959 0.268268
O O7 0.113494 0.011521 0.537315
O O8 0.439343 0.250000 0.658527
O O9 0.504698 0.164915 0.725113
O O10 0.906293 0.167409 0.448340
O O11 0.320692 0.250000 0.217801
O O12 0.514738 0.162491 0.217691
O O13 0.325034 0.132423 0.175186
O O14 0.689247 0.055498 0.087682
O O15 0.097680 0.112364 0.984288
O O16 0.685567 0.404001 0.755081
O O17 0.281944 0.008853 0.183088
#
# Coordination Sequence:
#
# PCOD8071260 Si02
#       8
#     4   4   4   4   4   4   4   4
#     4  11  23  36  52  82 115 147 181 218 271 331
#     4  11  19  34  53  77 111 146 179 223 262 318
#     4  10  20  37  60  80 104 141 184 227 267 324
#     4   9  18  33  56  84 104 130 181 232 271 313
#     4  10  19  32  56  81 107 142 179 233 270 309
#     4  11  19  34  55  81 110 138 185 222 271 316
#     4  10  19  34  53  78 113 143 178 223 268 322
#     4  12  23  33  53  83 115 149 177 223 275 327
#
# _framework density 18.358636000000001
#
# number of rings (size 3 to 8) (size 9 to 14) (size 15 to 20)
#    0.750    0.750    3.750    4.500    0.000    2.000 
#    0.000    0.625    0.000    0.750    0.000    2.625 
#    0.000    0.000    0.000    0.000    0.000    0.000 
#
# Total GULP energy -396642.940322 kJ/mol
# GULP energy per Si atom -12395.091885 kJ/mol
# Density = 1.831685 g / cm^3
# Si number density = 18.358636 Si / 1000 Ang^3
#
#
#
# Elastic Constant Matrix: (Units=GPa)
#
#
# Indices 1 2 3 4 5 6 
#
# 1 86.2083 28.0179 11.7903 0.0000 -5.2436 0.0000
# 2 28.0179 80.6786 33.9649 0.0000 -8.0180 0.0000
# 3 11.7903 33.9649 106.9693 0.0000 -12.9467 0.0000
# 4 0.0000 0.0000 0.0000 20.0050 0.0000 -4.2543
# 5 -5.2436 -8.0180 -12.9467 0.0000 17.3998 0.0000
# 6 0.0000 0.0000 0.0000 -4.2543 0.0000 19.5160
#
#
#
# Elastic Compliance Matrix: (Units=1/GPa)
#
#
# Indices 1 2 3 4 5 6 
#
# 1 0.013142 -0.004449 0.000215 0.000000 0.002070 0.000000
# 2 -0.004449 0.016013 -0.004246 0.000000 0.002879 0.000000
# 3 0.000215 -0.004246 0.011478 0.000000 0.006648 0.000000
# 4 0.000000 0.000000 0.000000 0.052418 0.000000 0.011427
# 5 0.002070 0.002879 0.006648 0.000000 0.064369 0.000000
# 6 0.000000 0.000000 0.000000 0.011427 0.000000 0.053731
#
#
# Mechanical properties :
#
#
# Convention : Reuss Voigt Hill
#
# Bulk Modulus (GPa) = 42.24125 46.82249 44.53187
# Shear Modulus (GPa) = 21.18627 24.72301 22.95464
#
# Velocity S-wave (km/s) = 3.40078 3.67368 3.53986
# Velocity P-wave (km/s) = 6.20316 6.59957 6.40443
#
# Compressibility (1/GPa) = 0.02367354
#
# Stress axis : x y z
#
# Youngs Moduli (GPa) = 76.09084 62.44802 87.12626
#
# Poissons Ratio (x) = 0.27780 -0.01869
# Poissons Ratio (y) = 0.33849 0.36991
# Poissons Ratio (z) = -0.01632 0.26514
#
# Static dielectric constant tensor:
#      x y z
#    x 3.220780 0.000000 -0.098640 
#    y 0.000000 3.233320 0.000000 
#    z -0.098640 0.000000 3.429060 
# 
# 
# High freq. dielectric constant tensor:
#      x y z
#    x 1.689200 0.000000 -0.011950 
#    y 0.000000 1.686990 0.000000 
#    z -0.011950 0.000000 1.727760 
# 
# From -- ./inp_files/58439.got.cif
#   From: 2010.06.25/outbox.cif.g09.slc.cpg/sg11_30_cif.got.tgz:58439.got - 2010.06.27 23:14:04.
