data_PCOD8071419
_publ_section_title
;
Structure prediction by ZEFSAII (Michael W. Deem and Ramdas Pophale) SiO2 
 PCOD8071419
Probable space group: P 21/M
;
_chemical_formula_sum "Si O2"
_cell_formula_units_Z 32
_cell_length_a 9.214996
_cell_length_b 8.811023
_cell_length_c 23.153749
_cell_angle_alpha 90.000000
_cell_angle_beta 117.912273
_cell_angle_gamma 90.000000
_cell_volume 1661.233369
_symmetry_space_group_name_H-M "P 21/M"
_symmetry_group_IT_number 11
_symmetry_cell_setting 'monoclinic'
loop_
_space_group_symop_operation_xyz
x,y,z
-x,1/2+y,-z
-x,-y,-z
x,1/2-y,z
loop_
_atom_site_type_symbol
_atom_site_label
_atom_site_fract_x
_atom_site_fract_y
_atom_site_fract_z
Si Si1 0.382895 0.577250 0.561897
Si Si2 0.561481 0.072426 0.198062
Si Si3 0.696199 0.075164 0.573163
Si Si4 0.774965 0.925859 0.924638
Si Si5 0.480238 0.071627 0.689459
Si Si6 0.835509 0.425571 0.715006
Si Si7 0.166090 0.429884 0.830866
Si Si8 0.127540 0.926714 0.943862
O O1 0.376257 0.750000 0.582425
O O2 0.251018 0.549311 0.484520
O O3 0.556505 0.544340 0.563913
O O4 0.359100 0.469969 0.613234
O O5 0.595907 0.250000 0.202854
O O6 0.377553 0.031924 0.143965
O O7 0.588195 0.011698 0.267299
O O8 0.685094 0.990842 0.178608
O O9 0.632578 0.250000 0.569009
O O10 0.843822 0.048307 0.646743
O O11 0.776901 0.750000 0.942964
O O12 0.937384 0.968766 0.919016
O O13 0.764738 0.024147 0.981001
O O14 0.475677 0.250000 0.699002
O O15 0.663902 0.009932 0.708814
O O16 0.839300 0.250000 0.731271
O O17 0.994986 0.501102 0.774263
O O18 0.166120 0.250000 0.827040
O O19 0.192091 0.481228 0.901179
O O20 0.153783 0.750000 0.937108
#
# Coordination Sequence:
#
# PCOD8071419 Si02
#       8
#     4   4   4   4   4   4   4   4
#     4   9  15  24  43  72 103 132 164 208 259 306
#     4  11  23  38  54  75 105 137 172 213 255 301
#     4   8  14  26  44  69 101 133 167 209 257 305
#     4   9  20  38  59  82 107 135 167 207 255 304
#     4  10  19  33  53  76 103 135 172 212 257 309
#     4   8  16  31  52  76 101 133 172 212 253 302
#     4  11  22  36  54  76 105 140 175 210 253 303
#     4  10  20  36  59  84 107 132 167 210 253 300
#
# _framework density 19.262796000000002
#
# number of rings (size 3 to 8) (size 9 to 14) (size 15 to 20)
#    0.000    2.500    0.000    3.375    0.000    2.500 
#    0.000    5.625    0.000    0.750    0.000    0.000 
#    0.000    0.000    0.000    0.000    0.000    0.000 
#
# Total GULP energy -396628.316753 kJ/mol
# GULP energy per Si atom -12394.634899 kJ/mol
# Density = 1.921895 g / cm^3
# Si number density = 19.262796 Si / 1000 Ang^3
#
#
#
# Elastic Constant Matrix: (Units=GPa)
#
#
# Indices 1 2 3 4 5 6 
#
# 1 42.4596 20.0506 30.7625 0.0000 -21.5412 0.0000
# 2 20.0506 60.7472 38.3286 0.0000 -9.2368 0.0000
# 3 30.7625 38.3286 127.3387 0.0000 -27.6750 0.0000
# 4 0.0000 0.0000 0.0000 31.8126 0.0000 -5.8075
# 5 -21.5412 -9.2368 -27.6750 0.0000 20.0643 0.0000
# 6 0.0000 0.0000 0.0000 -5.8075 0.0000 22.3776
#
#
#
# Elastic Compliance Matrix: (Units=1/GPa)
#
#
# Indices 1 2 3 4 5 6 
#
# 1 0.057626 -0.011527 0.002629 0.000000 0.060187 0.000000
# 2 -0.011527 0.022651 -0.006364 0.000000 -0.010727 0.000000
# 3 0.002629 -0.006364 0.013010 0.000000 0.017838 0.000000
# 4 0.000000 0.000000 0.000000 0.032997 0.000000 0.008564
# 5 0.060187 -0.010727 0.017838 0.000000 0.134124 0.000000
# 6 0.000000 0.000000 0.000000 0.008564 0.000000 0.046910
#
#
# Mechanical properties :
#
#
# Convention : Reuss Voigt Hill
#
# Bulk Modulus (GPa) = 15.93327 45.42544 30.67935
# Shear Modulus (GPa) = 13.93671 24.27782 19.10727
#
# Velocity S-wave (km/s) = 2.69272 3.55399 3.15290
# Velocity P-wave (km/s) = 4.23759 6.36194 5.40516
#
# Compressibility (1/GPa) = 0.06276177
#
# Stress axis : x y z
#
# Youngs Moduli (GPa) = 17.35341 44.14806 76.86132
#
# Poissons Ratio (x) = 0.50892 -0.20209
# Poissons Ratio (y) = 0.20004 0.48918
# Poissons Ratio (z) = -0.04563 0.28098
#
# Static dielectric constant tensor:
#      x y z
#    x 3.231490 0.000000 0.098470 
#    y 0.000000 3.412350 0.000000 
#    z 0.098470 0.000000 3.916990 
# 
# 
# High freq. dielectric constant tensor:
#      x y z
#    x 1.700330 0.000000 -0.003340 
#    y 0.000000 1.744420 0.000000 
#    z -0.003340 0.000000 1.774250 
# 
# From -- ./inp_files/63274.got.cif
#   From: 2010.06.25/outbox.cif.g09.slc.cpg/sg11_32_cif.got.tgz:63274.got - 2010.06.27 23:14:04.
