data_PCOD8071094
_publ_section_title
;
Structure prediction by ZEFSAII (Michael W. Deem and Ramdas Pophale) SiO2 
 PCOD8071094
Probable space group: P 21/M
;
_chemical_formula_sum "Si O2"
_cell_formula_units_Z 24
_cell_length_a 12.288955
_cell_length_b 9.132665
_cell_length_c 11.560499
_cell_angle_alpha 90.000000
_cell_angle_beta 110.398224
_cell_angle_gamma 90.000000
_cell_volume 1216.086143
_symmetry_space_group_name_H-M "P 21/M"
_symmetry_group_IT_number 11
_symmetry_cell_setting 'monoclinic'
loop_
_space_group_symop_operation_xyz
x,y,z
-x,1/2+y,-z
-x,-y,-z
x,1/2-y,z
loop_
_atom_site_type_symbol
_atom_site_label
_atom_site_fract_x
_atom_site_fract_y
_atom_site_fract_z
Si Si1 0.787708 0.078362 0.112070
Si Si2 0.027586 0.915342 0.206155
Si Si3 0.244858 0.923529 0.154328
Si Si4 0.667208 0.077297 0.301515
Si Si5 0.894533 0.086693 0.512116
Si Si6 0.527320 0.074872 0.632272
O O1 0.809533 0.250000 0.119631
O O2 0.698621 0.035516 0.180769
O O3 0.733661 0.024464 0.969992
O O4 0.913415 0.009970 0.179685
O O5 0.989226 0.750000 0.161413
O O6 0.116667 0.981591 0.143823
O O7 0.104710 0.918018 0.350167
O O8 0.242787 0.750000 0.161717
O O9 0.346308 0.979256 0.276849
O O10 0.639865 0.250000 0.305677
O O11 0.772305 0.024601 0.422496
O O12 0.558926 0.980302 0.299894
O O13 0.907134 0.250000 0.467524
O O14 0.000000 0.000000 0.500000
O O15 0.519522 0.250000 0.616336
O O16 0.500000 0.000000 0.500000
#
# Coordination Sequence:
#
# PCOD8071094 Si02
#       6
#     4   4   4   4   4   4
#     4  10  20  36  58  83 114 151 188 227 279 339
#     4  10  19  33  55  81 114 150 187 233 282 332
#     4   9  20  38  58  81 112 151 188 230 285 335
#     4  10  21  37  57  84 118 151 186 232 281 332
#     4  10  19  32  52  79 112 148 184 229 281 329
#     4  11  23  41  63  84 111 147 190 235 283 338
#
# _framework density 19.735444999999999
#
# number of rings (size 3 to 8) (size 9 to 14) (size 15 to 20)
#    0.000    2.000    1.667    2.000    0.000    4.667 
#    0.000    5.000    0.000    0.000    0.000    0.000 
#    0.000    0.000    0.000    0.000    0.000    0.000 
#
# Total GULP energy -297547.133106 kJ/mol
# GULP energy per Si atom -12397.797213 kJ/mol
# Density = 1.969053 g / cm^3
# Si number density = 19.735445 Si / 1000 Ang^3
#
#
#
# Elastic Constant Matrix: (Units=GPa)
#
#
# Indices 1 2 3 4 5 6 
#
# 1 116.0984 35.7084 35.7221 0.0000 -14.2664 0.0000
# 2 35.7084 48.3898 25.0827 0.0000 -5.9500 0.0000
# 3 35.7221 25.0827 107.0520 0.0000 -11.3946 0.0000
# 4 0.0000 0.0000 0.0000 22.5489 0.0000 -1.1579
# 5 -14.2664 -5.9500 -11.3946 0.0000 34.0267 0.0000
# 6 0.0000 0.0000 0.0000 -1.1579 0.0000 32.4422
#
#
#
# Elastic Compliance Matrix: (Units=1/GPa)
#
#
# Indices 1 2 3 4 5 6 
#
# 1 0.011841 -0.007380 -0.001899 0.000000 0.003038 0.000000
# 2 -0.007380 0.028305 -0.004119 0.000000 0.000476 0.000000
# 3 -0.001899 -0.004119 0.011177 0.000000 0.002227 0.000000
# 4 0.000000 0.000000 0.000000 0.044430 0.000000 0.001586
# 5 0.003038 0.000476 0.002227 0.000000 0.031491 0.000000
# 6 0.000000 0.000000 0.000000 0.001586 0.000000 0.030881
#
#
# Mechanical properties :
#
#
# Convention : Reuss Voigt Hill
#
# Bulk Modulus (GPa) = 40.76975 51.61852 46.19414
# Shear Modulus (GPa) = 25.89408 29.47203 27.68305
#
# Velocity S-wave (km/s) = 3.62617 3.86859 3.74934
# Velocity P-wave (km/s) = 6.18345 6.79460 6.49622
#
# Compressibility (1/GPa) = 0.02452799
#
# Stress axis : x y z
#
# Youngs Moduli (GPa) = 84.45400 35.32962 89.47100
#
# Poissons Ratio (x) = 0.26073 0.16987
# Poissons Ratio (y) = 0.62327 0.36850
# Poissons Ratio (z) = 0.16034 0.14551
#
# Static dielectric constant tensor:
#      x y z
#    x 3.678780 0.000000 -0.127350 
#    y 0.000000 3.360830 0.000000 
#    z -0.127350 0.000000 4.066940 
# 
# 
# High freq. dielectric constant tensor:
#      x y z
#    x 1.773200 0.000000 -0.008440 
#    y 0.000000 1.743240 0.000000 
#    z -0.008440 0.000000 1.784100 
# 
# From -- ./inp_files/33927.got.cif
#   From: 2010.06.25/outbox.cif.g09.slc.cpg/sg11_17_cif.got.tgz:33927.got - 2010.06.27 23:14:04.
