data_PCOD8071489
_publ_section_title
;
Structure prediction by ZEFSAII (Michael W. Deem and Ramdas Pophale) SiO2 
 PCOD8071489
Probable space group: P 21/M
;
_chemical_formula_sum "Si O2"
_cell_formula_units_Z 28
_cell_length_a 15.648982
_cell_length_b 8.827986
_cell_length_c 20.043680
_cell_angle_alpha 90.000000
_cell_angle_beta 147.764787
_cell_angle_gamma 90.000000
_cell_volume 1476.981753
_symmetry_space_group_name_H-M "P 21/M"
_symmetry_group_IT_number 11
_symmetry_cell_setting 'monoclinic'
loop_
_space_group_symop_operation_xyz
x,y,z
-x,1/2+y,-z
-x,-y,-z
x,1/2-y,z
loop_
_atom_site_type_symbol
_atom_site_label
_atom_site_fract_x
_atom_site_fract_y
_atom_site_fract_z
Si Si1 0.554594 0.431307 0.606635
Si Si2 0.419657 0.075341 0.047257
Si Si3 0.041320 0.577882 0.457961
Si Si4 0.647212 0.080519 0.867173
Si Si5 0.827238 0.928321 0.871918
Si Si6 0.704455 0.921774 0.178210
Si Si7 0.665762 0.918444 0.416490
O O1 0.500000 0.500000 0.500000
O O2 0.569827 0.250000 0.612148
O O3 0.728664 0.496246 0.744810
O O4 0.419912 0.478777 0.572345
O O5 0.408571 0.250000 0.060256
O O6 0.329963 0.974474 0.042604
O O7 0.606338 0.030071 0.163338
O O8 0.328958 0.034249 0.919779
O O9 0.076550 0.750000 0.499066
O O10 0.189130 0.519866 0.512258
O O11 0.000000 0.500000 0.500000
O O12 0.891526 0.555496 0.310811
O O13 0.720302 0.250000 0.906197
O O14 0.459709 0.083423 0.726758
O O15 0.731216 0.958536 0.875913
O O16 0.843171 0.750000 0.868554
O O17 0.000000 0.000000 0.000000
O O18 0.649679 0.750000 0.156945
O O19 0.732051 0.750000 0.473437
#
# Coordination Sequence:
#
# PCOD8071489 Si02
#       7
#     4   4   4   4   4   4   4
#     4  10  21  40  64  90 121 160 199 245 300 356
#     4  10  19  33  54  77 102 139 185 226 273 332
#     4  11  22  35  53  77 108 145 183 228 280 331
#     4  10  20  36  57  81 110 144 181 226 281 335
#     4  11  22  39  62  89 119 151 193 243 293 353
#     4   9  20  36  50  71 107 143 178 225 277 327
#     4   9  20  37  56  80 112 145 185 231 275 332
#
# _framework density 18.957578999999999
#
# number of rings (size 3 to 8) (size 9 to 14) (size 15 to 20)
#    0.000    2.000    0.000    4.714    0.000    8.571 
#    2.571    0.000    0.000    0.000    0.000    0.000 
#    0.000    0.000    0.000    0.000    0.000    0.000 
#
# Total GULP energy -347122.605639 kJ/mol
# GULP energy per Si atom -12397.235916 kJ/mol
# Density = 1.891443 g / cm^3
# Si number density = 18.957579 Si / 1000 Ang^3
#
#
#
# Elastic Constant Matrix: (Units=GPa)
#
#
# Indices 1 2 3 4 5 6 
#
# 1 102.0089 49.6272 55.9898 0.0000 -11.0719 0.0000
# 2 49.6272 112.9111 54.3819 0.0000 -0.2236 0.0000
# 3 55.9898 54.3819 102.4243 0.0000 2.4664 0.0000
# 4 0.0000 0.0000 0.0000 32.8217 0.0000 1.2441
# 5 -11.0719 -0.2236 2.4664 0.0000 27.5340 0.0000
# 6 0.0000 0.0000 0.0000 1.2441 0.0000 36.4686
#
#
#
# Elastic Compliance Matrix: (Units=1/GPa)
#
#
# Indices 1 2 3 4 5 6 
#
# 1 0.016288 -0.003726 -0.007098 0.000000 0.007155 0.000000
# 2 -0.003726 0.012764 -0.004717 0.000000 -0.000972 0.000000
# 3 -0.007098 -0.004717 0.016252 0.000000 -0.004348 0.000000
# 4 0.000000 0.000000 0.000000 0.030507 0.000000 -0.001041
# 5 0.007155 -0.000972 -0.004348 0.000000 0.039578 0.000000
# 6 0.000000 0.000000 0.000000 -0.001041 0.000000 0.027456
#
#
# Mechanical properties :
#
#
# Convention : Reuss Voigt Hill
#
# Bulk Modulus (GPa) = 70.30792 70.81578 70.56185
# Shear Modulus (GPa) = 27.98482 29.85456 28.91969
#
# Velocity S-wave (km/s) = 3.84628 3.97269 3.91000
# Velocity P-wave (km/s) = 7.54272 7.64716 7.59512
#
# Compressibility (1/GPa) = 0.01422315
#
# Stress axis : x y z
#
# Youngs Moduli (GPa) = 61.39366 78.34435 61.53006
#
# Poissons Ratio (x) = 0.29195 0.43672
# Poissons Ratio (y) = 0.22878 0.29021
# Poissons Ratio (z) = 0.43575 0.36952
#
# Static dielectric constant tensor:
#      x y z
#    x 3.442620 0.000000 -0.104440 
#    y 0.000000 3.468080 0.000000 
#    z -0.104440 0.000000 3.643280 
# 
# 
# High freq. dielectric constant tensor:
#      x y z
#    x 1.734910 0.000000 -0.005460 
#    y 0.000000 1.747390 0.000000 
#    z -0.005460 0.000000 1.732630 
# 
# From -- ./inp_files/65424.got.cif
#   From: 2010.06.25/outbox.cif.g09.slc.cpg/sg11_33_cif.got.tgz:65424.got - 2010.06.27 23:14:04.
