data_PCOD8071314
_publ_section_title
;
Structure prediction by ZEFSAII (Michael W. Deem and Ramdas Pophale) SiO2 
 PCOD8071314
Probable space group: P 21/M
;
_chemical_formula_sum "Si O2"
_cell_formula_units_Z 32
_cell_length_a 15.015169
_cell_length_b 8.569793
_cell_length_c 14.870308
_cell_angle_alpha 90.000000
_cell_angle_beta 79.343033
_cell_angle_gamma 90.000000
_cell_volume 1880.461483
_symmetry_space_group_name_H-M "P 21/M"
_symmetry_group_IT_number 11
_symmetry_cell_setting 'monoclinic'
loop_
_space_group_symop_operation_xyz
x,y,z
-x,1/2+y,-z
-x,-y,-z
x,1/2-y,z
loop_
_atom_site_type_symbol
_atom_site_label
_atom_site_fract_x
_atom_site_fract_y
_atom_site_fract_z
Si Si1 0.387767 0.570188 0.929755
Si Si2 0.756116 0.434690 0.755392
Si Si3 0.127365 0.931887 0.429190
Si Si4 0.109980 0.933339 0.116577
Si Si5 0.918132 0.068699 0.196525
Si Si6 0.573497 0.068033 0.871353
Si Si7 0.201811 0.069514 0.928105
Si Si8 0.933546 0.930107 0.384190
O O1 0.365865 0.750000 0.915925
O O2 0.482628 0.526046 0.864544
O O3 0.308470 0.466845 0.902025
O O4 0.393633 0.532329 0.034097
O O5 0.758187 0.250000 0.765905
O O6 0.789098 0.484684 0.649862
O O7 0.823835 0.501332 0.818572
O O8 0.653436 0.493380 0.790616
O O9 0.131400 0.750000 0.452361
O O10 0.035987 0.971577 0.392325
O O11 0.132899 0.028313 0.520539
O O12 0.091400 0.750000 0.132768
O O13 0.015946 0.023410 0.140176
O O14 0.154982 0.962615 0.012057
O O15 0.901253 0.250000 0.182641
O O16 0.841764 0.970328 0.159516
O O17 0.907592 0.033000 0.303766
O O18 0.553093 0.250000 0.862198
O O19 0.186660 0.250000 0.954308
O O20 0.923164 0.750000 0.360516
#
# Coordination Sequence:
#
# PCOD8071314 Si02
#       8
#     4   4   4   4   4   4   4   4
#     4  10  19  33  51  73 101 134 170 213 257 299
#     4   9  16  30  52  75 102 137 170 205 252 301
#     4   9  17  31  51  74 101 134 169 208 256 304
#     4  11  20  36  53  73 104 139 175 213 250 295
#     4  12  24  37  52  73 100 137 178 216 254 302
#     4   9  17  31  51  74 101 134 169 208 256 304
#     4  12  24  37  52  73 100 137 178 216 254 302
#     4  10  19  33  51  73 101 134 170 213 257 299
#
# _framework density 17.017098000000001
#
# number of rings (size 3 to 8) (size 9 to 14) (size 15 to 20)
#    0.000    1.750    2.500    3.750    0.000    1.000 
#    0.000    0.625    0.000    0.000    0.000    0.875 
#    0.000    0.000    0.000    0.000    0.000    0.000 
#
# Total GULP energy -396888.935893 kJ/mol
# GULP energy per Si atom -12402.779247 kJ/mol
# Density = 1.697837 g / cm^3
# Si number density = 17.017098 Si / 1000 Ang^3
#
#
#
# Elastic Constant Matrix: (Units=GPa)
#
#
# Indices 1 2 3 4 5 6 
#
# 1 98.7847 24.1998 47.0085 0.0000 -13.8195 0.0000
# 2 24.1998 50.8837 16.4228 0.0000 -0.5639 0.0000
# 3 47.0085 16.4228 83.3626 0.0000 -15.0842 0.0000
# 4 0.0000 0.0000 0.0000 24.3918 0.0000 0.0113
# 5 -13.8195 -0.5639 -15.0842 0.0000 25.5065 0.0000
# 6 0.0000 0.0000 0.0000 0.0113 0.0000 22.7587
#
#
#
# Elastic Compliance Matrix: (Units=1/GPa)
#
#
# Indices 1 2 3 4 5 6 
#
# 1 0.015159 -0.004958 -0.006837 0.000000 0.004060 0.000000
# 2 -0.004958 0.022721 -0.002324 0.000000 -0.003558 0.000000
# 3 -0.006837 -0.002324 0.017502 0.000000 0.006595 0.000000
# 4 0.000000 0.000000 0.000000 0.040997 0.000000 -0.000020
# 5 0.004060 -0.003558 0.006595 0.000000 0.045227 0.000000
# 6 0.000000 0.000000 0.000000 -0.000020 0.000000 0.043939
#
#
# Mechanical properties :
#
#
# Convention : Reuss Voigt Hill
#
# Bulk Modulus (GPa) = 36.83958 45.36588 41.10273
# Shear Modulus (GPa) = 22.43838 24.22476 23.33157
#
# Velocity S-wave (km/s) = 3.63516 3.77709 3.70681
# Velocity P-wave (km/s) = 6.27015 6.76305 6.52126
#
# Compressibility (1/GPa) = 0.02714472
#
# Stress axis : x y z
#
# Youngs Moduli (GPa) = 65.96738 44.01151 57.13530
#
# Poissons Ratio (x) = 0.21820 0.39062
# Poissons Ratio (y) = 0.32706 0.13280
# Poissons Ratio (z) = 0.45100 0.10230
#
# Static dielectric constant tensor:
#      x y z
#    x 3.187990 0.000000 -0.164500 
#    y 0.000000 3.096600 0.000000 
#    z -0.164500 0.000000 3.163820 
# 
# 
# High freq. dielectric constant tensor:
#      x y z
#    x 1.640100 0.000000 -0.012800 
#    y 0.000000 1.655070 0.000000 
#    z -0.012800 0.000000 1.641320 
# 
# From -- ./inp_files/51237.got.cif
#   From: 2010.06.25/outbox.cif.g09.slc.cpg/sg11_26_cif.got.tgz:51237.got - 2010.06.27 23:14:04.
