data_PCOD8071143
_publ_section_title
;
Structure prediction by ZEFSAII (Michael W. Deem and Ramdas Pophale) SiO2 
 PCOD8071143
Probable space group: P 21/M
;
_chemical_formula_sum "Si O2"
_cell_formula_units_Z 32
_cell_length_a 20.773904
_cell_length_b 8.952855
_cell_length_c 14.315557
_cell_angle_alpha 90.000000
_cell_angle_beta 43.483575
_cell_angle_gamma 90.000000
_cell_volume 1832.183183
_symmetry_space_group_name_H-M "P 21/M"
_symmetry_group_IT_number 11
_symmetry_cell_setting 'monoclinic'
loop_
_space_group_symop_operation_xyz
x,y,z
-x,1/2+y,-z
-x,-y,-z
x,1/2-y,z
loop_
_atom_site_type_symbol
_atom_site_label
_atom_site_fract_x
_atom_site_fract_y
_atom_site_fract_z
Si Si1 0.526083 0.573348 0.569757
Si Si2 0.806583 0.073225 0.853410
Si Si3 0.095841 0.573348 0.430242
Si Si4 0.801471 0.422995 0.154739
Si Si5 0.137781 0.926408 0.594533
Si Si6 0.340007 0.573225 0.853409
Si Si7 0.956210 0.422994 0.845261
Si Si8 0.267686 0.073592 0.594534
O O1 0.500000 0.500000 0.500000
O O2 0.525431 0.750000 0.555654
O O3 0.447856 0.523102 0.728795
O O4 0.626218 0.517467 0.500762
O O5 0.804414 0.250000 0.863424
O O6 0.823349 0.023102 0.728796
O O7 0.892605 0.017329 0.826736
O O8 0.708297 0.010099 0.000001
O O9 0.081085 0.750000 0.444345
O O10 0.126981 0.517468 0.499236
O O11 0.000000 0.500000 0.500000
O O12 0.786054 0.250000 0.197140
O O13 0.719341 0.482674 0.173265
O O14 0.798497 0.520648 0.251273
O O15 0.901635 0.446512 1.000000
O O16 0.146895 0.750000 0.590967
O O17 0.231679 0.000001 0.536641
O O18 0.049770 0.979350 0.748726
O O19 0.332161 0.750000 0.863423
O O20 0.983196 0.250000 0.802859
O O21 0.262139 0.250000 0.590967
#
# Coordination Sequence:
#
# PCOD8071143 Si02
#       8
#     4   4   4   4   4   4   4   4
#     4  10  19  32  53  78 100 127 166 207 251 295
#     4   8  14  27  50  77 101 125 157 199 247 298
#     4  10  19  32  53  78 100 127 166 207 251 295
#     4   9  17  31  52  75 100 133 168 203 247 297
#     4  11  23  35  49  72 102 138 172 206 250 297
#     4   8  14  27  50  77 101 125 157 199 247 298
#     4   9  17  31  52  75 100 133 168 203 247 297
#     4  11  23  35  49  72 102 138 172 206 250 297
#
# _framework density 17.465502999999998
#
# number of rings (size 3 to 8) (size 9 to 14) (size 15 to 20)
#    0.000    2.500    2.500    2.250    0.000    2.000 
#    0.000    0.000    0.000    1.500    0.000    0.000 
#    0.000    0.000    0.000    0.000    0.000    0.250 
#
# Total GULP energy -396648.667609 kJ/mol
# GULP energy per Si atom -12395.270863 kJ/mol
# Density = 1.742575 g / cm^3
# Si number density = 17.465503 Si / 1000 Ang^3
#
#
#
# Elastic Constant Matrix: (Units=GPa)
#
#
# Indices 1 2 3 4 5 6 
#
# 1 120.7060 35.7963 70.0265 0.0000 -0.1636 0.0000
# 2 35.7963 39.3392 27.6848 0.0000 -0.4110 0.0000
# 3 70.0265 27.6848 125.9193 0.0000 0.4281 0.0000
# 4 0.0000 0.0000 0.0000 19.1215 0.0000 -0.1139
# 5 -0.1636 -0.4110 0.4281 0.0000 23.7499 0.0000
# 6 0.0000 0.0000 0.0000 -0.1139 0.0000 21.3692
#
#
#
# Elastic Compliance Matrix: (Units=1/GPa)
#
#
# Indices 1 2 3 4 5 6 
#
# 1 0.014441 -0.008859 -0.006084 0.000000 0.000056 0.000000
# 2 -0.008859 0.035517 -0.002884 0.000000 0.000606 0.000000
# 3 -0.006084 -0.002884 0.011960 0.000000 -0.000307 0.000000
# 4 0.000000 0.000000 0.000000 0.052299 0.000000 0.000279
# 5 0.000056 0.000606 -0.000307 0.000000 0.042122 0.000000
# 6 0.000000 0.000000 0.000000 0.000279 0.000000 0.046798
#
#
# Mechanical properties :
#
#
# Convention : Reuss Voigt Hill
#
# Bulk Modulus (GPa) = 38.07360 61.44220 49.75790
# Shear Modulus (GPa) = 20.19839 23.01193 21.60516
#
# Velocity S-wave (km/s) = 3.40439 3.63377 3.52094
# Velocity P-wave (km/s) = 6.10735 7.27057 6.71420
#
# Compressibility (1/GPa) = 0.02626492
#
# Stress axis : x y z
#
# Youngs Moduli (GPa) = 69.24698 28.15554 83.61224
#
# Poissons Ratio (x) = 0.24942 0.50866
# Poissons Ratio (y) = 0.61344 0.24117
# Poissons Ratio (z) = 0.42126 0.08121
#
# Static dielectric constant tensor:
#      x y z
#    x 3.198450 0.000000 0.045790 
#    y 0.000000 2.972110 0.000000 
#    z 0.045790 0.000000 4.101400 
# 
# 
# High freq. dielectric constant tensor:
#      x y z
#    x 1.651690 0.000000 0.001610 
#    y 0.000000 1.650080 0.000000 
#    z 0.001610 0.000000 1.683410 
# 
# From -- ./inp_files/54253.got.cif
#   From: 2010.06.25/outbox.cif.g09.slc.cpg/sg11_28_cif.got.tgz:54253.got - 2010.06.27 23:14:04.
