data_PCOD8071694
_publ_section_title
;
Structure prediction by ZEFSAII (Michael W. Deem and Ramdas Pophale) SiO2 
 PCOD8071694
Probable space group: P 21/M
;
_chemical_formula_sum "Si O2"
_cell_formula_units_Z 32
_cell_length_a 18.564413
_cell_length_b 15.316234
_cell_length_c 11.703916
_cell_angle_alpha 90.000000
_cell_angle_beta 150.809081
_cell_angle_gamma 90.000000
_cell_volume 1623.065827
_symmetry_space_group_name_H-M "P 21/M"
_symmetry_group_IT_number 11
_symmetry_cell_setting 'monoclinic'
loop_
_space_group_symop_operation_xyz
x,y,z
-x,1/2+y,-z
-x,-y,-z
x,1/2-y,z
loop_
_atom_site_type_symbol
_atom_site_label
_atom_site_fract_x
_atom_site_fract_y
_atom_site_fract_z
Si Si1 0.951055 0.017852 0.094022
Si Si2 0.353066 0.650507 0.049688
Si Si3 0.238961 0.152196 0.831034
Si Si4 0.485336 0.012720 0.112684
Si Si5 0.452083 0.088691 0.495787
Si Si6 0.038602 0.920188 0.638037
Si Si7 0.243794 0.999916 0.373574
Si Si8 0.182333 0.347130 0.009368
O O1 0.922687 0.055952 0.178589
O O2 0.835759 0.056470 0.838620
O O3 0.116522 0.037238 0.280626
O O4 0.918838 0.913480 0.057986
O O5 0.385962 0.750000 0.057643
O O6 0.444555 0.583432 0.099778
O O7 0.403839 0.636817 0.252900
O O8 0.180668 0.631788 0.790624
O O9 0.304574 0.250000 0.914678
O O10 0.103450 0.142797 0.554898
O O11 0.363022 0.082775 0.974301
O O12 0.167293 0.131826 0.854769
O O13 0.637408 0.049482 0.380828
O O14 0.500000 0.000000 0.000000
O O15 0.359373 0.146679 0.278485
O O16 0.500000 0.000000 0.500000
O O17 0.337941 0.075129 0.442500
O O18 0.000000 0.000000 0.500000
O O19 0.125796 0.250000 0.959895
#
# Coordination Sequence:
#
# PCOD8071694 Si02
#       8
#     4   4   4   4   4   4   4   4
#     4  10  19  37  59  84 114 153 198 242 296 361
#     4  11  23  38  59  91 121 154 207 260 308 371
#     4  11  23  38  57  86 116 150 203 253 302 362
#     4  11  22  39  61  85 120 163 200 248 312 372
#     4  10  19  36  61  86 116 156 200 246 302 365
#     4  12  21  37  61  84 115 160 200 253 307 366
#     4   9  20  34  59  87 112 152 201 242 294 362
#     4  10  19  33  56  84 115 148 185 240 300 353
#
# _framework density 19.715774
#
# number of rings (size 3 to 8) (size 9 to 14) (size 15 to 20)
#    0.000    1.500    2.500    4.500    0.000    0.500 
#    0.000    0.625    0.000   24.000    0.000    0.000 
#    0.000    0.000    0.000    0.000    0.000    0.000 
#
# Total GULP energy -396475.592140 kJ/mol
# GULP energy per Si atom -12389.862254 kJ/mol
# Density = 1.967090 g / cm^3
# Si number density = 19.715774 Si / 1000 Ang^3
#
#
#
# Elastic Constant Matrix: (Units=GPa)
#
#
# Indices 1 2 3 4 5 6 
#
# 1 79.9685 45.0843 33.1662 0.0000 -5.0930 0.0000
# 2 45.0843 102.0214 37.5761 0.0000 3.0105 0.0000
# 3 33.1662 37.5761 149.3667 0.0000 -3.0072 0.0000
# 4 0.0000 0.0000 0.0000 22.0648 0.0000 -2.8587
# 5 -5.0930 3.0105 -3.0072 0.0000 35.1028 0.0000
# 6 0.0000 0.0000 0.0000 -2.8587 0.0000 15.8013
#
#
#
# Elastic Compliance Matrix: (Units=1/GPa)
#
#
# Indices 1 2 3 4 5 6 
#
# 1 0.017539 -0.007082 -0.002053 0.000000 0.002976 0.000000
# 2 -0.007082 0.013710 -0.001924 0.000000 -0.002368 0.000000
# 3 -0.002053 -0.001924 0.007645 0.000000 0.000522 0.000000
# 4 0.000000 0.000000 0.000000 0.046409 0.000000 0.008396
# 5 0.002976 -0.002368 0.000522 0.000000 0.029167 0.000000
# 6 0.000000 0.000000 0.000000 0.008396 0.000000 0.064805
#
#
# Mechanical properties :
#
#
# Convention : Reuss Voigt Hill
#
# Bulk Modulus (GPa) = 59.60987 62.55664 61.08326
# Shear Modulus (GPa) = 24.15626 28.96246 26.55936
#
# Velocity S-wave (km/s) = 3.50412 3.83691 3.67428
# Velocity P-wave (km/s) = 6.83169 7.17128 7.00355
#
# Compressibility (1/GPa) = 0.01677575
#
# Stress axis : x y z
#
# Youngs Moduli (GPa) = 57.01696 72.93861 130.79913
#
# Poissons Ratio (x) = 0.51657 0.26850
# Poissons Ratio (y) = 0.40381 0.25168
# Poissons Ratio (z) = 0.11704 0.14035
#
# Static dielectric constant tensor:
#      x y z
#    x 3.467540 0.000000 -0.236730 
#    y 0.000000 3.349000 0.000000 
#    z -0.236730 0.000000 4.296510 
# 
# 
# High freq. dielectric constant tensor:
#      x y z
#    x 1.758030 0.000000 -0.012470 
#    y 0.000000 1.732780 0.000000 
#    z -0.012470 0.000000 1.800200 
# 
# From -- ./inp_files/41683.got.cif
#   From: 2010.06.25/outbox.cif.g09.slc.cpg/sg11_21_cif.got.tgz:41683.got - 2010.06.27 23:14:04.
