data_PCOD8071703
_publ_section_title
;
Structure prediction by ZEFSAII (Michael W. Deem and Ramdas Pophale) SiO2 
 PCOD8071703
Probable space group: P 21/M
;
_chemical_formula_sum "Si O2"
_cell_formula_units_Z 24
_cell_length_a 11.555645
_cell_length_b 8.759071
_cell_length_c 22.068680
_cell_angle_alpha 90.000000
_cell_angle_beta 31.476968
_cell_angle_gamma 90.000000
_cell_volume 1166.349428
_symmetry_space_group_name_H-M "P 21/M"
_symmetry_group_IT_number 11
_symmetry_cell_setting 'monoclinic'
loop_
_space_group_symop_operation_xyz
x,y,z
-x,1/2+y,-z
-x,-y,-z
x,1/2-y,z
loop_
_atom_site_type_symbol
_atom_site_label
_atom_site_fract_x
_atom_site_fract_y
_atom_site_fract_z
Si Si1 0.131259 0.928022 0.533571
Si Si2 0.736644 0.426589 0.392246
Si Si3 0.432910 0.430486 0.966006
Si Si4 0.669042 0.430501 0.739673
Si Si5 0.533482 0.431149 0.281475
Si Si6 0.059582 0.931048 0.820774
O O1 0.153470 0.750000 0.506818
O O2 0.130735 0.957889 0.605577
O O3 0.331125 0.019625 0.414573
O O4 0.896222 0.991595 0.615816
O O5 0.500000 0.500000 0.500000
O O6 0.696056 0.250000 0.399163
O O7 0.874697 0.496768 0.274740
O O8 0.431881 0.250000 0.974307
O O9 0.601517 0.481746 0.837744
O O10 0.500000 0.500000 0.000000
O O11 0.188802 0.489195 0.054730
O O12 0.694119 0.250000 0.724096
O O13 0.480935 0.487560 0.777238
O O14 0.528084 0.250000 0.275916
O O15 0.764419 0.489209 0.207881
O O16 0.065594 0.750000 0.816946
#
# Coordination Sequence:
#
# PCOD8071703 Si02
#       6
#     4   4   4   4   4   4
#     4  11  22  37  60  88 120 157 198 245 294 350
#     4  10  19  33  56  85 116 148 185 233 286 343
#     4  10  22  42  65  88 117 153 194 241 292 348
#     4  11  24  40  59  85 119 157 198 244 291 347
#     4  11  22  38  61  86 118 157 197 243 295 353
#     4   9  19  37  60  86 118 155 190 235 293 347
#
# _framework density 20.577024000000002
#
# number of rings (size 3 to 8) (size 9 to 14) (size 15 to 20)
#    0.000    1.667    1.667    3.000    0.000    4.000 
#    0.000    2.500    0.000    0.000    0.000    0.000 
#    0.000    0.000    0.000    0.000    0.000    0.000 
#
# Total GULP energy -297617.112399 kJ/mol
# GULP energy per Si atom -12400.713017 kJ/mol
# Density = 2.053019 g / cm^3
# Si number density = 20.577024 Si / 1000 Ang^3
#
#
#
# Elastic Constant Matrix: (Units=GPa)
#
#
# Indices 1 2 3 4 5 6 
#
# 1 120.0167 23.9601 38.6214 0.0000 -7.2382 0.0000
# 2 23.9601 35.0831 17.4330 0.0000 3.7403 0.0000
# 3 38.6214 17.4330 105.6842 0.0000 -12.4920 0.0000
# 4 0.0000 0.0000 0.0000 23.8536 0.0000 0.5624
# 5 -7.2382 3.7403 -12.4920 0.0000 37.1322 0.0000
# 6 0.0000 0.0000 0.0000 0.5624 0.0000 33.3749
#
#
#
# Elastic Compliance Matrix: (Units=1/GPa)
#
#
# Indices 1 2 3 4 5 6 
#
# 1 0.010492 -0.006049 -0.002627 0.000000 0.001771 0.000000
# 2 -0.006049 0.035473 -0.004377 0.000000 -0.006225 0.000000
# 3 -0.002627 -0.004377 0.011597 0.000000 0.003830 0.000000
# 4 0.000000 0.000000 0.000000 0.041939 0.000000 -0.000707
# 5 0.001771 -0.006225 0.003830 0.000000 0.029192 0.000000
# 6 0.000000 0.000000 0.000000 -0.000707 0.000000 0.029975
#
#
# Mechanical properties :
#
#
# Convention : Reuss Voigt Hill
#
# Bulk Modulus (GPa) = 31.78967 46.75700 39.27334
# Shear Modulus (GPa) = 25.60710 30.92343 28.26527
#
# Velocity S-wave (km/s) = 3.53151 3.88082 3.71028
# Velocity P-wave (km/s) = 5.66669 6.54624 6.12228
#
# Compressibility (1/GPa) = 0.03145676
#
# Stress axis : x y z
#
# Youngs Moduli (GPa) = 95.31101 28.19022 86.22996
#
# Poissons Ratio (x) = 0.17052 0.22654
# Poissons Ratio (y) = 0.57652 0.37741
# Poissons Ratio (z) = 0.25039 0.12338
#
# Static dielectric constant tensor:
#      x y z
#    x 4.080710 0.000000 0.005280 
#    y 0.000000 3.568780 0.000000 
#    z 0.005280 0.000000 3.870640 
# 
# 
# High freq. dielectric constant tensor:
#      x y z
#    x 1.822200 0.000000 -0.000750 
#    y 0.000000 1.786270 0.000000 
#    z -0.000750 0.000000 1.806910 
# 
# From -- ./inp_files/33696.got.cif
#   From: 2010.06.25/outbox.cif.g09.slc.cpg/sg11_17_cif.got.tgz:33696.got - 2010.06.27 23:14:04.
