data_PCOD8071581
_publ_section_title
;
Structure prediction by ZEFSAII (Michael W. Deem and Ramdas Pophale) SiO2 
 PCOD8071581
Probable space group: P 21/M
;
_chemical_formula_sum "Si O2"
_cell_formula_units_Z 28
_cell_length_a 14.696298
_cell_length_b 9.373675
_cell_length_c 12.626354
_cell_angle_alpha 90.000000
_cell_angle_beta 120.211525
_cell_angle_gamma 90.000000
_cell_volume 1503.130886
_symmetry_space_group_name_H-M "P 21/M"
_symmetry_group_IT_number 11
_symmetry_cell_setting 'monoclinic'
loop_
_space_group_symop_operation_xyz
x,y,z
-x,1/2+y,-z
-x,-y,-z
x,1/2-y,z
loop_
_atom_site_type_symbol
_atom_site_label
_atom_site_fract_x
_atom_site_fract_y
_atom_site_fract_z
Si Si1 0.576779 0.587888 0.473815
Si Si2 0.710218 0.917289 0.970882
Si Si3 0.501004 0.912683 0.191461
Si Si4 0.896210 0.919493 0.471682
Si Si5 0.710907 0.917737 0.211408
Si Si6 0.107278 0.419250 0.084566
Si Si7 0.807780 0.581539 0.641036
O O1 0.500000 0.500000 0.500000
O O2 0.574312 0.750000 0.512616
O O3 0.546251 0.577574 0.334747
O O4 0.691428 0.518358 0.557519
O O5 0.689206 0.750000 0.946883
O O6 0.805254 0.965735 0.950310
O O7 0.603229 0.994236 0.876423
O O8 0.741343 0.958652 0.109205
O O9 0.472421 0.750000 0.144209
O O10 0.593514 0.976239 0.169768
O O11 0.910451 0.750000 0.466641
O O12 0.800285 0.977696 0.342576
O O13 0.877957 0.965297 0.582516
O O14 0.000000 0.000000 0.500000
O O15 0.705389 0.750000 0.226658
O O16 0.088017 0.250000 0.069998
O O17 0.143689 0.474169 0.221012
O O18 0.000000 0.500000 0.000000
O O19 0.798522 0.750000 0.637620
#
# Coordination Sequence:
#
# PCOD8071581 Si02
#       7
#     4   4   4   4   4   4   4
#     4  10  19  33  55  80 107 141 178 217 262 315
#     4  10  21  36  55  80 111 144 177 220 269 313
#     4  10  19  34  56  82 109 141 180 217 262 322
#     4  10  20  36  58  81 106 140 181 223 266 316
#     4   9  18  35  57  80 109 144 178 215 266 322
#     4  10  22  38  56  78 106 142 181 219 265 316
#     4   9  18  36  57  76 105 144 177 209 263 328
#
# _framework density 18.627787000000001
#
# number of rings (size 3 to 8) (size 9 to 14) (size 15 to 20)
#    0.000    2.286    1.429    1.286    2.000    2.286 
#    0.000    2.857    0.000    0.000    0.000    0.000 
#    0.000    0.000    0.000    0.000    0.000    0.000 
#
# Total GULP energy -347165.711537 kJ/mol
# GULP energy per Si atom -12398.775412 kJ/mol
# Density = 1.858539 g / cm^3
# Si number density = 18.627787 Si / 1000 Ang^3
#
#
#
# Elastic Constant Matrix: (Units=GPa)
#
#
# Indices 1 2 3 4 5 6 
#
# 1 192.7032 50.2194 88.8048 0.0000 -1.0725 0.0000
# 2 50.2194 37.4015 35.6475 0.0000 2.3214 0.0000
# 3 88.8048 35.6475 133.8775 0.0000 -2.3008 0.0000
# 4 0.0000 0.0000 0.0000 22.4520 0.0000 6.8674
# 5 -1.0725 2.3214 -2.3008 0.0000 36.7747 0.0000
# 6 0.0000 0.0000 0.0000 6.8674 0.0000 32.7297
#
#
#
# Elastic Compliance Matrix: (Units=1/GPa)
#
#
# Indices 1 2 3 4 5 6 
#
# 1 0.009230 -0.008850 -0.003756 0.000000 0.000593 0.000000
# 2 -0.008850 0.044619 -0.006070 0.000000 -0.003454 0.000000
# 3 -0.003756 -0.006070 0.011594 0.000000 0.000999 0.000000
# 4 0.000000 0.000000 0.000000 0.047594 0.000000 -0.009986
# 5 0.000593 -0.003454 0.000999 0.000000 0.027490 0.000000
# 6 0.000000 0.000000 0.000000 -0.009986 0.000000 0.032649
#
#
# Mechanical properties :
#
#
# Convention : Reuss Voigt Hill
#
# Bulk Modulus (GPa) = 35.59674 79.25840 57.42757
# Shear Modulus (GPa) = 22.73850 31.01198 26.87524
#
# Velocity S-wave (km/s) = 3.49761 4.08465 3.80248
# Velocity P-wave (km/s) = 5.95500 8.05523 7.08338
#
# Compressibility (1/GPa) = 0.02809246
#
# Stress axis : x y z
#
# Youngs Moduli (GPa) = 108.34496 22.41175 86.25110
#
# Poissons Ratio (x) = 0.19835 0.32393
# Poissons Ratio (y) = 0.95887 0.52351
# Poissons Ratio (z) = 0.40691 0.13603
#
# Static dielectric constant tensor:
#      x y z
#    x 3.550340 0.000000 -0.106800 
#    y 0.000000 3.074300 0.000000 
#    z -0.106800 0.000000 3.711180 
# 
# 
# High freq. dielectric constant tensor:
#      x y z
#    x 1.739070 0.000000 -0.004940 
#    y 0.000000 1.684080 0.000000 
#    z -0.004940 0.000000 1.738100 
# 
# From -- ./inp_files/38414.got.cif
#   From: 2010.06.25/outbox.cif.g09.slc.cpg/sg11_20_cif.got.tgz:38414.got - 2010.06.27 23:14:04.
