data_PCOD8071899
_publ_section_title
;
Structure prediction by ZEFSAII (Michael W. Deem and Ramdas Pophale) SiO2 
 PCOD8071899
Probable space group: P 21/M
;
_chemical_formula_sum "Si O2"
_cell_formula_units_Z 28
_cell_length_a 11.212856
_cell_length_b 11.295946
_cell_length_c 22.976839
_cell_angle_alpha 90.000000
_cell_angle_beta 29.966327
_cell_angle_gamma 90.000000
_cell_volume 1453.639630
_symmetry_space_group_name_H-M "P 21/M"
_symmetry_group_IT_number 11
_symmetry_cell_setting 'monoclinic'
loop_
_space_group_symop_operation_xyz
x,y,z
-x,1/2+y,-z
-x,-y,-z
x,1/2-y,z
loop_
_atom_site_type_symbol
_atom_site_label
_atom_site_fract_x
_atom_site_fract_y
_atom_site_fract_z
Si Si1 0.568227 0.613810 0.078174
Si Si2 0.459578 0.613107 0.251061
Si Si3 0.465043 0.992709 0.665011
Si Si4 0.944137 0.049318 0.737977
Si Si5 0.571829 0.881029 0.432650
Si Si6 0.016427 0.113010 0.176008
Si Si7 0.053516 0.385671 0.568442
O O1 0.627264 0.750000 0.062438
O O2 0.546268 0.558307 0.152435
O O3 0.320387 0.603119 0.147699
O O4 0.782704 0.552765 0.951026
O O5 0.529945 0.750000 0.226289
O O6 0.588398 0.543935 0.248644
O O7 0.172568 0.596577 0.378437
O O8 0.503991 0.098612 0.602171
O O9 0.702952 0.913047 0.568164
O O10 0.245298 0.912322 0.738035
O O11 0.140853 0.133074 0.685691
O O12 0.026091 0.029456 0.636461
O O13 0.949576 0.927328 0.771730
O O14 0.467594 0.750000 0.496743
O O15 0.500000 0.000000 0.500000
O O16 0.065046 0.250000 0.156497
O O17 0.055644 0.250000 0.590422
#
# Coordination Sequence:
#
# PCOD8071899 Si02
#       7
#     4   4   4   4   4   4   4
#     4   9  18  36  59  79 104 139 185 230 272 329
#     4   9  19  35  56  77 102 139 188 231 270 325
#     4  11  21  34  52  80 112 143 179 224 278 332
#     4  10  19  34  56  79 106 143 184 225 267 330
#     4  11  22  34  52  80 114 148 184 226 278 333
#     4  10  22  35  52  81 110 144 182 228 285 329
#     4  10  19  34  55  80 107 142 181 222 274 337
#
# _framework density 19.261996
#
# number of rings (size 3 to 8) (size 9 to 14) (size 15 to 20)
#    0.000    2.000    1.429    3.857    0.000    2.857 
#    0.000    0.000    0.000    7.714    0.000    0.000 
#    0.000    0.000    0.000    0.000    0.000    0.000 
#
# Total GULP energy -346918.897056 kJ/mol
# GULP energy per Si atom -12389.960609 kJ/mol
# Density = 1.921815 g / cm^3
# Si number density = 19.261996 Si / 1000 Ang^3
#
#
#
# Elastic Constant Matrix: (Units=GPa)
#
#
# Indices 1 2 3 4 5 6 
#
# 1 90.1422 31.5706 16.5415 0.0000 21.8437 0.0000
# 2 31.5706 76.0064 30.1508 0.0000 14.1733 0.0000
# 3 16.5415 30.1508 89.5479 0.0000 4.1146 0.0000
# 4 0.0000 0.0000 0.0000 22.4119 0.0000 5.1918
# 5 21.8437 14.1733 4.1146 0.0000 21.4810 0.0000
# 6 0.0000 0.0000 0.0000 5.1918 0.0000 18.3723
#
#
#
# Elastic Compliance Matrix: (Units=1/GPa)
#
#
# Indices 1 2 3 4 5 6 
#
# 1 0.015835 -0.003631 -0.001082 0.000000 -0.013500 0.000000
# 2 -0.003631 0.018022 -0.005065 0.000000 -0.007229 0.000000
# 3 -0.001082 -0.005065 0.012983 0.000000 0.001956 0.000000
# 4 0.000000 0.000000 0.000000 0.047745 0.000000 -0.013492
# 5 -0.013500 -0.007229 0.001956 0.000000 0.064675 0.000000
# 6 0.000000 0.000000 0.000000 -0.013492 0.000000 0.058242
#
#
# Mechanical properties :
#
#
# Convention : Reuss Voigt Hill
#
# Bulk Modulus (GPa) = 36.65231 45.80248 41.22739
# Shear Modulus (GPa) = 20.31253 24.28194 22.29724
#
# Velocity S-wave (km/s) = 3.25089 3.55436 3.40601
# Velocity P-wave (km/s) = 5.75853 6.37769 6.07600
#
# Compressibility (1/GPa) = 0.02728341
#
# Stress axis : x y z
#
# Youngs Moduli (GPa) = 63.15093 55.48710 77.02528
#
# Poissons Ratio (x) = 0.20146 0.08337
# Poissons Ratio (y) = 0.22928 0.39015
# Poissons Ratio (z) = 0.06835 0.28106
#
# Static dielectric constant tensor:
#      x y z
#    x 3.541590 0.000000 -0.018380 
#    y 0.000000 3.303980 0.000000 
#    z -0.018380 0.000000 3.748390 
# 
# 
# High freq. dielectric constant tensor:
#      x y z
#    x 1.751680 0.000000 -0.005280 
#    y 0.000000 1.718700 0.000000 
#    z -0.005280 0.000000 1.749490 
# 
# From -- ./inp_files/68523.got.cif
#   From: 2010.06.25/outbox.cif.g09.slc.cpg/sg11_35_cif.got.tgz:68523.got - 2010.06.27 23:14:04.
