data_PCOD8071300
_publ_section_title
;
Structure prediction by ZEFSAII (Michael W. Deem and Ramdas Pophale) SiO2 
 PCOD8071300
Probable space group: P 21/M
;
_chemical_formula_sum "Si O2"
_cell_formula_units_Z 32
_cell_length_a 15.029288
_cell_length_b 8.587959
_cell_length_c 15.020130
_cell_angle_alpha 90.000000
_cell_angle_beta 100.242583
_cell_angle_gamma 90.000000
_cell_volume 1907.766785
_symmetry_space_group_name_H-M "P 21/M"
_symmetry_group_IT_number 11
_symmetry_cell_setting 'monoclinic'
loop_
_space_group_symop_operation_xyz
x,y,z
-x,1/2+y,-z
-x,-y,-z
x,1/2-y,z
loop_
_atom_site_type_symbol
_atom_site_label
_atom_site_fract_x
_atom_site_fract_y
_atom_site_fract_z
Si Si1 0.749624 0.435083 0.255440
Si Si2 0.373233 0.566682 0.917242
Si Si3 0.885877 0.070764 0.567093
Si Si4 0.699362 0.570038 0.565666
Si Si5 0.070211 0.931462 0.628517
Si Si6 0.443738 0.567624 0.112730
Si Si7 0.610367 0.067372 0.379571
Si Si8 0.582692 0.068744 0.693023
O O1 0.751590 0.250000 0.262500
O O2 0.714955 0.495679 0.152331
O O3 0.851449 0.495328 0.291363
O O4 0.680967 0.495839 0.318889
O O5 0.368720 0.750000 0.914805
O O6 0.461039 0.518117 0.877482
O O7 0.377793 0.507737 0.020636
O O8 0.863798 0.250000 0.581491
O O9 0.894770 0.034903 0.464404
O O10 0.805404 0.967522 0.592167
O O11 0.978932 0.025417 0.633214
O O12 0.685388 0.750000 0.538955
O O13 0.652064 0.462527 0.483758
O O14 0.654432 0.533784 0.652497
O O15 0.049741 0.750000 0.638466
O O16 0.462866 0.750000 0.105471
O O17 0.400057 0.528394 0.199900
O O18 0.590006 0.250000 0.365114
O O19 0.518547 0.971883 0.353813
O O20 0.599531 0.250000 0.677083
#
# Coordination Sequence:
#
# PCOD8071300 Si02
#       8
#     4   4   4   4   4   4   4   4
#     4   9  16  28  49  73  98 129 160 192 234 286
#     4   9  16  29  49  71  96 127 160 196 241 288
#     4  10  19  33  50  71  97 126 159 199 241 284
#     4  12  24  36  50  69  93 130 170 206 242 285
#     4   9  17  31  49  71  97 126 159 193 236 289
#     4   9  18  30  46  70  97 125 161 202 242 282
#     4  11  20  34  50  70  98 132 168 202 236 281
#     4  11  22  35  48  68  98 133 168 206 242 283
#
# _framework density 16.773539
#
# number of rings (size 3 to 8) (size 9 to 14) (size 15 to 20)
#    0.000    2.000    2.500    2.625    0.000    1.000 
#    0.000    0.625    0.000    0.000    0.000    0.875 
#    0.000    0.000    0.000    0.000    0.000    0.000 
#
# Total GULP energy -396745.308139 kJ/mol
# GULP energy per Si atom -12398.290879 kJ/mol
# Density = 1.673536 g / cm^3
# Si number density = 16.773539 Si / 1000 Ang^3
#
#
#
# Elastic Constant Matrix: (Units=GPa)
#
#
# Indices 1 2 3 4 5 6 
#
# 1 93.2187 17.2769 50.8836 0.0000 16.2098 0.0000
# 2 17.2769 30.8382 13.8134 0.0000 1.2918 0.0000
# 3 50.8836 13.8134 104.1030 0.0000 18.4275 0.0000
# 4 0.0000 0.0000 0.0000 14.9795 0.0000 -0.9563
# 5 16.2098 1.2918 18.4275 0.0000 26.4578 0.0000
# 6 0.0000 0.0000 0.0000 -0.9563 0.0000 23.9655
#
#
#
# Elastic Compliance Matrix: (Units=1/GPa)
#
#
# Indices 1 2 3 4 5 6 
#
# 1 0.016124 -0.006062 -0.006137 0.000000 -0.005308 0.000000
# 2 -0.006062 0.036824 -0.002580 0.000000 0.003713 0.000000
# 3 -0.006137 -0.002580 0.013984 0.000000 -0.005854 0.000000
# 4 0.000000 0.000000 0.000000 0.066929 0.000000 0.002671
# 5 -0.005308 0.003713 -0.005854 0.000000 0.044944 0.000000
# 6 0.000000 0.000000 0.000000 0.002671 0.000000 0.041833
#
#
# Mechanical properties :
#
#
# Convention : Reuss Voigt Hill
#
# Bulk Modulus (GPa) = 26.75738 43.56753 35.16245
# Shear Modulus (GPa) = 19.03642 22.82629 20.93136
#
# Velocity S-wave (km/s) = 3.37249 3.69297 3.53637
# Velocity P-wave (km/s) = 5.58137 6.64939 6.13865
#
# Compressibility (1/GPa) = 0.03737287
#
# Stress axis : x y z
#
# Youngs Moduli (GPa) = 62.01951 27.15633 71.50945
#
# Poissons Ratio (x) = 0.16462 0.43886
# Poissons Ratio (y) = 0.37596 0.18453
# Poissons Ratio (z) = 0.38062 0.07008
#
# Static dielectric constant tensor:
#      x y z
#    x 3.170160 0.000000 0.287780 
#    y 0.000000 3.046410 0.000000 
#    z 0.287780 0.000000 3.505200 
# 
# 
# High freq. dielectric constant tensor:
#      x y z
#    x 1.628050 0.000000 0.015940 
#    y 0.000000 1.641520 0.000000 
#    z 0.015940 0.000000 1.635700 
# 
# From -- ./inp_files/51307.got.cif
#   From: 2010.06.25/outbox.cif.g09.slc.cpg/sg11_26_cif.got.tgz:51307.got - 2010.06.27 23:14:04.
