data_PCOD8071425
_publ_section_title
;
Structure prediction by ZEFSAII (Michael W. Deem and Ramdas Pophale) SiO2 
 PCOD8071425
Probable space group: P 21/M
;
_chemical_formula_sum "Si O2"
_cell_formula_units_Z 32
_cell_length_a 19.850668
_cell_length_b 9.185176
_cell_length_c 12.257516
_cell_angle_alpha 90.000000
_cell_angle_beta 130.664396
_cell_angle_gamma 90.000000
_cell_volume 1695.286976
_symmetry_space_group_name_H-M "P 21/M"
_symmetry_group_IT_number 11
_symmetry_cell_setting 'monoclinic'
loop_
_space_group_symop_operation_xyz
x,y,z
-x,1/2+y,-z
-x,-y,-z
x,1/2-y,z
loop_
_atom_site_type_symbol
_atom_site_label
_atom_site_fract_x
_atom_site_fract_y
_atom_site_fract_z
Si Si1 0.045423 0.916063 0.317234
Si Si2 0.128041 0.918093 0.828346
Si Si3 0.436054 0.076976 0.346667
Si Si4 0.911903 0.415355 0.876574
Si Si5 0.747995 0.081045 0.845688
Si Si6 0.369506 0.579491 0.847499
Si Si7 0.529042 0.919805 0.864199
Si Si8 0.172291 0.923180 0.636655
O O1 0.020989 0.750000 0.318842
O O2 0.103957 0.925960 0.269624
O O3 0.103474 0.987129 0.475738
O O4 0.954265 0.001263 0.203180
O O5 0.102160 0.750000 0.794123
O O6 0.145950 0.983826 0.727635
O O7 0.215973 0.940564 0.993521
O O8 0.438561 0.250000 0.366806
O O9 0.468522 0.033137 0.259511
O O10 0.500000 0.000000 0.500000
O O11 0.336952 0.019496 0.261702
O O12 0.926312 0.250000 0.931167
O O13 0.823839 0.475919 0.842455
O O14 0.000000 0.500000 0.000000
O O15 0.723341 0.250000 0.797336
O O16 0.371084 0.750000 0.874141
O O17 0.433157 0.538530 0.813569
O O18 0.271499 0.524739 0.711522
O O19 0.396361 0.503444 0.988816
O O20 0.548942 0.750000 0.897530
O O21 0.169045 0.750000 0.631372
#
# Coordination Sequence:
#
# PCOD8071425 Si02
#       8
#     4   4   4   4   4   4   4   4
#     4  10  20  33  51  76 105 140 179 222 270 320
#     4  10  19  33  53  76 106 141 177 218 265 321
#     4  11  24  40  58  83 115 149 186 233 283 335
#     4  10  20  35  56  79 106 141 184 231 275 322
#     4  10  21  37  58  82 106 143 189 230 278 334
#     4   9  17  33  58  81 104 141 180 220 270 332
#     4   9  19  35  56  82 109 138 177 226 277 326
#     4   9  18  31  49  76 106 137 176 214 261 323
#
# _framework density 18.875859999999999
#
# number of rings (size 3 to 8) (size 9 to 14) (size 15 to 20)
#    0.000    2.250    1.250    1.500    0.000    4.000 
#    0.000    5.000    0.000    0.000    0.000    0.000 
#    0.000    0.000    0.000    0.000    0.000    0.000 
#
# Total GULP energy -396819.034790 kJ/mol
# GULP energy per Si atom -12400.594837 kJ/mol
# Density = 1.883290 g / cm^3
# Si number density = 18.875860 Si / 1000 Ang^3
#
#
#
# Elastic Constant Matrix: (Units=GPa)
#
#
# Indices 1 2 3 4 5 6 
#
# 1 121.3714 41.1228 61.9820 0.0000 -1.0732 0.0000
# 2 41.1228 52.3586 43.9048 0.0000 4.4263 0.0000
# 3 61.9820 43.9048 119.5474 0.0000 2.3005 0.0000
# 4 0.0000 0.0000 0.0000 27.3077 0.0000 3.0690
# 5 -1.0732 4.4263 2.3005 0.0000 30.8167 0.0000
# 6 0.0000 0.0000 0.0000 3.0690 0.0000 27.5746
#
#
#
# Elastic Compliance Matrix: (Units=1/GPa)
#
#
# Indices 1 2 3 4 5 6 
#
# 1 0.012597 -0.006550 -0.004158 0.000000 0.001690 0.000000
# 2 -0.006550 0.031325 -0.008029 0.000000 -0.004128 0.000000
# 3 -0.004158 -0.008029 0.013469 0.000000 0.000003 0.000000
# 4 0.000000 0.000000 0.000000 0.037084 0.000000 -0.004127
# 5 0.001690 -0.004128 0.000003 0.000000 0.033102 0.000000
# 6 0.000000 0.000000 0.000000 -0.004127 0.000000 0.036725
#
#
# Mechanical properties :
#
#
# Convention : Reuss Voigt Hill
#
# Bulk Modulus (GPa) = 50.20762 65.25518 57.73140
# Shear Modulus (GPa) = 23.99075 26.89097 25.44086
#
# Velocity S-wave (km/s) = 3.56894 3.77851 3.67522
# Velocity P-wave (km/s) = 6.60604 7.32680 6.97573
#
# Compressibility (1/GPa) = 0.01991729
#
# Stress axis : x y z
#
# Youngs Moduli (GPa) = 79.38553 31.92355 74.24197
#
# Poissons Ratio (x) = 0.20909 0.30871
# Poissons Ratio (y) = 0.51995 0.59609
# Poissons Ratio (z) = 0.33010 0.25632
#
# Static dielectric constant tensor:
#      x y z
#    x 3.659270 0.000000 -0.126930 
#    y 0.000000 3.277890 0.000000 
#    z -0.126930 0.000000 3.568260 
# 
# 
# High freq. dielectric constant tensor:
#      x y z
#    x 1.744760 0.000000 -0.005930 
#    y 0.000000 1.711560 0.000000 
#    z -0.005930 0.000000 1.734770 
# 
# From -- ./inp_files/38245.got.cif
#   From: 2010.06.25/outbox.cif.g09.slc.cpg/sg11_20_cif.got.tgz:38245.got - 2010.06.27 23:14:04.
