data_PCOD8071125
_publ_section_title
;
Structure prediction by ZEFSAII (Michael W. Deem and Ramdas Pophale) SiO2 
 PCOD8071125
Probable space group: P 21/M
;
_chemical_formula_sum "Si O2"
_cell_formula_units_Z 32
_cell_length_a 12.051916
_cell_length_b 8.918564
_cell_length_c 23.193950
_cell_angle_alpha 90.000000
_cell_angle_beta 42.974404
_cell_angle_gamma 90.000000
_cell_volume 1699.420795
_symmetry_space_group_name_H-M "P 21/M"
_symmetry_group_IT_number 11
_symmetry_cell_setting 'monoclinic'
loop_
_space_group_symop_operation_xyz
x,y,z
-x,1/2+y,-z
-x,-y,-z
x,1/2-y,z
loop_
_atom_site_type_symbol
_atom_site_label
_atom_site_fract_x
_atom_site_fract_y
_atom_site_fract_z
Si Si1 0.236776 0.922755 0.410380
Si Si2 0.402199 0.076807 0.173411
Si Si3 0.470060 0.077072 0.773341
Si Si4 0.122796 0.928639 0.906284
Si Si5 0.967283 0.925782 0.422561
Si Si6 0.387922 0.428345 0.995419
Si Si7 0.028143 0.072450 0.154913
Si Si8 0.958901 0.922787 0.723368
O O1 0.193149 0.750000 0.438476
O O2 0.431542 0.940799 0.324421
O O3 0.124720 0.979843 0.399221
O O4 0.195141 0.016616 0.483349
O O5 0.443653 0.250000 0.167967
O O6 0.236862 0.057909 0.200118
O O7 0.390120 0.987466 0.237671
O O8 0.555443 0.994874 0.086419
O O9 0.427961 0.250000 0.801936
O O10 0.307905 0.980351 0.843345
O O11 0.108889 0.750000 0.917776
O O12 0.082507 0.983211 0.856177
O O13 0.000000 0.000000 0.000000
O O14 0.959267 0.750000 0.419761
O O15 0.965275 0.987848 0.358342
O O16 0.402120 0.250000 0.991203
O O17 0.500000 0.500000 0.000000
O O18 0.207121 0.487744 0.073645
O O19 0.031425 0.250000 0.155815
O O20 0.973844 0.016686 0.239865
O O21 0.005403 0.750000 0.696641
#
# Coordination Sequence:
#
# PCOD8071125 Si02
#       8
#     4   4   4   4   4   4   4   4
#     4   9  19  34  53  79 113 153 186 222 279 341
#     4  11  21  33  52  80 110 145 188 228 277 339
#     4  11  22  38  58  82 115 149 189 237 285 336
#     4  11  23  41  63  84 111 150 197 242 286 331
#     4  10  19  32  52  83 117 147 182 226 281 339
#     4  11  20  33  51  75 108 144 181 226 281 335
#     4   9  20  38  56  76 106 147 188 230 280 336
#     4  10  19  34  54  77 111 148 182 222 278 342
#
# _framework density 18.829944999999999
#
# number of rings (size 3 to 8) (size 9 to 14) (size 15 to 20)
#    0.000    1.750    2.500    2.625    0.000    3.000 
#    0.000    3.125    0.000    0.750    0.000    0.000 
#    0.000    0.000    0.000    0.000    0.000    0.000 
#
# Total GULP energy -396567.647445 kJ/mol
# GULP energy per Si atom -12392.738983 kJ/mol
# Density = 1.878709 g / cm^3
# Si number density = 18.829945 Si / 1000 Ang^3
#
#
#
# Elastic Constant Matrix: (Units=GPa)
#
#
# Indices 1 2 3 4 5 6 
#
# 1 69.5239 25.1458 38.7008 0.0000 15.9216 0.0000
# 2 25.1458 67.6622 53.3494 0.0000 8.3179 0.0000
# 3 38.7008 53.3494 127.6520 0.0000 14.6820 0.0000
# 4 0.0000 0.0000 0.0000 32.9436 0.0000 3.7191
# 5 15.9216 8.3179 14.6820 0.0000 31.9802 0.0000
# 6 0.0000 0.0000 0.0000 3.7191 0.0000 22.1635
#
#
#
# Elastic Compliance Matrix: (Units=1/GPa)
#
#
# Indices 1 2 3 4 5 6 
#
# 1 0.019238 -0.003466 -0.003575 0.000000 -0.007035 0.000000
# 2 -0.003466 0.022744 -0.008417 0.000000 -0.000326 0.000000
# 3 -0.003575 -0.008417 0.012647 0.000000 -0.001837 0.000000
# 4 0.000000 0.000000 0.000000 0.030941 0.000000 -0.005192
# 5 -0.007035 -0.000326 -0.001837 0.000000 0.035700 0.000000
# 6 0.000000 0.000000 0.000000 -0.005192 0.000000 0.045990
#
#
# Mechanical properties :
#
#
# Convention : Reuss Voigt Hill
#
# Bulk Modulus (GPa) = 42.17122 55.47002 48.82062
# Shear Modulus (GPa) = 24.26232 27.26027 25.76130
#
# Velocity S-wave (km/s) = 3.59346 3.80900 3.70280
# Velocity P-wave (km/s) = 6.29775 6.99050 6.65315
#
# Compressibility (1/GPa) = 0.02371285
#
# Stress axis : x y z
#
# Youngs Moduli (GPa) = 51.97968 43.96742 79.07259
#
# Poissons Ratio (x) = 0.15240 0.28267
# Poissons Ratio (y) = 0.18017 0.66556
# Poissons Ratio (z) = 0.18581 0.37008
#
# Static dielectric constant tensor:
#      x y z
#    x 3.382440 0.000000 0.163920 
#    y 0.000000 3.148720 0.000000 
#    z 0.163920 0.000000 3.900110 
# 
# 
# High freq. dielectric constant tensor:
#      x y z
#    x 1.702370 0.000000 0.013290 
#    y 0.000000 1.726990 0.000000 
#    z 0.013290 0.000000 1.741320 
# 
# From -- ./inp_files/64341.got.cif
#   From: 2010.06.25/outbox.cif.g09.slc.cpg/sg11_33_cif.got.tgz:64341.got - 2010.06.27 23:14:04.
