data_PCOD8071829
_publ_section_title
;
Structure prediction by ZEFSAII (Michael W. Deem and Ramdas Pophale) SiO2 
 PCOD8071829
Probable space group: P 21/M
;
_chemical_formula_sum "Si O2"
_cell_formula_units_Z 32
_cell_length_a 12.046615
_cell_length_b 9.401030
_cell_length_c 15.157210
_cell_angle_alpha 90.000000
_cell_angle_beta 92.176860
_cell_angle_gamma 90.000000
_cell_volume 1715.324183
_symmetry_space_group_name_H-M "P 21/M"
_symmetry_group_IT_number 11
_symmetry_cell_setting 'monoclinic'
loop_
_space_group_symop_operation_xyz
x,y,z
-x,1/2+y,-z
-x,-y,-z
x,1/2-y,z
loop_
_atom_site_type_symbol
_atom_site_label
_atom_site_fract_x
_atom_site_fract_y
_atom_site_fract_z
Si Si1 0.661704 0.587314 0.461370
Si Si2 0.940675 0.414980 0.921150
Si Si3 0.084856 0.082346 0.763665
Si Si4 0.303412 0.087312 0.863885
Si Si5 0.527567 0.586170 0.631436
Si Si6 0.459788 0.588232 0.203020
Si Si7 0.692987 0.414585 0.959740
Si Si8 0.084408 0.418038 0.565140
O O1 0.645036 0.750000 0.429069
O O2 0.621011 0.566950 0.559998
O O3 0.588575 0.488180 0.396346
O O4 0.790173 0.543280 0.459547
O O5 0.967817 0.250000 0.938094
O O6 0.810831 0.447666 0.918394
O O7 0.985166 0.462732 0.826143
O O8 0.000000 0.500000 0.000000
O O9 0.097963 0.250000 0.755835
O O10 0.199316 0.020972 0.807887
O O11 0.064152 0.024320 0.664359
O O12 0.280088 0.250000 0.890308
O O13 0.408415 0.074706 0.803404
O O14 0.325429 0.002447 0.953149
O O15 0.501550 0.750000 0.649744
O O16 0.579359 0.512841 0.719189
O O17 0.424142 0.750000 0.223742
O O18 0.400548 0.536957 0.111960
O O19 0.681279 0.250000 0.984584
O O20 0.062264 0.250000 0.556032
O O21 0.000000 0.500000 0.500000
#
# Coordination Sequence:
#
# PCOD8071829 Si02
#       8
#     4   4   4   4   4   4   4   4
#     4   9  19  37  58  79 110 146 180 225 281 330
#     4  10  19  34  54  76 104 137 178 224 267 315
#     4   9  18  33  55  78 100 137 182 217 263 326
#     4  10  19  34  56  76 100 140 183 217 264 328
#     4  10  20  34  56  84 108 140 185 229 271 325
#     4  10  21  35  51  76 111 146 176 214 273 332
#     4  10  21  34  50  76 108 140 175 223 275 317
#     4  10  21  38  58  81 112 147 184 228 275 328
#
# _framework density 18.655366999999998
#
# number of rings (size 3 to 8) (size 9 to 14) (size 15 to 20)
#    0.000    2.250    1.250    1.500    0.000    5.000 
#    0.000    2.500    0.000    0.000    0.000    0.000 
#    0.000    0.000    0.000    0.000    0.000    0.000 
#
# Total GULP energy -396853.849730 kJ/mol
# GULP energy per Si atom -12401.682804 kJ/mol
# Density = 1.861291 g / cm^3
# Si number density = 18.655367 Si / 1000 Ang^3
#
#
#
# Elastic Constant Matrix: (Units=GPa)
#
#
# Indices 1 2 3 4 5 6 
#
# 1 67.7628 28.2891 33.1445 0.0000 -4.0937 0.0000
# 2 28.2891 66.1474 56.5532 0.0000 3.1937 0.0000
# 3 33.1445 56.5532 135.8895 0.0000 6.1394 0.0000
# 4 0.0000 0.0000 0.0000 36.0264 0.0000 5.3795
# 5 -4.0937 3.1937 6.1394 0.0000 27.7683 0.0000
# 6 0.0000 0.0000 0.0000 5.3795 0.0000 23.7966
#
#
#
# Elastic Compliance Matrix: (Units=1/GPa)
#
#
# Indices 1 2 3 4 5 6 
#
# 1 0.018685 -0.006415 -0.002066 0.000000 0.003949 0.000000
# 2 -0.006415 0.025679 -0.009036 0.000000 -0.001901 0.000000
# 3 -0.002066 -0.009036 0.011707 0.000000 -0.001854 0.000000
# 4 0.000000 0.000000 0.000000 0.028727 0.000000 -0.006494
# 5 0.003949 -0.001901 -0.001854 0.000000 0.037223 0.000000
# 6 0.000000 0.000000 0.000000 -0.006494 0.000000 0.043491
#
#
# Mechanical properties :
#
#
# Convention : Reuss Voigt Hill
#
# Bulk Modulus (GPa) = 47.53769 56.19703 51.86736
# Shear Modulus (GPa) = 24.08973 27.63914 25.86443
#
# Velocity S-wave (km/s) = 3.59737 3.85329 3.72752
# Velocity P-wave (km/s) = 6.54157 7.07010 6.81096
#
# Compressibility (1/GPa) = 0.02103594
#
# Stress axis : x y z
#
# Youngs Moduli (GPa) = 53.52005 38.94297 85.41826
#
# Poissons Ratio (x) = 0.24983 0.17647
# Poissons Ratio (y) = 0.34334 0.77184
# Poissons Ratio (z) = 0.11057 0.35189
#
# Static dielectric constant tensor:
#      x y z
#    x 3.546860 0.000000 -0.016260 
#    y 0.000000 3.329300 0.000000 
#    z -0.016260 0.000000 3.578880 
# 
# 
# High freq. dielectric constant tensor:
#      x y z
#    x 1.727470 0.000000 -0.004970 
#    y 0.000000 1.705220 0.000000 
#    z -0.004970 0.000000 1.732360 
# 
# From -- ./inp_files/42810.got.cif
#   From: 2010.06.25/outbox.cif.g09.slc.cpg/sg11_22_cif.got.tgz:42810.got - 2010.06.27 23:14:04.
