data_PCOD8071746
_publ_section_title
;
Structure prediction by ZEFSAII (Michael W. Deem and Ramdas Pophale) SiO2 
 PCOD8071746
Probable space group: P 21/M
;
_chemical_formula_sum "Si O2"
_cell_formula_units_Z 32
_cell_length_a 25.432001
_cell_length_b 8.752470
_cell_length_c 20.747935
_cell_angle_alpha 90.000000
_cell_angle_beta 158.062450
_cell_angle_gamma 90.000000
_cell_volume 1725.392886
_symmetry_space_group_name_H-M "P 21/M"
_symmetry_group_IT_number 11
_symmetry_cell_setting 'monoclinic'
loop_
_space_group_symop_operation_xyz
x,y,z
-x,1/2+y,-z
-x,-y,-z
x,1/2-y,z
loop_
_atom_site_type_symbol
_atom_site_label
_atom_site_fract_x
_atom_site_fract_y
_atom_site_fract_z
Si Si1 0.938694 0.570300 0.616568
Si Si2 0.658687 0.575506 0.738723
Si Si3 0.915525 0.570789 0.844650
Si Si4 0.927380 0.926913 0.355849
Si Si5 0.653496 0.426141 0.598567
Si Si6 0.668346 0.426805 0.260556
Si Si7 0.049563 0.426497 0.872256
Si Si8 0.353295 0.075492 0.897989
O O1 0.951098 0.750000 0.636904
O O2 0.774928 0.524174 0.425131
O O3 0.005267 0.494153 0.754319
O O4 0.026125 0.515459 0.654471
O O5 0.656521 0.750000 0.710307
O O6 0.686102 0.464809 0.709931
O O7 0.509642 0.536839 0.603096
O O8 0.782110 0.551260 0.930669
O O9 0.934002 0.750000 0.869220
O O10 0.751137 0.526327 0.662888
O O11 0.971383 0.512592 0.840442
O O12 0.000000 0.500000 0.000000
O O13 0.971366 0.750000 0.400071
O O14 0.758436 0.944765 0.171453
O O15 0.000000 0.000000 0.500000
O O16 0.690290 0.250000 0.628825
O O17 0.704204 0.250000 0.311343
O O18 0.689951 0.466811 0.210078
O O19 0.508818 0.466641 0.100965
O O20 0.006888 0.250000 0.827214
O O21 0.352849 0.250000 0.871561
#
# Coordination Sequence:
#
# PCOD8071746 Si02
#       8
#     4   4   4   4   4   4   4   4
#     4  12  25  40  57  83 119 157 195 237 287 349
#     4   9  19  35  57  85 116 150 191 238 291 344
#     4  12  23  37  58  88 119 153 195 241 286 341
#     4  11  21  36  59  88 117 149 191 239 287 340
#     4  10  19  33  57  88 118 150 189 239 289 340
#     4  10  19  34  57  84 114 151 191 236 289 341
#     4  11  23  41  62  85 115 153 195 241 292 348
#     4   9  19  34  56  86 116 145 187 241 290 338
#
# _framework density 18.546502
#
# number of rings (size 3 to 8) (size 9 to 14) (size 15 to 20)
#    0.000    1.500    2.500    3.750    0.000    2.000 
#    0.000    1.250    0.000    3.000    0.000    0.000 
#    0.000    0.000    0.000    0.000    0.000    0.000 
#
# Total GULP energy -396876.087863 kJ/mol
# GULP energy per Si atom -12402.377746 kJ/mol
# Density = 1.850429 g / cm^3
# Si number density = 18.546502 Si / 1000 Ang^3
#
#
#
# Elastic Constant Matrix: (Units=GPa)
#
#
# Indices 1 2 3 4 5 6 
#
# 1 82.9035 17.0908 50.9878 0.0000 10.0264 0.0000
# 2 17.0908 82.6907 33.6312 0.0000 12.4204 0.0000
# 3 50.9878 33.6312 121.1890 0.0000 11.5286 0.0000
# 4 0.0000 0.0000 0.0000 29.2216 0.0000 -0.7311
# 5 10.0264 12.4204 11.5286 0.0000 26.2712 0.0000
# 6 0.0000 0.0000 0.0000 -0.7311 0.0000 32.8442
#
#
#
# Elastic Compliance Matrix: (Units=1/GPa)
#
#
# Indices 1 2 3 4 5 6 
#
# 1 0.016564 -0.000247 -0.006585 0.000000 -0.003315 0.000000
# 2 -0.000247 0.014293 -0.003369 0.000000 -0.005185 0.000000
# 3 -0.006585 -0.003369 0.012070 0.000000 -0.001191 0.000000
# 4 0.000000 0.000000 0.000000 0.034240 0.000000 0.000762
# 5 -0.003315 -0.005185 -0.001191 0.000000 0.042303 0.000000
# 6 0.000000 0.000000 0.000000 0.000762 0.000000 0.030464
#
#
# Mechanical properties :
#
#
# Convention : Reuss Voigt Hill
#
# Bulk Modulus (GPa) = 44.39602 54.46698 49.43150
# Shear Modulus (GPa) = 28.11408 30.00563 29.05985
#
# Velocity S-wave (km/s) = 3.89764 4.02663 3.96266
# Velocity P-wave (km/s) = 6.65170 7.14492 6.90272
#
# Compressibility (1/GPa) = 0.02252454
#
# Stress axis : x y z
#
# Youngs Moduli (GPa) = 60.37163 69.96209 82.84760
#
# Poissons Ratio (x) = 0.01731 0.54555
# Poissons Ratio (y) = 0.01494 0.27914
# Poissons Ratio (z) = 0.39755 0.23572
#
# Static dielectric constant tensor:
#      x y z
#    x 3.514390 0.000000 0.375350 
#    y 0.000000 3.581980 0.000000 
#    z 0.375350 0.000000 3.662360 
# 
# 
# High freq. dielectric constant tensor:
#      x y z
#    x 1.699560 0.000000 0.026340 
#    y 0.000000 1.734280 0.000000 
#    z 0.026340 0.000000 1.724450 
# 
# From -- ./inp_files/67276.got.cif
#   From: 2010.06.25/outbox.cif.g09.slc.cpg/sg11_34_cif.got.tgz:67276.got - 2010.06.27 23:14:04.
