data_PCOD8071554
_publ_section_title
;
Structure prediction by ZEFSAII (Michael W. Deem and Ramdas Pophale) SiO2 
 PCOD8071554
Probable space group: P 21/M
;
_chemical_formula_sum "Si O2"
_cell_formula_units_Z 24
_cell_length_a 21.059657
_cell_length_b 13.115847
_cell_length_c 11.997720
_cell_angle_alpha 90.000000
_cell_angle_beta 23.204454
_cell_angle_gamma 90.000000
_cell_volume 1305.741792
_symmetry_space_group_name_H-M "P 21/M"
_symmetry_group_IT_number 11
_symmetry_cell_setting 'monoclinic'
loop_
_space_group_symop_operation_xyz
x,y,z
-x,1/2+y,-z
-x,-y,-z
x,1/2-y,z
loop_
_atom_site_type_symbol
_atom_site_label
_atom_site_fract_x
_atom_site_fract_y
_atom_site_fract_z
Si Si1 0.807172 0.007518 0.683779
Si Si2 0.249808 0.369574 0.789763
Si Si3 0.482901 0.130676 0.228840
Si Si4 0.956320 0.366090 0.113738
Si Si5 0.125585 0.370868 0.221719
Si Si6 0.191460 0.445570 0.567101
O O1 0.800301 0.919706 0.787651
O O2 0.828537 0.950149 0.532795
O O3 0.949022 0.086723 0.479991
O O4 0.643425 0.069811 0.946129
O O5 0.251241 0.250000 0.771314
O O6 0.406122 0.410023 0.470247
O O7 0.246905 0.400566 0.924314
O O8 0.085225 0.405899 0.997293
O O9 0.524190 0.250000 0.166599
O O10 0.357404 0.110335 0.331052
O O11 0.898213 0.250000 0.223235
O O12 0.806006 0.441365 0.378979
O O13 0.038529 0.380806 0.860203
O O14 0.112168 0.250000 0.258440
#
# Coordination Sequence:
#
# PCOD8071554 Si02
#       6
#     4   4   4   4   4   4
#     4  11  22  35  55  83 110 144 180 225 271 326
#     4   8  15  32  55  76 100 140 181 215 260 313
#     4  10  21  36  56  81 110 142 179 226 275 323
#     4   9  17  31  55  81 107 141 182 223 265 322
#     4  10  21  37  56  77 106 146 187 225 266 315
#     4  10  19  33  54  83 111 140 180 223 274 324
#
# _framework density 18.380357
#
# number of rings (size 3 to 8) (size 9 to 14) (size 15 to 20)
#    0.000    2.333    1.667    2.500    0.000    2.667 
#    0.000    0.833    0.000    0.000    0.000    0.000 
#    0.000    0.000    0.000    0.000    0.000    0.000 
#
# Total GULP energy -297477.497145 kJ/mol
# GULP energy per Si atom -12394.895714 kJ/mol
# Density = 1.833852 g / cm^3
# Si number density = 18.380357 Si / 1000 Ang^3
#
#
#
# Elastic Constant Matrix: (Units=GPa)
#
#
# Indices 1 2 3 4 5 6 
#
# 1 115.1011 30.4515 32.5373 0.0000 28.2643 0.0000
# 2 30.4515 63.5222 -0.7923 0.0000 11.2976 0.0000
# 3 32.5373 -0.7923 35.7294 0.0000 10.6578 0.0000
# 4 0.0000 0.0000 0.0000 25.0295 0.0000 1.9362
# 5 28.2643 11.2976 10.6578 0.0000 25.9834 0.0000
# 6 0.0000 0.0000 0.0000 1.9362 0.0000 24.6573
#
#
#
# Elastic Compliance Matrix: (Units=1/GPa)
#
#
# Indices 1 2 3 4 5 6 
#
# 1 0.016093 -0.006080 -0.011801 0.000000 -0.010022 0.000000
# 2 -0.006080 0.019636 0.007459 0.000000 -0.004984 0.000000
# 3 -0.011801 0.007459 0.041063 0.000000 -0.007249 0.000000
# 4 0.000000 0.000000 0.000000 0.040197 0.000000 -0.003156
# 5 -0.010022 -0.004984 -0.007249 0.000000 0.054529 0.000000
# 6 0.000000 0.000000 0.000000 -0.003156 0.000000 0.040804
#
#
# Mechanical properties :
#
#
# Convention : Reuss Voigt Hill
#
# Bulk Modulus (GPa) = 17.87355 37.63840 27.75598
# Shear Modulus (GPa) = 19.85583 25.27780 22.56682
#
# Velocity S-wave (km/s) = 3.29032 3.71248 3.50775
# Velocity P-wave (km/s) = 4.91735 6.23687 5.61600
#
# Compressibility (1/GPa) = 0.05594858
#
# Stress axis : x y z
#
# Youngs Moduli (GPa) = 62.13701 50.92573 24.35310
#
# Poissons Ratio (x) = 0.30961 0.28739
# Poissons Ratio (y) = 0.37777 -0.18164
# Poissons Ratio (z) = 0.73327 -0.37983
#
# Static dielectric constant tensor:
#      x y z
#    x 3.413240 0.000000 0.275890 
#    y 0.000000 3.327260 0.000000 
#    z 0.275890 0.000000 3.395210 
# 
# 
# High freq. dielectric constant tensor:
#      x y z
#    x 1.700530 0.000000 0.023700 
#    y 0.000000 1.709320 0.000000 
#    z 0.023700 0.000000 1.707430 
# 
# From -- ./inp_files/17536.got.cif
#   From: 2010.06.25/outbox.cif.g09.slc.cpg/sg11_9_cif.got.tgz:17536.got - 2010.06.27 23:14:04.
