data_PCOD8071436
_publ_section_title
;
Structure prediction by ZEFSAII (Michael W. Deem and Ramdas Pophale) SiO2 
 PCOD8071436
Probable space group: P 21/M
;
_chemical_formula_sum "Si O2"
_cell_formula_units_Z 24
_cell_length_a 9.195286
_cell_length_b 8.982977
_cell_length_c 20.522740
_cell_angle_alpha 90.000000
_cell_angle_beta 131.159977
_cell_angle_gamma 90.000000
_cell_volume 1276.273222
_symmetry_space_group_name_H-M "P 21/M"
_symmetry_group_IT_number 11
_symmetry_cell_setting 'monoclinic'
loop_
_space_group_symop_operation_xyz
x,y,z
-x,1/2+y,-z
-x,-y,-z
x,1/2-y,z
loop_
_atom_site_type_symbol
_atom_site_label
_atom_site_fract_x
_atom_site_fract_y
_atom_site_fract_z
Si Si1 0.209320 0.914188 0.424280
Si Si2 0.463849 0.084933 0.587977
Si Si3 0.537303 0.427142 0.080217
Si Si4 0.252953 0.075630 0.240716
Si Si5 0.197784 0.422581 0.075609
Si Si6 0.066804 0.427174 0.767858
O O1 0.174094 0.750000 0.442885
O O2 0.383701 0.908437 0.424946
O O3 0.020451 0.968513 0.329001
O O4 0.261379 0.021822 0.499870
O O5 0.425724 0.250000 0.604773
O O6 0.545213 0.979763 0.668989
O O7 0.554438 0.250000 0.078280
O O8 0.363503 0.477121 0.075613
O O9 0.730058 0.491905 0.168528
O O10 0.500000 0.500000 0.000000
O O11 0.226541 0.250000 0.247620
O O12 0.264590 0.039266 0.168073
O O13 0.071433 0.986851 0.215946
O O14 0.159772 0.250000 0.055568
O O15 0.000000 0.500000 0.000000
O O16 0.087013 0.250000 0.782835
#
# Coordination Sequence:
#
# PCOD8071436 Si02
#       6
#     4   4   4   4   4   4
#     4   8  15  27  44  69 103 138 171 210 256 304
#     4   9  16  26  44  73 105 136 173 216 258 301
#     4  11  23  39  57  79 106 136 172 214 260 311
#     4  10  19  33  53  77 106 141 176 213 261 309
#     4  10  23  39  56  78 104 135 172 213 257 309
#     4  10  20  34  53  80 109 138 175 217 260 307
#
# _framework density 18.804751
#
# number of rings (size 3 to 8) (size 9 to 14) (size 15 to 20)
#    0.000    2.333    0.000    4.000    0.000   10.000 
#    0.000    0.000    0.000    1.000    0.000    0.000 
#    0.000    0.000    0.000    0.000    0.000    0.000 
#
# Total GULP energy -297573.557243 kJ/mol
# GULP energy per Si atom -12398.898218 kJ/mol
# Density = 1.876195 g / cm^3
# Si number density = 18.804751 Si / 1000 Ang^3
#
#
#
# Elastic Constant Matrix: (Units=GPa)
#
#
# Indices 1 2 3 4 5 6 
#
# 1 94.6619 48.4519 69.6991 0.0000 3.4924 0.0000
# 2 48.4519 100.8200 71.4671 0.0000 4.0315 0.0000
# 3 69.6991 71.4671 166.2993 0.0000 14.5121 0.0000
# 4 0.0000 0.0000 0.0000 40.7332 0.0000 3.2264
# 5 3.4924 4.0315 14.5121 0.0000 24.1807 0.0000
# 6 0.0000 0.0000 0.0000 3.2264 0.0000 21.3434
#
#
#
# Elastic Compliance Matrix: (Units=1/GPa)
#
#
# Indices 1 2 3 4 5 6 
#
# 1 0.016558 -0.004323 -0.005209 0.000000 0.001455 0.000000
# 2 -0.004323 0.015436 -0.004909 0.000000 0.000997 0.000000
# 3 -0.005209 -0.004909 0.010731 0.000000 -0.004869 0.000000
# 4 0.000000 0.000000 0.000000 0.024847 0.000000 -0.003756
# 5 0.001455 0.000997 -0.004869 0.000000 0.043901 0.000000
# 6 0.000000 0.000000 0.000000 -0.003756 0.000000 0.047421
#
#
# Mechanical properties :
#
#
# Convention : Reuss Voigt Hill
#
# Bulk Modulus (GPa) = 72.23681 82.33527 77.28604
# Shear Modulus (GPa) = 25.98871 28.72900 27.35885
#
# Velocity S-wave (km/s) = 3.72160 3.91289 3.81844
# Velocity P-wave (km/s) = 7.54749 8.01833 7.78647
#
# Compressibility (1/GPa) = 0.01384336
#
# Stress axis : x y z
#
# Youngs Moduli (GPa) = 60.39212 64.78336 93.18934
#
# Poissons Ratio (x) = 0.28008 0.48542
# Poissons Ratio (y) = 0.26110 0.45743
# Poissons Ratio (z) = 0.31458 0.31800
#
# Static dielectric constant tensor:
#      x y z
#    x 3.152790 0.000000 0.010130 
#    y 0.000000 3.669380 0.000000 
#    z 0.010130 0.000000 3.601740 
# 
# 
# High freq. dielectric constant tensor:
#      x y z
#    x 1.686790 0.000000 0.002810 
#    y 0.000000 1.741960 0.000000 
#    z 0.002810 0.000000 1.750980 
# 
# From -- ./inp_files/25744.got.cif
#   From: 2010.06.25/outbox.cif.g09.slc.cpg/sg11_13_cif.got.tgz:25744.got - 2010.06.27 23:14:04.
