data_PCOD8071520
_publ_section_title
;
Structure prediction by ZEFSAII (Michael W. Deem and Ramdas Pophale) SiO2 
 PCOD8071520
Probable space group: P 21/M
;
_chemical_formula_sum "Si O2"
_cell_formula_units_Z 28
_cell_length_a 9.086290
_cell_length_b 8.902918
_cell_length_c 28.808164
_cell_angle_alpha 90.000000
_cell_angle_beta 140.895580
_cell_angle_gamma 90.000000
_cell_volume 1469.880207
_symmetry_space_group_name_H-M "P 21/M"
_symmetry_group_IT_number 11
_symmetry_cell_setting 'monoclinic'
loop_
_space_group_symop_operation_xyz
x,y,z
-x,1/2+y,-z
-x,-y,-z
x,1/2-y,z
loop_
_atom_site_type_symbol
_atom_site_label
_atom_site_fract_x
_atom_site_fract_y
_atom_site_fract_z
Si Si1 0.413681 0.575123 0.199044
Si Si2 0.834946 0.574561 0.496966
Si Si3 0.543926 0.918253 0.644452
Si Si4 0.435278 0.072286 0.935657
Si Si5 0.898731 0.423639 0.790324
Si Si6 0.747813 0.571439 0.933335
Si Si7 0.776228 0.082399 0.343460
O O1 0.403137 0.750000 0.182890
O O2 0.222755 0.530735 0.190942
O O3 0.363403 0.472968 0.142705
O O4 0.673628 0.535755 0.281333
O O5 0.820700 0.750000 0.482770
O O6 0.575490 0.504397 0.428494
O O7 0.000000 0.500000 0.500000
O O8 0.953614 0.545152 0.576785
O O9 0.593873 0.750000 0.640200
O O10 0.371912 0.926172 0.645824
O O11 0.789709 0.990637 0.719574
O O12 0.482089 0.250000 0.948206
O O13 0.168183 0.034469 0.859206
O O14 0.589057 0.993738 0.934752
O O15 0.500000 0.000000 0.000000
O O16 0.855273 0.250000 0.770308
O O17 0.765583 0.750000 0.942284
O O18 0.000000 0.500000 0.000000
O O19 0.758502 0.250000 0.317967
#
# Coordination Sequence:
#
# PCOD8071520 Si02
#       7
#     4   4   4   4   4   4   4
#     4  10  19  33  54  80 108 140 178 220 267 319
#     4   9  15  23  37  60  95 134 173 215 261 310
#     4   9  16  25  41  66  98 135 175 216 260 308
#     4  11  23  40  61  85 112 142 177 218 265 319
#     4   9  19  34  53  77 107 141 176 216 264 316
#     4  12  25  41  60  82 109 141 178 221 268 320
#     4   8  15  26  40  64  98 137 175 214 261 310
#
# _framework density 19.049171000000001
#
# number of rings (size 3 to 8) (size 9 to 14) (size 15 to 20)
#    0.000    2.286    0.000    4.714    0.000    6.857 
#    0.000    0.000    0.000    0.000    0.000    1.000 
#    0.000    0.000    0.000    0.000    0.000    0.000 
#
# Total GULP energy -347100.657507 kJ/mol
# GULP energy per Si atom -12396.452054 kJ/mol
# Density = 1.900581 g / cm^3
# Si number density = 19.049171 Si / 1000 Ang^3
#
#
#
# Elastic Constant Matrix: (Units=GPa)
#
#
# Indices 1 2 3 4 5 6 
#
# 1 71.2425 48.3053 58.8556 0.0000 5.6721 0.0000
# 2 48.3053 133.0646 90.3706 0.0000 8.6913 0.0000
# 3 58.8556 90.3706 170.0296 0.0000 9.3714 0.0000
# 4 0.0000 0.0000 0.0000 42.2491 0.0000 -0.4444
# 5 5.6721 8.6913 9.3714 0.0000 13.1993 0.0000
# 6 0.0000 0.0000 0.0000 -0.4444 0.0000 21.7862
#
#
#
# Elastic Compliance Matrix: (Units=1/GPa)
#
#
# Indices 1 2 3 4 5 6 
#
# 1 0.021171 -0.004114 -0.004985 0.000000 -0.002850 0.000000
# 2 -0.004114 0.012712 -0.005171 0.000000 -0.002931 0.000000
# 3 -0.004985 -0.005171 0.010458 0.000000 -0.001879 0.000000
# 4 0.000000 0.000000 0.000000 0.023674 0.000000 0.000483
# 5 -0.002850 -0.002931 -0.001879 0.000000 0.080250 0.000000
# 6 0.000000 0.000000 0.000000 0.000483 0.000000 0.045910
#
#
# Mechanical properties :
#
#
# Convention : Reuss Voigt Hill
#
# Bulk Modulus (GPa) = 63.28116 85.48885 74.38500
# Shear Modulus (GPa) = 21.93157 27.23395 24.58276
#
# Velocity S-wave (km/s) = 3.39678 3.78519 3.59624
# Velocity P-wave (km/s) = 6.97683 8.00494 7.50850
#
# Compressibility (1/GPa) = 0.01580249
#
# Stress axis : x y z
#
# Youngs Moduli (GPa) = 47.23468 78.66756 95.61624
#
# Poissons Ratio (x) = 0.32364 0.47661
# Poissons Ratio (y) = 0.19433 0.49440
# Poissons Ratio (z) = 0.23545 0.40676
#
# Static dielectric constant tensor:
#      x y z
#    x 2.566070 0.000000 -0.052300 
#    y 0.000000 3.736350 0.000000 
#    z -0.052300 0.000000 3.940600 
# 
# 
# High freq. dielectric constant tensor:
#      x y z
#    x 1.682930 0.000000 0.006960 
#    y 0.000000 1.752460 0.000000 
#    z 0.006960 0.000000 1.767060 
# 
# From -- ./inp_files/28462.got.cif
#   From: 2010.06.25/outbox.cif.g09.slc.cpg/sg11_15_cif.got.tgz:28462.got - 2010.06.27 23:14:04.
