data_PCOD8071946
_publ_section_title
;
Structure prediction by ZEFSAII (Michael W. Deem and Ramdas Pophale) SiO2 
 PCOD8071946
Probable space group: P 21/M
;
_chemical_formula_sum "Si O2"
_cell_formula_units_Z 28
_cell_length_a 28.987621
_cell_length_b 8.748866
_cell_length_c 9.020644
_cell_angle_alpha 90.000000
_cell_angle_beta 38.922189
_cell_angle_gamma 90.000000
_cell_volume 1437.289774
_symmetry_space_group_name_H-M "P 21/M"
_symmetry_group_IT_number 11
_symmetry_cell_setting 'monoclinic'
loop_
_space_group_symop_operation_xyz
x,y,z
-x,1/2+y,-z
-x,-y,-z
x,1/2-y,z
loop_
_atom_site_type_symbol
_atom_site_label
_atom_site_fract_x
_atom_site_fract_y
_atom_site_fract_z
Si Si1 0.069437 0.931111 0.407366
Si Si2 0.784934 0.432281 0.119708
Si Si3 0.641604 0.431429 0.312087
Si Si4 0.361079 0.568405 0.018898
Si Si5 0.785958 0.431526 0.451605
Si Si6 0.069529 0.568643 0.745417
Si Si7 0.498362 0.431164 0.842051
O O1 0.065125 0.750000 0.408309
O O2 0.070718 0.987818 0.573253
O O3 0.142777 0.992647 0.144472
O O4 0.000000 0.000000 0.500000
O O5 0.783199 0.250000 0.124079
O O6 0.713496 0.497924 0.214268
O O7 0.785142 0.496371 0.286592
O O8 0.644477 0.250000 0.307769
O O9 0.569487 0.492126 0.575930
O O10 0.640394 0.489121 0.146419
O O11 0.371177 0.750000 0.006206
O O12 0.286210 0.512117 0.282495
O O13 0.427076 0.486000 0.935082
O O14 0.788030 0.250000 0.444501
O O15 0.857432 0.494917 0.357492
O O16 0.065840 0.750000 0.764398
O O17 0.000000 0.500000 0.000000
O O18 0.498957 0.250000 0.852114
O O19 0.500000 0.500000 0.000000
#
# Coordination Sequence:
#
# PCOD8071946 Si02
#       7
#     4   4   4   4   4   4   4
#     4  10  20  33  52  76 104 135 171 213 258 306
#     4   9  16  29  50  76 102 132 170 211 250 299
#     4   9  18  32  53  79 105 133 170 212 255 303
#     4  10  19  34  56  80 105 135 170 212 258 308
#     4   9  17  30  52  78 104 135 173 212 255 307
#     4  10  20  34  52  77 105 137 175 216 260 308
#     4  11  22  36  54  78 107 139 174 214 257 305
#
# _framework density 19.481110000000001
#
# number of rings (size 3 to 8) (size 9 to 14) (size 15 to 20)
#    0.000    2.286    0.000    3.429    0.000    7.429 
#    0.000    1.429    0.000    8.571    0.000    0.000 
#    0.000    0.000    0.000    0.000    0.000    0.000 
#
# Total GULP energy -347249.127264 kJ/mol
# GULP energy per Si atom -12401.754545 kJ/mol
# Density = 1.943677 g / cm^3
# Si number density = 19.481110 Si / 1000 Ang^3
#
#
#
# Elastic Constant Matrix: (Units=GPa)
#
#
# Indices 1 2 3 4 5 6 
#
# 1 221.6569 26.5912 124.7088 0.0000 0.5464 0.0000
# 2 26.5912 20.8698 27.3559 0.0000 0.1885 0.0000
# 3 124.7088 27.3559 225.6701 0.0000 1.9042 0.0000
# 4 0.0000 0.0000 0.0000 24.0779 0.0000 -3.5444
# 5 0.5464 0.1885 1.9042 0.0000 49.2353 0.0000
# 6 0.0000 0.0000 0.0000 -3.5444 0.0000 28.3179
#
#
#
# Elastic Compliance Matrix: (Units=1/GPa)
#
#
# Indices 1 2 3 4 5 6 
#
# 1 0.006885 -0.004500 -0.003260 0.000000 0.000067 0.000000
# 2 -0.004500 0.059910 -0.004775 0.000000 0.000005 0.000000
# 3 -0.003260 -0.004775 0.006813 0.000000 -0.000209 0.000000
# 4 0.000000 0.000000 0.000000 0.042312 0.000000 0.005296
# 5 0.000067 0.000005 -0.000209 0.000000 0.020318 0.000000
# 6 0.000000 0.000000 0.000000 0.005296 0.000000 0.035976
#
#
# Mechanical properties :
#
#
# Convention : Reuss Voigt Hill
#
# Bulk Modulus (GPa) = 20.60287 91.72319 56.16303
# Shear Modulus (GPa) = 23.42311 39.62895 31.52603
#
# Velocity S-wave (km/s) = 3.47125 4.51513 4.02716
# Velocity P-wave (km/s) = 5.16381 8.62364 7.10747
#
# Compressibility (1/GPa) = 0.04853693
#
# Stress axis : x y z
#
# Youngs Moduli (GPa) = 145.23636 16.69180 146.76978
#
# Poissons Ratio (x) = 0.07512 0.47846
# Poissons Ratio (y) = 0.65362 0.70088
# Poissons Ratio (z) = 0.47346 0.07971
#
# Static dielectric constant tensor:
#      x y z
#    x 3.778040 0.000000 0.059280 
#    y 0.000000 3.062200 0.000000 
#    z 0.059280 0.000000 3.896990 
# 
# 
# High freq. dielectric constant tensor:
#      x y z
#    x 1.781180 0.000000 0.000890 
#    y 0.000000 1.704800 0.000000 
#    z 0.000890 0.000000 1.780990 
# 
# From -- ./inp_files/26435.got.cif
#   From: 2010.06.25/outbox.cif.g09.slc.cpg/sg11_14_cif.got.tgz:26435.got - 2010.06.27 23:14:04.
