data_PCOD8071770
_publ_section_title
;
Structure prediction by ZEFSAII (Michael W. Deem and Ramdas Pophale) SiO2 
 PCOD8071770
Probable space group: P 21/M
;
_chemical_formula_sum "Si O2"
_cell_formula_units_Z 22
_cell_length_a 7.069212
_cell_length_b 19.966671
_cell_length_c 12.039049
_cell_angle_alpha 90.000000
_cell_angle_beta 143.819043
_cell_angle_gamma 90.000000
_cell_volume 1003.157608
_symmetry_space_group_name_H-M "P 21/M"
_symmetry_group_IT_number 11
_symmetry_cell_setting 'monoclinic'
loop_
_space_group_symop_operation_xyz
x,y,z
-x,1/2+y,-z
-x,-y,-z
x,1/2-y,z
loop_
_atom_site_type_symbol
_atom_site_label
_atom_site_fract_x
_atom_site_fract_y
_atom_site_fract_z
Si Si1 0.730559 0.750000 0.048394
Si Si2 0.245907 0.384482 0.431838
Si Si3 0.557594 0.894558 0.236348
Si Si4 0.938904 0.250000 0.357805
Si Si5 0.425776 0.250000 0.773558
Si Si6 0.822269 0.015867 0.089705
Si Si7 0.038857 0.880762 0.257810
O O1 0.576393 0.750000 0.096284
O O2 0.942197 0.816774 0.137684
O O3 0.447859 0.750000 0.822909
O O4 0.286221 0.417035 0.573778
O O5 0.588118 0.373916 0.533996
O O6 0.059637 0.314544 0.347614
O O7 0.041682 0.435946 0.265297
O O8 0.403448 0.819573 0.182833
O O9 0.832778 0.888570 0.272510
O O10 0.277091 0.946923 0.071667
O O11 0.070750 0.250000 0.546988
O O12 0.000901 0.945020 0.157847
O O13 0.500000 0.000000 0.000000
#
# Coordination Sequence:
#
# PCOD8071770 Si02
#       7
#     2   4   4   2   2   4   4
#     4  10  19  39  59  76 114 147 173 234 280 313
#     4  11  21  37  59  83 112 146 184 230 274 321
#     4   9  20  37  57  80 114 150 181 227 277 323
#     4  10  19  33  59  82 104 147 187 216 276 335
#     4   8  16  32  54  80 104 138 186 218 260 326
#     4  10  21  37  56  83 113 147 187 223 274 335
#     4  10  21  37  58  83 110 143 188 228 271 332
#
# _framework density 21.93075
#
# number of rings (size 3 to 8) (size 9 to 14) (size 15 to 20)
#    0.000    2.182    0.000    4.364    0.000    3.636 
#    0.000   10.909    0.000   15.273    0.000    0.000 
#    0.000    0.000    0.000    0.000    0.000    0.000 
#
# Total GULP energy -272630.379493 kJ/mol
# GULP energy per Si atom -12392.289977 kJ/mol
# Density = 2.188083 g / cm^3
# Si number density = 21.930750 Si / 1000 Ang^3
#
#
#
# Elastic Constant Matrix: (Units=GPa)
#
#
# Indices 1 2 3 4 5 6 
#
# 1 51.1129 -0.3338 12.6947 0.0000 0.4283 0.0000
# 2 -0.3338 162.6202 67.9094 0.0000 0.6200 0.0000
# 3 12.6947 67.9094 129.1861 0.0000 -0.7127 0.0000
# 4 0.0000 0.0000 0.0000 42.6548 0.0000 16.0398
# 5 0.4283 0.6200 -0.7127 0.0000 34.9315 0.0000
# 6 0.0000 0.0000 0.0000 16.0398 0.0000 -17.3061
#
#
#
# Elastic Compliance Matrix: (Units=1/GPa)
#
#
# Indices 1 2 3 4 5 6 
#
# 1 0.020214 0.001118 -0.002576 0.000000 -0.000320 0.000000
# 2 0.001118 0.007942 -0.004286 0.000000 -0.000242 0.000000
# 3 -0.002576 -0.004286 0.010249 0.000000 0.000317 0.000000
# 4 0.000000 0.000000 0.000000 0.017385 0.000000 0.016113
# 5 -0.000320 -0.000242 0.000317 0.000000 0.028642 0.000000
# 6 0.000000 0.000000 0.000000 0.016113 0.000000 -0.042849
#
#
# Mechanical properties :
#
#
# Convention : Reuss Voigt Hill
#
# Bulk Modulus (GPa) = 37.15028 55.93996 46.54512
# Shear Modulus (GPa) = 80.58765 29.56597 55.07681
#
# Velocity S-wave (km/s) = 6.06846 3.67570 5.01682
# Velocity P-wave (km/s) = 8.12885 6.60131 7.40458
#
# Compressibility (1/GPa) = 0.02691769
#
# Stress axis : x y z
#
# Youngs Moduli (GPa) = 49.46986 125.90512 97.57152
#
# Poissons Ratio (x) = -0.14082 0.25136
# Poissons Ratio (y) = -0.05533 0.41823
# Poissons Ratio (z) = 0.12744 0.53968
#
# Static dielectric constant tensor:
#      x y z
#    x 3.531210 0.000000 -0.013080 
#    y 0.000000 4.821630 0.000000 
#    z -0.013080 0.000000 4.014110 
# 
# 
# High freq. dielectric constant tensor:
#      x y z
#    x 1.833350 0.000000 -0.001040 
#    y 0.000000 1.886650 0.000000 
#    z -0.001040 0.000000 1.861080 
# 
# From -- ./inp_files/47948.got.cif
#   From: 2010.06.25/outbox.cif.g09.slc.cpg/sg11_24_cif.got.tgz:47948.got - 2010.06.27 23:14:04.
