data_PCOD8071573
_publ_section_title
;
Structure prediction by ZEFSAII (Michael W. Deem and Ramdas Pophale) SiO2 
 PCOD8071573
Probable space group: P 21/M
;
_chemical_formula_sum "Si O2"
_cell_formula_units_Z 28
_cell_length_a 17.332886
_cell_length_b 8.971534
_cell_length_c 15.176732
_cell_angle_alpha 90.000000
_cell_angle_beta 141.709326
_cell_angle_gamma 90.000000
_cell_volume 1462.389999
_symmetry_space_group_name_H-M "P 21/M"
_symmetry_group_IT_number 11
_symmetry_cell_setting 'monoclinic'
loop_
_space_group_symop_operation_xyz
x,y,z
-x,1/2+y,-z
-x,-y,-z
x,1/2-y,z
loop_
_atom_site_type_symbol
_atom_site_label
_atom_site_fract_x
_atom_site_fract_y
_atom_site_fract_z
Si Si1 0.390670 0.572615 0.843484
Si Si2 0.164541 0.585400 0.119277
Si Si3 0.130303 0.419119 0.597144
Si Si4 0.162531 0.416260 0.420076
Si Si5 0.986775 0.078150 0.847672
Si Si6 0.590043 0.075929 0.343505
Si Si7 0.455629 0.916596 0.373841
O O1 0.385667 0.750000 0.855244
O O2 0.253751 0.504959 0.744873
O O3 0.425067 0.534718 0.773007
O O4 0.500000 0.500000 0.000000
O O5 0.109577 0.750000 0.049541
O O6 0.117066 0.535590 0.172852
O O7 0.309855 0.588779 0.250196
O O8 0.120560 0.470576 0.004987
O O9 0.129294 0.250000 0.634825
O O10 0.137197 0.413968 0.499594
O O11 0.000000 0.500000 0.500000
O O12 0.189785 0.250000 0.409685
O O13 0.041296 0.484116 0.264859
O O14 0.278126 0.521838 0.500702
O O15 0.989824 0.250000 0.824460
O O16 0.579778 0.250000 0.350125
O O17 0.485710 0.996991 0.308679
O O18 0.512124 0.750000 0.423324
O O19 0.500000 0.000000 0.500000
#
# Coordination Sequence:
#
# PCOD8071573 Si02
#       7
#     4   4   4   4   4   4   4
#     4  10  21  39  63  88 117 156 197 244 298 354
#     4   9  20  36  51  73 107 143 182 225 270 322
#     4  10  21  38  60  87 117 149 190 239 290 349
#     4  10  20  35  57  82 109 143 182 223 274 333
#     4  10  19  33  55  79 104 140 182 226 274 323
#     4  10  21  37  57  83 114 146 188 235 278 335
#     4  11  22  36  56  81 112 150 188 232 280 330
#
# _framework density 19.146739
#
# number of rings (size 3 to 8) (size 9 to 14) (size 15 to 20)
#    0.000    2.000    0.000    3.429    0.000    6.286 
#    2.571    0.000    0.000    0.000    0.000    0.000 
#    0.000    0.000    0.000    0.000    0.000    0.000 
#
# Total GULP energy -347151.874263 kJ/mol
# GULP energy per Si atom -12398.281224 kJ/mol
# Density = 1.910316 g / cm^3
# Si number density = 19.146739 Si / 1000 Ang^3
#
#
#
# Elastic Constant Matrix: (Units=GPa)
#
#
# Indices 1 2 3 4 5 6 
#
# 1 46.6133 39.9915 29.9335 0.0000 13.3617 0.0000
# 2 39.9915 139.3183 65.7650 0.0000 0.5104 0.0000
# 3 29.9335 65.7650 113.7065 0.0000 3.1320 0.0000
# 4 0.0000 0.0000 0.0000 37.6459 0.0000 2.2683
# 5 13.3617 0.5104 3.1320 0.0000 24.0103 0.0000
# 6 0.0000 0.0000 0.0000 2.2683 0.0000 29.5045
#
#
#
# Elastic Compliance Matrix: (Units=1/GPa)
#
#
# Indices 1 2 3 4 5 6 
#
# 1 0.037353 -0.008622 -0.004295 0.000000 -0.020044 0.000000
# 2 -0.008622 0.011870 -0.004738 0.000000 0.005164 0.000000
# 3 -0.004295 -0.004738 0.012642 0.000000 0.000842 0.000000
# 4 0.000000 0.000000 0.000000 0.026687 0.000000 -0.002052
# 5 -0.020044 0.005164 0.000842 0.000000 0.052584 0.000000
# 6 0.000000 0.000000 0.000000 -0.002052 0.000000 0.034051
#
#
# Mechanical properties :
#
#
# Convention : Reuss Voigt Hill
#
# Bulk Modulus (GPa) = 37.65444 63.44646 50.55045
# Shear Modulus (GPa) = 22.79473 29.16202 25.97838
#
# Velocity S-wave (km/s) = 3.45415 3.90690 3.68748
# Velocity P-wave (km/s) = 5.96801 7.31852 6.67749
#
# Compressibility (1/GPa) = 0.02655730
#
# Stress axis : x y z
#
# Youngs Moduli (GPa) = 26.77126 84.24357 79.09896
#
# Poissons Ratio (x) = 0.72631 0.33971
# Poissons Ratio (y) = 0.23081 0.37478
# Poissons Ratio (z) = 0.11498 0.39915
#
# Static dielectric constant tensor:
#      x y z
#    x 3.520910 0.000000 0.071860 
#    y 0.000000 4.172530 0.000000 
#    z 0.071860 0.000000 3.382930 
# 
# 
# High freq. dielectric constant tensor:
#      x y z
#    x 1.731710 0.000000 0.001090 
#    y 0.000000 1.763820 0.000000 
#    z 0.001090 0.000000 1.745240 
# 
# From -- ./inp_files/53295.got.cif
#   From: 2010.06.25/outbox.cif.g09.slc.cpg/sg11_27_cif.got.tgz:53295.got - 2010.06.27 23:14:04.
