data_PCOD8071996
_publ_section_title
;
Structure prediction by ZEFSAII (Michael W. Deem and Ramdas Pophale) SiO2 
 PCOD8071996
Probable space group: P 21/M
;
_chemical_formula_sum "Si O2"
_cell_formula_units_Z 24
_cell_length_a 23.458239
_cell_length_b 9.218231
_cell_length_c 5.191099
_cell_angle_alpha 90.000000
_cell_angle_beta 97.847832
_cell_angle_gamma 90.000000
_cell_volume 1112.027739
_symmetry_space_group_name_H-M "P 21/M"
_symmetry_group_IT_number 11
_symmetry_cell_setting 'monoclinic'
loop_
_space_group_symop_operation_xyz
x,y,z
-x,1/2+y,-z
-x,-y,-z
x,1/2-y,z
loop_
_atom_site_type_symbol
_atom_site_label
_atom_site_fract_x
_atom_site_fract_y
_atom_site_fract_z
Si Si1 0.030022 0.596349 0.313125
Si Si2 0.372095 0.579063 0.424930
Si Si3 0.759177 0.075066 0.713312
Si Si4 0.087604 0.403129 0.011835
Si Si5 0.807728 0.921517 0.247373
Si Si6 0.560837 0.076793 0.032667
O O1 0.049207 0.750000 0.445470
O O2 0.088770 0.528829 0.228010
O O3 0.000000 0.500000 0.500000
O O4 0.980004 0.622466 0.073909
O O5 0.374982 0.750000 0.418953
O O6 0.306160 0.529644 0.386735
O O7 0.403139 0.521066 0.699734
O O8 0.405023 0.518762 0.195363
O O9 0.767733 0.250000 0.726345
O O10 0.797092 0.000852 0.512270
O O11 0.773874 0.003865 0.997441
O O12 0.112758 0.250000 0.139430
O O13 0.124248 0.443076 0.779650
O O14 0.791242 0.750000 0.251474
O O15 0.552782 0.250000 0.027657
O O16 0.500000 0.000000 0.000000
#
# Coordination Sequence:
#
# PCOD8071996 Si02
#       6
#     4   4   4   4   4   4
#     4  10  20  35  57  83 110 145 189 236 291 358
#     4   9  19  36  58  80 114 157 195 239 297 353
#     4  11  23  42  66  92 119 161 216 259 296 360
#     4   9  21  39  56  77 111 153 189 232 298 366
#     4  11  24  42  63  90 126 163 200 253 320 372
#     4  10  19  34  56  84 115 152 192 237 294 352
#
# _framework density 21.582197000000001
#
# number of rings (size 3 to 8) (size 9 to 14) (size 15 to 20)
#    0.000    2.000    0.000    3.000    2.333    4.667 
#    0.000    5.000    0.000    0.000    0.000    0.000 
#    0.000    0.000    0.000    0.000    0.000    0.000 
#
# Total GULP energy -297352.163980 kJ/mol
# GULP energy per Si atom -12389.673499 kJ/mol
# Density = 2.153307 g / cm^3
# Si number density = 21.582197 Si / 1000 Ang^3
#
#
#
# Elastic Constant Matrix: (Units=GPa)
#
#
# Indices 1 2 3 4 5 6 
#
# 1 82.6286 16.1276 6.9559 0.0000 -22.3598 0.0000
# 2 16.1276 116.3903 26.4150 0.0000 -21.9083 0.0000
# 3 6.9559 26.4150 90.5883 0.0000 -17.2755 0.0000
# 4 0.0000 0.0000 0.0000 28.2291 0.0000 -5.6964
# 5 -22.3598 -21.9083 -17.2755 0.0000 41.0743 0.0000
# 6 0.0000 0.0000 0.0000 -5.6964 0.0000 30.8047
#
#
#
# Elastic Compliance Matrix: (Units=1/GPa)
#
#
# Indices 1 2 3 4 5 6 
#
# 1 0.014252 -0.000663 0.000556 0.000000 0.007638 0.000000
# 2 -0.000663 0.009917 -0.002067 0.000000 0.004059 0.000000
# 3 0.000556 -0.002067 0.012445 0.000000 0.004434 0.000000
# 4 0.000000 0.000000 0.000000 0.036798 0.000000 0.006805
# 5 0.007638 0.004059 0.004434 0.000000 0.032534 0.000000
# 6 0.000000 0.000000 0.000000 0.006805 0.000000 0.033721
#
#
# Mechanical properties :
#
#
# Convention : Reuss Voigt Hill
#
# Bulk Modulus (GPa) = 30.99324 43.17824 37.08574
# Shear Modulus (GPa) = 32.30613 36.02887 34.16750
#
# Velocity S-wave (km/s) = 3.87316 4.09024 3.98318
# Velocity P-wave (km/s) = 5.86460 6.50819 6.19476
#
# Compressibility (1/GPa) = 0.03226510
#
# Stress axis : x y z
#
# Youngs Moduli (GPa) = 70.16557 100.83923 80.35654
#
# Poissons Ratio (x) = 0.06687 -0.04465
# Poissons Ratio (y) = 0.04653 0.16607
# Poissons Ratio (z) = -0.03899 0.20840
#
# Static dielectric constant tensor:
#      x y z
#    x 4.618330 0.000000 0.497490 
#    y 0.000000 4.324570 0.000000 
#    z 0.497490 0.000000 4.999180 
# 
# 
# High freq. dielectric constant tensor:
#      x y z
#    x 1.847830 0.000000 -0.009900 
#    y 0.000000 1.843280 0.000000 
#    z -0.009900 0.000000 1.852980 
# 
# From -- ./inp_files/9244.got.cif
#   From: 2010.06.25/outbox.cif.g09.slc.cpg/sg11_5_cif.got.tgz:9244.got - 2010.06.27 23:14:04.
