data_PCOD8071338
_publ_section_title
;
Structure prediction by ZEFSAII (Michael W. Deem and Ramdas Pophale) SiO2 
 PCOD8071338
Probable space group: P 21/M
;
_chemical_formula_sum "Si O2"
_cell_formula_units_Z 32
_cell_length_a 14.867682
_cell_length_b 8.912683
_cell_length_c 30.514221
_cell_angle_alpha 90.000000
_cell_angle_beta 28.523604
_cell_angle_gamma 90.000000
_cell_volume 1930.839930
_symmetry_space_group_name_H-M "P 21/M"
_symmetry_group_IT_number 11
_symmetry_cell_setting 'monoclinic'
loop_
_space_group_symop_operation_xyz
x,y,z
-x,1/2+y,-z
-x,-y,-z
x,1/2-y,z
loop_
_atom_site_type_symbol
_atom_site_label
_atom_site_fract_x
_atom_site_fract_y
_atom_site_fract_z
Si Si1 0.660202 0.075725 0.212616
Si Si2 0.033045 0.576493 0.081889
Si Si3 0.252934 0.927017 0.249153
Si Si4 0.284815 0.575766 0.385464
Si Si5 0.684785 0.575463 0.866410
Si Si6 0.054793 0.423864 0.408689
Si Si7 0.262132 0.578049 0.069143
Si Si8 0.374345 0.924462 0.874292
O O1 0.625421 0.250000 0.236500
O O2 0.669459 0.039530 0.157229
O O3 0.493548 0.981666 0.306948
O O4 0.853338 0.027005 0.152239
O O5 0.980406 0.750000 0.096518
O O6 0.102718 0.549106 0.101462
O O7 0.193007 0.524897 0.979439
O O8 0.247971 0.750000 0.250609
O O9 0.221782 0.987311 0.213617
O O10 0.079785 0.987585 0.352632
O O11 0.448565 0.980783 0.185973
O O12 0.285442 0.750000 0.371913
O O13 0.208274 0.480813 0.377632
O O14 0.155851 0.548302 0.483415
O O15 0.721081 0.750000 0.843790
O O16 0.782796 0.524095 0.869611
O O17 0.463466 0.535277 0.962045
O O18 0.097199 0.250000 0.382404
O O19 0.266583 0.750000 0.082782
O O20 0.419817 0.750000 0.863349
#
# Coordination Sequence:
#
# PCOD8071338 Si02
#       8
#     4   4   4   4   4   4   4   4
#     4  11  22  33  50  73 102 138 176 214 249 294
#     4  10  20  35  52  69 100 139 176 214 250 294
#     4  12  22  31  50  77 103 135 171 206 248 307
#     4  10  20  34  52  74  98 131 170 208 253 301
#     4  10  19  33  52  72 101 133 164 209 258 302
#     4  10  20  34  52  73 101 131 165 209 255 302
#     4   9  18  33  51  73  98 131 170 211 254 297
#     4  10  20  35  49  68 101 140 175 212 251 288
#
# _framework density 16.573098000000002
#
# number of rings (size 3 to 8) (size 9 to 14) (size 15 to 20)
#    0.000    1.750    2.500    3.000    0.000    3.500 
#    0.000    0.000    0.000    0.000    0.000    0.875 
#    0.000    0.000    0.000    0.000    0.000    0.000 
#
# Total GULP energy -396944.507888 kJ/mol
# GULP energy per Si atom -12404.515872 kJ/mol
# Density = 1.653538 g / cm^3
# Si number density = 16.573098 Si / 1000 Ang^3
#
#
#
# Elastic Constant Matrix: (Units=GPa)
#
#
# Indices 1 2 3 4 5 6 
#
# 1 70.0623 40.4982 44.6925 0.0000 8.7958 0.0000
# 2 40.4982 96.4937 54.1433 0.0000 11.8339 0.0000
# 3 44.6925 54.1433 103.9626 0.0000 9.8558 0.0000
# 4 0.0000 0.0000 0.0000 26.9732 0.0000 1.2709
# 5 8.7958 11.8339 9.8558 0.0000 22.8379 0.0000
# 6 0.0000 0.0000 0.0000 1.2709 0.0000 27.1661
#
#
#
# Elastic Compliance Matrix: (Units=1/GPa)
#
#
# Indices 1 2 3 4 5 6 
#
# 1 0.021683 -0.005181 -0.006346 0.000000 -0.002928 0.000000
# 2 -0.005181 0.016333 -0.005908 0.000000 -0.003919 0.000000
# 3 -0.006346 -0.005908 0.015537 0.000000 -0.001200 0.000000
# 4 0.000000 0.000000 0.000000 0.037156 0.000000 -0.001738
# 5 -0.002928 -0.003919 -0.001200 0.000000 0.047463 0.000000
# 6 0.000000 0.000000 0.000000 -0.001738 0.000000 0.036892
#
#
# Mechanical properties :
#
#
# Convention : Reuss Voigt Hill
#
# Bulk Modulus (GPa) = 53.51751 61.02073 57.26912
# Shear Modulus (GPa) = 23.13099 24.14109 23.63604
#
# Velocity S-wave (km/s) = 3.73995 3.82074 3.78056
# Velocity P-wave (km/s) = 7.14224 7.50754 7.32717
#
# Compressibility (1/GPa) = 0.01868547
#
# Stress axis : x y z
#
# Youngs Moduli (GPa) = 46.11895 61.22561 64.36169
#
# Poissons Ratio (x) = 0.31719 0.40842
# Poissons Ratio (y) = 0.23893 0.38022
# Poissons Ratio (z) = 0.29266 0.36170
#
# Static dielectric constant tensor:
#      x y z
#    x 2.939880 0.000000 0.143720 
#    y 0.000000 3.168610 0.000000 
#    z 0.143720 0.000000 3.217860 
# 
# 
# High freq. dielectric constant tensor:
#      x y z
#    x 1.614130 0.000000 0.012560 
#    y 0.000000 1.649610 0.000000 
#    z 0.012560 0.000000 1.631250 
# 
# From -- ./inp_files/51236.got.cif
#   From: 2010.06.25/outbox.cif.g09.slc.cpg/sg11_26_cif.got.tgz:51236.got - 2010.06.27 23:14:04.
