data_PCOD8071540
_publ_section_title
;
Structure prediction by ZEFSAII (Michael W. Deem and Ramdas Pophale) SiO2 
 PCOD8071540
Probable space group: P 21/M
;
_chemical_formula_sum "Si O2"
_cell_formula_units_Z 32
_cell_length_a 14.544682
_cell_length_b 15.326447
_cell_length_c 11.086026
_cell_angle_alpha 90.000000
_cell_angle_beta 138.857457
_cell_angle_gamma 90.000000
_cell_volume 1625.939325
_symmetry_space_group_name_H-M "P 21/M"
_symmetry_group_IT_number 11
_symmetry_cell_setting 'monoclinic'
loop_
_space_group_symop_operation_xyz
x,y,z
-x,1/2+y,-z
-x,-y,-z
x,1/2-y,z
loop_
_atom_site_type_symbol
_atom_site_label
_atom_site_fract_x
_atom_site_fract_y
_atom_site_fract_z
Si Si1 0.793717 0.655013 0.330751
Si Si2 0.124805 0.148287 0.327569
Si Si3 0.816670 0.151922 0.101917
Si Si4 0.603435 0.043632 0.767885
Si Si5 0.294201 0.645452 0.577700
Si Si6 0.693446 0.991569 0.600449
Si Si7 0.076562 0.591406 0.556562
Si Si8 0.444863 0.064184 0.047465
O O1 0.728170 0.750000 0.273171
O O2 0.802699 0.617502 0.475480
O O3 0.951915 0.661932 0.436283
O O4 0.694042 0.602825 0.145931
O O5 0.160745 0.250000 0.331470
O O6 0.958431 0.136124 0.167247
O O7 0.179287 0.076554 0.287018
O O8 0.803604 0.250000 0.131725
O O9 0.815780 0.098372 0.225678
O O10 0.682922 0.130780 0.887660
O O11 0.685906 0.006495 0.735059
O O12 0.442852 0.062485 0.577576
O O13 0.611214 0.977326 0.885728
O O14 0.278536 0.750000 0.533069
O O15 0.297680 0.585480 0.459827
O O16 0.161021 0.606556 0.517227
O O17 0.433992 0.632970 0.796229
O O18 0.000000 0.500000 0.500000
O O19 0.500000 0.000000 0.000000
#
# Coordination Sequence:
#
# PCOD8071540 Si02
#       8
#     4   4   4   4   4   4   4   4
#     4  10  19  33  54  81 112 140 173 221 277 335
#     4   9  19  36  58  84 113 148 188 232 282 339
#     4  10  20  35  56  84 114 142 184 239 288 339
#     4  10  22  38  56  79 108 146 191 235 284 340
#     4  11  22  36  56  83 116 151 191 239 288 340
#     4  10  22  40  57  78 111 152 197 236 281 344
#     4  11  20  34  57  84 114 149 184 227 285 342
#     4  11  21  36  57  81 109 142 183 231 285 341
#
# _framework density 19.680931000000001
#
# number of rings (size 3 to 8) (size 9 to 14) (size 15 to 20)
#    0.000    1.750    0.000    7.500    0.000    1.500 
#    0.000    7.500    0.000    1.500    0.000    0.000 
#    0.000    0.000    0.000    0.000    0.000    0.000 
#
# Total GULP energy -396522.494499 kJ/mol
# GULP energy per Si atom -12391.327953 kJ/mol
# Density = 1.963614 g / cm^3
# Si number density = 19.680931 Si / 1000 Ang^3
#
#
#
# Elastic Constant Matrix: (Units=GPa)
#
#
# Indices 1 2 3 4 5 6 
#
# 1 120.8473 45.2525 29.2113 0.0000 -12.6114 0.0000
# 2 45.2525 99.3350 27.6677 0.0000 -2.5455 0.0000
# 3 29.2113 27.6677 71.1920 0.0000 -5.4401 0.0000
# 4 0.0000 0.0000 0.0000 26.3312 0.0000 9.5223
# 5 -12.6114 -2.5455 -5.4401 0.0000 21.5163 0.0000
# 6 0.0000 0.0000 0.0000 9.5223 0.0000 18.9636
#
#
#
# Elastic Compliance Matrix: (Units=1/GPa)
#
#
# Indices 1 2 3 4 5 6 
#
# 1 0.010996 -0.004182 -0.002480 0.000000 0.005323 0.000000
# 2 -0.004182 0.012881 -0.003427 0.000000 -0.001794 0.000000
# 3 -0.002480 -0.003427 0.016574 0.000000 0.002332 0.000000
# 4 0.000000 0.000000 0.000000 0.046404 0.000000 -0.023301
# 5 0.005323 -0.001794 0.002332 0.000000 0.049974 0.000000
# 6 0.000000 0.000000 0.000000 -0.023301 0.000000 0.064433
#
#
# Mechanical properties :
#
#
# Convention : Reuss Voigt Hill
#
# Bulk Modulus (GPa) = 49.32680 55.07081 52.19881
# Shear Modulus (GPa) = 21.91093 25.97842 23.94468
#
# Velocity S-wave (km/s) = 3.34025 3.63709 3.49183
# Velocity P-wave (km/s) = 6.32408 6.75873 6.54502
#
# Compressibility (1/GPa) = 0.02027296
#
# Stress axis : x y z
#
# Youngs Moduli (GPa) = 90.94325 77.63573 60.33552
#
# Poissons Ratio (x) = 0.32468 0.14961
# Poissons Ratio (y) = 0.38034 0.20677
# Poissons Ratio (z) = 0.22551 0.26605
#
# Static dielectric constant tensor:
#      x y z
#    x 3.666530 0.000000 0.101230 
#    y 0.000000 3.462420 0.000000 
#    z 0.101230 0.000000 3.583290 
# 
# 
# High freq. dielectric constant tensor:
#      x y z
#    x 1.767780 0.000000 0.011500 
#    y 0.000000 1.765460 0.000000 
#    z 0.011500 0.000000 1.763860 
# 
# From -- ./inp_files/39685.got.cif
#   From: 2010.06.25/outbox.cif.g09.slc.cpg/sg11_20_cif.got.tgz:39685.got - 2010.06.27 23:14:04.
