data_PCOD8071327
_publ_section_title
;
Structure prediction by ZEFSAII (Michael W. Deem and Ramdas Pophale) SiO2 
 PCOD8071327
Probable space group: P 21/M
;
_chemical_formula_sum "Si O2"
_cell_formula_units_Z 28
_cell_length_a 15.610524
_cell_length_b 8.877420
_cell_length_c 19.013030
_cell_angle_alpha 90.000000
_cell_angle_beta 33.185733
_cell_angle_gamma 90.000000
_cell_volume 1442.196876
_symmetry_space_group_name_H-M "P 21/M"
_symmetry_group_IT_number 11
_symmetry_cell_setting 'monoclinic'
loop_
_space_group_symop_operation_xyz
x,y,z
-x,1/2+y,-z
-x,-y,-z
x,1/2-y,z
loop_
_atom_site_type_symbol
_atom_site_label
_atom_site_fract_x
_atom_site_fract_y
_atom_site_fract_z
Si Si1 0.830904 0.573117 0.119910
Si Si2 0.320255 0.921403 0.901962
Si Si3 0.641707 0.580770 0.611367
Si Si4 0.677520 0.915056 0.811308
Si Si5 0.157178 0.925656 0.420225
Si Si6 0.447597 0.569919 0.609551
Si Si7 0.689595 0.415468 0.934574
O O1 0.841704 0.750000 0.128415
O O2 0.756517 0.544526 0.095118
O O3 0.723638 0.494725 0.253318
O O4 0.000000 0.500000 0.000000
O O5 0.261408 0.750000 0.926299
O O6 0.506915 0.923969 0.763377
O O7 0.272914 0.972668 0.012757
O O8 0.703748 0.750000 0.558630
O O9 0.787466 0.483172 0.540418
O O10 0.572659 0.521438 0.584120
O O11 0.748791 0.750000 0.744344
O O12 0.709831 0.033437 0.727493
O O13 0.758177 0.972018 0.828761
O O14 0.494881 0.901204 0.948501
O O15 0.131984 0.750000 0.443099
O O16 0.000000 0.000000 0.500000
O O17 0.500000 0.500000 0.500000
O O18 0.436066 0.750000 0.612623
O O19 0.764474 0.250000 0.871941
#
# Coordination Sequence:
#
# PCOD8071327 Si02
#       7
#     4   4   4   4   4   4   4
#     4  11  22  37  58  86 119 154 194 239 291 348
#     4   9  17  33  56  81 112 146 182 228 280 335
#     4   9  18  36  58  82 112 146 186 233 283 336
#     4  10  19  33  51  75 107 139 175 220 268 317
#     4  12  24  37  55  77 107 147 191 236 282 334
#     4  10  21  39  64  92 122 155 193 241 295 355
#     4   9  17  31  52  78 107 139 173 216 267 318
#
# _framework density 19.414825
#
# number of rings (size 3 to 8) (size 9 to 14) (size 15 to 20)
#    0.000    2.000    1.429    4.286    0.000    4.000 
#    0.000    1.429    0.000    8.571    0.000    0.000 
#    0.000    0.000    0.000    0.000    0.000    0.000 
#
# Total GULP energy -347042.094488 kJ/mol
# GULP energy per Si atom -12394.360517 kJ/mol
# Density = 1.937064 g / cm^3
# Si number density = 19.414825 Si / 1000 Ang^3
#
#
#
# Elastic Constant Matrix: (Units=GPa)
#
#
# Indices 1 2 3 4 5 6 
#
# 1 111.3461 55.2605 50.3787 0.0000 9.0888 0.0000
# 2 55.2605 125.5072 43.0343 0.0000 -3.8516 0.0000
# 3 50.3787 43.0343 64.0102 0.0000 -1.1993 0.0000
# 4 0.0000 0.0000 0.0000 27.7383 0.0000 2.1087
# 5 9.0888 -3.8516 -1.1993 0.0000 29.3521 0.0000
# 6 0.0000 0.0000 0.0000 2.1087 0.0000 35.7448
#
#
#
# Elastic Compliance Matrix: (Units=1/GPa)
#
#
# Indices 1 2 3 4 5 6 
#
# 1 0.015864 -0.003697 -0.010109 0.000000 -0.005810 0.000000
# 2 -0.003697 0.011250 -0.004608 0.000000 0.002433 0.000000
# 3 -0.010109 -0.004608 0.026745 0.000000 0.003618 0.000000
# 4 0.000000 0.000000 0.000000 0.036214 0.000000 -0.002136
# 5 -0.005810 0.002433 0.003618 0.000000 0.036335 0.000000
# 6 0.000000 0.000000 0.000000 -0.002136 0.000000 0.028102
#
#
# Mechanical properties :
#
#
# Convention : Reuss Voigt Hill
#
# Bulk Modulus (GPa) = 58.71877 66.46785 62.59331
# Shear Modulus (GPa) = 25.37878 28.71304 27.04591
#
# Velocity S-wave (km/s) = 3.61942 3.84985 3.73641
# Velocity P-wave (km/s) = 6.91209 7.35335 7.13613
#
# Compressibility (1/GPa) = 0.01703033
#
# Stress axis : x y z
#
# Youngs Moduli (GPa) = 63.03638 88.88734 37.39063
#
# Poissons Ratio (x) = 0.32861 0.37798
# Poissons Ratio (y) = 0.23304 0.17231
# Poissons Ratio (z) = 0.63723 0.40962
#
# Static dielectric constant tensor:
#      x y z
#    x 3.734190 0.000000 0.093290 
#    y 0.000000 3.796550 0.000000 
#    z 0.093290 0.000000 3.353680 
# 
# 
# High freq. dielectric constant tensor:
#      x y z
#    x 1.759700 0.000000 0.009610 
#    y 0.000000 1.758000 0.000000 
#    z 0.009610 0.000000 1.724470 
# 
# From -- ./inp_files/65380.got.cif
#   From: 2010.06.25/outbox.cif.g09.slc.cpg/sg11_33_cif.got.tgz:65380.got - 2010.06.27 23:14:04.
