data_PCOD8071721
_publ_section_title
;
Structure prediction by ZEFSAII (Michael W. Deem and Ramdas Pophale) SiO2 
 PCOD8071721
Probable space group: P 21/M
;
_chemical_formula_sum "Si O2"
_cell_formula_units_Z 28
_cell_length_a 7.649719
_cell_length_b 13.210543
_cell_length_c 14.573333
_cell_angle_alpha 90.000000
_cell_angle_beta 102.560421
_cell_angle_gamma 90.000000
_cell_volume 1437.489785
_symmetry_space_group_name_H-M "P 21/M"
_symmetry_group_IT_number 11
_symmetry_cell_setting 'monoclinic'
loop_
_space_group_symop_operation_xyz
x,y,z
-x,1/2+y,-z
-x,-y,-z
x,1/2-y,z
loop_
_atom_site_type_symbol
_atom_site_label
_atom_site_fract_x
_atom_site_fract_y
_atom_site_fract_z
Si Si1 0.086794 0.974236 0.107275
Si Si2 0.205242 0.498728 0.617729
Si Si3 0.125220 0.369443 0.450105
Si Si4 0.832388 0.633488 0.209040
Si Si5 0.560210 0.139201 0.247592
Si Si6 0.160887 0.141169 0.249769
Si Si7 0.500771 0.476923 0.894408
O O1 0.299426 0.951495 0.121125
O O2 0.980910 0.883300 0.145407
O O3 0.048603 0.067750 0.171737
O O4 0.000000 0.000000 0.000000
O O5 0.254186 0.419613 0.542169
O O6 0.130883 0.437108 0.697766
O O7 0.376626 0.566625 0.662584
O O8 0.069395 0.581471 0.561400
O O9 0.119996 0.250000 0.466532
O O10 0.190446 0.399520 0.356074
O O11 0.845498 0.750000 0.241222
O O12 0.632227 0.615083 0.145829
O O13 0.657481 0.250000 0.257878
O O14 0.352232 0.158054 0.228907
O O15 0.590009 0.078549 0.156950
O O16 0.059246 0.250000 0.241271
O O17 0.500000 0.500000 0.000000
#
# Coordination Sequence:
#
# PCOD8071721 Si02
#       7
#     4   4   4   4   4   4   4
#     4  11  21  38  61  84 119 152 194 237 292 342
#     4  10  20  35  55  81 113 148 185 235 282 342
#     4  10  19  33  57  83 108 143 187 233 285 342
#     4  11  23  39  58  83 119 157 193 235 288 345
#     4   9  19  35  56  80 110 149 187 233 288 343
#     4   9  19  36  57  83 111 141 188 239 283 337
#     4  10  21  38  58  84 118 151 193 249 288 337
#
# _framework density 19.478401000000002
#
# number of rings (size 3 to 8) (size 9 to 14) (size 15 to 20)
#    0.000    2.000    2.857    0.857    0.000    2.286 
#    0.000    0.000    0.000    0.000    0.000    0.000 
#    0.000    0.000    0.000    0.000    0.000    0.000 
#
# Total GULP energy -346909.877178 kJ/mol
# GULP energy per Si atom -12389.638471 kJ/mol
# Density = 1.943407 g / cm^3
# Si number density = 19.478401 Si / 1000 Ang^3
#
#
#
# Elastic Constant Matrix: (Units=GPa)
#
#
# Indices 1 2 3 4 5 6 
#
# 1 65.9984 25.3529 12.2903 0.0000 2.0809 0.0000
# 2 25.3529 125.5624 58.8051 0.0000 6.3802 0.0000
# 3 12.2903 58.8051 138.0028 0.0000 -2.2491 0.0000
# 4 0.0000 0.0000 0.0000 25.6052 0.0000 -0.3248
# 5 2.0809 6.3802 -2.2491 0.0000 28.5898 0.0000
# 6 0.0000 0.0000 0.0000 -0.3248 0.0000 20.8331
#
#
#
# Elastic Compliance Matrix: (Units=1/GPa)
#
#
# Indices 1 2 3 4 5 6 
#
# 1 0.016433 -0.003254 -0.000085 0.000000 -0.000477 0.000000
# 2 -0.003254 0.010785 -0.004347 0.000000 -0.002512 0.000000
# 3 -0.000085 -0.004347 0.009134 0.000000 0.001695 0.000000
# 4 0.000000 0.000000 0.000000 0.039062 0.000000 0.000609
# 5 -0.000477 -0.002512 0.001695 0.000000 0.035706 0.000000
# 6 0.000000 0.000000 0.000000 0.000609 0.000000 0.048010
#
#
# Mechanical properties :
#
#
# Convention : Reuss Voigt Hill
#
# Bulk Modulus (GPa) = 47.66425 58.05116 52.85770
# Shear Modulus (GPa) = 27.54922 30.54662 29.04792
#
# Velocity S-wave (km/s) = 3.76486 3.96438 3.86591
# Velocity P-wave (km/s) = 6.58956 7.12900 6.86458
#
# Compressibility (1/GPa) = 0.02098008
#
# Stress axis : x y z
#
# Youngs Moduli (GPa) = 60.85416 92.72551 109.48679
#
# Poissons Ratio (x) = 0.30175 0.00926
# Poissons Ratio (y) = 0.19803 0.47589
# Poissons Ratio (z) = 0.00515 0.40304
#
# Static dielectric constant tensor:
#      x y z
#    x 3.440120 0.000000 0.023120 
#    y 0.000000 4.242600 0.000000 
#    z 0.023120 0.000000 3.743190 
# 
# 
# High freq. dielectric constant tensor:
#      x y z
#    x 1.741170 0.000000 -0.000210 
#    y 0.000000 1.759370 0.000000 
#    z -0.000210 0.000000 1.768650 
# 
# From -- ./inp_files/21163.got.cif
#   From: 2010.06.25/outbox.cif.g09.slc.cpg/sg11_11_cif.got.tgz:21163.got - 2010.06.27 23:14:04.
