data_PCOD8071160
_publ_section_title
;
Structure prediction by ZEFSAII (Michael W. Deem and Ramdas Pophale) SiO2 
 PCOD8071160
Probable space group: P 21/M
;
_chemical_formula_sum "Si O2"
_cell_formula_units_Z 28
_cell_length_a 18.900101
_cell_length_b 8.714561
_cell_length_c 15.891374
_cell_angle_alpha 90.000000
_cell_angle_beta 146.774388
_cell_angle_gamma 90.000000
_cell_volume 1434.174133
_symmetry_space_group_name_H-M "P 21/M"
_symmetry_group_IT_number 11
_symmetry_cell_setting 'monoclinic'
loop_
_space_group_symop_operation_xyz
x,y,z
-x,1/2+y,-z
-x,-y,-z
x,1/2-y,z
loop_
_atom_site_type_symbol
_atom_site_label
_atom_site_fract_x
_atom_site_fract_y
_atom_site_fract_z
Si Si1 0.899144 0.070404 0.834821
Si Si2 0.603707 0.432022 0.540286
Si Si3 0.690691 0.080388 0.201024
Si Si4 0.445485 0.079706 0.071139
Si Si5 0.885209 0.430899 0.631668
Si Si6 0.073167 0.071323 0.493968
Si Si7 0.388349 0.430052 0.628726
O O1 0.920548 0.250000 0.858087
O O2 0.751752 0.029691 0.714780
O O3 0.926868 0.010813 0.766610
O O4 0.000000 0.000000 0.000000
O O5 0.500000 0.500000 0.500000
O O6 0.586482 0.250000 0.511608
O O7 0.569667 0.520563 0.421814
O O8 0.754283 0.250000 0.254084
O O9 0.554047 0.097919 0.108846
O O10 0.777067 0.969810 0.344535
O O11 0.675899 0.004320 0.093791
O O12 0.405061 0.250000 0.062929
O O13 0.491390 0.973776 0.193103
O O14 0.898724 0.250000 0.638618
O O15 0.970568 0.505434 0.641335
O O16 0.736757 0.474778 0.467858
O O17 0.049068 0.250000 0.468570
O O18 0.000000 0.000000 0.500000
O O19 0.358369 0.250000 0.604210
#
# Coordination Sequence:
#
# PCOD8071160 Si02
#       7
#     4   4   4   4   4   4   4
#     4   9  20  37  61  89 119 151 190 239 292 349
#     4  10  21  38  58  85 118 152 191 239 294 352
#     4  10  20  34  53  77 109 142 178 225 276 327
#     4  10  19  32  53  79 110 142 177 225 274 322
#     4  10  20  37  57  82 113 147 191 241 286 339
#     4  12  24  38  57  80 110 150 194 239 288 342
#     4  11  20  32  55  84 112 147 189 231 280 339
#
# _framework density 19.523430000000001
#
# number of rings (size 3 to 8) (size 9 to 14) (size 15 to 20)
#    0.000    1.714    1.429    5.143    0.000    4.571 
#    0.000    1.429    0.000    3.429    0.000    0.000 
#    0.000    0.000    0.000    0.000    0.000    0.000 
#
# Total GULP energy -347084.623739 kJ/mol
# GULP energy per Si atom -12395.879419 kJ/mol
# Density = 1.947899 g / cm^3
# Si number density = 19.523430 Si / 1000 Ang^3
#
#
#
# Elastic Constant Matrix: (Units=GPa)
#
#
# Indices 1 2 3 4 5 6 
#
# 1 113.4427 37.6336 41.3757 0.0000 -21.1677 0.0000
# 2 37.6336 110.8842 35.9720 0.0000 -11.4206 0.0000
# 3 41.3757 35.9720 111.1730 0.0000 -29.4409 0.0000
# 4 0.0000 0.0000 0.0000 35.6328 0.0000 -5.7049
# 5 -21.1677 -11.4206 -29.4409 0.0000 24.8512 0.0000
# 6 0.0000 0.0000 0.0000 -5.7049 0.0000 31.6277
#
#
#
# Elastic Compliance Matrix: (Units=1/GPa)
#
#
# Indices 1 2 3 4 5 6 
#
# 1 0.011556 -0.002697 -0.001675 0.000000 0.006619 0.000000
# 2 -0.002697 0.010727 -0.002579 0.000000 -0.000423 0.000000
# 3 -0.001675 -0.002579 0.014224 0.000000 0.014238 0.000000
# 4 0.000000 0.000000 0.000000 0.028899 0.000000 0.005213
# 5 0.006619 -0.000423 0.014238 0.000000 0.062551 0.000000
# 6 0.000000 0.000000 0.000000 0.005213 0.000000 0.032558
#
#
# Mechanical properties :
#
#
# Convention : Reuss Voigt Hill
#
# Bulk Modulus (GPa) = 44.24080 62.82916 53.53498
# Shear Modulus (GPa) = 27.47998 33.12359 30.30178
#
# Velocity S-wave (km/s) = 3.75579 4.12346 3.94391
# Velocity P-wave (km/s) = 6.44341 7.41093 6.94404
#
# Compressibility (1/GPa) = 0.02260357
#
# Stress axis : x y z
#
# Youngs Moduli (GPa) = 86.53723 93.22409 70.30552
#
# Poissons Ratio (x) = 0.25140 0.11779
# Poissons Ratio (y) = 0.23337 0.18133
# Poissons Ratio (z) = 0.14498 0.24044
#
# Static dielectric constant tensor:
#      x y z
#    x 3.579440 0.000000 -0.278530 
#    y 0.000000 3.825400 0.000000 
#    z -0.278530 0.000000 3.664710 
# 
# 
# High freq. dielectric constant tensor:
#      x y z
#    x 1.743220 0.000000 -0.023090 
#    y 0.000000 1.773510 0.000000 
#    z -0.023090 0.000000 1.751120 
# 
# From -- ./inp_files/53284.got.cif
#   From: 2010.06.25/outbox.cif.g09.slc.cpg/sg11_27_cif.got.tgz:53284.got - 2010.06.27 23:14:04.
