data_PCOD8071701
_publ_section_title
;
Structure prediction by ZEFSAII (Michael W. Deem and Ramdas Pophale) SiO2 
 PCOD8071701
Probable space group: P 21/M
;
_chemical_formula_sum "Si O2"
_cell_formula_units_Z 28
_cell_length_a 15.206648
_cell_length_b 9.023333
_cell_length_c 17.224444
_cell_angle_alpha 90.000000
_cell_angle_beta 142.673257
_cell_angle_gamma 90.000000
_cell_volume 1433.098248
_symmetry_space_group_name_H-M "P 21/M"
_symmetry_group_IT_number 11
_symmetry_cell_setting 'monoclinic'
loop_
_space_group_symop_operation_xyz
x,y,z
-x,1/2+y,-z
-x,-y,-z
x,1/2-y,z
loop_
_atom_site_type_symbol
_atom_site_label
_atom_site_fract_x
_atom_site_fract_y
_atom_site_fract_z
Si Si1 0.153901 0.422464 0.099028
Si Si2 0.364080 0.923817 0.943040
Si Si3 0.802873 0.922141 0.045763
Si Si4 0.814369 0.088853 0.324619
Si Si5 0.863234 0.912875 0.496964
Si Si6 0.655886 0.573656 0.621539
Si Si7 0.883439 0.074637 0.670628
O O1 0.121394 0.250000 0.085691
O O2 0.272482 0.474600 0.245784
O O3 0.218492 0.459064 0.059813
O O4 0.000000 0.500000 0.000000
O O5 0.390700 0.750000 0.971420
O O6 0.234416 0.967289 0.793908
O O7 0.322527 0.989168 0.997562
O O8 0.500000 0.000000 0.000000
O O9 0.781744 0.750000 0.048991
O O10 0.962739 0.973281 0.185116
O O11 0.743610 0.250000 0.291579
O O12 0.985610 0.105772 0.440487
O O13 0.761218 0.982289 0.357647
O O14 0.805617 0.750000 0.482657
O O15 0.874260 0.027035 0.575015
O O16 0.500000 0.500000 0.500000
O O17 0.639457 0.750000 0.604257
O O18 0.758906 0.514677 0.626548
O O19 0.857200 0.250000 0.659704
#
# Coordination Sequence:
#
# PCOD8071701 Si02
#       7
#     4   4   4   4   4   4   4
#     4  10  21  39  65  96 126 161 206 258 311 370
#     4  11  23  40  60  84 118 159 202 253 308 364
#     4  10  21  38  62  91 120 155 203 255 308 368
#     4   9  19  35  54  79 112 149 189 237 294 348
#     4  10  19  33  56  85 114 144 190 241 289 347
#     4  11  24  42  64  90 126 166 205 253 312 371
#     4  11  21  36  62  90 120 156 197 247 304 367
#
# _framework density 19.538087999999998
#
# number of rings (size 3 to 8) (size 9 to 14) (size 15 to 20)
#    0.000    1.714    2.857    1.714    0.000    3.429 
#    2.571    0.000    0.000    0.000    0.000    0.000 
#    0.000    0.000    0.000    0.000    0.000    0.000 
#
# Total GULP energy -347116.348654 kJ/mol
# GULP energy per Si atom -12397.012452 kJ/mol
# Density = 1.949362 g / cm^3
# Si number density = 19.538088 Si / 1000 Ang^3
#
#
#
# Elastic Constant Matrix: (Units=GPa)
#
#
# Indices 1 2 3 4 5 6 
#
# 1 106.7588 54.9451 56.0485 0.0000 -2.3473 0.0000
# 2 54.9451 90.0310 49.0211 0.0000 -1.2382 0.0000
# 3 56.0485 49.0211 92.0761 0.0000 -11.4135 0.0000
# 4 0.0000 0.0000 0.0000 28.1669 0.0000 -1.0309
# 5 -2.3473 -1.2382 -11.4135 0.0000 35.7350 0.0000
# 6 0.0000 0.0000 0.0000 -1.0309 0.0000 39.1897
#
#
#
# Elastic Compliance Matrix: (Units=1/GPa)
#
#
# Indices 1 2 3 4 5 6 
#
# 1 0.015983 -0.006180 -0.006596 0.000000 -0.001271 0.000000
# 2 -0.006180 0.018200 -0.006143 0.000000 -0.001737 0.000000
# 3 -0.006596 -0.006143 0.018811 0.000000 0.005362 0.000000
# 4 0.000000 0.000000 0.000000 0.035537 0.000000 0.000935
# 5 -0.001271 -0.001737 0.005362 0.000000 0.029553 0.000000
# 6 0.000000 0.000000 0.000000 0.000935 0.000000 0.025541
#
#
# Mechanical properties :
#
#
# Convention : Reuss Voigt Hill
#
# Bulk Modulus (GPa) = 65.98511 67.65502 66.82006
# Shear Modulus (GPa) = 26.80755 29.20842 28.00798
#
# Velocity S-wave (km/s) = 3.70816 3.87065 3.79028
# Velocity P-wave (km/s) = 7.22356 7.39448 7.30952
#
# Compressibility (1/GPa) = 0.01515494
#
# Stress axis : x y z
#
# Youngs Moduli (GPa) = 62.56797 54.94579 53.16012
#
# Poissons Ratio (x) = 0.33956 0.35066
# Poissons Ratio (y) = 0.38666 0.32657
# Poissons Ratio (z) = 0.41272 0.33754
#
# Static dielectric constant tensor:
#      x y z
#    x 3.455040 0.000000 -0.142790 
#    y 0.000000 3.926310 0.000000 
#    z -0.142790 0.000000 3.327920 
# 
# 
# High freq. dielectric constant tensor:
#      x y z
#    x 1.756260 0.000000 -0.019930 
#    y 0.000000 1.769230 0.000000 
#    z -0.019930 0.000000 1.754940 
# 
# From -- ./inp_files/60146.got.cif
#   From: 2010.06.25/outbox.cif.g09.slc.cpg/sg11_31_cif.got.tgz:60146.got - 2010.06.27 23:14:04.
