data_PCOD8071453
_publ_section_title
;
Structure prediction by ZEFSAII (Michael W. Deem and Ramdas Pophale) SiO2 
 PCOD8071453
Probable space group: P 21/M
;
_chemical_formula_sum "Si O2"
_cell_formula_units_Z 28
_cell_length_a 10.147004
_cell_length_b 9.641310
_cell_length_c 29.705527
_cell_angle_alpha 90.000000
_cell_angle_beta 146.135531
_cell_angle_gamma 90.000000
_cell_volume 1619.369112
_symmetry_space_group_name_H-M "P 21/M"
_symmetry_group_IT_number 11
_symmetry_cell_setting 'monoclinic'
loop_
_space_group_symop_operation_xyz
x,y,z
-x,1/2+y,-z
-x,-y,-z
x,1/2-y,z
loop_
_atom_site_type_symbol
_atom_site_label
_atom_site_fract_x
_atom_site_fract_y
_atom_site_fract_z
Si Si1 0.330940 0.411535 0.325815
Si Si2 0.385833 0.591369 0.506168
Si Si3 0.417806 0.589452 0.263409
Si Si4 0.133931 0.409102 0.668148
Si Si5 0.116709 0.590674 0.095763
Si Si6 0.662158 0.591405 0.916666
Si Si7 0.861083 0.409914 0.241532
O O1 0.349774 0.250000 0.319042
O O2 0.510087 0.453616 0.416296
O O3 0.404230 0.498069 0.303568
O O4 0.064536 0.453156 0.264349
O O5 0.500000 0.500000 0.500000
O O6 0.455085 0.750000 0.515367
O O7 0.104312 0.570804 0.428255
O O8 0.433454 0.750000 0.281983
O O9 0.648946 0.543252 0.301235
O O10 0.184966 0.560168 0.166780
O O11 0.167207 0.250000 0.692824
O O12 0.118472 0.501056 0.707960
O O13 0.173082 0.750000 0.100164
O O14 0.283588 0.501379 0.111048
O O15 0.839746 0.555076 0.008368
O O16 0.698748 0.750000 0.911975
O O17 0.391450 0.564839 0.854693
O O18 0.893661 0.250000 0.265065
#
# Coordination Sequence:
#
# PCOD8071453 Si02
#       7
#     4   4   4   4   4   4   4
#     4  10  22  37  52  74 107 140 172 213 259 307
#     4  10  20  35  55  79 105 133 170 216 260 304
#     4  10  21  36  52  75 107 141 174 210 257 308
#     4  10  20  34  55  79 104 134 172 216 257 304
#     4   9  17  31  50  75 106 135 167 212 257 302
#     4   9  17  29  51  79 103 131 170 213 257 303
#     4  10  19  33  53  79 105 134 173 214 257 307
#
# _framework density 17.290683999999999
#
# number of rings (size 3 to 8) (size 9 to 14) (size 15 to 20)
#    0.000    2.286    2.857    0.000    0.000    2.857 
#    0.000    0.714    0.000    0.000    0.000    0.000 
#    0.000    0.000    0.000    0.000    0.000    0.000 
#
# Total GULP energy -347178.015605 kJ/mol
# GULP energy per Si atom -12399.214843 kJ/mol
# Density = 1.725133 g / cm^3
# Si number density = 17.290684 Si / 1000 Ang^3
#
#
#
# Elastic Constant Matrix: (Units=GPa)
#
#
# Indices 1 2 3 4 5 6 
#
# 1 89.2737 44.8403 41.7989 0.0000 -5.6704 0.0000
# 2 44.8403 56.5502 33.4126 0.0000 -9.4486 0.0000
# 3 41.7989 33.4126 108.7847 0.0000 2.2776 0.0000
# 4 0.0000 0.0000 0.0000 24.9250 0.0000 -4.6323
# 5 -5.6704 -9.4486 2.2776 0.0000 29.0729 0.0000
# 6 0.0000 0.0000 0.0000 -4.6323 0.0000 31.9616
#
#
#
# Elastic Compliance Matrix: (Units=1/GPa)
#
#
# Indices 1 2 3 4 5 6 
#
# 1 0.019577 -0.013611 -0.003335 0.000000 -0.000344 0.000000
# 2 -0.013611 0.032860 -0.005039 0.000000 0.008419 0.000000
# 3 -0.003335 -0.005039 0.012089 0.000000 -0.003235 0.000000
# 4 0.000000 0.000000 0.000000 0.041231 0.000000 0.005976
# 5 -0.000344 0.008419 -0.003235 0.000000 0.037319 0.000000
# 6 0.000000 0.000000 0.000000 0.005976 0.000000 0.032154
#
#
# Mechanical properties :
#
#
# Convention : Reuss Voigt Hill
#
# Bulk Modulus (GPa) = 48.64449 54.96800 51.80624
# Shear Modulus (GPa) = 22.11886 26.16237 24.14061
#
# Velocity S-wave (km/s) = 3.58052 3.89407 3.74058
# Velocity P-wave (km/s) = 6.72963 7.21650 6.97731
#
# Compressibility (1/GPa) = 0.02055731
#
# Stress axis : x y z
#
# Youngs Moduli (GPa) = 51.07958 30.43231 82.71777
#
# Poissons Ratio (x) = 0.41420 0.27584
# Poissons Ratio (y) = 0.69522 0.41684
# Poissons Ratio (z) = 0.17033 0.15336
#
# Static dielectric constant tensor:
#      x y z
#    x 2.999370 0.000000 0.259980 
#    y 0.000000 3.247120 0.000000 
#    z 0.259980 0.000000 3.692670 
# 
# 
# High freq. dielectric constant tensor:
#      x y z
#    x 1.640510 0.000000 0.015060 
#    y 0.000000 1.669310 0.000000 
#    z 0.015060 0.000000 1.687860 
# 
# From -- ./inp_files/28253.got.cif
#   From: 2010.06.25/outbox.cif.g09.slc.cpg/sg11_15_cif.got.tgz:28253.got - 2010.06.27 23:14:04.
