data_PCOD8071646
_publ_section_title
;
Structure prediction by ZEFSAII (Michael W. Deem and Ramdas Pophale) SiO2 
 PCOD8071646
Probable space group: P 21/M
;
_chemical_formula_sum "Si O2"
_cell_formula_units_Z 24
_cell_length_a 23.293310
_cell_length_b 8.798215
_cell_length_c 11.509488
_cell_angle_alpha 90.000000
_cell_angle_beta 149.348277
_cell_angle_gamma 90.000000
_cell_volume 1202.533389
_symmetry_space_group_name_H-M "P 21/M"
_symmetry_group_IT_number 11
_symmetry_cell_setting 'monoclinic'
loop_
_space_group_symop_operation_xyz
x,y,z
-x,1/2+y,-z
-x,-y,-z
x,1/2-y,z
loop_
_atom_site_type_symbol
_atom_site_label
_atom_site_fract_x
_atom_site_fract_y
_atom_site_fract_z
Si Si1 0.562438 0.427792 0.859288
Si Si2 0.675756 0.570985 0.846671
Si Si3 0.683196 0.571371 0.599844
Si Si4 0.771869 0.078462 0.367940
Si Si5 0.123078 0.429487 0.229234
Si Si6 0.883867 0.422390 0.322564
O O1 0.585979 0.250000 0.884384
O O2 0.580542 0.498796 0.763145
O O3 0.433803 0.463915 0.673301
O O4 0.651239 0.487131 0.110820
O O5 0.657743 0.750000 0.815349
O O6 0.671042 0.503187 0.707922
O O7 0.796494 0.528639 0.105676
O O8 0.701033 0.750000 0.640576
O O9 0.791335 0.504323 0.720082
O O10 0.757701 0.250000 0.392444
O O11 0.861944 0.078046 0.421566
O O12 0.820756 0.968464 0.550373
O O13 0.110022 0.250000 0.196490
O O14 0.000000 0.500000 0.000000
O O15 0.880011 0.250000 0.267590
O O16 0.000000 0.500000 0.500000
#
# Coordination Sequence:
#
# PCOD8071646 Si02
#       6
#     4   4   4   4   4   4
#     4   9  18  37  61  85 115 150 186 231 289 344
#     4  10  19  33  55  86 119 149 184 231 285 344
#     4   9  20  37  58  83 115 154 189 231 289 340
#     4   9  20  38  58  81 113 147 183 235 288 336
#     4  11  24  41  59  81 112 152 196 239 283 338
#     4  10  21  36  56  82 113 150 191 236 287 340
#
# _framework density 19.957864000000001
#
# number of rings (size 3 to 8) (size 9 to 14) (size 15 to 20)
#    0.000    2.333    0.000    3.000    2.333    4.000 
#    0.000    5.000    0.000    0.000    0.000    0.000 
#    0.000    0.000    0.000    0.000    0.000    0.000 
#
# Total GULP energy -297496.532883 kJ/mol
# GULP energy per Si atom -12395.688870 kJ/mol
# Density = 1.991244 g / cm^3
# Si number density = 19.957864 Si / 1000 Ang^3
#
#
#
# Elastic Constant Matrix: (Units=GPa)
#
#
# Indices 1 2 3 4 5 6 
#
# 1 99.2012 31.3366 84.2175 0.0000 13.8462 0.0000
# 2 31.3366 48.7031 26.5271 0.0000 1.0696 0.0000
# 3 84.2175 26.5271 120.1550 0.0000 11.1247 0.0000
# 4 0.0000 0.0000 0.0000 28.9167 0.0000 -1.5061
# 5 13.8462 1.0696 11.1247 0.0000 40.2939 0.0000
# 6 0.0000 0.0000 0.0000 -1.5061 0.0000 28.2097
#
#
#
# Elastic Compliance Matrix: (Units=1/GPa)
#
#
# Indices 1 2 3 4 5 6 
#
# 1 0.028314 -0.008572 -0.017521 0.000000 -0.004665 0.000000
# 2 -0.008572 0.025961 0.000070 0.000000 0.002237 0.000000
# 3 -0.017521 0.000070 0.020556 0.000000 0.000344 0.000000
# 4 0.000000 0.000000 0.000000 0.034679 0.000000 0.001851
# 5 -0.004665 0.002237 0.000344 0.000000 0.026266 0.000000
# 6 0.000000 0.000000 0.000000 0.001851 0.000000 0.035548
#
#
# Mechanical properties :
#
#
# Convention : Reuss Voigt Hill
#
# Bulk Modulus (GPa) = 43.89079 61.35796 52.62438
# Shear Modulus (GPa) = 21.64820 27.88260 24.76540
#
# Velocity S-wave (km/s) = 3.29704 3.74180 3.52644
# Velocity P-wave (km/s) = 6.04429 7.03410 6.55790
#
# Compressibility (1/GPa) = 0.02278382
#
# Stress axis : x y z
#
# Youngs Moduli (GPa) = 35.31793 38.51926 48.64730
#
# Poissons Ratio (x) = 0.33020 0.85236
# Poissons Ratio (y) = 0.30275 -0.00339
# Poissons Ratio (z) = 0.61881 -0.00268
#
# Static dielectric constant tensor:
#      x y z
#    x 3.801000 0.000000 0.141880 
#    y 0.000000 3.490940 0.000000 
#    z 0.141880 0.000000 3.837960 
# 
# 
# High freq. dielectric constant tensor:
#      x y z
#    x 1.774370 0.000000 0.009220 
#    y 0.000000 1.761590 0.000000 
#    z 0.009220 0.000000 1.791740 
# 
# From -- ./inp_files/43895.got.cif
#   From: 2010.06.25/outbox.cif.g09.slc.cpg/sg11_22_cif.got.tgz:43895.got - 2010.06.27 23:14:04.
