data_PCOD8071352
_publ_section_title
;
Structure prediction by ZEFSAII (Michael W. Deem and Ramdas Pophale) SiO2 
 PCOD8071352
Probable space group: P 21/M
;
_chemical_formula_sum "Si O2"
_cell_formula_units_Z 28
_cell_length_a 8.784564
_cell_length_b 13.534198
_cell_length_c 15.127881
_cell_angle_alpha 90.000000
_cell_angle_beta 126.889961
_cell_angle_gamma 90.000000
_cell_volume 1438.489591
_symmetry_space_group_name_H-M "P 21/M"
_symmetry_group_IT_number 11
_symmetry_cell_setting 'monoclinic'
loop_
_space_group_symop_operation_xyz
x,y,z
-x,1/2+y,-z
-x,-y,-z
x,1/2-y,z
loop_
_atom_site_type_symbol
_atom_site_label
_atom_site_fract_x
_atom_site_fract_y
_atom_site_fract_z
Si Si1 0.626319 0.360727 0.168203
Si Si2 0.645384 0.137112 0.797589
Si Si3 0.114350 0.473134 0.206719
Si Si4 0.743816 0.366023 0.026434
Si Si5 0.482858 0.134144 0.297990
Si Si6 0.011597 0.955512 0.646103
Si Si7 0.726668 0.542440 0.401632
O O1 0.558549 0.250000 0.136642
O O2 0.615746 0.406011 0.065237
O O3 0.488046 0.405462 0.196162
O O4 0.845334 0.366665 0.278700
O O5 0.702307 0.250000 0.799809
O O6 0.444367 0.115722 0.681605
O O7 0.814084 0.071719 0.816142
O O8 0.627239 0.116299 0.896249
O O9 0.276787 0.388452 0.265280
O O10 0.065443 0.503021 0.290158
O O11 0.937789 0.428667 0.091186
O O12 0.793527 0.250000 0.057723
O O13 0.533623 0.250000 0.325752
O O14 0.644892 0.066624 0.400722
O O15 0.837103 0.915208 0.525708
O O16 0.127909 0.037669 0.630504
#
# Coordination Sequence:
#
# PCOD8071352 Si02
#       7
#     4   4   4   4   4   4   4
#     4   8  15  29  50  74  98 128 168 209 242 280
#     4  10  21  35  50  73 105 136 164 200 250 301
#     4  10  19  33  52  75 101 132 165 205 248 291
#     4   9  17  32  53  75 101 133 169 205 241 287
#     4   9  17  30  49  75 101 125 160 204 250 294
#     4   9  18  34  53  72  96 128 169 208 244 290
#     4   9  19  36  53  70  97 131 166 206 245 292
#
# _framework density 19.464862
#
# number of rings (size 3 to 8) (size 9 to 14) (size 15 to 20)
#    0.000    2.857    0.000    0.857    0.000    3.429 
#    0.000   17.857    0.000    3.429    0.000    0.000 
#    0.000    0.000    0.000    0.000    0.000    0.000 
#
# Total GULP energy -346905.426870 kJ/mol
# GULP energy per Si atom -12389.479531 kJ/mol
# Density = 1.942056 g / cm^3
# Si number density = 19.464862 Si / 1000 Ang^3
#
#
#
# Elastic Constant Matrix: (Units=GPa)
#
#
# Indices 1 2 3 4 5 6 
#
# 1 53.8444 8.7976 6.0750 0.0000 -8.4857 0.0000
# 2 8.7976 57.1754 19.8774 0.0000 -4.6269 0.0000
# 3 6.0750 19.8774 80.4256 0.0000 -7.5214 0.0000
# 4 0.0000 0.0000 0.0000 20.1154 0.0000 -1.0253
# 5 -8.4857 -4.6269 -7.5214 0.0000 24.8221 0.0000
# 6 0.0000 0.0000 0.0000 -1.0253 0.0000 14.3990
#
#
#
# Elastic Compliance Matrix: (Units=1/GPa)
#
#
# Indices 1 2 3 4 5 6 
#
# 1 0.020000 -0.002459 -0.000315 0.000000 0.006283 0.000000
# 2 -0.002459 0.019554 -0.004513 0.000000 0.001437 0.000000
# 3 -0.000315 -0.004513 0.013877 0.000000 0.003256 0.000000
# 4 0.000000 0.000000 0.000000 0.049894 0.000000 0.003553
# 5 0.006283 0.001437 0.003256 0.000000 0.043689 0.000000
# 6 0.000000 0.000000 0.000000 0.003553 0.000000 0.069702
#
#
# Mechanical properties :
#
#
# Convention : Reuss Voigt Hill
#
# Bulk Modulus (GPa) = 25.73584 28.99395 27.36489
# Shear Modulus (GPa) = 20.47145 22.31367 21.39256
#
# Velocity S-wave (km/s) = 3.24653 3.38946 3.31877
# Velocity P-wave (km/s) = 5.22529 5.49962 5.36421
#
# Compressibility (1/GPa) = 0.03885633
#
# Stress axis : x y z
#
# Youngs Moduli (GPa) = 50.00095 51.14167 72.05928
#
# Poissons Ratio (x) = 0.12577 0.02272
# Poissons Ratio (y) = 0.12297 0.32517
# Poissons Ratio (z) = 0.01576 0.23078
#
# Static dielectric constant tensor:
#      x y z
#    x 3.728330 0.000000 -0.213990 
#    y 0.000000 3.284220 0.000000 
#    z -0.213990 0.000000 3.528180 
# 
# 
# High freq. dielectric constant tensor:
#      x y z
#    x 1.764220 0.000000 -0.010980 
#    y 0.000000 1.733930 0.000000 
#    z -0.010980 0.000000 1.749120 
# 
# From -- ./inp_files/21790.got.cif
#   From: 2010.06.25/outbox.cif.g09.slc.cpg/sg11_11_cif.got.tgz:21790.got - 2010.06.27 23:14:04.
