data_PCOD8071991
_publ_section_title
;
Structure prediction by ZEFSAII (Michael W. Deem and Ramdas Pophale) SiO2 
 PCOD8071991
Probable space group: P 21/M
;
_chemical_formula_sum "Si O2"
_cell_formula_units_Z 20
_cell_length_a 5.045259
_cell_length_b 9.938644
_cell_length_c 20.475899
_cell_angle_alpha 90.000000
_cell_angle_beta 83.977876
_cell_angle_gamma 90.000000
_cell_volume 1021.057664
_symmetry_space_group_name_H-M "P 21/M"
_symmetry_group_IT_number 11
_symmetry_cell_setting 'monoclinic'
loop_
_space_group_symop_operation_xyz
x,y,z
-x,1/2+y,-z
-x,-y,-z
x,1/2-y,z
loop_
_atom_site_type_symbol
_atom_site_label
_atom_site_fract_x
_atom_site_fract_y
_atom_site_fract_z
Si Si1 0.628519 0.094004 0.709791
Si Si2 0.841761 0.750000 0.474739
Si Si3 0.394998 0.594556 0.144483
Si Si4 0.695021 0.250000 0.437315
Si Si5 0.082811 0.407348 0.938219
Si Si6 0.842656 0.976608 0.368956
O O1 0.713433 0.250000 0.709553
O O2 0.614835 0.030290 0.782962
O O3 0.341055 0.078449 0.684432
O O4 0.852857 0.016382 0.662913
O O5 0.613687 0.750000 0.535065
O O6 0.815561 0.883064 0.432630
O O7 0.128167 0.750000 0.501954
O O8 0.463907 0.750000 0.152379
O O9 0.632934 0.536247 0.093749
O O10 0.116972 0.569611 0.116404
O O11 0.751497 0.376306 0.390561
O O12 0.088608 0.250000 0.959600
O O13 0.000000 0.500000 0.000000
#
# Coordination Sequence:
#
# PCOD8071991 Si02
#       6
#     4   2   4   2   4   4
#     4  11  20  38  62  88 111 146 202 242 273 331
#     4  12  22  42  60  88 110 148 197 234 277 342
#     4   9  19  33  57  85 109 145 190 236 271 313
#     4  12  26  40  58  86 122 148 183 232 297 352
#     4  10  19  34  56  83 115 147 183 228 278 326
#     4  12  23  39  63  84 115 151 188 237 290 337
#
# _framework density 19.587533000000001
#
# number of rings (size 3 to 8) (size 9 to 14) (size 15 to 20)
#    0.000    1.200    2.000    5.400    0.000    3.200 
#    0.000    0.000   13.200    0.000    0.000    0.000 
#    0.000    0.000    0.000    0.000    0.000    0.000 
#
# Total GULP energy -248101.780769 kJ/mol
# GULP energy per Si atom -12405.089038 kJ/mol
# Density = 1.954295 g / cm^3
# Si number density = 19.587533 Si / 1000 Ang^3
#
#
#
# Elastic Constant Matrix: (Units=GPa)
#
#
# Indices 1 2 3 4 5 6 
#
# 1 71.3599 6.1144 5.0995 0.0000 -5.2039 0.0000
# 2 6.1144 71.7356 36.6463 0.0000 -12.2323 0.0000
# 3 5.0995 36.6463 93.9583 0.0000 -4.4317 0.0000
# 4 0.0000 0.0000 0.0000 102.5330 0.0000 -74.7534
# 5 -5.2039 -12.2323 -4.4317 0.0000 38.6551 0.0000
# 6 0.0000 0.0000 0.0000 -74.7534 0.0000 73.6103
#
#
#
# Elastic Compliance Matrix: (Units=1/GPa)
#
#
# Indices 1 2 3 4 5 6 
#
# 1 0.014224 -0.000722 -0.000413 0.000000 0.001639 0.000000
# 2 -0.000722 0.018361 -0.006890 0.000000 0.004923 0.000000
# 3 -0.000413 -0.006890 0.013319 0.000000 -0.000709 0.000000
# 4 0.000000 0.000000 0.000000 0.037567 0.000000 0.038151
# 5 0.001639 0.004923 -0.000709 0.000000 0.027567 0.000000
# 6 0.000000 0.000000 0.000000 0.038151 0.000000 0.052328
#
#
# Mechanical properties :
#
#
# Convention : Reuss Voigt Hill
#
# Bulk Modulus (GPa) = 33.49555 36.97493 35.23524
# Shear Modulus (GPa) = 26.40354 55.57260 40.98807
#
# Velocity S-wave (km/s) = 3.67546 5.33226 4.57941
# Velocity P-wave (km/s) = 5.92871 7.53846 6.78152
#
# Compressibility (1/GPa) = 0.02985471
#
# Stress axis : x y z
#
# Youngs Moduli (GPa) = 70.30188 54.46391 75.07942
#
# Poissons Ratio (x) = 0.03931 0.03102
# Poissons Ratio (y) = 0.05075 0.51728
# Poissons Ratio (z) = 0.02905 0.37525
#
# Static dielectric constant tensor:
#      x y z
#    x 3.735930 0.000000 -0.064980 
#    y 0.000000 3.353740 0.000000 
#    z -0.064980 0.000000 3.650210 
# 
# 
# High freq. dielectric constant tensor:
#      x y z
#    x 1.783510 0.000000 -0.002710 
#    y 0.000000 1.730750 0.000000 
#    z -0.002710 0.000000 1.773350 
# 
# From -- ./inp_files/6245.got.cif
#   From: 2010.06.25/outbox.cif.g09.slc.cpg/sg11_4_cif.got.tgz:6245.got - 2010.06.27 23:14:04.
