data_PCOD8071820
_publ_section_title
;
Structure prediction by ZEFSAII (Michael W. Deem and Ramdas Pophale) SiO2 
 PCOD8071820
Probable space group: P 21/M
;
_chemical_formula_sum "Si O2"
_cell_formula_units_Z 32
_cell_length_a 12.657791
_cell_length_b 11.127945
_cell_length_c 12.424801
_cell_angle_alpha 90.000000
_cell_angle_beta 67.973088
_cell_angle_gamma 90.000000
_cell_volume 1622.354360
_symmetry_space_group_name_H-M "P 21/M"
_symmetry_group_IT_number 11
_symmetry_cell_setting 'monoclinic'
loop_
_space_group_symop_operation_xyz
x,y,z
-x,1/2+y,-z
-x,-y,-z
x,1/2-y,z
loop_
_atom_site_type_symbol
_atom_site_label
_atom_site_fract_x
_atom_site_fract_y
_atom_site_fract_z
Si Si1 0.851731 0.615715 0.796761
Si Si2 0.627757 0.995629 0.833011
Si Si3 0.278158 0.888043 0.566087
Si Si4 0.910187 0.608439 0.014131
Si Si5 0.038590 0.886624 0.556157
Si Si6 0.599769 0.383066 0.067941
Si Si7 0.706590 0.513170 0.218310
Si Si8 0.541263 0.114149 0.663824
O O1 0.805559 0.750000 0.813021
O O2 0.757507 0.543438 0.764404
O O3 0.973460 0.601814 0.694197
O O4 0.862065 0.574671 0.915672
O O5 0.597657 0.099203 0.759893
O O6 0.533533 0.891860 0.846872
O O7 0.621535 0.030973 0.959805
O O8 0.300317 0.750000 0.588207
O O9 0.171268 0.901419 0.527900
O O10 0.384565 0.949362 0.459879
O O11 0.252497 0.954838 0.686865
O O12 0.956203 0.750000 0.000063
O O13 0.807237 0.600771 0.139394
O O14 0.000000 0.500000 0.000000
O O15 0.015234 0.750000 0.516568
O O16 0.000000 0.000000 0.500000
O O17 0.629768 0.250000 0.019684
O O18 0.681516 0.414641 0.136384
O O19 0.590877 0.583638 0.286299
O O20 0.554971 0.250000 0.627239
#
# Coordination Sequence:
#
# PCOD8071820 Si02
#       8
#     4   4   4   4   4   4   4   4
#     4  10  20  37  59  83 115 155 197 241 296 362
#     4  10  19  34  53  82 114 152 197 246 296 354
#     4  10  21  38  60  85 118 160 202 249 305 364
#     4  11  24  42  62  87 119 158 201 247 303 365
#     4  10  21  39  63  88 117 156 203 249 301 354
#     4  10  20  32  52  83 116 152 193 245 303 355
#     4  11  21  38  60  85 118 156 201 248 297 365
#     4  10  21  36  57  85 119 158 200 250 305 358
#
# _framework density 19.724421
#
# number of rings (size 3 to 8) (size 9 to 14) (size 15 to 20)
#    0.000    1.750    1.250    3.375    0.000    2.000 
#    0.000    3.750    0.000    6.000    0.000    0.000 
#    0.000    0.000    0.000    0.000    0.000    0.000 
#
# Total GULP energy -396491.352457 kJ/mol
# GULP energy per Si atom -12390.354764 kJ/mol
# Density = 1.967953 g / cm^3
# Si number density = 19.724421 Si / 1000 Ang^3
#
#
#
# Elastic Constant Matrix: (Units=GPa)
#
#
# Indices 1 2 3 4 5 6 
#
# 1 89.6445 44.4158 30.6511 0.0000 -9.1630 0.0000
# 2 44.4158 95.1822 32.3217 0.0000 6.0462 0.0000
# 3 30.6511 32.3217 100.9588 0.0000 -2.4150 0.0000
# 4 0.0000 0.0000 0.0000 29.7307 0.0000 1.2727
# 5 -9.1630 6.0462 -2.4150 0.0000 37.4718 0.0000
# 6 0.0000 0.0000 0.0000 1.2727 0.0000 18.5877
#
#
#
# Elastic Compliance Matrix: (Units=1/GPa)
#
#
# Indices 1 2 3 4 5 6 
#
# 1 0.015920 -0.006883 -0.002514 0.000000 0.004841 0.000000
# 2 -0.006883 0.014939 -0.002795 0.000000 -0.004274 0.000000
# 3 -0.002514 -0.002795 0.011577 0.000000 0.000582 0.000000
# 4 0.000000 0.000000 0.000000 0.033734 0.000000 -0.002310
# 5 0.004841 -0.004274 0.000582 0.000000 0.028598 0.000000
# 6 0.000000 0.000000 0.000000 -0.002310 0.000000 0.053957
#
#
# Mechanical properties :
#
#
# Convention : Reuss Voigt Hill
#
# Bulk Modulus (GPa) = 55.39630 55.61810 55.50720
# Shear Modulus (GPa) = 26.43756 29.05119 27.74437
#
# Velocity S-wave (km/s) = 3.66505 3.84194 3.75454
# Velocity P-wave (km/s) = 6.78647 6.92383 6.85550
#
# Compressibility (1/GPa) = 0.01805175
#
# Stress axis : x y z
#
# Youngs Moduli (GPa) = 62.81528 66.94111 86.37763
#
# Poissons Ratio (x) = 0.46073 0.21715
# Poissons Ratio (y) = 0.43233 0.24144
# Poissons Ratio (z) = 0.15792 0.18711
#
# Static dielectric constant tensor:
#      x y z
#    x 3.682150 0.000000 -0.094930 
#    y 0.000000 3.515320 0.000000 
#    z -0.094930 0.000000 3.637600 
# 
# 
# High freq. dielectric constant tensor:
#      x y z
#    x 1.770900 0.000000 -0.009770 
#    y 0.000000 1.754660 0.000000 
#    z -0.009770 0.000000 1.776610 
# 
# From -- ./inp_files/35015.got.cif
#   From: 2010.06.25/outbox.cif.g09.slc.cpg/sg11_18_cif.got.tgz:35015.got - 2010.06.27 23:14:04.
