data_PCOD8071180
_publ_section_title
;
Structure prediction by ZEFSAII (Michael W. Deem and Ramdas Pophale) SiO2 
 PCOD8071180
Probable space group: P 21/M
;
_chemical_formula_sum "Si O2"
_cell_formula_units_Z 18
_cell_length_a 19.810149
_cell_length_b 9.949821
_cell_length_c 9.022236
_cell_angle_alpha 90.000000
_cell_angle_beta 33.215953
_cell_angle_gamma 90.000000
_cell_volume 974.173241
_symmetry_space_group_name_H-M "P 21/M"
_symmetry_group_IT_number 11
_symmetry_cell_setting 'monoclinic'
loop_
_space_group_symop_operation_xyz
x,y,z
-x,1/2+y,-z
-x,-y,-z
x,1/2-y,z
loop_
_atom_site_type_symbol
_atom_site_label
_atom_site_fract_x
_atom_site_fract_y
_atom_site_fract_z
Si Si1 0.190541 0.959053 0.805975
Si Si2 0.177474 0.750000 0.589605
Si Si3 0.042818 0.750000 0.257829
Si Si4 0.100722 0.250000 0.983808
Si Si5 0.803543 0.750000 0.873514
Si Si6 0.245247 0.750000 0.130039
Si Si7 0.354875 0.508123 0.773849
O O1 0.221406 0.882075 0.597758
O O2 0.309022 0.951791 0.694346
O O3 0.077047 0.884072 0.100542
O O4 0.164474 0.113190 0.810106
O O5 0.234493 0.750000 0.324701
O O6 0.031908 0.750000 0.843145
O O7 0.115969 0.750000 0.279351
O O8 0.896008 0.750000 0.561921
O O9 0.104798 0.250000 0.154294
O O10 0.713091 0.876181 0.040982
O O11 0.324764 0.620871 0.947253
O O12 0.500000 0.500000 0.500000
#
# Coordination Sequence:
#
# PCOD8071180 Si02
#       7
#     4   2   2   2   2   2   4
#     4   9  21  35  56  80 114 147 179 225 276 333
#     4  11  20  35  51  83 116 149 176 215 286 335
#     4   9  18  35  53  85 112 137 178 232 287 324
#     4  10  19  32  53  81 111 150 177 218 273 337
#     4  10  20  32  59  84 108 136 187 242 271 322
#     4  10  21  34  60  83 111 146 180 227 277 332
#     4  10  21  39  59  81 106 147 192 230 270 318
#
# _framework density 18.477207
#
# number of rings (size 3 to 8) (size 9 to 14) (size 15 to 20)
#    0.000    2.222    1.111    2.000    3.111    2.667 
#    0.000    1.111    0.000    0.000    0.000    0.000 
#    0.000    0.000    0.000    0.000    0.000    0.000 
#
# Total GULP energy -223133.622338 kJ/mol
# GULP energy per Si atom -12396.312352 kJ/mol
# Density = 1.843515 g / cm^3
# Si number density = 18.477207 Si / 1000 Ang^3
#
#
#
# Elastic Constant Matrix: (Units=GPa)
#
#
# Indices 1 2 3 4 5 6 
#
# 1 103.8904 58.2056 63.9758 0.0000 7.1657 0.0000
# 2 58.2056 169.5520 59.3665 0.0000 13.3889 0.0000
# 3 63.9758 59.3665 108.9468 0.0000 -0.7877 0.0000
# 4 0.0000 0.0000 0.0000 20.4258 0.0000 4.8907
# 5 7.1657 13.3889 -0.7877 0.0000 33.6562 0.0000
# 6 0.0000 0.0000 0.0000 4.8907 0.0000 26.2238
#
#
#
# Elastic Compliance Matrix: (Units=1/GPa)
#
#
# Indices 1 2 3 4 5 6 
#
# 1 0.016264 -0.002499 -0.008208 0.000000 -0.002661 0.000000
# 2 -0.002499 0.007987 -0.002904 0.000000 -0.002713 0.000000
# 3 -0.008208 -0.002904 0.015605 0.000000 0.003268 0.000000
# 4 0.000000 0.000000 0.000000 0.051246 0.000000 -0.009557
# 5 -0.002661 -0.002713 0.003268 0.000000 0.031435 0.000000
# 6 0.000000 0.000000 0.000000 -0.009557 0.000000 0.039916
#
#
# Mechanical properties :
#
#
# Convention : Reuss Voigt Hill
#
# Bulk Modulus (GPa) = 79.15791 82.83166 80.99479
# Shear Modulus (GPa) = 25.78853 29.45059 27.61956
#
# Velocity S-wave (km/s) = 3.73995 3.99668 3.87045
# Velocity P-wave (km/s) = 7.84752 8.13784 7.99399
#
# Compressibility (1/GPa) = 0.01263298
#
# Stress axis : x y z
#
# Youngs Moduli (GPa) = 61.48725 125.20369 64.08328
#
# Poissons Ratio (x) = 0.31291 0.52597
# Poissons Ratio (y) = 0.15367 0.18611
# Poissons Ratio (z) = 0.50467 0.36362
#
# Static dielectric constant tensor:
#      x y z
#    x 3.417380 0.000000 0.047250 
#    y 0.000000 3.710890 0.000000 
#    z 0.047250 0.000000 3.091170 
# 
# 
# High freq. dielectric constant tensor:
#      x y z
#    x 1.713780 0.000000 0.003320 
#    y 0.000000 1.737600 0.000000 
#    z 0.003320 0.000000 1.685570 
# 
# From -- ./inp_files/11555.got.cif
#   From: 2010.06.25/outbox.cif.g09.slc.cpg/sg11_6_cif.got.tgz:11555.got - 2010.06.27 23:14:04.
