data_PCOD8071006
_publ_section_title
;
Structure prediction by ZEFSAII (Michael W. Deem and Ramdas Pophale) SiO2 
 PCOD8071006
Probable space group: P 21/M
;
_chemical_formula_sum "Si O2"
_cell_formula_units_Z 32
_cell_length_a 11.762317
_cell_length_b 15.140752
_cell_length_c 13.172494
_cell_angle_alpha 90.000000
_cell_angle_beta 135.070241
_cell_angle_gamma 90.000000
_cell_volume 1656.762540
_symmetry_space_group_name_H-M "P 21/M"
_symmetry_group_IT_number 11
_symmetry_cell_setting 'monoclinic'
loop_
_space_group_symop_operation_xyz
x,y,z
-x,1/2+y,-z
-x,-y,-z
x,1/2-y,z
loop_
_atom_site_type_symbol
_atom_site_label
_atom_site_fract_x
_atom_site_fract_y
_atom_site_fract_z
Si Si1 0.004544 0.347583 0.318661
Si Si2 0.067975 0.025179 0.650142
Si Si3 0.895446 0.098042 0.866580
Si Si4 0.871537 0.601217 0.816630
Si Si5 0.177591 0.652578 0.393672
Si Si6 0.485337 0.399700 0.457773
Si Si7 0.569113 0.151508 0.725362
Si Si8 0.270793 0.351457 0.659833
O O1 0.923039 0.250000 0.284586
O O2 0.069040 0.347941 0.245013
O O3 0.150059 0.360189 0.488926
O O4 0.887166 0.433067 0.262658
O O5 0.222255 0.088030 0.726312
O O6 0.930805 0.080029 0.620899
O O7 0.000000 0.000000 0.500000
O O8 0.870550 0.161474 0.755062
O O9 0.730903 0.093090 0.829120
O O10 0.926752 0.000543 0.842651
O O11 0.040875 0.137107 0.026379
O O12 0.680295 0.616045 0.707710
O O13 0.153191 0.750000 0.427433
O O14 0.365627 0.625284 0.521387
O O15 0.500000 0.500000 0.500000
O O16 0.487495 0.343491 0.562396
O O17 0.617627 0.250000 0.787912
O O18 0.443301 0.113951 0.728508
O O19 0.279148 0.250000 0.701907
#
# Coordination Sequence:
#
# PCOD8071006 Si02
#       8
#     4   4   4   4   4   4   4   4
#     4  10  19  32  51  79 108 139 184 230 274 326
#     4  10  20  34  55  79 110 144 181 235 285 318
#     4  10  21  34  53  82 118 149 180 222 275 341
#     4  11  20  33  54  83 113 149 188 218 276 342
#     4  11  22  37  55  85 118 148 183 227 281 333
#     4  11  18  31  55  81 113 147 180 226 282 328
#     4  10  19  33  52  81 112 143 183 228 274 326
#     4   9  18  31  54  82 105 139 189 232 268 323
#
# _framework density 19.314776999999999
#
# number of rings (size 3 to 8) (size 9 to 14) (size 15 to 20)
#    0.000    1.750    5.000    1.875    1.750    2.000 
#    0.000    0.000    0.000    0.750    6.500    0.000 
#    0.000    0.000    0.000    0.000    0.000    0.000 
#
# Total GULP energy -396519.292738 kJ/mol
# GULP energy per Si atom -12391.227898 kJ/mol
# Density = 1.927082 g / cm^3
# Si number density = 19.314777 Si / 1000 Ang^3
#
#
#
# Elastic Constant Matrix: (Units=GPa)
#
#
# Indices 1 2 3 4 5 6 
#
# 1 119.1664 49.0569 30.7313 0.0000 13.8468 0.0000
# 2 49.0569 120.9217 11.1760 0.0000 3.6465 0.0000
# 3 30.7313 11.1760 101.9504 0.0000 10.6315 0.0000
# 4 0.0000 0.0000 0.0000 12.9879 0.0000 -0.4345
# 5 13.8468 3.6465 10.6315 0.0000 17.6980 0.0000
# 6 0.0000 0.0000 0.0000 -0.4345 0.0000 30.5820
#
#
#
# Elastic Compliance Matrix: (Units=1/GPa)
#
#
# Indices 1 2 3 4 5 6 
#
# 1 0.011523 -0.004258 -0.002302 0.000000 -0.006755 0.000000
# 2 -0.004258 0.009954 0.000063 0.000000 0.001243 0.000000
# 3 -0.002302 0.000063 0.010998 0.000000 -0.004819 0.000000
# 4 0.000000 0.000000 0.000000 0.077031 0.000000 0.001094
# 5 -0.006755 0.001243 -0.004819 0.000000 0.064427 0.000000
# 6 0.000000 0.000000 0.000000 0.001094 0.000000 0.032715
#
#
# Mechanical properties :
#
#
# Convention : Reuss Voigt Hill
#
# Bulk Modulus (GPa) = 51.33463 58.21853 54.77658
# Shear Modulus (GPa) = 22.11039 28.99186 25.55113
#
# Velocity S-wave (km/s) = 3.38707 3.87850 3.64109
# Velocity P-wave (km/s) = 6.47549 7.08974 6.78956
#
# Compressibility (1/GPa) = 0.01948003
#
# Stress axis : x y z
#
# Youngs Moduli (GPa) = 86.78033 100.46085 90.92344
#
# Poissons Ratio (x) = 0.42780 0.20933
# Poissons Ratio (y) = 0.36955 -0.00571
# Poissons Ratio (z) = 0.19979 -0.00631
#
# Static dielectric constant tensor:
#      x y z
#    x 2.359150 0.000000 -0.020830 
#    y 0.000000 3.579250 0.000000 
#    z -0.020830 0.000000 3.401430 
# 
# 
# High freq. dielectric constant tensor:
#      x y z
#    x 1.737500 0.000000 0.004550 
#    y 0.000000 1.766850 0.000000 
#    z 0.004550 0.000000 1.706720 
# 
# From -- ./inp_files/50410.got.cif
#   From: 2010.06.25/outbox.cif.g09.slc.cpg/sg11_26_cif.got.tgz:50410.got - 2010.06.27 23:14:04.
