data_PCOD8071358
_publ_section_title
;
Structure prediction by ZEFSAII (Michael W. Deem and Ramdas Pophale) SiO2 
 PCOD8071358
Probable space group: P 21/M
;
_chemical_formula_sum "Si O2"
_cell_formula_units_Z 28
_cell_length_a 28.044740
_cell_length_b 8.718228
_cell_length_c 9.676580
_cell_angle_alpha 90.000000
_cell_angle_beta 38.163745
_cell_angle_gamma 90.000000
_cell_volume 1461.932977
_symmetry_space_group_name_H-M "P 21/M"
_symmetry_group_IT_number 11
_symmetry_cell_setting 'monoclinic'
loop_
_space_group_symop_operation_xyz
x,y,z
-x,1/2+y,-z
-x,-y,-z
x,1/2-y,z
loop_
_atom_site_type_symbol
_atom_site_label
_atom_site_fract_x
_atom_site_fract_y
_atom_site_fract_z
Si Si1 0.392470 0.070886 0.145687
Si Si2 0.283143 0.933351 0.174471
Si Si3 0.327796 0.069080 0.785942
Si Si4 0.969874 0.566333 0.710588
Si Si5 0.564274 0.070718 0.670257
Si Si6 0.821976 0.420963 0.971991
Si Si7 0.122298 0.580726 0.468284
O O1 0.374781 0.250000 0.195114
O O2 0.325018 0.987660 0.216230
O O3 0.391940 0.001671 0.299302
O O4 0.473317 0.037628 0.886068
O O5 0.281992 0.750000 0.165987
O O6 0.194365 0.001255 0.381578
O O7 0.326106 0.996739 0.941757
O O8 0.328806 0.250000 0.799305
O O9 0.406134 0.010937 0.535733
O O10 0.256415 0.018760 0.851474
O O11 0.966353 0.750000 0.711874
O O12 0.884458 0.498980 0.934155
O O13 0.000000 0.500000 0.500000
O O14 0.034880 0.510780 0.676986
O O15 0.582562 0.250000 0.623818
O O16 0.803593 0.250000 0.068397
O O17 0.856402 0.414210 0.741305
O O18 0.117112 0.750000 0.542659
#
# Coordination Sequence:
#
# PCOD8071358 Si02
#       7
#     4   4   4   4   4   4   4
#     4  10  21  37  56  78 101 128 167 210 250 298
#     4  10  19  33  52  75 105 138 169 205 253 302
#     4  11  21  33  51  76 104 133 168 211 255 299
#     4   9  14  22  37  59  89 126 165 203 244 289
#     4  10  21  38  57  75  99 132 167 206 253 303
#     4   9  16  27  41  62  94 129 164 202 247 298
#     4   7  13  24  39  61  91 126 162 199 239 286
#
# _framework density 19.152725
#
# number of rings (size 3 to 8) (size 9 to 14) (size 15 to 20)
#    0.000    2.571    0.000    5.143    0.000    2.286 
#    0.000    2.143    0.000    0.000    0.000    1.000 
#    0.000    0.000    0.000    0.000    0.000    0.000 
#
# Total GULP energy -346901.746442 kJ/mol
# GULP energy per Si atom -12389.348087 kJ/mol
# Density = 1.910913 g / cm^3
# Si number density = 19.152725 Si / 1000 Ang^3
#
#
#
# Elastic Constant Matrix: (Units=GPa)
#
#
# Indices 1 2 3 4 5 6 
#
# 1 121.8086 31.3065 -1.7511 0.0000 -14.7897 0.0000
# 2 31.3065 94.9407 1.1757 0.0000 -2.2492 0.0000
# 3 -1.7511 1.1757 4.8973 0.0000 0.2005 0.0000
# 4 0.0000 0.0000 0.0000 23.1705 0.0000 -3.9704
# 5 -14.7897 -2.2492 0.2005 0.0000 15.3752 0.0000
# 6 0.0000 0.0000 0.0000 -3.9704 0.0000 31.6447
#
#
#
# Elastic Compliance Matrix: (Units=1/GPa)
#
#
# Indices 1 2 3 4 5 6 
#
# 1 0.010221 -0.003200 0.004041 0.000000 0.009311 0.000000
# 2 -0.003200 0.011604 -0.003876 0.000000 -0.001330 0.000000
# 3 0.004041 -0.003876 0.206544 0.000000 0.000627 0.000000
# 4 0.000000 0.000000 0.000000 0.044107 0.000000 0.005534
# 5 0.009311 -0.001330 0.000627 0.000000 0.073793 0.000000
# 6 0.000000 0.000000 0.000000 0.005534 0.000000 0.032295
#
#
# Mechanical properties :
#
#
# Convention : Reuss Voigt Hill
#
# Bulk Modulus (GPa) = 4.49841 31.45654 17.97747
# Shear Modulus (GPa) = 10.89962 26.76578 18.83270
#
# Velocity S-wave (km/s) = 2.38815 3.74236 3.13915
# Velocity P-wave (km/s) = 3.15565 5.92734 4.74824
#
# Compressibility (1/GPa) = 0.22230097
#
# Stress axis : x y z
#
# Youngs Moduli (GPa) = 97.84236 86.17377 4.84159
#
# Poissons Ratio (x) = 0.27573 -0.01957
# Poissons Ratio (y) = 0.31306 0.01876
# Poissons Ratio (z) = -0.39541 0.33397
#
# Static dielectric constant tensor:
#      x y z
#    x 3.815370 0.000000 -0.508150 
#    y 0.000000 3.575950 0.000000 
#    z -0.508150 0.000000 3.243580 
# 
# 
# High freq. dielectric constant tensor:
#      x y z
#    x 1.748160 0.000000 -0.036340 
#    y 0.000000 1.744930 0.000000 
#    z -0.036340 0.000000 1.703860 
# 
# From -- ./inp_files/29007.got.cif
#   From: 2010.06.25/outbox.cif.g09.slc.cpg/sg11_15_cif.got.tgz:29007.got - 2010.06.27 23:14:04.
