data_PCOD8071184
_publ_section_title
;
Structure prediction by ZEFSAII (Michael W. Deem and Ramdas Pophale) SiO2 
 PCOD8071184
Probable space group: P 21/M
;
_chemical_formula_sum "Si O2"
_cell_formula_units_Z 28
_cell_length_a 14.520114
_cell_length_b 8.953655
_cell_length_c 19.944508
_cell_angle_alpha 90.000000
_cell_angle_beta 33.113096
_cell_angle_gamma 90.000000
_cell_volume 1416.510120
_symmetry_space_group_name_H-M "P 21/M"
_symmetry_group_IT_number 11
_symmetry_cell_setting 'monoclinic'
loop_
_space_group_symop_operation_xyz
x,y,z
-x,1/2+y,-z
-x,-y,-z
x,1/2-y,z
loop_
_atom_site_type_symbol
_atom_site_label
_atom_site_fract_x
_atom_site_fract_y
_atom_site_fract_z
Si Si1 0.092229 0.079969 0.787629
Si Si2 0.355686 0.573424 0.543730
Si Si3 0.271251 0.923492 0.450708
Si Si4 0.717046 0.074009 0.060601
Si Si5 0.608654 0.072392 0.766906
Si Si6 0.824995 0.921112 0.117536
Si Si7 0.924609 0.924378 0.611051
O O1 0.093096 0.250000 0.760791
O O2 0.213125 0.068993 0.779967
O O3 0.171901 0.971377 0.684118
O O4 0.900213 0.029865 0.919814
O O5 0.500000 0.500000 0.500000
O O6 0.376438 0.750000 0.534309
O O7 0.361250 0.513726 0.463133
O O8 0.312172 0.750000 0.422397
O O9 0.344449 0.989442 0.336509
O O10 0.067697 0.948928 0.580898
O O11 0.692508 0.250000 0.078274
O O12 0.572999 0.997171 0.102898
O O13 0.691965 0.006892 0.151383
O O14 0.605533 0.250000 0.774731
O O15 0.747125 0.007014 0.735045
O O16 0.834383 0.750000 0.088208
O O17 0.000000 0.000000 0.000000
O O18 0.891351 0.750000 0.618715
O O19 0.000000 0.000000 0.500000
#
# Coordination Sequence:
#
# PCOD8071184 Si02
#       7
#     4   4   4   4   4   4   4
#     4   9  20  37  52  70 102 139 174 218 265 306
#     4  11  23  38  55  76 103 140 183 220 255 306
#     4   8  18  35  53  74 105 141 171 210 267 310
#     4  10  20  33  51  77 106 136 173 216 266 317
#     4  10  19  32  53  82 111 138 168 212 269 322
#     4   9  17  30  48  69  97 132 169 212 260 308
#     4   9  16  31  53  77 105 137 171 213 266 319
#
# _framework density 19.766891000000001
#
# number of rings (size 3 to 8) (size 9 to 14) (size 15 to 20)
#    0.000    2.571    0.000    3.857    2.000    3.429 
#    0.000    7.857    0.000    0.857    0.000    0.000 
#    0.000    0.000    0.000    0.000    0.000    0.000 
#
# Total GULP energy -346920.740224 kJ/mol
# GULP energy per Si atom -12390.026437 kJ/mol
# Density = 1.972190 g / cm^3
# Si number density = 19.766891 Si / 1000 Ang^3
#
#
#
# Elastic Constant Matrix: (Units=GPa)
#
#
# Indices 1 2 3 4 5 6 
#
# 1 69.7754 25.1857 19.3091 0.0000 -17.9706 0.0000
# 2 25.1857 92.3589 25.1571 0.0000 -9.8597 0.0000
# 3 19.3091 25.1571 55.3046 0.0000 -15.9171 0.0000
# 4 0.0000 0.0000 0.0000 30.5048 0.0000 -8.6837
# 5 -17.9706 -9.8597 -15.9171 0.0000 33.2479 0.0000
# 6 0.0000 0.0000 0.0000 -8.6837 0.0000 28.8072
#
#
#
# Elastic Compliance Matrix: (Units=1/GPa)
#
#
# Indices 1 2 3 4 5 6 
#
# 1 0.018258 -0.003455 -0.002618 0.000000 0.007591 0.000000
# 2 -0.003455 0.013049 -0.004817 0.000000 -0.000304 0.000000
# 3 -0.002618 -0.004817 0.023623 0.000000 0.008466 0.000000
# 4 0.000000 0.000000 0.000000 0.035859 0.000000 0.010809
# 5 0.007591 -0.000304 0.008466 0.000000 0.038143 0.000000
# 6 0.000000 0.000000 0.000000 0.010809 0.000000 0.037972
#
#
# Mechanical properties :
#
#
# Convention : Reuss Voigt Hill
#
# Bulk Modulus (GPa) = 30.16608 39.63805 34.90207
# Shear Modulus (GPa) = 25.03307 28.36446 26.69877
#
# Velocity S-wave (km/s) = 3.56253 3.79218 3.67915
# Velocity P-wave (km/s) = 5.67593 6.26661 5.97857
#
# Compressibility (1/GPa) = 0.03314981
#
# Stress axis : x y z
#
# Youngs Moduli (GPa) = 54.76913 76.63303 42.33073
#
# Poissons Ratio (x) = 0.26480 0.11084
# Poissons Ratio (y) = 0.18925 0.20390
# Poissons Ratio (z) = 0.14340 0.36913
#
# Static dielectric constant tensor:
#      x y z
#    x 4.090380 0.000000 -0.298600 
#    y 0.000000 3.671930 0.000000 
#    z -0.298600 0.000000 3.543020 
# 
# 
# High freq. dielectric constant tensor:
#      x y z
#    x 1.757300 0.000000 -0.033210 
#    y 0.000000 1.766480 0.000000 
#    z -0.033210 0.000000 1.751000 
# 
# From -- ./inp_files/65358.got.cif
#   From: 2010.06.25/outbox.cif.g09.slc.cpg/sg11_33_cif.got.tgz:65358.got - 2010.06.27 23:14:04.
