data_PCOD8071034
_publ_section_title
;
Structure prediction by ZEFSAII (Michael W. Deem and Ramdas Pophale) SiO2 
 PCOD8071034
Probable space group: P 21/M
;
_chemical_formula_sum "Si O2"
_cell_formula_units_Z 32
_cell_length_a 14.485428
_cell_length_b 8.576173
_cell_length_c 14.489525
_cell_angle_alpha 90.000000
_cell_angle_beta 117.028527
_cell_angle_gamma 90.000000
_cell_volume 1603.428706
_symmetry_space_group_name_H-M "P 21/M"
_symmetry_group_IT_number 11
_symmetry_cell_setting 'monoclinic'
loop_
_space_group_symop_operation_xyz
x,y,z
-x,1/2+y,-z
-x,-y,-z
x,1/2-y,z
loop_
_atom_site_type_symbol
_atom_site_label
_atom_site_fract_x
_atom_site_fract_y
_atom_site_fract_z
Si Si1 0.756239 0.065181 0.030668
Si Si2 0.186444 0.935789 0.308599
Si Si3 0.319049 0.564480 0.198835
Si Si4 0.449591 0.067867 0.721172
Si Si5 0.248038 0.933517 0.537163
Si Si6 0.357643 0.929639 0.845993
Si Si7 0.834425 0.570812 0.332895
Si Si8 0.955816 0.570077 0.214442
O O1 0.755794 0.250000 0.030605
O O2 0.665302 0.008333 0.060374
O O3 0.870194 0.012959 0.113140
O O4 0.730260 0.996876 0.918056
O O5 0.184866 0.750000 0.305141
O O6 0.254977 0.004059 0.255997
O O7 0.236015 0.993648 0.427007
O O8 0.069095 0.000004 0.244732
O O9 0.312817 0.750000 0.193477
O O10 0.438227 0.511684 0.263098
O O11 0.433153 0.250000 0.697998
O O12 0.363229 0.976042 0.624017
O O13 0.442982 0.029902 0.828579
O O14 0.230138 0.750000 0.535029
O O15 0.156958 0.019115 0.556011
O O16 0.391696 0.750000 0.860482
O O17 0.250073 0.950426 0.743522
O O18 0.795313 0.750000 0.309217
O O19 0.936537 0.549194 0.316451
O O20 0.950845 0.750000 0.184883
#
# Coordination Sequence:
#
# PCOD8071034 Si02
#       8
#     4   4   4   4   4   4   4   4
#     4   9  18  33  53  76 101 130 163 199 243 294
#     4   9  19  35  52  71  98 133 170 203 241 294
#     4   9  19  35  52  71  98 133 170 203 241 294
#     4  10  19  32  52  75  99 130 165 202 246 293
#     4  10  19  32  52  75  99 130 165 202 246 293
#     4   9  16  28  48  74 102 128 157 197 245 295
#     4   9  16  28  48  74 102 128 157 197 245 295
#     4   9  18  33  53  76 101 130 163 199 243 294
#
# _framework density 19.957232000000001
#
# number of rings (size 3 to 8) (size 9 to 14) (size 15 to 20)
#    0.000    2.750    0.000    3.000    0.000    3.000 
#    0.000    2.500    0.000    5.250    0.000    0.000 
#    0.000    0.000    0.000    0.000    0.000    0.000 
#
# Total GULP energy -396526.651782 kJ/mol
# GULP energy per Si atom -12391.457868 kJ/mol
# Density = 1.991181 g / cm^3
# Si number density = 19.957232 Si / 1000 Ang^3
#
#
#
# Elastic Constant Matrix: (Units=GPa)
#
#
# Indices 1 2 3 4 5 6 
#
# 1 125.3225 6.1526 33.7809 0.0000 -16.9833 0.0000
# 2 6.1526 26.9282 5.8823 0.0000 -3.4681 0.0000
# 3 33.7809 5.8823 94.6179 0.0000 -21.5635 0.0000
# 4 0.0000 0.0000 0.0000 16.5248 0.0000 -2.6307
# 5 -16.9833 -3.4681 -21.5635 0.0000 33.1681 0.0000
# 6 0.0000 0.0000 0.0000 -2.6307 0.0000 18.4071
#
#
#
# Elastic Compliance Matrix: (Units=1/GPa)
#
#
# Indices 1 2 3 4 5 6 
#
# 1 0.009109 -0.001157 -0.002518 0.000000 0.002906 0.000000
# 2 -0.001157 0.038022 -0.001385 0.000000 0.002483 0.000000
# 3 -0.002518 -0.001385 0.013180 0.000000 0.007135 0.000000
# 4 0.000000 0.000000 0.000000 0.061924 0.000000 0.008850
# 5 0.002906 0.002483 0.007135 0.000000 0.036535 0.000000
# 6 0.000000 0.000000 0.000000 0.008850 0.000000 0.055592
#
#
# Mechanical properties :
#
#
# Convention : Reuss Voigt Hill
#
# Bulk Modulus (GPa) = 19.92359 37.61114 28.76737
# Shear Modulus (GPa) = 20.72868 27.02353 23.87611
#
# Velocity S-wave (km/s) = 3.22631 3.68376 3.46260
# Velocity P-wave (km/s) = 4.88709 6.08114 5.51652
#
# Compressibility (1/GPa) = 0.05019175
#
# Stress axis : x y z
#
# Youngs Moduli (GPa) = 109.78495 26.30029 75.87366
#
# Poissons Ratio (x) = 0.03043 0.19103
# Poissons Ratio (y) = 0.12701 0.10508
# Poissons Ratio (z) = 0.27642 0.03642
#
# Static dielectric constant tensor:
#      x y z
#    x 3.991810 0.000000 -0.382390 
#    y 0.000000 3.291120 0.000000 
#    z -0.382390 0.000000 3.731300 
# 
# 
# High freq. dielectric constant tensor:
#      x y z
#    x 1.782100 0.000000 -0.013490 
#    y 0.000000 1.750640 0.000000 
#    z -0.013490 0.000000 1.767530 
# 
# From -- ./inp_files/51763.got.cif
#   From: 2010.06.25/outbox.cif.g09.slc.cpg/sg11_26_cif.got.tgz:51763.got - 2010.06.27 23:14:04.
