data_PCOD8071623
_publ_section_title
;
Structure prediction by ZEFSAII (Michael W. Deem and Ramdas Pophale) SiO2 
 PCOD8071623
Probable space group: P 21/M
;
_chemical_formula_sum "Si O2"
_cell_formula_units_Z 32
_cell_length_a 10.302249
_cell_length_b 8.956053
_cell_length_c 24.298218
_cell_angle_alpha 90.000000
_cell_angle_beta 52.055516
_cell_angle_gamma 90.000000
_cell_volume 1768.005882
_symmetry_space_group_name_H-M "P 21/M"
_symmetry_group_IT_number 11
_symmetry_cell_setting 'monoclinic'
loop_
_space_group_symop_operation_xyz
x,y,z
-x,1/2+y,-z
-x,-y,-z
x,1/2-y,z
loop_
_atom_site_type_symbol
_atom_site_label
_atom_site_fract_x
_atom_site_fract_y
_atom_site_fract_z
Si Si1 0.743202 0.923855 0.185714
Si Si2 0.942608 0.424835 0.959567
Si Si3 0.593472 0.927766 0.526042
Si Si4 0.936660 0.075093 0.461064
Si Si5 0.572413 0.427318 0.035222
Si Si6 0.256393 0.421625 0.311605
Si Si7 0.465958 0.923367 0.676088
Si Si8 0.534265 0.074123 0.827473
O O1 0.721466 0.750000 0.200159
O O2 0.623297 0.976708 0.167533
O O3 0.930036 0.968612 0.122177
O O4 0.694525 0.999178 0.256044
O O5 0.946587 0.250000 0.969577
O O6 0.762150 0.479362 0.989596
O O7 0.000000 0.500000 0.000000
O O8 0.606329 0.750000 0.516506
O O9 0.490851 0.974023 0.606927
O O10 0.500000 0.000000 0.500000
O O11 0.774436 0.995287 0.481904
O O12 0.906071 0.250000 0.480231
O O13 0.068903 0.051669 0.378000
O O14 0.000000 0.000000 0.500000
O O15 0.555302 0.250000 0.036865
O O16 0.471640 0.488776 0.113336
O O17 0.500000 0.500000 0.000000
O O18 0.288623 0.250000 0.287158
O O19 0.370174 0.469077 0.333451
O O20 0.300210 0.523963 0.247633
O O21 0.432224 0.750000 0.688493
O O22 0.538291 0.250000 0.837427
#
# Coordination Sequence:
#
# PCOD8071623 Si02
#       8
#     4   4   4   4   4   4   4   4
#     4   9  18  32  53  83 112 137 177 230 278 326
#     4  10  20  35  56  83 111 141 181 228 275 325
#     4  11  23  40  58  83 116 154 194 236 287 345
#     4  11  21  36  59  87 116 149 190 239 285 337
#     4  11  23  38  57  80 112 153 188 227 279 337
#     4   9  18  34  55  82 114 145 182 231 280 332
#     4   9  18  34  54  79 112 146 183 225 276 334
#     4  10  19  33  55  83 113 144 182 230 279 331
#
# _framework density 18.099485999999999
#
# number of rings (size 3 to 8) (size 9 to 14) (size 15 to 20)
#    0.000    2.000    2.500    1.500    0.000    3.500 
#    0.000    1.250    0.000    3.000    0.000    0.000 
#    0.000    0.000    0.000    0.000    0.000    0.000 
#
# Total GULP energy -396851.930011 kJ/mol
# GULP energy per Si atom -12401.622813 kJ/mol
# Density = 1.805829 g / cm^3
# Si number density = 18.099486 Si / 1000 Ang^3
#
#
#
# Elastic Constant Matrix: (Units=GPa)
#
#
# Indices 1 2 3 4 5 6 
#
# 1 116.5897 51.0587 72.8149 0.0000 4.4729 0.0000
# 2 51.0587 75.1485 62.4484 0.0000 3.4363 0.0000
# 3 72.8149 62.4484 154.1654 0.0000 5.9068 0.0000
# 4 0.0000 0.0000 0.0000 37.3439 0.0000 2.2220
# 5 4.4729 3.4363 5.9068 0.0000 26.6447 0.0000
# 6 0.0000 0.0000 0.0000 2.2220 0.0000 27.9424
#
#
#
# Elastic Compliance Matrix: (Units=1/GPa)
#
#
# Indices 1 2 3 4 5 6 
#
# 1 0.013734 -0.005927 -0.004061 0.000000 -0.000641 0.000000
# 2 -0.005927 0.022634 -0.006349 0.000000 -0.000517 0.000000
# 3 -0.004061 -0.006349 0.011013 0.000000 -0.000941 0.000000
# 4 0.000000 0.000000 0.000000 0.026905 0.000000 -0.002140
# 5 -0.000641 -0.000517 -0.000941 0.000000 0.037914 0.000000
# 6 0.000000 0.000000 0.000000 -0.002140 0.000000 0.035958
#
#
# Mechanical properties :
#
#
# Convention : Reuss Voigt Hill
#
# Bulk Modulus (GPa) = 68.00237 79.83862 73.92050
# Shear Modulus (GPa) = 26.92023 29.02495 27.97259
#
# Velocity S-wave (km/s) = 3.86080 4.00888 3.93554
# Velocity P-wave (km/s) = 7.58468 8.10154 7.84737
#
# Compressibility (1/GPa) = 0.01470537
#
# Stress axis : x y z
#
# Youngs Moduli (GPa) = 72.81351 44.18174 90.80468
#
# Poissons Ratio (x) = 0.26187 0.36878
# Poissons Ratio (y) = 0.43157 0.57653
# Poissons Ratio (z) = 0.29571 0.28052
#
# Static dielectric constant tensor:
#      x y z
#    x 3.112380 0.000000 0.095560 
#    y 0.000000 3.376600 0.000000 
#    z 0.095560 0.000000 2.985340 
# 
# 
# High freq. dielectric constant tensor:
#      x y z
#    x 1.674450 0.000000 -0.007620 
#    y 0.000000 1.707240 0.000000 
#    z -0.007620 0.000000 1.716010 
# 
# From -- ./inp_files/68313.got.cif
#   From: 2010.06.25/outbox.cif.g09.slc.cpg/sg11_35_cif.got.tgz:68313.got - 2010.06.27 23:14:04.
