data_PCOD8071067
_publ_section_title
;
Structure prediction by ZEFSAII (Michael W. Deem and Ramdas Pophale) SiO2 
 PCOD8071067
Probable space group: P 21/M
;
_chemical_formula_sum "Si O2"
_cell_formula_units_Z 32
_cell_length_a 21.786864
_cell_length_b 9.333305
_cell_length_c 27.641060
_cell_angle_alpha 90.000000
_cell_angle_beta 18.848039
_cell_angle_gamma 90.000000
_cell_volume 1815.796220
_symmetry_space_group_name_H-M "P 21/M"
_symmetry_group_IT_number 11
_symmetry_cell_setting 'monoclinic'
loop_
_space_group_symop_operation_xyz
x,y,z
-x,1/2+y,-z
-x,-y,-z
x,1/2-y,z
loop_
_atom_site_type_symbol
_atom_site_label
_atom_site_fract_x
_atom_site_fract_y
_atom_site_fract_z
Si Si1 0.182784 0.915584 0.986900
Si Si2 0.592600 0.916980 0.002443
Si Si3 0.909187 0.915913 0.523992
Si Si4 0.767180 0.584461 0.324251
Si Si5 0.539269 0.585458 0.400016
Si Si6 0.224366 0.914544 0.215596
Si Si7 0.828363 0.918534 0.102685
Si Si8 0.476301 0.584561 0.851389
O O1 0.174493 0.750000 0.975566
O O2 0.357522 0.944500 0.891853
O O3 0.210373 0.019195 0.921128
O O4 0.989290 0.954696 0.159581
O O5 0.635615 0.750000 0.975585
O O6 0.384469 0.948463 0.136243
O O7 0.608966 0.988934 0.042395
O O8 0.751464 0.985017 0.848948
O O9 0.929895 0.750000 0.521713
O O10 0.691534 0.961284 0.678853
O O11 0.021027 0.950141 0.390953
O O12 0.000000 0.000000 0.500000
O O13 0.732969 0.750000 0.360016
O O14 0.686280 0.537999 0.332262
O O15 0.657476 0.501244 0.448731
O O16 0.485027 0.750000 0.446306
O O17 0.636666 0.554045 0.276089
O O18 0.239409 0.750000 0.187454
O O19 0.876870 0.750000 0.063963
O O20 0.000000 0.000000 0.000000
O O21 0.463868 0.750000 0.876672
#
# Coordination Sequence:
#
# PCOD8071067 Si02
#       8
#     4   4   4   4   4   4   4   4
#     4  10  21  38  55  78 110 144 182 221 265 326
#     4  10  19  32  52  78 106 137 176 221 265 316
#     4  10  19  33  54  81 107 139 179 224 272 320
#     4   9  17  32  52  75 104 136 172 215 260 310
#     4   9  18  32  51  78 107 132 169 219 264 308
#     4   9  18  32  51  77 108 137 172 220 268 315
#     4  11  21  35  56  82 110 142 178 224 271 318
#     4  10  21  36  56  78 108 146 180 219 272 327
#
# _framework density 17.623123
#
# number of rings (size 3 to 8) (size 9 to 14) (size 15 to 20)
#    0.000    2.250    2.500    0.750    0.000    3.000 
#    0.000    1.250    0.000    6.000    0.000    0.000 
#    0.000    0.000    0.000    0.000    0.000    0.000 
#
# Total GULP energy -396872.629861 kJ/mol
# GULP energy per Si atom -12402.269683 kJ/mol
# Density = 1.758301 g / cm^3
# Si number density = 17.623123 Si / 1000 Ang^3
#
#
#
# Elastic Constant Matrix: (Units=GPa)
#
#
# Indices 1 2 3 4 5 6 
#
# 1 91.1087 61.7381 64.7483 0.0000 8.3306 0.0000
# 2 61.7381 91.1602 64.8371 0.0000 13.8089 0.0000
# 3 64.7483 64.8371 134.1907 0.0000 6.9104 0.0000
# 4 0.0000 0.0000 0.0000 28.0984 0.0000 7.4876
# 5 8.3306 13.8089 6.9104 0.0000 27.2938 0.0000
# 6 0.0000 0.0000 0.0000 7.4876 0.0000 30.1646
#
#
#
# Elastic Compliance Matrix: (Units=1/GPa)
#
#
# Indices 1 2 3 4 5 6 
#
# 1 0.022542 -0.011525 -0.005323 0.000000 0.000299 0.000000
# 2 -0.011525 0.023826 -0.005584 0.000000 -0.007123 0.000000
# 3 -0.005323 -0.005584 0.012654 0.000000 0.001246 0.000000
# 4 0.000000 0.000000 0.000000 0.038110 0.000000 -0.009460
# 5 0.000299 -0.007123 0.001246 0.000000 0.039835 0.000000
# 6 0.000000 0.000000 0.000000 -0.009460 0.000000 0.035500
#
#
# Mechanical properties :
#
#
# Convention : Reuss Voigt Hill
#
# Bulk Modulus (GPa) = 70.63839 77.67853 74.15846
# Shear Modulus (GPa) = 22.51732 25.45375 23.98553
#
# Velocity S-wave (km/s) = 3.57839 3.80457 3.69321
# Velocity P-wave (km/s) = 7.56591 7.96699 7.76904
#
# Compressibility (1/GPa) = 0.01415661
#
# Stress axis : x y z
#
# Youngs Moduli (GPa) = 44.36235 41.97125 79.02371
#
# Poissons Ratio (x) = 0.48374 0.42066
# Poissons Ratio (y) = 0.51130 0.44127
# Poissons Ratio (z) = 0.23615 0.23437
#
# Static dielectric constant tensor:
#      x y z
#    x 3.067150 0.000000 0.095680 
#    y 0.000000 3.457570 0.000000 
#    z 0.095680 0.000000 3.433820 
# 
# 
# High freq. dielectric constant tensor:
#      x y z
#    x 1.656730 0.000000 0.013840 
#    y 0.000000 1.683800 0.000000 
#    z 0.013840 0.000000 1.687580 
# 
# From -- ./inp_files/72059.got.cif
#   From: 2010.06.25/outbox.cif.g09.slc.cpg/sg11_37_cif.got.tgz:72059.got - 2010.06.27 23:14:04.
