data_PCOD8071037
_publ_section_title
;
Structure prediction by ZEFSAII (Michael W. Deem and Ramdas Pophale) SiO2 
 PCOD8071037
Probable space group: P 21/M
;
_chemical_formula_sum "Si O2"
_cell_formula_units_Z 28
_cell_length_a 18.087282
_cell_length_b 8.923231
_cell_length_c 10.809036
_cell_angle_alpha 90.000000
_cell_angle_beta 119.912741
_cell_angle_gamma 90.000000
_cell_volume 1512.147778
_symmetry_space_group_name_H-M "P 21/M"
_symmetry_group_IT_number 11
_symmetry_cell_setting 'monoclinic'
loop_
_space_group_symop_operation_xyz
x,y,z
-x,1/2+y,-z
-x,-y,-z
x,1/2-y,z
loop_
_atom_site_type_symbol
_atom_site_label
_atom_site_fract_x
_atom_site_fract_y
_atom_site_fract_z
Si Si1 0.581959 0.421609 0.625700
Si Si2 0.239558 0.573224 0.330936
Si Si3 0.526135 0.079376 0.848376
Si Si4 0.625308 0.076429 0.173701
Si Si5 0.762842 0.917463 0.419727
Si Si6 0.958336 0.915922 0.579657
Si Si7 0.060322 0.070151 0.155359
O O1 0.500000 0.500000 0.500000
O O2 0.576473 0.250000 0.579635
O O3 0.674099 0.486420 0.662823
O O4 0.579687 0.443295 0.770037
O O5 0.225471 0.750000 0.299372
O O6 0.253004 0.536039 0.485167
O O7 0.156625 0.486238 0.209614
O O8 0.494171 0.250000 0.837784
O O9 0.443561 0.972221 0.779612
O O10 0.589790 0.033547 0.010425
O O11 0.646920 0.250000 0.206589
O O12 0.710315 0.978355 0.259128
O O13 0.733137 0.750000 0.434209
O O14 0.860083 0.913110 0.461224
O O15 0.997771 0.750000 0.613948
O O16 0.969114 0.982112 0.729622
O O17 0.000000 0.000000 0.500000
O O18 0.059415 0.250000 0.146642
O O19 0.000000 0.000000 0.000000
#
# Coordination Sequence:
#
# PCOD8071037 Si02
#       7
#     4   4   4   4   4   4   4
#     4  10  21  35  52  76 107 141 178 221 269 317
#     4  10  20  35  56  82 110 141 184 228 267 324
#     4   9  19  35  51  70 103 140 173 217 268 314
#     4  10  19  32  52  76 100 135 180 217 263 318
#     4  10  20  35  54  77 107 139 175 216 266 322
#     4   9  20  37  57  82 111 141 180 227 276 330
#     4  10  21  39  61  86 115 151 189 230 284 340
#
# _framework density 18.516708999999999
#
# number of rings (size 3 to 8) (size 9 to 14) (size 15 to 20)
#    0.000    2.286    0.000    3.429    0.000    8.000 
#    2.571    0.000    0.000    0.000    0.000    0.000 
#    0.000    0.000    0.000    0.000    0.000    0.000 
#
# Total GULP energy -347066.203481 kJ/mol
# GULP energy per Si atom -12395.221553 kJ/mol
# Density = 1.847456 g / cm^3
# Si number density = 18.516709 Si / 1000 Ang^3
#
#
#
# Elastic Constant Matrix: (Units=GPa)
#
#
# Indices 1 2 3 4 5 6 
#
# 1 111.4705 43.3092 58.1601 0.0000 -2.5652 0.0000
# 2 43.3092 72.6252 45.9684 0.0000 5.7799 0.0000
# 3 58.1601 45.9684 117.6599 0.0000 12.8083 0.0000
# 4 0.0000 0.0000 0.0000 33.5065 0.0000 4.1217
# 5 -2.5652 5.7799 12.8083 0.0000 23.1850 0.0000
# 6 0.0000 0.0000 0.0000 4.1217 0.0000 31.1979
#
#
#
# Elastic Compliance Matrix: (Units=1/GPa)
#
#
# Indices 1 2 3 4 5 6 
#
# 1 0.014066 -0.005381 -0.005497 0.000000 0.005934 0.000000
# 2 -0.005381 0.020361 -0.004977 0.000000 -0.002922 0.000000
# 3 -0.005497 -0.004977 0.013929 0.000000 -0.007063 0.000000
# 4 0.000000 0.000000 0.000000 0.030338 0.000000 -0.004008
# 5 0.005934 -0.002922 -0.007063 0.000000 0.048418 0.000000
# 6 0.000000 0.000000 0.000000 -0.004008 0.000000 0.032583
#
#
# Mechanical properties :
#
#
# Convention : Reuss Voigt Hill
#
# Bulk Modulus (GPa) = 60.07046 66.29233 63.18139
# Shear Modulus (GPa) = 25.38666 27.86574 26.62620
#
# Velocity S-wave (km/s) = 3.70674 3.88351 3.79615
# Velocity P-wave (km/s) = 7.12962 7.48251 7.30820
#
# Compressibility (1/GPa) = 0.01664712
#
# Stress axis : x y z
#
# Youngs Moduli (GPa) = 71.09218 49.11349 71.79162
#
# Poissons Ratio (x) = 0.26430 0.39461
# Poissons Ratio (y) = 0.38258 0.35728
# Poissons Ratio (z) = 0.39076 0.24442
#
# Static dielectric constant tensor:
#      x y z
#    x 3.416640 0.000000 0.029400 
#    y 0.000000 3.512290 0.000000 
#    z 0.029400 0.000000 3.582160 
# 
# 
# High freq. dielectric constant tensor:
#      x y z
#    x 1.710060 0.000000 0.004930 
#    y 0.000000 1.722210 0.000000 
#    z 0.004930 0.000000 1.722100 
# 
# From -- ./inp_files/38395.got.cif
#   From: 2010.06.25/outbox.cif.g09.slc.cpg/sg11_20_cif.got.tgz:38395.got - 2010.06.27 23:14:04.
