data_PCOD8071918
_publ_section_title
;
Structure prediction by ZEFSAII (Michael W. Deem and Ramdas Pophale) SiO2 
 PCOD8071918
Probable space group: P 21/M
;
_chemical_formula_sum "Si O2"
_cell_formula_units_Z 32
_cell_length_a 18.147915
_cell_length_b 9.197609
_cell_length_c 14.328661
_cell_angle_alpha 90.000000
_cell_angle_beta 43.252532
_cell_angle_gamma 90.000000
_cell_volume 1638.831345
_symmetry_space_group_name_H-M "P 21/M"
_symmetry_group_IT_number 11
_symmetry_cell_setting 'monoclinic'
loop_
_space_group_symop_operation_xyz
x,y,z
-x,1/2+y,-z
-x,-y,-z
x,1/2-y,z
loop_
_atom_site_type_symbol
_atom_site_label
_atom_site_fract_x
_atom_site_fract_y
_atom_site_fract_z
Si Si1 0.100650 0.422441 0.362097
Si Si2 0.861345 0.919615 0.884633
Si Si3 0.508540 0.580631 0.896749
Si Si4 0.737204 0.578389 0.631045
Si Si5 0.231253 0.079182 0.601041
Si Si6 0.041282 0.921516 0.869568
Si Si7 0.525312 0.579992 0.570726
Si Si8 0.648187 0.419253 0.118961
O O1 0.082770 0.250000 0.381614
O O2 0.118178 0.476771 0.239707
O O3 0.200888 0.473608 0.333293
O O4 0.000000 0.500000 0.500000
O O5 0.836017 0.750000 0.905839
O O6 0.963551 0.956270 0.854262
O O7 0.759477 0.996195 0.025825
O O8 0.521464 0.750000 0.905172
O O9 0.614847 0.521223 0.746378
O O10 0.500000 0.500000 0.000000
O O11 0.402526 0.547596 0.935115
O O12 0.735399 0.750000 0.627942
O O13 0.792773 0.526208 0.483277
O O14 0.206773 0.250000 0.638481
O O15 0.355054 0.042119 0.506651
O O16 0.158137 0.985550 0.737912
O O17 0.050090 0.750000 0.880411
O O18 0.000000 0.000000 0.000000
O O19 0.500000 0.500000 0.500000
O O20 0.512800 0.750000 0.566414
O O21 0.437770 0.525024 0.726210
O O22 0.672607 0.250000 0.109807
#
# Coordination Sequence:
#
# PCOD8071918 Si02
#       8
#     4   4   4   4   4   4   4   4
#     4  10  20  35  57  84 113 149 191 234 284 342
#     4  10  23  41  59  85 121 156 192 242 297 347
#     4  10  19  34  55  82 116 154 194 233 278 336
#     4   9  17  33  58  82 110 150 187 222 278 345
#     4  10  20  39  64  88 117 152 194 242 292 349
#     4  11  25  43  62  86 117 153 196 246 297 349
#     4  10  22  39  60  88 119 153 195 245 296 349
#     4  10  21  38  60  87 120 156 196 240 286 348
#
# _framework density 19.526109000000002
#
# number of rings (size 3 to 8) (size 9 to 14) (size 15 to 20)
#    0.000    2.000    1.250    1.875    1.750    4.000 
#    0.000    1.250    0.000    0.000    0.000    0.000 
#    0.000    0.000    0.000    0.000    0.000    0.000 
#
# Total GULP energy -396787.890256 kJ/mol
# GULP energy per Si atom -12399.621571 kJ/mol
# Density = 1.948167 g / cm^3
# Si number density = 19.526109 Si / 1000 Ang^3
#
#
#
# Elastic Constant Matrix: (Units=GPa)
#
#
# Indices 1 2 3 4 5 6 
#
# 1 103.2209 42.1721 50.5214 0.0000 16.0923 0.0000
# 2 42.1721 47.6603 48.5087 0.0000 1.2054 0.0000
# 3 50.5214 48.5087 145.9916 0.0000 6.3542 0.0000
# 4 0.0000 0.0000 0.0000 37.0421 0.0000 0.3456
# 5 16.0923 1.2054 6.3542 0.0000 38.1762 0.0000
# 6 0.0000 0.0000 0.0000 0.3456 0.0000 30.6721
#
#
#
# Elastic Compliance Matrix: (Units=1/GPa)
#
#
# Indices 1 2 3 4 5 6 
#
# 1 0.016761 -0.013675 -0.000975 0.000000 -0.006471 0.000000
# 2 -0.013675 0.042883 -0.009779 0.000000 0.006038 0.000000
# 3 -0.000975 -0.009779 0.010481 0.000000 -0.001025 0.000000
# 4 0.000000 0.000000 0.000000 0.026999 0.000000 -0.000304
# 5 -0.006471 0.006038 -0.001025 0.000000 0.028902 0.000000
# 6 0.000000 0.000000 0.000000 -0.000304 0.000000 0.032606
#
#
# Mechanical properties :
#
#
# Convention : Reuss Voigt Hill
#
# Bulk Modulus (GPa) = 47.02194 64.36414 55.69304
# Shear Modulus (GPa) = 23.30137 31.55613 27.42875
#
# Velocity S-wave (km/s) = 3.45823 4.02443 3.75203
# Velocity P-wave (km/s) = 6.33085 7.39117 6.88146
#
# Compressibility (1/GPa) = 0.02126667
#
# Stress axis : x y z
#
# Youngs Moduli (GPa) = 59.66184 23.31933 95.41139
#
# Poissons Ratio (x) = 0.31890 0.09300
# Poissons Ratio (y) = 0.81589 0.93304
# Poissons Ratio (z) = 0.05816 0.22804
#
# Static dielectric constant tensor:
#      x y z
#    x 4.061590 0.000000 0.077950 
#    y 0.000000 3.344640 0.000000 
#    z 0.077950 0.000000 3.594450 
# 
# 
# High freq. dielectric constant tensor:
#      x y z
#    x 1.773060 0.000000 0.002630 
#    y 0.000000 1.737070 0.000000 
#    z 0.002630 0.000000 1.773760 
# 
# From -- ./inp_files/53623.got.cif
#   From: 2010.06.25/outbox.cif.g09.slc.cpg/sg11_27_cif.got.tgz:53623.got - 2010.06.27 23:14:04.
