data_PCOD8071048
_publ_section_title
;
Structure prediction by ZEFSAII (Michael W. Deem and Ramdas Pophale) SiO2 
 PCOD8071048
Probable space group: P 21/M
;
_chemical_formula_sum "Si O2"
_cell_formula_units_Z 32
_cell_length_a 22.377489
_cell_length_b 9.040691
_cell_length_c 14.176758
_cell_angle_alpha 90.000000
_cell_angle_beta 143.059918
_cell_angle_gamma 90.000000
_cell_volume 1723.651922
_symmetry_space_group_name_H-M "P 21/M"
_symmetry_group_IT_number 11
_symmetry_cell_setting 'monoclinic'
loop_
_space_group_symop_operation_xyz
x,y,z
-x,1/2+y,-z
-x,-y,-z
x,1/2-y,z
loop_
_atom_site_type_symbol
_atom_site_label
_atom_site_fract_x
_atom_site_fract_y
_atom_site_fract_z
Si Si1 0.089591 0.578876 0.943529
Si Si2 0.318686 0.576313 0.928125
Si Si3 0.863397 0.578053 0.660807
Si Si4 0.606562 0.924715 0.629755
Si Si5 0.477767 0.418553 0.877673
Si Si6 0.755951 0.923172 0.983590
Si Si7 0.728773 0.919370 0.324322
Si Si8 0.763272 0.422061 0.703348
O O1 0.094414 0.750000 0.920340
O O2 0.976712 0.524224 0.812014
O O3 0.140825 0.485275 0.925958
O O4 0.144141 0.548788 0.110841
O O5 0.298959 0.750000 0.913866
O O6 0.277909 0.525475 0.774375
O O7 0.437210 0.533795 0.090769
O O8 0.259618 0.493114 0.934266
O O9 0.852495 0.750000 0.675442
O O10 0.829152 0.550936 0.509428
O O11 0.794382 0.480728 0.640901
O O12 0.594481 0.750000 0.600581
O O13 0.665370 0.964733 0.799691
O O14 0.500000 0.000000 0.500000
O O15 0.666268 0.989876 0.616103
O O16 0.500195 0.250000 0.927513
O O17 0.360819 0.446719 0.710559
O O18 0.500000 0.500000 0.000000
O O19 0.766973 0.750000 0.009417
O O20 0.723648 0.750000 0.281578
O O21 0.735314 0.250000 0.662071
#
# Coordination Sequence:
#
# PCOD8071048 Si02
#       8
#     4   4   4   4   4   4   4   4
#     4   9  19  36  55  76 103 135 174 219 265 314
#     4  10  19  32  52  76 103 138 177 214 255 308
#     4  10  20  34  54  79 106 137 173 218 270 316
#     4  10  21  37  56  80 111 142 174 215 260 308
#     4   8  15  28  46  68  94 126 161 197 241 292
#     4  10  21  36  55  78 103 136 177 217 259 310
#     4   9  18  33  51  74 105 136 170 214 261 308
#     4  10  20  34  54  79 107 140 176 214 259 314
#
# _framework density 18.565232000000002
#
# number of rings (size 3 to 8) (size 9 to 14) (size 15 to 20)
#    0.000    2.500    0.000    1.875    0.000    4.500 
#    0.000    1.875    0.000    0.000    0.000    0.000 
#    0.000    0.000    0.000    0.000    0.000    0.000 
#
# Total GULP energy -396623.279311 kJ/mol
# GULP energy per Si atom -12394.477478 kJ/mol
# Density = 1.852298 g / cm^3
# Si number density = 18.565232 Si / 1000 Ang^3
#
#
#
# Elastic Constant Matrix: (Units=GPa)
#
#
# Indices 1 2 3 4 5 6 
#
# 1 119.3307 52.2503 40.7970 0.0000 5.0299 0.0000
# 2 52.2503 71.3079 31.5464 0.0000 6.5063 0.0000
# 3 40.7970 31.5464 74.0675 0.0000 15.9010 0.0000
# 4 0.0000 0.0000 0.0000 24.3340 0.0000 0.4300
# 5 5.0299 6.5063 15.9010 0.0000 24.5045 0.0000
# 6 0.0000 0.0000 0.0000 0.4300 0.0000 34.1267
#
#
#
# Elastic Compliance Matrix: (Units=1/GPa)
#
#
# Indices 1 2 3 4 5 6 
#
# 1 0.013291 -0.007999 -0.004397 0.000000 0.002249 0.000000
# 2 -0.007999 0.022095 -0.004761 0.000000 -0.001135 0.000000
# 3 -0.004397 -0.004761 0.020316 0.000000 -0.011016 0.000000
# 4 0.000000 0.000000 0.000000 0.041104 0.000000 -0.000518
# 5 0.002249 -0.001135 -0.011016 0.000000 0.047797 0.000000
# 6 0.000000 0.000000 0.000000 -0.000518 0.000000 0.029309
#
#
# Mechanical properties :
#
#
# Convention : Reuss Voigt Hill
#
# Bulk Modulus (GPa) = 46.75445 57.09928 51.92687
# Shear Modulus (GPa) = 23.21769 25.93388 24.57578
#
# Velocity S-wave (km/s) = 3.54022 3.74157 3.64229
# Velocity P-wave (km/s) = 6.47684 7.03482 6.76158
#
# Compressibility (1/GPa) = 0.02138834
#
# Stress axis : x y z
#
# Youngs Moduli (GPa) = 75.24007 45.26006 49.22329
#
# Poissons Ratio (x) = 0.36203 0.21641
# Poissons Ratio (y) = 0.60183 0.23434
# Poissons Ratio (z) = 0.33080 0.21548
#
# Static dielectric constant tensor:
#      x y z
#    x 3.524650 0.000000 0.442180 
#    y 0.000000 3.453950 0.000000 
#    z 0.442180 0.000000 3.720800 
# 
# 
# High freq. dielectric constant tensor:
#      x y z
#    x 1.717110 0.000000 0.012690 
#    y 0.000000 1.725930 0.000000 
#    z 0.012690 0.000000 1.709200 
# 
# From -- ./inp_files/54323.got.cif
#   From: 2010.06.25/outbox.cif.g09.slc.cpg/sg11_28_cif.got.tgz:54323.got - 2010.06.27 23:14:04.
