data_PCOD8071186
_publ_section_title
;
Structure prediction by ZEFSAII (Michael W. Deem and Ramdas Pophale) SiO2 
 PCOD8071186
Probable space group: P 21/M
;
_chemical_formula_sum "Si O2"
_cell_formula_units_Z 32
_cell_length_a 28.611664
_cell_length_b 8.868908
_cell_length_c 12.162649
_cell_angle_alpha 90.000000
_cell_angle_beta 145.482590
_cell_angle_gamma 90.000000
_cell_volume 1748.885654
_symmetry_space_group_name_H-M "P 21/M"
_symmetry_group_IT_number 11
_symmetry_cell_setting 'monoclinic'
loop_
_space_group_symop_operation_xyz
x,y,z
-x,1/2+y,-z
-x,-y,-z
x,1/2-y,z
loop_
_atom_site_type_symbol
_atom_site_label
_atom_site_fract_x
_atom_site_fract_y
_atom_site_fract_z
Si Si1 0.379878 0.574672 0.984284
Si Si2 0.250465 0.921898 0.908409
Si Si3 0.246188 0.425766 0.574853
Si Si4 0.881452 0.575769 0.490809
Si Si5 0.473926 0.572726 0.835228
Si Si6 0.286338 0.926715 0.436695
Si Si7 0.198024 0.576653 0.043318
Si Si8 0.027000 0.072788 0.666729
O O1 0.396832 0.750000 0.998169
O O2 0.466333 0.486948 0.145779
O O3 0.338394 0.540811 0.022386
O O4 0.320460 0.519523 0.771713
O O5 0.224877 0.750000 0.829534
O O6 0.180525 0.032102 0.727269
O O7 0.257222 0.945478 0.052122
O O8 0.269041 0.250000 0.624162
O O9 0.160937 0.457953 0.473967
O O10 0.234898 0.481770 0.428489
O O11 0.904053 0.750000 0.520867
O O12 0.965002 0.479892 0.643056
O O13 0.483136 0.750000 0.863651
O O14 0.381683 0.524704 0.624735
O O15 0.500000 0.500000 0.000000
O O16 0.275365 0.750000 0.437399
O O17 0.250539 0.975129 0.249739
O O18 0.169464 0.750000 0.997940
O O19 0.118112 0.473658 0.878368
O O20 0.022098 0.250000 0.643215
O O21 0.000000 0.000000 0.500000
#
# Coordination Sequence:
#
# PCOD8071186 Si02
#       8
#     4   4   4   4   4   4   4   4
#     4  10  19  32  53  82 111 142 183 231 278 328
#     4   9  18  33  55  80 109 145 183 225 278 329
#     4  10  20  34  55  82 112 145 184 230 278 327
#     4  10  20  34  55  84 113 142 181 231 279 325
#     4  11  21  34  54  82 111 146 186 232 279 327
#     4  10  22  38  57  80 112 150 188 228 280 337
#     4  10  21  39  59  81 111 149 187 230 279 330
#     4  12  23  36  57  86 114 145 185 230 274 327
#
# _framework density 18.297364999999999
#
# number of rings (size 3 to 8) (size 9 to 14) (size 15 to 20)
#    0.000    1.750    2.500    2.625    0.000    3.000 
#    0.000    1.250    0.000    0.000    0.000    0.000 
#    0.000    0.000    0.000    0.000    0.000    0.000 
#
# Total GULP energy -396886.922163 kJ/mol
# GULP energy per Si atom -12402.716318 kJ/mol
# Density = 1.825572 g / cm^3
# Si number density = 18.297365 Si / 1000 Ang^3
#
#
#
# Elastic Constant Matrix: (Units=GPa)
#
#
# Indices 1 2 3 4 5 6 
#
# 1 148.7714 56.8909 69.4812 0.0000 0.6694 0.0000
# 2 56.8909 93.3528 49.5030 0.0000 4.5365 0.0000
# 3 69.4812 49.5030 106.7349 0.0000 -1.6387 0.0000
# 4 0.0000 0.0000 0.0000 24.5701 0.0000 5.0767
# 5 0.6694 4.5365 -1.6387 0.0000 29.1540 0.0000
# 6 0.0000 0.0000 0.0000 5.0767 0.0000 31.6251
#
#
#
# Elastic Compliance Matrix: (Units=1/GPa)
#
#
# Indices 1 2 3 4 5 6 
#
# 1 0.010538 -0.003696 -0.005145 0.000000 0.000044 0.000000
# 2 -0.003696 0.015699 -0.004916 0.000000 -0.002634 0.000000
# 3 -0.005145 -0.004916 0.015025 0.000000 0.001728 0.000000
# 4 0.000000 0.000000 0.000000 0.042096 0.000000 -0.006758
# 5 0.000044 -0.002634 0.001728 0.000000 0.034807 0.000000
# 6 0.000000 0.000000 0.000000 -0.006758 0.000000 0.032705
#
#
# Mechanical properties :
#
#
# Convention : Reuss Voigt Hill
#
# Bulk Modulus (GPa) = 72.73550 77.84548 75.29049
# Shear Modulus (GPa) = 27.32762 28.60210 27.96486
#
# Velocity S-wave (km/s) = 3.86881 3.95800 3.91366
# Velocity P-wave (km/s) = 7.73273 7.97024 7.85238
#
# Compressibility (1/GPa) = 0.01374844
#
# Stress axis : x y z
#
# Youngs Moduli (GPa) = 94.89776 63.69825 66.55721
#
# Poissons Ratio (x) = 0.23541 0.34244
# Poissons Ratio (y) = 0.35071 0.32718
# Poissons Ratio (z) = 0.48825 0.31313
#
# Static dielectric constant tensor:
#      x y z
#    x 3.762000 0.000000 0.143980 
#    y 0.000000 3.437140 0.000000 
#    z 0.143980 0.000000 3.147080 
# 
# 
# High freq. dielectric constant tensor:
#      x y z
#    x 1.727110 0.000000 0.010220 
#    y 0.000000 1.717490 0.000000 
#    z 0.010220 0.000000 1.673340 
# 
# From -- ./inp_files/45382.got.cif
#   From: 2010.06.25/outbox.cif.g09.slc.cpg/sg11_23_cif.got.tgz:45382.got - 2010.06.27 23:14:04.
