data_PCOD8071240
_publ_section_title
;
Structure prediction by ZEFSAII (Michael W. Deem and Ramdas Pophale) SiO2 
 PCOD8071240
Probable space group: P 21/M
;
_chemical_formula_sum "Si O2"
_cell_formula_units_Z 32
_cell_length_a 7.793592
_cell_length_b 20.706188
_cell_length_c 10.505690
_cell_angle_alpha 90.000000
_cell_angle_beta 109.404405
_cell_angle_gamma 90.000000
_cell_volume 1599.060391
_symmetry_space_group_name_H-M "P 21/M"
_symmetry_group_IT_number 11
_symmetry_cell_setting 'monoclinic'
loop_
_space_group_symop_operation_xyz
x,y,z
-x,1/2+y,-z
-x,-y,-z
x,1/2-y,z
loop_
_atom_site_type_symbol
_atom_site_label
_atom_site_fract_x
_atom_site_fract_y
_atom_site_fract_z
Si Si1 0.040916 0.318763 0.858790
Si Si2 0.441834 0.325536 0.579724
Si Si3 0.508470 0.065879 0.077995
Si Si4 0.116647 0.444104 0.971669
Si Si5 0.448520 0.176443 0.872074
Si Si6 0.815596 0.177973 0.557344
Si Si7 0.897366 0.589200 0.511742
Si Si8 0.162615 0.990234 0.717957
O O1 0.040238 0.250000 0.932412
O O2 0.005603 0.376671 0.949817
O O3 0.231832 0.329158 0.833706
O O4 0.883129 0.318477 0.717862
O O5 0.395045 0.250000 0.563972
O O6 0.492900 0.344377 0.738020
O O7 0.604284 0.343109 0.521515
O O8 0.262487 0.362755 0.486660
O O9 0.666867 0.059410 0.222486
O O10 0.307131 0.069915 0.091663
O O11 0.546837 0.127348 0.994836
O O12 0.500000 0.000000 0.000000
O O13 0.148748 0.461730 0.832680
O O14 0.000000 0.500000 0.000000
O O15 0.515211 0.250000 0.916113
O O16 0.830250 0.250000 0.499241
O O17 0.930170 0.126358 0.506802
O O18 0.979806 0.552846 0.655841
O O19 0.810255 0.535261 0.398104
#
# Coordination Sequence:
#
# PCOD8071240 Si02
#       8
#     4   4   4   4   4   4   4   4
#     4   9  16  30  54  80 108 140 182 233 284 326
#     4  10  19  32  57  87 107 142 188 232 285 329
#     4   9  18  34  52  76 107 142 183 225 276 334
#     4  10  19  34  56  82 113 144 184 234 288 336
#     4   9  16  30  54  79 107 141 183 236 284 328
#     4  10  19  32  55  84 108 139 186 230 280 331
#     4  11  20  39  55  75 121 144 183 236 274 337
#     4  10  22  37  53  79 106 155 190 217 286 347
#
# _framework density 20.011749999999999
#
# number of rings (size 3 to 8) (size 9 to 14) (size 15 to 20)
#    0.000    2.250    2.500    1.875    0.000    3.000 
#    2.250    2.500    0.000    1.500    0.000    0.000 
#    0.000    0.000    0.000    0.000    0.000    0.000 
#
# Total GULP energy -396501.753412 kJ/mol
# GULP energy per Si atom -12390.679794 kJ/mol
# Density = 1.996620 g / cm^3
# Si number density = 20.011750 Si / 1000 Ang^3
#
#
#
# Elastic Constant Matrix: (Units=GPa)
#
#
# Indices 1 2 3 4 5 6 
#
# 1 70.6169 33.4264 21.5465 0.0000 19.6597 0.0000
# 2 33.4264 119.7815 26.7990 0.0000 13.4467 0.0000
# 3 21.5465 26.7990 60.2547 0.0000 28.0486 0.0000
# 4 0.0000 0.0000 0.0000 30.3939 0.0000 6.5689
# 5 19.6597 13.4467 28.0486 0.0000 21.3210 0.0000
# 6 0.0000 0.0000 0.0000 6.5689 0.0000 30.5863
#
#
#
# Elastic Compliance Matrix: (Units=1/GPa)
#
#
# Indices 1 2 3 4 5 6 
#
# 1 0.021320 -0.004494 0.005693 0.000000 -0.024314 0.000000
# 2 -0.004494 0.010228 -0.004820 0.000000 0.004034 0.000000
# 3 0.005693 -0.004820 0.045748 0.000000 -0.062394 0.000000
# 4 0.000000 0.000000 0.000000 0.034503 0.000000 -0.007410
# 5 -0.024314 0.004034 -0.062394 0.000000 0.148859 0.000000
# 6 0.000000 0.000000 0.000000 -0.007410 0.000000 0.034286
#
#
# Mechanical properties :
#
#
# Convention : Reuss Voigt Hill
#
# Bulk Modulus (GPa) = 14.27442 46.02190 30.14816
# Shear Modulus (GPa) = 15.35922 27.71896 21.53909
#
# Velocity S-wave (km/s) = 2.77340 3.72578 3.28429
# Velocity P-wave (km/s) = 4.17183 6.44639 5.42955
#
# Compressibility (1/GPa) = 0.07005537
#
# Stress axis : x y z
#
# Youngs Moduli (GPa) = 46.90425 97.76969 21.85870
#
# Poissons Ratio (x) = 0.43936 -0.12444
# Poissons Ratio (y) = 0.21078 0.10536
# Poissons Ratio (z) = -0.26703 0.47123
#
# Static dielectric constant tensor:
#      x y z
#    x 3.035690 0.000000 0.760720 
#    y 0.000000 4.065680 0.000000 
#    z 0.760720 0.000000 3.432950 
# 
# 
# High freq. dielectric constant tensor:
#      x y z
#    x 1.765460 0.000000 0.029600 
#    y 0.000000 1.801680 0.000000 
#    z 0.029600 0.000000 1.738030 
# 
# From -- ./inp_files/32673.got.cif
#   From: 2010.06.25/outbox.cif.g09.slc.cpg/sg11_17_cif.got.tgz:32673.got - 2010.06.27 23:14:04.
