data_PCOD8071941
_publ_section_title
;
Structure prediction by ZEFSAII (Michael W. Deem and Ramdas Pophale) SiO2 
 PCOD8071941
Probable space group: P 21/M
;
_chemical_formula_sum "Si O2"
_cell_formula_units_Z 28
_cell_length_a 31.388773
_cell_length_b 8.718885
_cell_length_c 31.398863
_cell_angle_alpha 90.000000
_cell_angle_beta 9.467050
_cell_angle_gamma 90.000000
_cell_volume 1413.394217
_symmetry_space_group_name_H-M "P 21/M"
_symmetry_group_IT_number 11
_symmetry_cell_setting 'monoclinic'
loop_
_space_group_symop_operation_xyz
x,y,z
-x,1/2+y,-z
-x,-y,-z
x,1/2-y,z
loop_
_atom_site_type_symbol
_atom_site_label
_atom_site_fract_x
_atom_site_fract_y
_atom_site_fract_z
Si Si1 0.974500 0.069275 0.978872
Si Si2 0.141985 0.431312 0.195351
Si Si3 0.551961 0.568770 0.545992
Si Si4 0.125131 0.431946 0.114803
Si Si5 0.260758 0.071015 0.260327
Si Si6 0.599895 0.432257 0.591415
Si Si7 0.338745 0.070873 0.281816
O O1 0.978206 0.250000 0.979983
O O2 0.210649 0.011345 0.716969
O O3 0.709738 0.011824 0.218536
O O4 0.000000 0.000000 0.000000
O O5 0.093743 0.250000 0.246790
O O6 0.149652 0.487635 0.139052
O O7 0.909559 0.520548 0.446701
O O8 0.412985 0.473203 0.949540
O O9 0.555494 0.750000 0.549251
O O10 0.572330 0.488478 0.570931
O O11 0.125584 0.250000 0.112620
O O12 0.863061 0.497840 0.352451
O O13 0.364860 0.498439 0.851432
O O14 0.256473 0.250000 0.255497
O O15 0.282236 0.033038 0.288717
O O16 0.000000 0.000000 0.500000
O O17 0.500000 0.000000 0.000000
O O18 0.599447 0.250000 0.592102
O O19 0.394492 0.250000 0.234246
#
# Coordination Sequence:
#
# PCOD8071941 Si02
#       7
#     4   4   4   4   4   4   4
#     4  10  21  36  54  75 103 136 171 214 262 311
#     4  11  22  39  64  89 115 156 203 242 284 347
#     4  10  21  36  52  76 108 137 168 215 267 314
#     4   9  19  35  55  81 111 140 181 234 276 312
#     4  11  24  41  62  87 119 156 195 242 294 347
#     4  10  19  34  56  79 105 141 180 221 269 322
#     4  11  24  41  59  87 125 156 187 242 304 347
#
# _framework density 19.810468
#
# number of rings (size 3 to 8) (size 9 to 14) (size 15 to 20)
#    0.000    1.714    0.000    4.286    0.000    9.143 
#    0.000    4.286    0.000    0.000    0.000    0.000 
#    0.000    0.000    0.000    0.000    0.000    0.000 
#
# Total GULP energy -347337.217767 kJ/mol
# GULP energy per Si atom -12404.900635 kJ/mol
# Density = 1.976538 g / cm^3
# Si number density = 19.810468 Si / 1000 Ang^3
#
#
#
# Elastic Constant Matrix: (Units=GPa)
#
#
# Indices 1 2 3 4 5 6 
#
# 1 196.0819 44.7681 102.2345 0.0000 5.0357 0.0000
# 2 44.7681 33.6524 25.9630 0.0000 0.3437 0.0000
# 3 102.2345 25.9630 197.1718 0.0000 3.7487 0.0000
# 4 0.0000 0.0000 0.0000 23.5958 0.0000 2.7415
# 5 5.0357 0.3437 3.7487 0.0000 47.0572 0.0000
# 6 0.0000 0.0000 0.0000 2.7415 0.0000 36.2345
#
#
#
# Elastic Compliance Matrix: (Units=1/GPa)
#
#
# Indices 1 2 3 4 5 6 
#
# 1 0.009055 -0.009380 -0.003448 0.000000 -0.000626 0.000000
# 2 -0.009380 0.042792 -0.000786 0.000000 0.000754 0.000000
# 3 -0.003448 -0.000786 0.006967 0.000000 -0.000180 0.000000
# 4 0.000000 0.000000 0.000000 0.042756 0.000000 -0.003235
# 5 -0.000626 0.000754 -0.000180 0.000000 0.021327 0.000000
# 6 0.000000 0.000000 0.000000 -0.003235 0.000000 0.027843
#
#
# Mechanical properties :
#
#
# Convention : Reuss Voigt Hill
#
# Bulk Modulus (GPa) = 31.65897 85.87081 58.76489
# Shear Modulus (GPa) = 26.52585 38.30688 32.41636
#
# Velocity S-wave (km/s) = 3.66318 4.40212 4.04954
# Velocity P-wave (km/s) = 5.82301 8.32337 7.18283
#
# Compressibility (1/GPa) = 0.03158662
#
# Stress axis : x y z
#
# Youngs Moduli (GPa) = 110.43168 23.36891 143.54345
#
# Poissons Ratio (x) = 0.21919 0.49498
# Poissons Ratio (y) = 1.03582 0.11277
# Poissons Ratio (z) = 0.38080 0.01836
#
# Static dielectric constant tensor:
#      x y z
#    x 3.751190 0.000000 0.043560 
#    y 0.000000 3.450900 0.000000 
#    z 0.043560 0.000000 3.264740 
# 
# 
# High freq. dielectric constant tensor:
#      x y z
#    x 1.792210 0.000000 0.000200 
#    y 0.000000 1.756980 0.000000 
#    z 0.000200 0.000000 1.796390 
# 
# From -- ./inp_files/9632.got.cif
#   From: 2010.06.25/outbox.cif.g09.slc.cpg/sg11_5_cif.got.tgz:9632.got - 2010.06.27 23:14:04.
