data_PCOD8071626
_publ_section_title
;
Structure prediction by ZEFSAII (Michael W. Deem and Ramdas Pophale) SiO2 
 PCOD8071626
Probable space group: P 21/M
;
_chemical_formula_sum "Si O2"
_cell_formula_units_Z 32
_cell_length_a 8.975280
_cell_length_b 23.400454
_cell_length_c 15.174463
_cell_angle_alpha 90.000000
_cell_angle_beta 32.290296
_cell_angle_gamma 90.000000
_cell_volume 1702.538609
_symmetry_space_group_name_H-M "P 21/M"
_symmetry_group_IT_number 11
_symmetry_cell_setting 'monoclinic'
loop_
_space_group_symop_operation_xyz
x,y,z
-x,1/2+y,-z
-x,-y,-z
x,1/2-y,z
loop_
_atom_site_type_symbol
_atom_site_label
_atom_site_fract_x
_atom_site_fract_y
_atom_site_fract_z
Si Si1 0.319332 0.625466 0.498631
Si Si2 0.321647 0.393752 0.985365
Si Si3 0.324008 0.315553 0.822925
Si Si4 0.675987 0.315554 0.146936
Si Si5 0.323412 0.999573 0.236129
Si Si6 0.319336 0.374532 0.182029
Si Si7 0.676604 0.999567 0.559539
Si Si8 0.321661 0.606246 0.692979
O O1 0.508914 0.668068 0.348103
O O2 0.409924 0.560194 0.437405
O O3 0.359733 0.639702 0.581632
O O4 0.999996 0.634429 0.628389
O O5 0.428182 0.352886 0.853764
O O6 0.498396 0.451429 0.901296
O O7 0.359715 0.360293 0.058637
O O8 0.999994 0.410901 0.132607
O O9 0.383712 0.250000 0.816573
O O10 1.000000 0.326387 0.965868
O O11 0.616287 0.250000 0.200284
O O12 0.508914 0.331934 0.142985
O O13 0.571807 0.352888 0.281952
O O14 0.409924 0.060194 0.152640
O O15 0.401083 0.000016 0.299456
O O16 0.000013 0.985682 0.381946
O O17 0.498411 0.951430 0.600292
#
# Coordination Sequence:
#
# PCOD8071626 Si02
#       8
#     4   4   4   4   4   4   4   4
#     4  10  21  37  57  83 111 144 182 221 271 328
#     4  10  21  36  57  83 110 143 183 223 270 326
#     4  10  22  39  56  77 107 142 182 229 274 317
#     4  10  22  39  56  77 107 142 182 229 274 317
#     4  10  19  33  55  83 116 145 176 222 273 325
#     4  10  21  37  57  83 111 144 182 221 271 328
#     4  10  19  33  55  83 116 145 176 222 273 325
#     4  10  21  36  57  83 110 143 183 223 270 326
#
# _framework density 18.795462000000001
#
# number of rings (size 3 to 8) (size 9 to 14) (size 15 to 20)
#    0.000    2.000    2.500    0.750    0.000    4.000 
#    0.000    2.500    0.000    0.000    0.000    0.000 
#    0.000    0.000    0.000    0.000    0.000    0.000 
#
# Total GULP energy -396937.231895 kJ/mol
# GULP energy per Si atom -12404.288497 kJ/mol
# Density = 1.875268 g / cm^3
# Si number density = 18.795462 Si / 1000 Ang^3
#
#
#
# Elastic Constant Matrix: (Units=GPa)
#
#
# Indices 1 2 3 4 5 6 
#
# 1 83.0178 27.1664 19.7551 0.0000 3.1882 0.0000
# 2 27.1664 75.0924 32.7553 0.0000 -5.6391 0.0000
# 3 19.7551 32.7553 68.3033 0.0000 11.6579 0.0000
# 4 0.0000 0.0000 0.0000 25.8635 0.0000 -4.8411
# 5 3.1882 -5.6391 11.6579 0.0000 21.4974 0.0000
# 6 0.0000 0.0000 0.0000 -4.8411 0.0000 21.0665
#
#
#
# Elastic Compliance Matrix: (Units=1/GPa)
#
#
# Indices 1 2 3 4 5 6 
#
# 1 0.013994 -0.004651 -0.001383 0.000000 -0.002546 0.000000
# 2 -0.004651 0.020442 -0.010459 0.000000 0.011724 0.000000
# 3 -0.001383 -0.010459 0.022579 0.000000 -0.014783 0.000000
# 4 0.000000 0.000000 0.000000 0.040402 0.000000 0.009285
# 5 -0.002546 0.011724 -0.014783 0.000000 0.057987 0.000000
# 6 0.000000 0.000000 0.000000 0.009285 0.000000 0.049602
#
#
# Mechanical properties :
#
#
# Convention : Reuss Voigt Hill
#
# Bulk Modulus (GPa) = 41.61343 42.86299 42.23821
# Shear Modulus (GPa) = 20.32499 23.46792 21.89645
#
# Velocity S-wave (km/s) = 3.29200 3.53738 3.41689
# Velocity P-wave (km/s) = 6.05292 6.28797 6.17156
#
# Compressibility (1/GPa) = 0.02403070
#
# Stress axis : x y z
#
# Youngs Moduli (GPa) = 71.45759 48.91872 44.28825
#
# Poissons Ratio (x) = 0.22751 0.06124
# Poissons Ratio (y) = 0.33233 0.46321
# Poissons Ratio (z) = 0.09881 0.51164
#
# Static dielectric constant tensor:
#      x y z
#    x 3.530460 0.000000 0.101550 
#    y 0.000000 3.312400 0.000000 
#    z 0.101550 0.000000 3.429740 
# 
# 
# High freq. dielectric constant tensor:
#      x y z
#    x 1.736350 0.000000 0.008140 
#    y 0.000000 1.720530 0.000000 
#    z 0.008140 0.000000 1.728280 
# 
# From -- ./inp_files/23363.got.cif
#   From: 2010.06.25/outbox.cif.g09.slc.cpg/sg11_12_cif.got.tgz:23363.got - 2010.06.27 23:14:04.
