data_PCOD8071529
_publ_section_title
;
Structure prediction by ZEFSAII (Michael W. Deem and Ramdas Pophale) SiO2 
 PCOD8071529
Probable space group: P 21/M
;
_chemical_formula_sum "Si O2"
_cell_formula_units_Z 32
_cell_length_a 11.863920
_cell_length_b 8.844055
_cell_length_c 14.972887
_cell_angle_alpha 90.000000
_cell_angle_beta 86.509713
_cell_angle_gamma 90.000000
_cell_volume 1568.118523
_symmetry_space_group_name_H-M "P 21/M"
_symmetry_group_IT_number 11
_symmetry_cell_setting 'monoclinic'
loop_
_space_group_symop_operation_xyz
x,y,z
-x,1/2+y,-z
-x,-y,-z
x,1/2-y,z
loop_
_atom_site_type_symbol
_atom_site_label
_atom_site_fract_x
_atom_site_fract_y
_atom_site_fract_z
Si Si1 0.876587 0.929467 0.998114
Si Si2 0.758152 0.072651 0.836388
Si Si3 0.561347 0.422931 0.578954
Si Si4 0.520772 0.429544 0.777613
Si Si5 0.819380 0.423563 0.520950
Si Si6 0.845710 0.421847 0.319549
Si Si7 0.723422 0.928156 0.166209
Si Si8 0.102286 0.421636 0.317449
O O1 0.889148 0.750000 0.001927
O O2 0.817213 0.974661 0.909389
O O3 0.797676 0.995008 0.081518
O O4 0.000000 0.000000 0.000000
O O5 0.769233 0.250000 0.857460
O O6 0.627782 0.019981 0.832407
O O7 0.820035 0.037600 0.740537
O O8 0.500000 0.500000 0.500000
O O9 0.524130 0.250000 0.577567
O O10 0.526015 0.496078 0.676270
O O11 0.694246 0.442516 0.563941
O O12 0.524456 0.250000 0.768542
O O13 0.406392 0.486804 0.831848
O O14 0.860755 0.250000 0.521899
O O15 0.826546 0.485168 0.419930
O O16 0.899758 0.525900 0.579177
O O17 0.801237 0.250000 0.314454
O O18 0.774778 0.526412 0.258004
O O19 0.976179 0.431076 0.285230
O O20 0.724610 0.750000 0.158857
O O21 0.147828 0.250000 0.307665
#
# Coordination Sequence:
#
# PCOD8071529 Si02
#       8
#     4   4   4   4   4   4   4   4
#     4  11  24  42  64  93 122 153 195 244 295 356
#     4  11  22  40  65  88 117 159 196 242 302 357
#     4  10  19  33  54  80 112 153 197 241 285 341
#     4   9  19  38  60  84 116 154 195 239 293 351
#     4  10  20  36  55  80 115 156 198 241 295 352
#     4  10  22  37  55  83 120 155 194 246 297 347
#     4  10  22  40  62  86 116 152 194 241 292 353
#     4  11  22  36  56  85 119 155 198 248 293 348
#
# _framework density 20.406623
#
# number of rings (size 3 to 8) (size 9 to 14) (size 15 to 20)
#    0.000    1.750    1.250    3.000    0.000    5.500 
#    0.000    1.250    0.000    0.000    0.000    0.000 
#    0.000    0.000    0.000    0.000    0.000    0.000 
#
# Total GULP energy -396855.418425 kJ/mol
# GULP energy per Si atom -12401.731826 kJ/mol
# Density = 2.036018 g / cm^3
# Si number density = 20.406623 Si / 1000 Ang^3
#
#
#
# Elastic Constant Matrix: (Units=GPa)
#
#
# Indices 1 2 3 4 5 6 
#
# 1 127.3219 30.6165 60.8090 0.0000 -1.3488 0.0000
# 2 30.6165 41.3413 18.6525 0.0000 1.0954 0.0000
# 3 60.8090 18.6525 115.8252 0.0000 0.9149 0.0000
# 4 0.0000 0.0000 0.0000 34.6299 0.0000 4.5395
# 5 -1.3488 1.0954 0.9149 0.0000 40.1802 0.0000
# 6 0.0000 0.0000 0.0000 4.5395 0.0000 23.1105
#
#
#
# Elastic Compliance Matrix: (Units=1/GPa)
#
#
# Indices 1 2 3 4 5 6 
#
# 1 0.011912 -0.006487 -0.005215 0.000000 0.000695 0.000000
# 2 -0.006487 0.029632 -0.001358 0.000000 -0.000995 0.000000
# 3 -0.005215 -0.001358 0.011593 0.000000 -0.000402 0.000000
# 4 0.000000 0.000000 0.000000 0.029640 0.000000 -0.005822
# 5 0.000695 -0.000995 -0.000402 0.000000 0.024947 0.000000
# 6 0.000000 0.000000 0.000000 -0.005822 0.000000 0.044414
#
#
# Mechanical properties :
#
#
# Convention : Reuss Voigt Hill
#
# Bulk Modulus (GPa) = 37.01341 56.07160 46.54250
# Shear Modulus (GPa) = 26.70003 31.21147 28.95575
#
# Velocity S-wave (km/s) = 3.62111 3.91510 3.77097
# Velocity P-wave (km/s) = 5.97164 6.92633 6.46663
#
# Compressibility (1/GPa) = 0.02701724
#
# Stress axis : x y z
#
# Youngs Moduli (GPa) = 83.94897 33.74673 86.25661
#
# Poissons Ratio (x) = 0.21893 0.44980
# Poissons Ratio (y) = 0.54462 0.11715
# Poissons Ratio (z) = 0.43776 0.04583
#
# Static dielectric constant tensor:
#      x y z
#    x 3.777730 0.000000 -0.176330 
#    y 0.000000 3.459060 0.000000 
#    z -0.176330 0.000000 3.787020 
# 
# 
# High freq. dielectric constant tensor:
#      x y z
#    x 1.809730 0.000000 -0.001760 
#    y 0.000000 1.776750 0.000000 
#    z -0.001760 0.000000 1.803370 
# 
# From -- ./inp_files/49387.got.cif
#   From: 2010.06.25/outbox.cif.g09.slc.cpg/sg11_25_cif.got.tgz:49387.got - 2010.06.27 23:14:04.
