data_PCOD8071876
_publ_section_title
;
Structure prediction by ZEFSAII (Michael W. Deem and Ramdas Pophale) SiO2 
 PCOD8071876
Probable space group: P 21/M
;
_chemical_formula_sum "Si O2"
_cell_formula_units_Z 32
_cell_length_a 12.280562
_cell_length_b 8.780653
_cell_length_c 21.321514
_cell_angle_alpha 90.000000
_cell_angle_beta 47.412941
_cell_angle_gamma 90.000000
_cell_volume 1692.732664
_symmetry_space_group_name_H-M "P 21/M"
_symmetry_group_IT_number 11
_symmetry_cell_setting 'monoclinic'
loop_
_space_group_symop_operation_xyz
x,y,z
-x,1/2+y,-z
-x,-y,-z
x,1/2-y,z
loop_
_atom_site_type_symbol
_atom_site_label
_atom_site_fract_x
_atom_site_fract_y
_atom_site_fract_z
Si Si1 0.497964 0.574904 0.805676
Si Si2 0.649267 0.580277 0.926525
Si Si3 0.346372 0.573254 0.737532
Si Si4 0.233092 0.418610 0.983752
Si Si5 0.617567 0.930195 0.407648
Si Si6 0.947616 0.570259 0.286555
Si Si7 0.231331 0.927428 0.237711
Si Si8 0.961681 0.930490 0.139669
O O1 0.488558 0.750000 0.828150
O O2 0.468541 0.549424 0.743841
O O3 0.665063 0.516493 0.753691
O O4 0.374728 0.491633 0.895375
O O5 0.627533 0.750000 0.905185
O O6 0.743300 0.596003 0.951871
O O7 0.720595 0.461062 0.851520
O O8 0.500000 0.500000 0.000000
O O9 0.318889 0.750000 0.733685
O O10 0.410558 0.491510 0.651184
O O11 0.194896 0.498797 0.821507
O O12 0.207598 0.250000 0.964706
O O13 0.082524 0.517543 0.040455
O O14 0.601164 0.750000 0.413033
O O15 0.780725 0.981597 0.367577
O O16 0.500000 0.000000 0.500000
O O17 0.957671 0.750000 0.278793
O O18 0.991234 0.509298 0.199676
O O19 0.058151 0.517292 0.300377
O O20 0.246280 0.750000 0.247925
O O21 0.950582 0.750000 0.142399
#
# Coordination Sequence:
#
# PCOD8071876 Si02
#       8
#     4   4   4   4   4   4   4   4
#     4  11  24  38  52  73 107 150 192 234 277 323
#     4  11  21  31  46  71 102 141 189 241 282 318
#     4  10  22  40  58  80 110 144 183 226 274 330
#     4  11  22  33  49  74 104 144 194 239 280 328
#     4  10  20  38  65  95 118 140 169 211 269 329
#     4   8  17  32  53  82 112 139 171 216 272 321
#     4  11  20  33  53  76 106 145 186 228 274 327
#     4  10  19  34  55  77 106 143 185 236 287 328
#
# _framework density 18.904343999999998
#
# number of rings (size 3 to 8) (size 9 to 14) (size 15 to 20)
#    0.000    1.750    2.500    3.375    0.000    3.500 
#    0.000    1.875    0.000    0.750    0.000    0.000 
#    0.000    0.000    0.000    0.000    0.000    0.000 
#
# Total GULP energy -396520.649520 kJ/mol
# GULP energy per Si atom -12391.270297 kJ/mol
# Density = 1.886132 g / cm^3
# Si number density = 18.904344 Si / 1000 Ang^3
#
#
#
# Elastic Constant Matrix: (Units=GPa)
#
#
# Indices 1 2 3 4 5 6 
#
# 1 122.1433 48.8041 51.4160 0.0000 -9.3399 0.0000
# 2 48.8041 100.4544 36.1705 0.0000 -5.4240 0.0000
# 3 51.4160 36.1705 86.0479 0.0000 -16.7786 0.0000
# 4 0.0000 0.0000 0.0000 25.4959 0.0000 -1.3620
# 5 -9.3399 -5.4240 -16.7786 0.0000 21.2799 0.0000
# 6 0.0000 0.0000 0.0000 -1.3620 0.0000 28.2790
#
#
#
# Elastic Compliance Matrix: (Units=1/GPa)
#
#
# Indices 1 2 3 4 5 6 
#
# 1 0.012085 -0.003853 -0.005624 0.000000 -0.000112 0.000000
# 2 -0.003853 0.012979 -0.003354 0.000000 -0.001027 0.000000
# 3 -0.005624 -0.003354 0.018604 0.000000 0.011345 0.000000
# 4 0.000000 0.000000 0.000000 0.039323 0.000000 0.001894
# 5 -0.000112 -0.001027 0.011345 0.000000 0.055627 0.000000
# 6 0.000000 0.000000 0.000000 0.001894 0.000000 0.035453
#
#
# Mechanical properties :
#
#
# Convention : Reuss Voigt Hill
#
# Bulk Modulus (GPa) = 55.53246 64.60297 60.06772
# Shear Modulus (GPa) = 24.30327 26.49462 25.39894
#
# Velocity S-wave (km/s) = 3.58940 3.74774 3.66942
# Velocity P-wave (km/s) = 6.82772 7.27840 7.05666
#
# Compressibility (1/GPa) = 0.01800748
#
# Stress axis : x y z
#
# Youngs Moduli (GPa) = 82.74645 77.04977 53.75263
#
# Poissons Ratio (x) = 0.29683 0.30228
# Poissons Ratio (y) = 0.31878 0.18028
# Poissons Ratio (z) = 0.46533 0.25842
#
# Static dielectric constant tensor:
#      x y z
#    x 3.710130 0.000000 -0.153820 
#    y 0.000000 3.853210 0.000000 
#    z -0.153820 0.000000 3.146720 
# 
# 
# High freq. dielectric constant tensor:
#      x y z
#    x 1.742850 0.000000 -0.013410 
#    y 0.000000 1.741520 0.000000 
#    z -0.013410 0.000000 1.694430 
# 
# From -- ./inp_files/64351.got.cif
#   From: 2010.06.25/outbox.cif.g09.slc.cpg/sg11_33_cif.got.tgz:64351.got - 2010.06.27 23:14:04.
