data_PCOD8071828
_publ_section_title
;
Structure prediction by ZEFSAII (Michael W. Deem and Ramdas Pophale) SiO2 
 PCOD8071828
Probable space group: P 21/M
;
_chemical_formula_sum "Si O2"
_cell_formula_units_Z 32
_cell_length_a 18.243898
_cell_length_b 18.648282
_cell_length_c 10.931633
_cell_angle_alpha 90.000000
_cell_angle_beta 150.068522
_cell_angle_gamma 90.000000
_cell_volume 1855.712362
_symmetry_space_group_name_H-M "P 21/M"
_symmetry_group_IT_number 11
_symmetry_cell_setting 'monoclinic'
loop_
_space_group_symop_operation_xyz
x,y,z
-x,1/2+y,-z
-x,-y,-z
x,1/2-y,z
loop_
_atom_site_type_symbol
_atom_site_label
_atom_site_fract_x
_atom_site_fract_y
_atom_site_fract_z
Si Si1 0.293618 0.047506 0.635877
Si Si2 0.805976 0.168459 0.967004
Si Si3 0.794336 0.043229 0.129080
Si Si4 0.102942 0.167698 0.262005
Si Si5 0.943879 0.332302 0.784816
Si Si6 0.459592 0.043229 0.124849
Si Si7 0.951358 0.047505 0.609099
Si Si8 0.644946 0.331541 0.483919
O O1 0.245078 0.121384 0.502411
O O2 0.400477 0.006362 0.698556
O O3 0.149787 0.000000 0.449360
O O4 0.375282 0.065430 0.879946
O O5 0.779368 0.250000 0.971586
O O6 0.707212 0.150508 0.707213
O O7 0.757693 0.116621 0.006477
O O8 0.976909 0.157142 0.181569
O O9 0.870618 0.065429 0.365954
O O10 0.897602 0.993638 0.195680
O O11 0.645060 0.000000 0.935179
O O12 0.153480 0.250000 0.330682
O O13 0.041948 0.143398 0.041948
O O14 0.976278 0.250000 0.799076
O O15 0.987744 0.378616 0.730412
O O16 0.772248 0.342858 0.567589
O O17 0.508909 0.116621 0.260126
O O18 0.587148 0.250000 0.394931
#
# Coordination Sequence:
#
# PCOD8071828 Si02
#       8
#     4   4   4   4   4   4   4   4
#     4  10  19  34  54  76 103 137 173 213 257 300
#     4   9  18  34  55  77 103 137 175 213 258 314
#     4  10  21  34  51  78 109 138 172 211 254 311
#     4   9  18  33  55  81 103 130 176 224 259 299
#     4   9  18  33  55  81 103 130 176 224 259 299
#     4  10  21  34  51  78 109 138 172 211 254 311
#     4  10  19  34  54  76 103 137 173 213 257 300
#     4   9  18  34  55  77 103 137 175 213 258 314
#
# _framework density 17.244050999999999
#
# number of rings (size 3 to 8) (size 9 to 14) (size 15 to 20)
#    0.000    2.500    2.500    1.500    0.000    3.000 
#    0.000    1.250    0.000    3.000    0.000    0.000 
#    0.000    0.000    0.000    0.000    0.000    0.000 
#
# Total GULP energy -396874.957635 kJ/mol
# GULP energy per Si atom -12402.342426 kJ/mol
# Density = 1.720480 g / cm^3
# Si number density = 17.244051 Si / 1000 Ang^3
#
#
#
# Elastic Constant Matrix: (Units=GPa)
#
#
# Indices 1 2 3 4 5 6 
#
# 1 86.6201 61.3124 41.6683 0.0000 8.3433 0.0000
# 2 61.3124 121.9715 64.9283 0.0000 -6.4136 0.0000
# 3 41.6683 64.9283 77.8762 0.0000 7.1596 0.0000
# 4 0.0000 0.0000 0.0000 34.8665 0.0000 -3.5784
# 5 8.3433 -6.4136 7.1596 0.0000 22.2205 0.0000
# 6 0.0000 0.0000 0.0000 -3.5784 0.0000 32.8478
#
#
#
# Elastic Compliance Matrix: (Units=1/GPa)
#
#
# Indices 1 2 3 4 5 6 
#
# 1 0.020253 -0.009726 -0.001824 0.000000 -0.009824 0.000000
# 2 -0.009726 0.021138 -0.013723 0.000000 0.014175 0.000000
# 3 -0.001824 -0.013723 0.026339 0.000000 -0.011762 0.000000
# 4 0.000000 0.000000 0.000000 0.029005 0.000000 0.003160
# 5 -0.009824 0.014175 -0.011762 0.000000 0.056573 0.000000
# 6 0.000000 0.000000 0.000000 0.003160 0.000000 0.030788
#
#
# Mechanical properties :
#
#
# Convention : Reuss Voigt Hill
#
# Bulk Modulus (GPa) = 58.19272 69.14286 63.66779
# Shear Modulus (GPa) = 20.80121 25.89089 23.34605
#
# Velocity S-wave (km/s) = 3.47693 3.87904 3.68348
# Velocity P-wave (km/s) = 7.06672 7.76185 7.42243
#
# Compressibility (1/GPa) = 0.01718428
#
# Stress axis : x y z
#
# Youngs Moduli (GPa) = 49.37540 47.30819 37.96598
#
# Poissons Ratio (x) = 0.46013 0.06926
# Poissons Ratio (y) = 0.48024 0.52099
# Poissons Ratio (z) = 0.09007 0.64919
#
# Static dielectric constant tensor:
#      x y z
#    x 3.088950 0.000000 -0.000280 
#    y 0.000000 3.149760 0.000000 
#    z -0.000280 0.000000 3.089100 
# 
# 
# High freq. dielectric constant tensor:
#      x y z
#    x 1.653800 0.000000 -0.006460 
#    y 0.000000 1.669990 0.000000 
#    z -0.006460 0.000000 1.657450 
# 
# From -- ./inp_files/41849.got.cif
#   From: 2010.06.25/outbox.cif.g09.slc.cpg/sg11_21_cif.got.tgz:41849.got - 2010.06.27 23:14:04.
