data_PCOD8071840
_publ_section_title
;
Structure prediction by ZEFSAII (Michael W. Deem and Ramdas Pophale) SiO2 
 PCOD8071840
Probable space group: P 21/M
;
_chemical_formula_sum "Si O2"
_cell_formula_units_Z 28
_cell_length_a 31.094698
_cell_length_b 8.687325
_cell_length_c 31.080659
_cell_angle_alpha 90.000000
_cell_angle_beta 9.477186
_cell_angle_gamma 90.000000
_cell_volume 1382.411132
_symmetry_space_group_name_H-M "P 21/M"
_symmetry_group_IT_number 11
_symmetry_cell_setting 'monoclinic'
loop_
_space_group_symop_operation_xyz
x,y,z
-x,1/2+y,-z
-x,-y,-z
x,1/2-y,z
loop_
_atom_site_type_symbol
_atom_site_label
_atom_site_fract_x
_atom_site_fract_y
_atom_site_fract_z
Si Si1 0.760765 0.430886 0.761505
Si Si2 0.396409 0.570329 0.265502
Si Si3 0.958124 0.067592 0.943901
Si Si4 0.875676 0.069089 0.745324
Si Si5 0.134484 0.931627 0.061369
Si Si6 0.341579 0.929374 0.419419
Si Si7 0.481943 0.433000 0.470648
O O1 0.759653 0.250000 0.756095
O O2 0.778980 0.476215 0.793416
O O3 0.000000 0.500000 0.500000
O O4 0.500000 0.500000 0.000000
O O5 0.412834 0.750000 0.240077
O O6 0.349514 0.532368 0.361385
O O7 0.162197 0.500665 0.468853
O O8 0.672171 0.496664 0.980503
O O9 0.960175 0.250000 0.942317
O O10 0.930835 0.009305 0.922092
O O11 0.721977 0.003541 0.205711
O O12 0.223749 0.002502 0.702193
O O13 0.897009 0.250000 0.730755
O O14 0.192027 0.750000 0.006098
O O15 0.387034 0.023332 0.827218
O O16 0.890890 0.969759 0.331890
O O17 0.287983 0.750000 0.480906
O O18 0.500000 0.500000 0.500000
O O19 0.481421 0.250000 0.473933
#
# Coordination Sequence:
#
# PCOD8071840 Si02
#       7
#     4   4   4   4   4   4   4
#     4  11  24  41  62  90 122 157 196 243 295 348
#     4  11  24  41  62  87 119 160 199 234 291 362
#     4   9  19  35  55  78 108 143 182 231 281 330
#     4  11  24  41  62  90 122 153 196 251 295 333
#     4  11  22  39  64  89 112 153 206 241 280 351
#     4  11  24  41  59  87 125 156 187 242 304 347
#     4  10  19  34  54  77 107 142 179 226 280 333
#
# _framework density 20.254467999999999
#
# number of rings (size 3 to 8) (size 9 to 14) (size 15 to 20)
#    0.000    1.429    0.000    5.143    0.000   13.714 
#    0.000    4.286    0.000    0.000    0.000    0.000 
#    0.000    0.000    0.000    0.000    0.000    0.000 
#
# Total GULP energy -347375.280923 kJ/mol
# GULP energy per Si atom -12406.260033 kJ/mol
# Density = 2.020837 g / cm^3
# Si number density = 20.254468 Si / 1000 Ang^3
#
#
#
# Elastic Constant Matrix: (Units=GPa)
#
#
# Indices 1 2 3 4 5 6 
#
# 1 126.9906 50.4296 42.5561 0.0000 -5.6483 0.0000
# 2 50.4296 50.4498 20.9321 0.0000 3.6612 0.0000
# 3 42.5561 20.9321 137.5992 0.0000 -2.8247 0.0000
# 4 0.0000 0.0000 0.0000 33.9609 0.0000 -0.3098
# 5 -5.6483 3.6612 -2.8247 0.0000 46.3762 0.0000
# 6 0.0000 0.0000 0.0000 -0.3098 0.0000 35.3306
#
#
#
# Elastic Compliance Matrix: (Units=1/GPa)
#
#
# Indices 1 2 3 4 5 6 
#
# 1 0.014015 -0.013260 -0.002264 0.000000 0.002616 0.000000
# 2 -0.013260 0.033866 -0.001140 0.000000 -0.004358 0.000000
# 3 -0.002264 -0.001140 0.008147 0.000000 0.000311 0.000000
# 4 0.000000 0.000000 0.000000 0.029448 0.000000 0.000258
# 5 0.002616 -0.004358 0.000311 0.000000 0.022244 0.000000
# 6 0.000000 0.000000 0.000000 0.000258 0.000000 0.028306
#
#
# Mechanical properties :
#
#
# Convention : Reuss Voigt Hill
#
# Bulk Modulus (GPa) = 44.05217 60.31948 52.18582
# Shear Modulus (GPa) = 28.26087 36.54166 32.40127
#
# Velocity S-wave (km/s) = 3.73941 4.25211 4.00398
# Velocity P-wave (km/s) = 6.35931 7.34525 6.86999
#
# Compressibility (1/GPa) = 0.02270036
#
# Stress axis : x y z
#
# Youngs Moduli (GPa) = 71.34990 29.52804 122.73823
#
# Poissons Ratio (x) = 0.39155 0.27784
# Poissons Ratio (y) = 0.94613 0.13994
# Poissons Ratio (z) = 0.16152 0.03367
#
# Static dielectric constant tensor:
#      x y z
#    x 3.924550 0.000000 -0.063730 
#    y 0.000000 5.451750 0.000000 
#    z -0.063730 0.000000 3.913330 
# 
# 
# High freq. dielectric constant tensor:
#      x y z
#    x 1.810040 0.000000 -0.000990 
#    y 0.000000 1.784990 0.000000 
#    z -0.000990 0.000000 1.811940 
# 
# From -- ./inp_files/73845.got.cif
#   From: 2010.06.25/outbox.cif.g09.slc.cpg/sg11_37_cif.got.tgz:73845.got - 2010.06.27 23:14:04.
