data_PCOD8071162
_publ_section_title
;
Structure prediction by ZEFSAII (Michael W. Deem and Ramdas Pophale) SiO2 
 PCOD8071162
Probable space group: P 21/M
;
_chemical_formula_sum "Si O2"
_cell_formula_units_Z 28
_cell_length_a 29.253112
_cell_length_b 9.096362
_cell_length_c 9.246331
_cell_angle_alpha 90.000000
_cell_angle_beta 38.228344
_cell_angle_gamma 90.000000
_cell_volume 1522.500701
_symmetry_space_group_name_H-M "P 21/M"
_symmetry_group_IT_number 11
_symmetry_cell_setting 'monoclinic'
loop_
_space_group_symop_operation_xyz
x,y,z
-x,1/2+y,-z
-x,-y,-z
x,1/2-y,z
loop_
_atom_site_type_symbol
_atom_site_label
_atom_site_fract_x
_atom_site_fract_y
_atom_site_fract_z
Si Si1 0.641673 0.577522 0.489333
Si Si2 0.500017 0.920679 0.651264
Si Si3 0.066623 0.421235 0.255571
Si Si4 0.630939 0.076364 0.817683
Si Si5 0.207128 0.912216 0.563249
Si Si6 0.065178 0.081266 0.918461
Si Si7 0.212330 0.584470 0.893887
O O1 0.657563 0.750000 0.468034
O O2 0.575581 0.543981 0.544889
O O3 0.619323 0.512217 0.699319
O O4 0.713666 0.499898 0.241872
O O5 0.490278 0.750000 0.645396
O O6 0.500000 0.000000 0.500000
O O7 0.431480 0.978003 0.917041
O O8 0.067910 0.250000 0.292669
O O9 0.000000 0.500000 0.500000
O O10 0.057295 0.445767 0.108163
O O11 0.141682 0.495240 0.127810
O O12 0.625415 0.250000 0.795974
O O13 0.710843 0.039588 0.691812
O O14 0.187383 0.750000 0.552967
O O15 0.209821 0.909918 0.728601
O O16 0.144263 0.022817 0.663972
O O17 0.060684 0.250000 0.887115
O O18 0.000000 0.000000 0.000000
O O19 0.211879 0.750000 0.959452
#
# Coordination Sequence:
#
# PCOD8071162 Si02
#       7
#     4   4   4   4   4   4   4
#     4  10  19  32  53  80 104 130 170 217 257 300
#     4  10  22  37  52  74 106 140 172 207 254 308
#     4  10  20  34  53  78 106 137 173 213 257 306
#     4   9  18  34  55  78 101 130 170 213 255 304
#     4   8  15  29  50  73  98 128 165 209 253 295
#     4  10  20  33  51  75 103 134 169 207 251 301
#     4   9  17  31  52  76 102 135 171 210 257 304
#
# _framework density 18.390796999999999
#
# number of rings (size 3 to 8) (size 9 to 14) (size 15 to 20)
#    0.000    2.571    0.000    3.000    0.000    6.857 
#    0.000    1.429    0.000    5.143    0.000    0.000 
#    0.000    0.000    0.000    0.000    0.000    0.000 
#
# Total GULP energy -347180.640985 kJ/mol
# GULP energy per Si atom -12399.308607 kJ/mol
# Density = 1.834894 g / cm^3
# Si number density = 18.390797 Si / 1000 Ang^3
#
#
#
# Elastic Constant Matrix: (Units=GPa)
#
#
# Indices 1 2 3 4 5 6 
#
# 1 90.2778 68.7605 59.1805 0.0000 -22.2953 0.0000
# 2 68.7605 131.0619 74.9106 0.0000 -19.6841 0.0000
# 3 59.1805 74.9106 141.3566 0.0000 -30.4503 0.0000
# 4 0.0000 0.0000 0.0000 32.9546 0.0000 -4.4280
# 5 -22.2953 -19.6841 -30.4503 0.0000 27.9150 0.0000
# 6 0.0000 0.0000 0.0000 -4.4280 0.0000 31.4003
#
#
#
# Elastic Compliance Matrix: (Units=1/GPa)
#
#
# Indices 1 2 3 4 5 6 
#
# 1 0.021229 -0.008375 -0.002705 0.000000 0.008099 0.000000
# 2 -0.008375 0.014321 -0.004377 0.000000 -0.001366 0.000000
# 3 -0.002705 -0.004377 0.012282 0.000000 0.008151 0.000000
# 4 0.000000 0.000000 0.000000 0.030931 0.000000 0.004362
# 5 0.008099 -0.001366 0.008151 0.000000 0.050220 0.000000
# 6 0.000000 0.000000 0.000000 0.004362 0.000000 0.032462
#
#
# Mechanical properties :
#
#
# Convention : Reuss Voigt Hill
#
# Bulk Modulus (GPa) = 59.10828 85.37773 72.24300
# Shear Modulus (GPa) = 25.25277 29.11031 27.18154
#
# Velocity S-wave (km/s) = 3.70958 3.98285 3.84864
# Velocity P-wave (km/s) = 7.11041 8.22653 7.68875
#
# Compressibility (1/GPa) = 0.01691810
#
# Stress axis : x y z
#
# Youngs Moduli (GPa) = 47.10436 69.82937 81.42067
#
# Poissons Ratio (x) = 0.58486 0.22022
# Poissons Ratio (y) = 0.39452 0.35636
# Poissons Ratio (z) = 0.12740 0.30562
#
# Static dielectric constant tensor:
#      x y z
#    x 3.223560 0.000000 -0.406000 
#    y 0.000000 3.562340 0.000000 
#    z -0.406000 0.000000 3.657100 
# 
# 
# High freq. dielectric constant tensor:
#      x y z
#    x 1.692120 0.000000 -0.030590 
#    y 0.000000 1.721990 0.000000 
#    z -0.030590 0.000000 1.713600 
# 
# From -- ./inp_files/28273.got.cif
#   From: 2010.06.25/outbox.cif.g09.slc.cpg/sg11_15_cif.got.tgz:28273.got - 2010.06.27 23:14:04.
