data_PCOD8071222
_publ_section_title
;
Structure prediction by ZEFSAII (Michael W. Deem and Ramdas Pophale) SiO2 
 PCOD8071222
Probable space group: P 21/M
;
_chemical_formula_sum "Si O2"
_cell_formula_units_Z 32
_cell_length_a 29.449259
_cell_length_b 9.281463
_cell_length_c 20.442983
_cell_angle_alpha 90.000000
_cell_angle_beta 18.881483
_cell_angle_gamma 90.000000
_cell_volume 1808.253087
_symmetry_space_group_name_H-M "P 21/M"
_symmetry_group_IT_number 11
_symmetry_cell_setting 'monoclinic'
loop_
_space_group_symop_operation_xyz
x,y,z
-x,1/2+y,-z
-x,-y,-z
x,1/2-y,z
loop_
_atom_site_type_symbol
_atom_site_label
_atom_site_fract_x
_atom_site_fract_y
_atom_site_fract_z
Si Si1 0.076340 0.582901 0.712174
Si Si2 0.358324 0.915322 0.622860
Si Si3 0.891122 0.917950 0.839125
Si Si4 0.359164 0.581550 0.119464
Si Si5 0.627245 0.416634 0.749542
Si Si6 0.058981 0.919169 0.481463
Si Si7 0.948084 0.080968 0.006994
Si Si8 0.368618 0.581688 0.759892
O O1 0.053955 0.750000 0.761906
O O2 0.239318 0.549412 0.477208
O O3 0.988926 0.543408 0.767014
O O4 0.029966 0.480368 0.833501
O O5 0.405927 0.750000 0.550863
O O6 0.331116 0.952585 0.735811
O O7 0.480166 0.015825 0.427791
O O8 0.217574 0.947789 0.774683
O O9 0.852957 0.750000 0.890863
O O10 0.972260 0.964937 0.663518
O O11 0.748299 0.008409 0.035753
O O12 0.384814 0.750000 0.078246
O O13 0.338985 0.535524 0.222417
O O14 0.220319 0.533623 0.270272
O O15 0.493132 0.502838 0.904980
O O16 0.588236 0.250000 0.800183
O O17 0.046872 0.750000 0.486342
O O18 0.000000 0.000000 0.500000
O O19 0.980158 0.250000 0.969065
O O20 0.000000 0.000000 0.000000
O O21 0.372343 0.750000 0.770141
#
# Coordination Sequence:
#
# PCOD8071222 Si02
#       8
#     4   4   4   4   4   4   4   4
#     4  10  19  34  57  82 108 142 183 225 270 321
#     4   9  19  35  53  78 111 143 175 218 271 323
#     4  10  19  34  56  80 109 144 182 224 273 323
#     4   9  17  32  52  77 109 141 175 220 270 317
#     4   9  17  31  53  81 108 136 176 222 268 320
#     4  10  21  37  55  78 110 147 183 221 269 324
#     4  11  23  39  57  81 113 145 181 222 269 325
#     4  10  19  32  54  84 111 136 177 228 271 317
#
# _framework density 17.696639000000001
#
# number of rings (size 3 to 8) (size 9 to 14) (size 15 to 20)
#    0.000    2.250    2.500    0.750    0.000    3.000 
#    0.000    1.250    0.000    1.500    0.000    0.000 
#    0.000    0.000    0.000    0.000    0.000    0.000 
#
# Total GULP energy -396875.212286 kJ/mol
# GULP energy per Si atom -12402.350384 kJ/mol
# Density = 1.765636 g / cm^3
# Si number density = 17.696639 Si / 1000 Ang^3
#
#
#
# Elastic Constant Matrix: (Units=GPa)
#
#
# Indices 1 2 3 4 5 6 
#
# 1 110.9987 58.8030 66.4587 0.0000 -6.9623 0.0000
# 2 58.8030 83.7495 77.0232 0.0000 -4.7785 0.0000
# 3 66.4587 77.0232 143.7431 0.0000 -11.4443 0.0000
# 4 0.0000 0.0000 0.0000 37.0166 0.0000 -0.5309
# 5 -6.9623 -4.7785 -11.4443 0.0000 24.3564 0.0000
# 6 0.0000 0.0000 0.0000 -0.5309 0.0000 29.9943
#
#
#
# Elastic Compliance Matrix: (Units=1/GPa)
#
#
# Indices 1 2 3 4 5 6 
#
# 1 0.014845 -0.008154 -0.002373 0.000000 0.001529 0.000000
# 2 -0.008154 0.028064 -0.011443 0.000000 -0.002202 0.000000
# 3 -0.002373 -0.011443 0.014495 0.000000 0.003887 0.000000
# 4 0.000000 0.000000 0.000000 0.027022 0.000000 0.000478
# 5 0.001529 -0.002202 0.003887 0.000000 0.042889 0.000000
# 6 0.000000 0.000000 0.000000 0.000478 0.000000 0.033348
#
#
# Mechanical properties :
#
#
# Convention : Reuss Voigt Hill
#
# Bulk Modulus (GPa) = 74.26804 82.56234 78.41519
# Shear Modulus (GPa) = 23.91305 27.35387 25.63346
#
# Velocity S-wave (km/s) = 3.67996 3.93582 3.81004
# Velocity P-wave (km/s) = 7.75336 8.21034 7.98512
#
# Compressibility (1/GPa) = 0.01346474
#
# Stress axis : x y z
#
# Youngs Moduli (GPa) = 67.36142 35.63285 68.98910
#
# Poissons Ratio (x) = 0.29055 0.16369
# Poissons Ratio (y) = 0.54926 0.78945
# Poissons Ratio (z) = 0.15983 0.40775
#
# Static dielectric constant tensor:
#      x y z
#    x 2.816290 0.000000 -0.233020 
#    y 0.000000 3.259740 0.000000 
#    z -0.233020 0.000000 3.346590 
# 
# 
# High freq. dielectric constant tensor:
#      x y z
#    x 1.660600 0.000000 -0.008770 
#    y 0.000000 1.684520 0.000000 
#    z -0.008770 0.000000 1.695970 
# 
# From -- ./inp_files/67406.got.cif
#   From: 2010.06.25/outbox.cif.g09.slc.cpg/sg11_34_cif.got.tgz:67406.got - 2010.06.27 23:14:04.
