data_PCOD8071692
_publ_section_title
;
Structure prediction by ZEFSAII (Michael W. Deem and Ramdas Pophale) SiO2 
 PCOD8071692
Probable space group: P 21/M
;
_chemical_formula_sum "Si O2"
_cell_formula_units_Z 32
_cell_length_a 19.780742
_cell_length_b 8.900956
_cell_length_c 24.650055
_cell_angle_alpha 90.000000
_cell_angle_beta 23.597637
_cell_angle_gamma 90.000000
_cell_volume 1737.380366
_symmetry_space_group_name_H-M "P 21/M"
_symmetry_group_IT_number 11
_symmetry_cell_setting 'monoclinic'
loop_
_space_group_symop_operation_xyz
x,y,z
-x,1/2+y,-z
-x,-y,-z
x,1/2-y,z
loop_
_atom_site_type_symbol
_atom_site_label
_atom_site_fract_x
_atom_site_fract_y
_atom_site_fract_z
Si Si1 0.737544 0.074473 0.178862
Si Si2 0.932205 0.927442 0.354742
Si Si3 0.024968 0.574907 0.898956
Si Si4 0.767732 0.575141 0.808423
Si Si5 0.574822 0.425854 0.638070
Si Si6 0.548774 0.422437 0.886348
Si Si7 0.941218 0.073496 0.855924
Si Si8 0.413446 0.077063 0.871258
O O1 0.718754 0.250000 0.180968
O O2 0.811343 0.043083 0.184554
O O3 0.556553 0.995319 0.308386
O O4 0.860288 0.006099 0.043554
O O5 0.918201 0.750000 0.369247
O O6 0.994843 0.980092 0.249599
O O7 0.752931 0.998869 0.497845
O O8 0.062070 0.985411 0.304413
O O9 0.982425 0.750000 0.927370
O O10 0.058066 0.509165 0.814814
O O11 0.810921 0.750000 0.775275
O O12 0.697156 0.524946 0.801679
O O13 0.630634 0.533949 0.955137
O O14 0.588730 0.250000 0.617065
O O15 0.516700 0.463247 0.741688
O O16 0.591768 0.250000 0.868050
O O17 0.537981 0.453198 0.830224
O O18 0.961461 0.250000 0.848635
O O19 0.747240 0.029363 0.006382
O O20 0.351502 0.250000 0.916816
#
# Coordination Sequence:
#
# PCOD8071692 Si02
#       8
#     4   4   4   4   4   4   4   4
#     4  10  20  35  56  84 116 150 187 230 281 335
#     4  11  24  40  57  81 116 154 191 234 285 342
#     4  10  20  34  56  85 116 148 186 233 282 332
#     4  10  19  33  56  84 113 147 187 231 281 339
#     4  11  23  38  59  85 114 152 192 232 283 343
#     4   9  18  33  55  83 115 146 179 232 287 334
#     4  11  22  35  57  86 113 146 191 238 283 334
#     4  10  20  36  58  85 114 145 187 235 284 337
#
# _framework density 18.418533
#
# number of rings (size 3 to 8) (size 9 to 14) (size 15 to 20)
#    0.000    1.750    2.500    2.250    0.000    4.500 
#    0.000    1.250    0.000    0.000    0.000    0.000 
#    0.000    0.000    0.000    0.000    0.000    0.000 
#
# Total GULP energy -396940.645039 kJ/mol
# GULP energy per Si atom -12404.395157 kJ/mol
# Density = 1.837661 g / cm^3
# Si number density = 18.418533 Si / 1000 Ang^3
#
#
#
# Elastic Constant Matrix: (Units=GPa)
#
#
# Indices 1 2 3 4 5 6 
#
# 1 120.5976 61.1590 67.4905 0.0000 -6.7662 0.0000
# 2 61.1590 59.4115 29.0200 0.0000 -34.2053 0.0000
# 3 67.4905 29.0200 85.2372 0.0000 -40.2772 0.0000
# 4 0.0000 0.0000 0.0000 31.5002 0.0000 -5.6399
# 5 -6.7662 -34.2053 -40.2772 0.0000 5.8370 0.0000
# 6 0.0000 0.0000 0.0000 -5.6399 0.0000 33.9621
#
#
#
# Elastic Compliance Matrix: (Units=1/GPa)
#
#
# Indices 1 2 3 4 5 6 
#
# 1 0.008696 0.000090 0.000842 0.000000 0.016419 0.000000
# 2 0.000090 0.012293 -0.013196 0.000000 -0.018920 0.000000
# 3 0.000842 -0.013196 0.009078 0.000000 -0.013712 0.000000
# 4 0.000000 0.000000 0.000000 0.032719 0.000000 0.005433
# 5 0.016419 -0.018920 -0.013712 0.000000 -0.015138 0.000000
# 6 0.000000 0.000000 0.000000 0.005433 0.000000 0.030347
#
#
# Mechanical properties :
#
#
# Convention : Reuss Voigt Hill
#
# Bulk Modulus (GPa) = 180.54905 64.50948 122.52927
# Shear Modulus (GPa) = 47.90679 21.43166 34.66922
#
# Velocity S-wave (km/s) = 5.10554 3.41485 4.34326
# Velocity P-wave (km/s) = 11.53230 7.11678 9.58234
#
# Compressibility (1/GPa) = 0.00553866
#
# Stress axis : x y z
#
# Youngs Moduli (GPa) = 114.99102 81.35028 110.15451
#
# Poissons Ratio (x) = -0.00729 -0.09280
# Poissons Ratio (y) = -0.01031 1.45363
# Poissons Ratio (z) = -0.09688 1.07352
#
# Static dielectric constant tensor:
#      x y z
#    x 3.684100 0.000000 -0.039190 
#    y 0.000000 3.467680 0.000000 
#    z -0.039190 0.000000 3.129530 
# 
# 
# High freq. dielectric constant tensor:
#      x y z
#    x 1.729200 0.000000 -0.011520 
#    y 0.000000 1.726270 0.000000 
#    z -0.011520 0.000000 1.684280 
# 
# From -- ./inp_files/72094.got.cif
#   From: 2010.06.25/outbox.cif.g09.slc.cpg/sg11_37_cif.got.tgz:72094.got - 2010.06.27 23:14:04.
