data_PCOD8071938
_publ_section_title
;
Structure prediction by ZEFSAII (Michael W. Deem and Ramdas Pophale) SiO2 
 PCOD8071938
Probable space group: P 21/M
;
_chemical_formula_sum "Si O2"
_cell_formula_units_Z 28
_cell_length_a 9.101704
_cell_length_b 8.857509
_cell_length_c 25.683100
_cell_angle_alpha 90.000000
_cell_angle_beta 45.081913
_cell_angle_gamma 90.000000
_cell_volume 1466.178199
_symmetry_space_group_name_H-M "P 21/M"
_symmetry_group_IT_number 11
_symmetry_cell_setting 'monoclinic'
loop_
_space_group_symop_operation_xyz
x,y,z
-x,1/2+y,-z
-x,-y,-z
x,1/2-y,z
loop_
_atom_site_type_symbol
_atom_site_label
_atom_site_fract_x
_atom_site_fract_y
_atom_site_fract_z
Si Si1 0.109248 0.069781 0.779374
Si Si2 0.988662 0.072046 0.923192
Si Si3 0.668615 0.429284 0.495435
Si Si4 0.438050 0.570953 0.362390
Si Si5 0.894256 0.070814 0.638843
Si Si6 0.316984 0.428240 0.927240
Si Si7 0.767285 0.429103 0.785169
O O1 0.114515 0.250000 0.777797
O O2 0.337087 0.004753 0.709356
O O3 0.037151 0.009526 0.853630
O O4 0.949938 0.006991 0.776061
O O5 0.959072 0.250000 0.930006
O O6 0.178432 0.022794 0.912606
O O7 0.774924 0.999498 0.997055
O O8 0.500000 0.500000 0.500000
O O9 0.656000 0.250000 0.494910
O O10 0.623021 0.487036 0.565210
O O11 0.892611 0.485269 0.422820
O O12 0.447331 0.750000 0.358500
O O13 0.267124 0.513578 0.364227
O O14 0.932035 0.250000 0.626775
O O15 0.804680 0.019347 0.716797
O O16 0.319530 0.250000 0.933371
O O17 0.547297 0.493253 0.860184
O O18 0.762595 0.250000 0.789197
#
# Coordination Sequence:
#
# PCOD8071938 Si02
#       7
#     4   4   4   4   4   4   4
#     4   9  16  28  47  72  98 125 163 206 245 290
#     4   9  17  29  47  69  93 123 160 203 248 292
#     4  11  22  36  54  78 107 137 169 206 251 299
#     4   9  18  32  53  78 102 131 169 210 249 298
#     4  10  19  34  56  79 102 131 169 210 252 297
#     4   9  17  30  47  68  94 125 162 201 243 294
#     4   9  17  29  49  74  98 128 166 205 244 293
#
# _framework density 19.097268
#
# number of rings (size 3 to 8) (size 9 to 14) (size 15 to 20)
#    0.000    2.571    0.000    2.571    0.000    6.286 
#    0.000    1.429    0.000    6.857    0.000    0.000 
#    0.000    0.000    0.000    0.000    0.000    0.000 
#
# Total GULP energy -347215.689253 kJ/mol
# GULP energy per Si atom -12400.560330 kJ/mol
# Density = 1.905380 g / cm^3
# Si number density = 19.097268 Si / 1000 Ang^3
#
#
#
# Elastic Constant Matrix: (Units=GPa)
#
#
# Indices 1 2 3 4 5 6 
#
# 1 147.0711 22.6994 80.7716 0.0000 -14.0551 0.0000
# 2 22.6994 21.8433 26.5086 0.0000 -1.6667 0.0000
# 3 80.7716 26.5086 173.8601 0.0000 -17.3831 0.0000
# 4 0.0000 0.0000 0.0000 28.4807 0.0000 -1.8634
# 5 -14.0551 -1.6667 -17.3831 0.0000 35.2555 0.0000
# 6 0.0000 0.0000 0.0000 -1.8634 0.0000 18.5477
#
#
#
# Elastic Compliance Matrix: (Units=1/GPa)
#
#
# Indices 1 2 3 4 5 6 
#
# 1 0.009784 -0.005813 -0.003468 0.000000 0.001916 0.000000
# 2 -0.005813 0.059720 -0.006684 0.000000 -0.002790 0.000000
# 3 -0.003468 -0.006684 0.008638 0.000000 0.002561 0.000000
# 4 0.000000 0.000000 0.000000 0.035344 0.000000 0.003551
# 5 0.001916 -0.002790 0.002561 0.000000 0.030259 0.000000
# 6 0.000000 0.000000 0.000000 0.003551 0.000000 0.054272
#
#
# Mechanical properties :
#
#
# Convention : Reuss Voigt Hill
#
# Bulk Modulus (GPa) = 21.63902 66.97042 44.30472
# Shear Modulus (GPa) = 20.37905 30.64311 25.51108
#
# Velocity S-wave (km/s) = 3.27022 4.01007 3.65889
# Velocity P-wave (km/s) = 5.06110 7.52230 6.41092
#
# Compressibility (1/GPa) = 0.04621281
#
# Stress axis : x y z
#
# Youngs Moduli (GPa) = 102.20578 16.74479 115.76998
#
# Poissons Ratio (x) = 0.09734 0.40144
# Poissons Ratio (y) = 0.59415 0.77378
# Poissons Ratio (z) = 0.35441 0.11192
#
# Static dielectric constant tensor:
#      x y z
#    x 4.225460 0.000000 -0.206880 
#    y 0.000000 3.049620 0.000000 
#    z -0.206880 0.000000 3.886370 
# 
# 
# High freq. dielectric constant tensor:
#      x y z
#    x 1.753380 0.000000 0.000090 
#    y 0.000000 1.688980 0.000000 
#    z 0.000090 0.000000 1.762450 
# 
# From -- ./inp_files/70852.got.cif
#   From: 2010.06.25/outbox.cif.g09.slc.cpg/sg11_36_cif.got.tgz:70852.got - 2010.06.27 23:14:04.
