data_PCOD8071085
_publ_section_title
;
Structure prediction by ZEFSAII (Michael W. Deem and Ramdas Pophale) SiO2 
 PCOD8071085
Probable space group: P 21/M
;
_chemical_formula_sum "Si O2"
_cell_formula_units_Z 32
_cell_length_a 25.339576
_cell_length_b 9.028337
_cell_length_c 20.712245
_cell_angle_alpha 90.000000
_cell_angle_beta 157.982593
_cell_angle_gamma 90.000000
_cell_volume 1776.381019
_symmetry_space_group_name_H-M "P 21/M"
_symmetry_group_IT_number 11
_symmetry_cell_setting 'monoclinic'
loop_
_space_group_symop_operation_xyz
x,y,z
-x,1/2+y,-z
-x,-y,-z
x,1/2-y,z
loop_
_atom_site_type_symbol
_atom_site_label
_atom_site_fract_x
_atom_site_fract_y
_atom_site_fract_z
Si Si1 0.920053 0.922753 0.593904
Si Si2 0.654037 0.577119 0.748335
Si Si3 0.922208 0.922025 0.853828
Si Si4 0.089326 0.576194 0.657194
Si Si5 0.626518 0.579193 0.569462
Si Si6 0.664350 0.422422 0.249430
Si Si7 0.074620 0.924704 0.898726
Si Si8 0.345342 0.077634 0.897169
O O1 0.880631 0.750000 0.552149
O O2 0.020116 0.959430 0.647236
O O3 0.000078 0.975594 0.748627
O O4 0.776323 0.017009 0.427931
O O5 0.663785 0.750000 0.771971
O O6 0.673853 0.535198 0.695612
O O7 0.502912 0.519760 0.601365
O O8 0.773290 0.499268 0.925720
O O9 0.953532 0.750000 0.897822
O O10 0.755541 0.953996 0.667889
O O11 0.978578 0.980573 0.849296
O O12 0.000000 0.000000 0.000000
O O13 0.097744 0.750000 0.653148
O O14 0.246807 0.507795 0.836485
O O15 0.000000 0.500000 0.500000
O O16 0.579603 0.750000 0.514712
O O17 0.689913 0.250000 0.263379
O O18 0.686606 0.514883 0.209790
O O19 0.508044 0.448253 0.100767
O O20 0.096504 0.750000 0.925204
O O21 0.305263 0.250000 0.851089
#
# Coordination Sequence:
#
# PCOD8071085 Si02
#       8
#     4   4   4   4   4   4   4   4
#     4  10  22  38  55  78 110 145 181 219 266 326
#     4  10  19  32  52  79 108 140 177 219 266 314
#     4  10  19  33  55  81 107 136 177 223 268 315
#     4  11  21  34  55  82 109 140 182 228 271 318
#     4   9  18  32  51  78 109 138 174 221 267 315
#     4  10  20  34  55  81 108 142 180 221 272 319
#     4  10  21  37  56  78 108 146 179 216 270 326
#     4  10  20  34  54  82 112 140 176 224 271 323
#
# _framework density 18.014153
#
# number of rings (size 3 to 8) (size 9 to 14) (size 15 to 20)
#    0.000    2.000    2.500    1.500    0.000    3.500 
#    0.000    1.250    0.000    6.000    0.000    0.000 
#    0.000    0.000    0.000    0.000    0.000    0.000 
#
# Total GULP energy -396898.344536 kJ/mol
# GULP energy per Si atom -12403.073267 kJ/mol
# Density = 1.797315 g / cm^3
# Si number density = 18.014153 Si / 1000 Ang^3
#
#
#
# Elastic Constant Matrix: (Units=GPa)
#
#
# Indices 1 2 3 4 5 6 
#
# 1 100.6811 43.3396 66.1242 0.0000 -0.7063 0.0000
# 2 43.3396 74.3411 61.7073 0.0000 2.0013 0.0000
# 3 66.1242 61.7073 147.4224 0.0000 0.0378 0.0000
# 4 0.0000 0.0000 0.0000 35.6759 0.0000 3.8615
# 5 -0.7063 2.0013 0.0378 0.0000 26.6175 0.0000
# 6 0.0000 0.0000 0.0000 3.8615 0.0000 22.5624
#
#
#
# Elastic Compliance Matrix: (Units=1/GPa)
#
#
# Indices 1 2 3 4 5 6 
#
# 1 0.015175 -0.004931 -0.004743 0.000000 0.000780 0.000000
# 2 -0.004931 0.022279 -0.007113 0.000000 -0.001796 0.000000
# 3 -0.004743 -0.007113 0.011888 0.000000 0.000392 0.000000
# 4 0.000000 0.000000 0.000000 0.028559 0.000000 -0.004888
# 5 0.000780 -0.001796 0.000392 0.000000 0.037724 0.000000
# 6 0.000000 0.000000 0.000000 -0.004888 0.000000 0.045158
#
#
# Mechanical properties :
#
#
# Convention : Reuss Voigt Hill
#
# Bulk Modulus (GPa) = 63.41999 73.86520 68.64260
# Shear Modulus (GPa) = 25.04828 27.05605 26.05216
#
# Velocity S-wave (km/s) = 3.73296 3.87968 3.80703
# Velocity P-wave (km/s) = 7.33908 7.82063 7.58368
#
# Compressibility (1/GPa) = 0.01576790
#
# Stress axis : x y z
#
# Youngs Moduli (GPa) = 65.89570 44.88531 84.11944
#
# Poissons Ratio (x) = 0.22134 0.39897
# Poissons Ratio (y) = 0.32495 0.59835
# Poissons Ratio (z) = 0.31253 0.31928
#
# Static dielectric constant tensor:
#      x y z
#    x 3.367350 0.000000 0.256330 
#    y 0.000000 3.435830 0.000000 
#    z 0.256330 0.000000 3.446530 
# 
# 
# High freq. dielectric constant tensor:
#      x y z
#    x 1.679910 0.000000 0.021540 
#    y 0.000000 1.702900 0.000000 
#    z 0.021540 0.000000 1.698990 
# 
# From -- ./inp_files/67271.got.cif
#   From: 2010.06.25/outbox.cif.g09.slc.cpg/sg11_34_cif.got.tgz:67271.got - 2010.06.27 23:14:04.
