data_PCOD8071944
_publ_section_title
;
Structure prediction by ZEFSAII (Michael W. Deem and Ramdas Pophale) SiO2 
 PCOD8071944
Probable space group: P 21/M
;
_chemical_formula_sum "Si O2"
_cell_formula_units_Z 28
_cell_length_a 5.288869
_cell_length_b 13.008721
_cell_length_c 21.109622
_cell_angle_alpha 90.000000
_cell_angle_beta 68.154566
_cell_angle_gamma 90.000000
_cell_volume 1348.078688
_symmetry_space_group_name_H-M "P 21/M"
_symmetry_group_IT_number 11
_symmetry_cell_setting 'monoclinic'
loop_
_space_group_symop_operation_xyz
x,y,z
-x,1/2+y,-z
-x,-y,-z
x,1/2-y,z
loop_
_atom_site_type_symbol
_atom_site_label
_atom_site_fract_x
_atom_site_fract_y
_atom_site_fract_z
Si Si1 0.758326 0.867441 0.984757
Si Si2 0.071905 0.956142 0.257607
Si Si3 0.269838 0.133283 0.162590
Si Si4 0.738631 0.487549 0.086876
Si Si5 0.317284 0.131479 0.802696
Si Si6 0.716485 0.131441 0.523134
Si Si7 0.124291 0.456667 0.584561
O O1 0.722905 0.750000 0.009895
O O2 0.721214 0.879846 0.913872
O O3 0.579593 0.943085 0.047255
O O4 0.062581 0.910279 0.969367
O O5 0.367722 0.903971 0.228113
O O6 0.838587 0.883550 0.249534
O O7 0.997959 0.982467 0.336087
O O8 0.053184 0.063540 0.219758
O O9 0.231774 0.250000 0.188390
O O10 0.564917 0.086504 0.149989
O O11 0.854026 0.571116 0.126547
O O12 0.313708 0.250000 0.821043
O O13 0.746356 0.250000 0.501413
O O14 0.401717 0.107255 0.566676
O O15 0.901418 0.109209 0.567170
O O16 0.821754 0.065289 0.454151
#
# Coordination Sequence:
#
# PCOD8071944 Si02
#       7
#     4   4   4   4   4   4   4
#     4  10  19  34  56  79 106 147 195 244 298 349
#     4  11  23  40  59  88 120 155 194 239 286 347
#     4  10  21  37  56  80 112 153 193 240 294 352
#     4  10  20  35  55  79 112 145 197 249 295 343
#     4  11  23  39  58  84 119 156 197 243 293 346
#     4  10  21  39  63  89 120 154 192 238 285 337
#     4  10  22  38  60  90 121 152 195 238 283 341
#
# _framework density 20.770299999999999
#
# number of rings (size 3 to 8) (size 9 to 14) (size 15 to 20)
#    0.000    1.714    1.429    3.000    0.000    4.000 
#    0.000    0.000    0.000    5.143    0.000    0.000 
#    0.000    0.000    0.000    0.000    0.000    0.000 
#
# Total GULP energy -346868.476289 kJ/mol
# GULP energy per Si atom -12388.159867 kJ/mol
# Density = 2.072303 g / cm^3
# Si number density = 20.770300 Si / 1000 Ang^3
#
#
#
# Elastic Constant Matrix: (Units=GPa)
#
#
# Indices 1 2 3 4 5 6 
#
# 1 107.3702 37.6574 17.6899 0.0000 7.0926 0.0000
# 2 37.6574 146.8661 37.2568 0.0000 0.0194 0.0000
# 3 17.6899 37.2568 89.5116 0.0000 7.2102 0.0000
# 4 0.0000 0.0000 0.0000 17.7742 0.0000 2.7927
# 5 7.0926 0.0194 7.2102 0.0000 21.3801 0.0000
# 6 0.0000 0.0000 0.0000 2.7927 0.0000 18.8843
#
#
#
# Elastic Compliance Matrix: (Units=1/GPa)
#
#
# Indices 1 2 3 4 5 6 
#
# 1 0.010533 -0.002502 -0.000780 0.000000 -0.003229 0.000000
# 2 -0.002502 0.008232 -0.003082 0.000000 0.001862 0.000000
# 3 -0.000780 -0.003082 0.012939 0.000000 -0.004102 0.000000
# 4 0.000000 0.000000 0.000000 0.057600 0.000000 -0.008518
# 5 -0.003229 0.001862 -0.004102 0.000000 0.049225 0.000000
# 6 0.000000 0.000000 0.000000 -0.008518 0.000000 0.054214
#
#
# Mechanical properties :
#
#
# Convention : Reuss Voigt Hill
#
# Bulk Modulus (GPa) = 52.69893 58.77291 55.73592
# Shear Modulus (GPa) = 23.60756 28.35064 25.97910
#
# Velocity S-wave (km/s) = 3.37501 3.69855 3.54048
# Velocity P-wave (km/s) = 6.37298 6.82620 6.60348
#
# Compressibility (1/GPa) = 0.01897572
#
# Stress axis : x y z
#
# Youngs Moduli (GPa) = 94.93934 121.47544 77.28561
#
# Poissons Ratio (x) = 0.30399 0.06028
# Poissons Ratio (y) = 0.23758 0.23818
# Poissons Ratio (z) = 0.07405 0.37437
#
# Static dielectric constant tensor:
#      x y z
#    x 3.845250 0.000000 0.066870 
#    y 0.000000 3.802130 0.000000 
#    z 0.066870 0.000000 3.736700 
# 
# 
# High freq. dielectric constant tensor:
#      x y z
#    x 1.806450 0.000000 0.007670 
#    y 0.000000 1.823700 0.000000 
#    z 0.007670 0.000000 1.806350 
# 
# From -- ./inp_files/8762.got.cif
#   From: 2010.06.25/outbox.cif.g09.slc.cpg/sg11_5_cif.got.tgz:8762.got - 2010.06.27 23:14:04.
