data_PCOD8071035
_publ_section_title
;
Structure prediction by ZEFSAII (Michael W. Deem and Ramdas Pophale) SiO2 
 PCOD8071035
Probable space group: P 21/M
;
_chemical_formula_sum "Si O2"
_cell_formula_units_Z 28
_cell_length_a 28.202162
_cell_length_b 8.968935
_cell_length_c 9.537986
_cell_angle_alpha 90.000000
_cell_angle_beta 139.840543
_cell_angle_gamma 90.000000
_cell_volume 1555.907678
_symmetry_space_group_name_H-M "P 21/M"
_symmetry_group_IT_number 11
_symmetry_cell_setting 'monoclinic'
loop_
_space_group_symop_operation_xyz
x,y,z
-x,1/2+y,-z
-x,-y,-z
x,1/2-y,z
loop_
_atom_site_type_symbol
_atom_site_label
_atom_site_fract_x
_atom_site_fract_y
_atom_site_fract_z
Si Si1 0.424419 0.580588 0.355844
Si Si2 0.605439 0.922202 0.135811
Si Si3 0.299649 0.926575 0.867741
Si Si4 0.559351 0.081734 0.295198
Si Si5 0.853667 0.925728 0.487911
Si Si6 0.936575 0.921137 0.937668
Si Si7 0.987219 0.426738 0.621630
O O1 0.500000 0.500000 0.500000
O O2 0.437422 0.750000 0.340076
O O3 0.402138 0.566074 0.467889
O O4 0.357106 0.514911 0.114538
O O5 0.627617 0.750000 0.172676
O O6 0.669024 0.021648 0.211052
O O7 0.600450 0.966657 0.287312
O O8 0.527222 0.957551 0.885808
O O9 0.287921 0.750000 0.843074
O O10 0.223697 0.006437 0.731491
O O11 0.566595 0.250000 0.251889
O O12 0.855705 0.750000 0.459926
O O13 0.863424 0.956016 0.679829
O O14 0.915147 0.005495 0.532177
O O15 0.956042 0.750000 0.969955
O O16 0.941464 0.963601 0.115064
O O17 0.000000 0.000000 0.000000
O O18 0.976827 0.250000 0.578019
O O19 0.000000 0.500000 0.500000
#
# Coordination Sequence:
#
# PCOD8071035 Si02
#       7
#     4   4   4   4   4   4   4
#     4  10  20  34  53  76 103 137 179 224 272 325
#     4  10  19  32  52  75  99 131 171 215 265 318
#     4  11  22  35  53  78 108 141 177 222 274 323
#     4   9  18  33  51  73 100 128 167 219 268 315
#     4  10  20  36  56  79 108 143 181 220 264 315
#     4   8  16  31  53  78 104 135 172 212 251 301
#     4  10  19  34  57  86 115 142 176 216 261 313
#
# _framework density 17.995926999999998
#
# number of rings (size 3 to 8) (size 9 to 14) (size 15 to 20)
#    0.000    2.286    1.429    1.714    0.000    2.857 
#    0.000    1.429    0.000    0.000    0.000    0.000 
#    0.000    0.000    0.000    0.000    0.000    0.000 
#
# Total GULP energy -346971.420632 kJ/mol
# GULP energy per Si atom -12391.836451 kJ/mol
# Density = 1.795497 g / cm^3
# Si number density = 17.995927 Si / 1000 Ang^3
#
#
#
# Elastic Constant Matrix: (Units=GPa)
#
#
# Indices 1 2 3 4 5 6 
#
# 1 87.4246 41.7341 58.0352 0.0000 -6.8787 0.0000
# 2 41.7341 75.2562 51.3248 0.0000 -3.8537 0.0000
# 3 58.0352 51.3248 127.0588 0.0000 -5.8982 0.0000
# 4 0.0000 0.0000 0.0000 25.1872 0.0000 0.3551
# 5 -6.8787 -3.8537 -5.8982 0.0000 26.1304 0.0000
# 6 0.0000 0.0000 0.0000 0.3551 0.0000 33.7491
#
#
#
# Elastic Compliance Matrix: (Units=1/GPa)
#
#
# Indices 1 2 3 4 5 6 
#
# 1 0.018432 -0.006112 -0.005828 0.000000 0.002635 0.000000
# 2 -0.006112 0.020396 -0.005439 0.000000 0.000171 0.000000
# 3 -0.005828 -0.005439 0.012754 0.000000 0.000543 0.000000
# 4 0.000000 0.000000 0.000000 0.039709 0.000000 -0.000418
# 5 0.002635 0.000171 0.000543 0.000000 0.039111 0.000000
# 6 0.000000 0.000000 0.000000 -0.000418 0.000000 0.029635
#
#
# Mechanical properties :
#
#
# Convention : Reuss Voigt Hill
#
# Bulk Modulus (GPa) = 59.43728 65.76975 62.60352
# Shear Modulus (GPa) = 24.94971 26.25638 25.60304
#
# Velocity S-wave (km/s) = 3.72749 3.82385 3.77598
# Velocity P-wave (km/s) = 7.18509 7.49147 7.33988
#
# Compressibility (1/GPa) = 0.01682446
#
# Stress axis : x y z
#
# Youngs Moduli (GPa) = 54.25263 49.02981 78.40390
#
# Poissons Ratio (x) = 0.29969 0.45692
# Poissons Ratio (y) = 0.33161 0.42643
# Poissons Ratio (z) = 0.31617 0.26667
#
# Static dielectric constant tensor:
#      x y z
#    x 3.082310 0.000000 -0.288500 
#    y 0.000000 3.397060 0.000000 
#    z -0.288500 0.000000 3.806600 
# 
# 
# High freq. dielectric constant tensor:
#      x y z
#    x 1.672690 0.000000 -0.018540 
#    y 0.000000 1.707070 0.000000 
#    z -0.018540 0.000000 1.697250 
# 
# From -- ./inp_files/28608.got.cif
#   From: 2010.06.25/outbox.cif.g09.slc.cpg/sg11_15_cif.got.tgz:28608.got - 2010.06.27 23:14:04.
