data_PCOD8071715
_publ_section_title
;
Structure prediction by ZEFSAII (Michael W. Deem and Ramdas Pophale) SiO2 
 PCOD8071715
Probable space group: P 21/M
;
_chemical_formula_sum "Si O2"
_cell_formula_units_Z 28
_cell_length_a 12.244981
_cell_length_b 13.716329
_cell_length_c 9.511604
_cell_angle_alpha 90.000000
_cell_angle_beta 54.512423
_cell_angle_gamma 90.000000
_cell_volume 1300.777316
_symmetry_space_group_name_H-M "P 21/M"
_symmetry_group_IT_number 11
_symmetry_cell_setting 'monoclinic'
loop_
_space_group_symop_operation_xyz
x,y,z
-x,1/2+y,-z
-x,-y,-z
x,1/2-y,z
loop_
_atom_site_type_symbol
_atom_site_label
_atom_site_fract_x
_atom_site_fract_y
_atom_site_fract_z
Si Si1 0.032354 0.978364 0.816673
Si Si2 0.030039 0.861305 0.343218
Si Si3 0.583227 0.637166 0.481511
Si Si4 0.865048 0.863776 0.735609
Si Si5 0.305618 0.636486 0.012665
Si Si6 0.303528 0.551978 0.716737
Si Si7 0.600796 0.635607 0.791732
O O1 0.177108 0.924685 0.709866
O O2 0.914255 0.911783 0.842393
O O3 0.046604 0.077998 0.718266
O O4 0.000000 0.000000 0.000000
O O5 0.992835 0.750000 0.338380
O O6 0.977807 0.890843 0.535715
O O7 0.191202 0.879977 0.216189
O O8 0.618976 0.750000 0.421413
O O9 0.424534 0.620614 0.575537
O O10 0.662475 0.564059 0.319463
O O11 0.616922 0.606432 0.616617
O O12 0.852880 0.750000 0.770503
O O13 0.721151 0.910132 0.795647
O O14 0.313715 0.750000 0.961239
O O15 0.264369 0.573966 0.907383
O O16 0.453122 0.603663 0.958924
O O17 0.619075 0.750000 0.790090
#
# Coordination Sequence:
#
# PCOD8071715 Si02
#       7
#     4   4   4   4   4   4   4
#     4  12  24  38  59  90 130 161 200 247 305 371
#     4  10  21  39  61  87 119 164 214 255 304 364
#     4   9  18  33  58  86 116 158 206 254 302 364
#     4  10  22  39  62  90 120 158 205 256 310 363
#     4   9  17  33  60  87 116 156 208 258 302 357
#     4  10  19  33  56  86 121 156 201 245 305 372
#     4   8  15  32  57  84 111 149 203 255 302 351
#
# _framework density 21.525590000000001
#
# number of rings (size 3 to 8) (size 9 to 14) (size 15 to 20)
#    0.000    2.286    1.429    2.571    0.000    3.429 
#    0.000    0.714    6.286    0.000    0.000    0.000 
#    0.000    0.000    0.000    0.000    0.000    0.000 
#
# Total GULP energy -347081.522407 kJ/mol
# GULP energy per Si atom -12395.768657 kJ/mol
# Density = 2.147660 g / cm^3
# Si number density = 21.525590 Si / 1000 Ang^3
#
#
#
# Elastic Constant Matrix: (Units=GPa)
#
#
# Indices 1 2 3 4 5 6 
#
# 1 197.9177 47.6382 59.3721 0.0000 -6.4426 0.0000
# 2 47.6382 49.3377 10.0517 0.0000 5.3985 0.0000
# 3 59.3721 10.0517 81.7412 0.0000 -4.3571 0.0000
# 4 0.0000 0.0000 0.0000 21.0913 0.0000 0.0529
# 5 -6.4426 5.3985 -4.3571 0.0000 28.6442 0.0000
# 6 0.0000 0.0000 0.0000 0.0529 0.0000 30.9192
#
#
#
# Elastic Compliance Matrix: (Units=1/GPa)
#
#
# Indices 1 2 3 4 5 6 
#
# 1 0.008438 -0.007387 -0.005087 0.000000 0.002516 0.000000
# 2 -0.007387 0.027805 0.001591 0.000000 -0.006660 0.000000
# 3 -0.005087 0.001591 0.015784 0.000000 0.000957 0.000000
# 4 0.000000 0.000000 0.000000 0.047413 0.000000 -0.000081
# 5 0.002516 -0.006660 0.000957 0.000000 0.036878 0.000000
# 6 0.000000 0.000000 0.000000 -0.000081 0.000000 0.032342
#
#
# Mechanical properties :
#
#
# Convention : Reuss Voigt Hill
#
# Bulk Modulus (GPa) = 33.04382 62.56894 47.80638
# Shear Modulus (GPa) = 24.93599 30.25991 27.59795
#
# Velocity S-wave (km/s) = 3.40727 3.75342 3.58453
# Velocity P-wave (km/s) = 5.55550 6.92203 6.27607
#
# Compressibility (1/GPa) = 0.03026284
#
# Stress axis : x y z
#
# Youngs Moduli (GPa) = 118.50567 35.96425 63.35629
#
# Poissons Ratio (x) = 0.26566 0.32227
# Poissons Ratio (y) = 0.87537 -0.10081
# Poissons Ratio (z) = 0.60280 -0.05722
#
# Static dielectric constant tensor:
#      x y z
#    x 4.342590 0.000000 -0.363570 
#    y 0.000000 3.825690 0.000000 
#    z -0.363570 0.000000 3.734430 
# 
# 
# High freq. dielectric constant tensor:
#      x y z
#    x 1.852690 0.000000 -0.024230 
#    y 0.000000 1.838480 0.000000 
#    z -0.024230 0.000000 1.827340 
# 
# From -- ./inp_files/17911.got.cif
#   From: 2010.06.25/outbox.cif.g09.slc.cpg/sg11_9_cif.got.tgz:17911.got - 2010.06.27 23:14:04.
