data_PCOD8071136
_publ_section_title
;
Structure prediction by ZEFSAII (Michael W. Deem and Ramdas Pophale) SiO2 
 PCOD8071136
Probable space group: P 21/M
;
_chemical_formula_sum "Si O2"
_cell_formula_units_Z 28
_cell_length_a 13.791269
_cell_length_b 9.408787
_cell_length_c 16.247264
_cell_angle_alpha 90.000000
_cell_angle_beta 131.997266
_cell_angle_gamma 90.000000
_cell_volume 1566.787941
_symmetry_space_group_name_H-M "P 21/M"
_symmetry_group_IT_number 11
_symmetry_cell_setting 'monoclinic'
loop_
_space_group_symop_operation_xyz
x,y,z
-x,1/2+y,-z
-x,-y,-z
x,1/2-y,z
loop_
_atom_site_type_symbol
_atom_site_label
_atom_site_fract_x
_atom_site_fract_y
_atom_site_fract_z
Si Si1 0.438986 0.087135 0.892932
Si Si2 0.456861 0.588034 0.226704
Si Si3 0.977913 0.086218 0.867110
Si Si4 0.257360 0.083508 0.551898
Si Si5 0.202429 0.415985 0.117801
Si Si6 0.168027 0.418795 0.676175
Si Si7 0.066469 0.916389 0.345632
O O1 0.431789 0.250000 0.916626
O O2 0.525176 0.070207 0.860306
O O3 0.295119 0.023757 0.795835
O O4 0.500000 0.000000 0.000000
O O5 0.417113 0.750000 0.224915
O O6 0.590129 0.547952 0.350005
O O7 0.345012 0.482330 0.192179
O O8 0.937799 0.250000 0.858957
O O9 0.984136 0.048845 0.774390
O O10 0.119801 0.055871 0.987452
O O11 0.869813 0.986629 0.846230
O O12 0.237773 0.250000 0.525607
O O13 0.175243 0.031013 0.585429
O O14 0.201422 0.997995 0.441730
O O15 0.217578 0.250000 0.144555
O O16 0.175166 0.250000 0.681724
O O17 0.040818 0.475554 0.650856
O O18 0.091235 0.750000 0.371237
#
# Coordination Sequence:
#
# PCOD8071136 Si02
#       7
#     4   4   4   4   4   4   4
#     4   9  18  31  48  72 104 138 171 207 248 300
#     4   9  19  35  53  73 103 141 170 203 261 311
#     4   9  20  36  53  77 106 134 164 208 265 312
#     4   9  18  34  52  74 104 139 173 207 250 298
#     4  10  20  35  57  80 100 130 172 214 256 306
#     4   8  16  31  50  71 102 141 171 200 249 305
#     4  10  19  32  53  77 102 135 173 210 253 301
#
# _framework density 17.870958000000002
#
# number of rings (size 3 to 8) (size 9 to 14) (size 15 to 20)
#    0.000    2.857    0.000    2.571    2.000    2.286 
#    0.000    3.571    0.000    0.000    0.000    0.000 
#    0.000    0.000    0.000    0.000    0.000    0.000 
#
# Total GULP energy -347147.883771 kJ/mol
# GULP energy per Si atom -12398.138706 kJ/mol
# Density = 1.783028 g / cm^3
# Si number density = 17.870958 Si / 1000 Ang^3
#
#
#
# Elastic Constant Matrix: (Units=GPa)
#
#
# Indices 1 2 3 4 5 6 
#
# 1 93.2900 51.6338 46.6835 0.0000 14.4886 0.0000
# 2 51.6338 68.5856 44.2787 0.0000 6.6500 0.0000
# 3 46.6835 44.2787 99.4335 0.0000 4.5509 0.0000
# 4 0.0000 0.0000 0.0000 34.1912 0.0000 2.4752
# 5 14.4886 6.6500 4.5509 0.0000 18.0322 0.0000
# 6 0.0000 0.0000 0.0000 2.4752 0.0000 25.9430
#
#
#
# Elastic Compliance Matrix: (Units=1/GPa)
#
#
# Indices 1 2 3 4 5 6 
#
# 1 0.021375 -0.012394 -0.003985 0.000000 -0.011598 0.000000
# 2 -0.012394 0.028165 -0.006782 0.000000 0.001283 0.000000
# 3 -0.003985 -0.006782 0.014859 0.000000 0.001953 0.000000
# 4 0.000000 0.000000 0.000000 0.029451 0.000000 -0.002810
# 5 -0.011598 0.001283 0.001953 0.000000 0.063809 0.000000
# 6 0.000000 0.000000 0.000000 -0.002810 0.000000 0.038814
#
#
# Mechanical properties :
#
#
# Convention : Reuss Voigt Hill
#
# Bulk Modulus (GPa) = 55.32296 60.72236 58.02266
# Shear Modulus (GPa) = 20.09485 23.54747 21.82116
#
# Velocity S-wave (km/s) = 3.35691 3.63387 3.49813
# Velocity P-wave (km/s) = 6.78596 7.18740 6.98956
#
# Compressibility (1/GPa) = 0.01807568
#
# Stress axis : x y z
#
# Youngs Moduli (GPa) = 46.78440 35.50485 67.30084
#
# Poissons Ratio (x) = 0.44006 0.26821
# Poissons Ratio (y) = 0.57986 0.45643
# Poissons Ratio (z) = 0.18644 0.24079
#
# Static dielectric constant tensor:
#      x y z
#    x 3.278540 0.000000 0.063620 
#    y 0.000000 3.166720 0.000000 
#    z 0.063620 0.000000 3.293940 
# 
# 
# High freq. dielectric constant tensor:
#      x y z
#    x 1.681860 0.000000 0.006990 
#    y 0.000000 1.677440 0.000000 
#    z 0.006990 0.000000 1.695810 
# 
# From -- ./inp_files/49504.got.cif
#   From: 2010.06.25/outbox.cif.g09.slc.cpg/sg11_25_cif.got.tgz:49504.got - 2010.06.27 23:14:04.
