data_PCOD8071852
_publ_section_title
;
Structure prediction by ZEFSAII (Michael W. Deem and Ramdas Pophale) SiO2 
 PCOD8071852
Probable space group: P 21/M
;
_chemical_formula_sum "Si O2"
_cell_formula_units_Z 24
_cell_length_a 19.698143
_cell_length_b 10.092230
_cell_length_c 8.724212
_cell_angle_alpha 90.000000
_cell_angle_beta 133.438808
_cell_angle_gamma 90.000000
_cell_volume 1259.332838
_symmetry_space_group_name_H-M "P 21/M"
_symmetry_group_IT_number 11
_symmetry_cell_setting 'monoclinic'
loop_
_space_group_symop_operation_xyz
x,y,z
-x,1/2+y,-z
-x,-y,-z
x,1/2-y,z
loop_
_atom_site_type_symbol
_atom_site_label
_atom_site_fract_x
_atom_site_fract_y
_atom_site_fract_z
Si Si1 0.912889 0.250000 0.808565
Si Si2 0.121146 0.250000 0.072222
Si Si3 0.083414 0.250000 0.655561
Si Si4 0.398151 0.598272 0.694131
Si Si5 0.793792 0.003902 0.653812
Si Si6 0.794992 0.524128 0.291131
Si Si7 0.875184 0.250000 0.391408
Si Si8 0.599587 0.900045 0.021976
O O1 0.866984 0.380717 0.810908
O O2 0.894843 0.250000 0.601085
O O3 0.023504 0.250000 0.014206
O O4 0.180936 0.377394 0.208144
O O5 0.104725 0.250000 0.867279
O O6 0.123963 0.119446 0.640817
O O7 0.972634 0.250000 0.451074
O O8 0.377267 0.750000 0.710093
O O9 0.311225 0.547792 0.456823
O O10 0.501307 0.587215 0.773646
O O11 0.401815 0.510451 0.850830
O O12 0.795557 0.971437 0.476265
O O13 0.814918 0.378828 0.254394
O O14 0.693515 0.572296 0.068831
O O15 0.605331 0.750000 0.098811
#
# Coordination Sequence:
#
# PCOD8071852 Si02
#       8
#     2   2   2   4   4   4   2   4
#     4   9  18  35  52  75 101 135 171 217 262 301
#     4  11  23  33  50  73 107 137 177 213 252 303
#     4  11  21  37  50  73 105 143 173 215 252 301
#     4   9  17  29  49  78 110 131 159 211 263 308
#     4  10  19  34  54  79 102 135 171 214 258 308
#     4  10  19  34  56  78 102 134 171 213 258 309
#     4   9  20  33  54  77 103 131 177 215 260 301
#     4   9  17  28  48  82 107 130 159 209 264 312
#
# _framework density 19.057708999999999
#
# number of rings (size 3 to 8) (size 9 to 14) (size 15 to 20)
#    0.000    2.333    1.667    1.500    7.000    0.000 
#    0.000    2.500    0.000    1.000    0.000    0.000 
#    0.000    0.000    0.000    0.000    0.000    0.000 
#
# Total GULP energy -297385.406176 kJ/mol
# GULP energy per Si atom -12391.058591 kJ/mol
# Density = 1.901433 g / cm^3
# Si number density = 19.057709 Si / 1000 Ang^3
#
#
#
# Elastic Constant Matrix: (Units=GPa)
#
#
# Indices 1 2 3 4 5 6 
#
# 1 76.2184 35.0847 37.7511 0.0000 33.3791 0.0000
# 2 35.0847 151.2480 42.5732 0.0000 23.5226 0.0000
# 3 37.7511 42.5732 59.9879 0.0000 33.1480 0.0000
# 4 0.0000 0.0000 0.0000 15.0226 0.0000 15.7587
# 5 33.3791 23.5226 33.1480 0.0000 37.3645 0.0000
# 6 0.0000 0.0000 0.0000 15.7587 0.0000 25.0242
#
#
#
# Elastic Compliance Matrix: (Units=1/GPa)
#
#
# Indices 1 2 3 4 5 6 
#
# 1 0.022902 -0.001569 -0.004981 0.000000 -0.015052 0.000000
# 2 -0.001569 0.008370 -0.005523 0.000000 0.001033 0.000000
# 3 -0.004981 -0.005523 0.037946 0.000000 -0.025737 0.000000
# 4 0.000000 0.000000 0.000000 0.196131 0.000000 -0.123512
# 5 -0.015052 0.001033 -0.025737 0.000000 0.062393 0.000000
# 6 0.000000 0.000000 0.000000 -0.123512 0.000000 0.117742
#
#
# Mechanical properties :
#
#
# Convention : Reuss Voigt Hill
#
# Bulk Modulus (GPa) = 22.18744 57.58582 39.88663
# Shear Modulus (GPa) = 10.31666 26.95192 18.63429
#
# Velocity S-wave (km/s) = 2.32919 3.76470 3.13034
# Velocity P-wave (km/s) = 4.34753 7.01281 5.83440
#
# Compressibility (1/GPa) = 0.04507054
#
# Stress axis : x y z
#
# Youngs Moduli (GPa) = 43.66512 119.47859 26.35318
#
# Poissons Ratio (x) = 0.18752 0.13127
# Poissons Ratio (y) = 0.06853 0.14554
# Poissons Ratio (z) = 0.21750 0.65986
#
# Static dielectric constant tensor:
#      x y z
#    x 3.882550 0.000000 0.840210 
#    y 0.000000 3.792070 0.000000 
#    z 0.840210 0.000000 3.405390 
# 
# 
# High freq. dielectric constant tensor:
#      x y z
#    x 1.728420 0.000000 0.057630 
#    y 0.000000 1.765880 0.000000 
#    z 0.057630 0.000000 1.700930 
# 
# From -- ./inp_files/25795.got.cif
#   From: 2010.06.25/outbox.cif.g09.slc.cpg/sg11_13_cif.got.tgz:25795.got - 2010.06.27 23:14:04.
