data_PCOD8071049
_publ_section_title
;
Structure prediction by ZEFSAII (Michael W. Deem and Ramdas Pophale) SiO2 
 PCOD8071049
Probable space group: P 21/M
;
_chemical_formula_sum "Si O2"
_cell_formula_units_Z 28
_cell_length_a 9.071425
_cell_length_b 9.118496
_cell_length_c 25.937194
_cell_angle_alpha 90.000000
_cell_angle_beta 136.669160
_cell_angle_gamma 90.000000
_cell_volume 1472.240462
_symmetry_space_group_name_H-M "P 21/M"
_symmetry_group_IT_number 11
_symmetry_cell_setting 'monoclinic'
loop_
_space_group_symop_operation_xyz
x,y,z
-x,1/2+y,-z
-x,-y,-z
x,1/2-y,z
loop_
_atom_site_type_symbol
_atom_site_label
_atom_site_fract_x
_atom_site_fract_y
_atom_site_fract_z
Si Si1 0.352727 0.919748 0.349049
Si Si2 0.066894 0.588125 0.941047
Si Si3 0.578005 0.579849 0.226398
Si Si4 0.730478 0.923862 0.774922
Si Si5 0.070530 0.917893 0.375072
Si Si6 0.325519 0.087073 0.080471
Si Si7 0.840683 0.578598 0.498050
O O1 0.317881 0.750000 0.325627
O O2 0.231149 0.960813 0.370332
O O3 0.601400 0.957871 0.419068
O O4 0.254958 0.020308 0.279482
O O5 0.166333 0.750000 0.959235
O O6 0.956491 0.533654 0.859889
O O7 0.881441 0.593991 0.936334
O O8 0.257773 0.480896 0.007868
O O9 0.512280 0.750000 0.210823
O O10 0.468227 0.500523 0.246889
O O11 0.506298 0.511680 0.153582
O O12 0.830571 0.556264 0.294594
O O13 0.692582 0.750000 0.767707
O O14 0.104174 0.750000 0.401277
O O15 0.124169 0.023625 0.435467
O O16 0.417961 0.250000 0.094424
O O17 0.888542 0.750000 0.508655
O O18 0.000000 0.500000 0.500000
#
# Coordination Sequence:
#
# PCOD8071049 Si02
#       7
#     4   4   4   4   4   4   4
#     4  10  22  39  56  77 107 141 175 213 261 313
#     4   8  15  27  43  68 102 135 169 212 262 310
#     4  10  19  32  52  76 104 139 175 216 265 311
#     4  10  20  33  52  79 107 137 176 220 262 309
#     4  10  22  39  57  78 106 140 178 216 257 310
#     4   9  16  26  44  72 103 134 171 216 263 310
#     4  11  23  38  59  84 109 138 172 214 262 309
#
# _framework density 19.018632
#
# number of rings (size 3 to 8) (size 9 to 14) (size 15 to 20)
#    0.000    2.286    0.000    3.857    0.000   10.286 
#    0.000    0.000    0.000    0.857    0.000    0.000 
#    0.000    0.000    0.000    0.000    0.000    0.000 
#
# Total GULP energy -347233.632812 kJ/mol
# GULP energy per Si atom -12401.201172 kJ/mol
# Density = 1.897534 g / cm^3
# Si number density = 19.018632 Si / 1000 Ang^3
#
#
#
# Elastic Constant Matrix: (Units=GPa)
#
#
# Indices 1 2 3 4 5 6 
#
# 1 83.2595 47.4388 49.4124 0.0000 -18.6584 0.0000
# 2 47.4388 116.2122 75.0850 0.0000 -16.5044 0.0000
# 3 49.4124 75.0850 123.5423 0.0000 -34.0240 0.0000
# 4 0.0000 0.0000 0.0000 37.6373 0.0000 -8.2239
# 5 -18.6584 -16.5044 -34.0240 0.0000 6.7103 0.0000
# 6 0.0000 0.0000 0.0000 -8.2239 0.0000 24.5003
#
#
#
# Elastic Compliance Matrix: (Units=1/GPa)
#
#
# Indices 1 2 3 4 5 6 
#
# 1 0.013905 -0.001710 -0.012531 0.000000 -0.029081 0.000000
# 2 -0.001710 0.013176 -0.000736 0.000000 0.023922 0.000000
# 3 -0.012531 -0.000736 -0.008726 0.000000 -0.080899 0.000000
# 4 0.000000 0.000000 0.000000 0.028672 0.000000 0.009624
# 5 -0.029081 0.023922 -0.080899 0.000000 -0.283189 0.000000
# 6 0.000000 0.000000 0.000000 0.009624 0.000000 0.044046
#
#
# Mechanical properties :
#
#
# Convention : Reuss Voigt Hill
#
# Bulk Modulus (GPa) = -86.21263 74.09848 -6.05707
# Shear Modulus (GPa) = -30.11521 23.84145 -3.13688
#
# Velocity S-wave (km/s) = -3.98359 3.54444 -1.28567
# Velocity P-wave (km/s) = 8.16012 7.46969 2.32286
#
# Compressibility (1/GPa) = -0.01159923
#
# Stress axis : x y z
#
# Youngs Moduli (GPa) = 71.91788 75.89821 -114.59830
#
# Poissons Ratio (x) = 0.12975 -1.43607
# Poissons Ratio (y) = 0.12295 -0.08432
# Poissons Ratio (z) = 0.90123 0.05585
#
# Static dielectric constant tensor:
#      x y z
#    x 3.194370 0.000000 -0.082670 
#    y 0.000000 3.703750 0.000000 
#    z -0.082670 0.000000 3.710850 
# 
# 
# High freq. dielectric constant tensor:
#      x y z
#    x 1.706010 0.000000 -0.008910 
#    y 0.000000 1.748690 0.000000 
#    z -0.008910 0.000000 1.753570 
# 
# From -- ./inp_files/70889.got.cif
#   From: 2010.06.25/outbox.cif.g09.slc.cpg/sg11_36_cif.got.tgz:70889.got - 2010.06.27 23:14:04.
