data_PCOD8071997
_publ_section_title
;
Structure prediction by ZEFSAII (Michael W. Deem and Ramdas Pophale) SiO2 
 PCOD8071997
Probable space group: P 21/M
;
_chemical_formula_sum "Si O2"
_cell_formula_units_Z 28
_cell_length_a 9.574703
_cell_length_b 8.618714
_cell_length_c 28.537631
_cell_angle_alpha 90.000000
_cell_angle_beta 140.118651
_cell_angle_gamma 90.000000
_cell_volume 1510.007568
_symmetry_space_group_name_H-M "P 21/M"
_symmetry_group_IT_number 11
_symmetry_cell_setting 'monoclinic'
loop_
_space_group_symop_operation_xyz
x,y,z
-x,1/2+y,-z
-x,-y,-z
x,1/2-y,z
loop_
_atom_site_type_symbol
_atom_site_label
_atom_site_fract_x
_atom_site_fract_y
_atom_site_fract_z
Si Si1 0.499427 0.568173 0.644680
Si Si2 0.362939 0.566346 0.507773
Si Si3 0.673218 0.573255 0.939080
Si Si4 0.645818 0.930303 0.078562
Si Si5 0.136592 0.571991 0.100255
Si Si6 0.885901 0.933297 0.807419
Si Si7 0.949840 0.431949 0.436836
O O1 0.506369 0.750000 0.638473
O O2 0.458420 0.498453 0.581847
O O3 0.728540 0.509716 0.724784
O O4 0.309257 0.530539 0.634371
O O5 0.500000 0.500000 0.500000
O O6 0.373670 0.750000 0.507906
O O7 0.107425 0.513564 0.438971
O O8 0.592147 0.750000 0.921728
O O9 0.483604 0.457200 0.906530
O O10 0.727991 0.535652 0.899781
O O11 0.880006 0.545694 0.026019
O O12 0.690635 0.750000 0.080542
O O13 0.870521 0.019963 0.142240
O O14 0.500000 0.000000 0.000000
O O15 0.200473 0.750000 0.108055
O O16 0.196470 0.520269 0.167564
O O17 0.870302 0.750000 0.811547
O O18 0.996715 0.250000 0.446802
O O19 0.000000 0.500000 0.500000
#
# Coordination Sequence:
#
# PCOD8071997 Si02
#       7
#     4   4   4   4   4   4   4
#     4   8  18  35  55  79 109 145 183 222 268 327
#     4  10  19  34  56  85 115 145 184 225 267 318
#     4  10  20  35  55  77 103 134 175 223 273 324
#     4  12  23  36  54  79 108 142 183 231 279 328
#     4  10  20  34  53  78 106 134 172 222 273 321
#     4  11  21  36  57  79 107 146 186 224 273 329
#     4   9  16  31  54  80 108 140 179 218 259 312
#
# _framework density 18.542954000000002
#
# number of rings (size 3 to 8) (size 9 to 14) (size 15 to 20)
#    0.000    2.000    1.429    4.286    0.000    1.143 
#    0.000   10.000    0.000    3.429    0.000    0.000 
#    0.000    0.000    0.000    0.000    0.000    0.000 
#
# Total GULP energy -347072.714876 kJ/mol
# GULP energy per Si atom -12395.454103 kJ/mol
# Density = 1.850075 g / cm^3
# Si number density = 18.542954 Si / 1000 Ang^3
#
#
#
# Elastic Constant Matrix: (Units=GPa)
#
#
# Indices 1 2 3 4 5 6 
#
# 1 119.3333 30.6882 51.8373 0.0000 8.1485 0.0000
# 2 30.6882 60.5806 21.3888 0.0000 3.0198 0.0000
# 3 51.8373 21.3888 101.8453 0.0000 9.0412 0.0000
# 4 0.0000 0.0000 0.0000 20.6644 0.0000 2.5256
# 5 8.1485 3.0198 9.0412 0.0000 25.0569 0.0000
# 6 0.0000 0.0000 0.0000 2.5256 0.0000 36.8930
#
#
#
# Elastic Compliance Matrix: (Units=1/GPa)
#
#
# Indices 1 2 3 4 5 6 
#
# 1 0.011689 -0.004096 -0.004954 0.000000 -0.001520 0.000000
# 2 -0.004096 0.019281 -0.001938 0.000000 -0.000292 0.000000
# 3 -0.004954 -0.001938 0.013000 0.000000 -0.002846 0.000000
# 4 0.000000 0.000000 0.000000 0.048801 0.000000 -0.003341
# 5 -0.001520 -0.000292 -0.002846 0.000000 0.041466 0.000000
# 6 0.000000 0.000000 0.000000 -0.003341 0.000000 0.027334
#
#
# Mechanical properties :
#
#
# Convention : Reuss Voigt Hill
#
# Bulk Modulus (GPa) = 45.47061 54.39865 49.93463
# Shear Modulus (GPa) = 26.19449 28.37918 27.28684
#
# Velocity S-wave (km/s) = 3.76259 3.91635 3.84024
# Velocity P-wave (km/s) = 6.59174 7.06050 6.83014
#
# Compressibility (1/GPa) = 0.02199223
#
# Stress axis : x y z
#
# Youngs Moduli (GPa) = 85.54845 51.86461 76.92169
#
# Poissons Ratio (x) = 0.21246 0.38110
# Poissons Ratio (y) = 0.35044 0.14910
# Poissons Ratio (z) = 0.42384 0.10053
#
# Static dielectric constant tensor:
#      x y z
#    x 3.661750 0.000000 0.283990 
#    y 0.000000 3.535340 0.000000 
#    z 0.283990 0.000000 3.356420 
# 
# 
# High freq. dielectric constant tensor:
#      x y z
#    x 1.725910 0.000000 0.013030 
#    y 0.000000 1.722220 0.000000 
#    z 0.013030 0.000000 1.691830 
# 
# From -- ./inp_files/72771.got.cif
#   From: 2010.06.25/outbox.cif.g09.slc.cpg/sg11_37_cif.got.tgz:72771.got - 2010.06.27 23:14:04.
