data_PCOD8071853
_publ_section_title
;
Structure prediction by ZEFSAII (Michael W. Deem and Ramdas Pophale) SiO2 
 PCOD8071853
Probable space group: P 21/M
;
_chemical_formula_sum "Si O2"
_cell_formula_units_Z 32
_cell_length_a 12.860626
_cell_length_b 8.968016
_cell_length_c 32.132645
_cell_angle_alpha 90.000000
_cell_angle_beta 27.101648
_cell_angle_gamma 90.000000
_cell_volume 1688.342546
_symmetry_space_group_name_H-M "P 21/M"
_symmetry_group_IT_number 11
_symmetry_cell_setting 'monoclinic'
loop_
_space_group_symop_operation_xyz
x,y,z
-x,1/2+y,-z
-x,-y,-z
x,1/2-y,z
loop_
_atom_site_type_symbol
_atom_site_label
_atom_site_fract_x
_atom_site_fract_y
_atom_site_fract_z
Si Si1 0.850823 0.427035 0.182164
Si Si2 0.764428 0.424395 0.307271
Si Si3 0.891670 0.572127 0.673851
Si Si4 0.487296 0.087706 0.247992
Si Si5 0.590141 0.426644 0.509689
Si Si6 0.334587 0.073771 0.975680
Si Si7 0.777452 0.925044 0.807289
Si Si8 0.215470 0.913448 0.938137
O O1 0.854444 0.250000 0.174038
O O2 0.798319 0.473866 0.247677
O O3 0.648901 0.496672 0.224435
O O4 0.104120 0.487804 0.080071
O O5 0.707945 0.250000 0.331229
O O6 0.554012 0.518667 0.399584
O O7 0.989408 0.465492 0.252607
O O8 0.872025 0.750000 0.680015
O O9 0.743917 0.506124 0.686882
O O10 0.800366 0.516710 0.751460
O O11 0.150975 0.520255 0.575094
O O12 0.422793 0.250000 0.290094
O O13 0.625281 0.113609 0.157180
O O14 0.500000 0.500000 0.500000
O O15 0.573475 0.250000 0.510718
O O16 0.347169 0.250000 0.974810
O O17 0.574149 0.004326 0.906451
O O18 0.338987 0.018534 0.926908
O O19 0.727762 0.750000 0.826041
O O20 0.153727 0.750000 0.979076
O O21 0.000000 0.000000 0.000000
#
# Coordination Sequence:
#
# PCOD8071853 Si02
#       8
#     4   4   4   4   4   4   4   4
#     4   9  19  35  54  76 107 151 192 223 264 327
#     4  10  21  39  59  78 107 147 189 226 270 337
#     4   9  17  31  53  82 110 137 173 220 276 335
#     4   9  16  30  53  77 104 141 183 218 261 325
#     4  11  21  36  60  88 112 138 177 227 283 334
#     4  11  21  33  51  82 114 144 188 235 275 323
#     4  10  19  34  54  79 109 145 181 222 280 336
#     4  11  19  30  51  78 108 145 187 232 276 323
#
# _framework density 18.953500999999999
#
# number of rings (size 3 to 8) (size 9 to 14) (size 15 to 20)
#    0.000    2.000    3.750    1.125    0.000    1.000 
#    0.000    1.875    0.000    0.000    0.000    0.000 
#    0.000    0.000    0.000    0.000    0.000    0.000 
#
# Total GULP energy -396462.096506 kJ/mol
# GULP energy per Si atom -12389.440516 kJ/mol
# Density = 1.891036 g / cm^3
# Si number density = 18.953501 Si / 1000 Ang^3
#
#
#
# Elastic Constant Matrix: (Units=GPa)
#
#
# Indices 1 2 3 4 5 6 
#
# 1 103.2512 18.7827 76.2151 0.0000 -8.9907 0.0000
# 2 18.7827 35.9853 37.4856 0.0000 -9.1841 0.0000
# 3 76.2151 37.4856 145.1074 0.0000 -20.0753 0.0000
# 4 0.0000 0.0000 0.0000 26.2759 0.0000 -1.0167
# 5 -8.9907 -9.1841 -20.0753 0.0000 36.1343 0.0000
# 6 0.0000 0.0000 0.0000 -1.0167 0.0000 14.9094
#
#
#
# Elastic Compliance Matrix: (Units=1/GPa)
#
#
# Indices 1 2 3 4 5 6 
#
# 1 0.015841 0.000442 -0.008529 0.000000 -0.000685 0.000000
# 2 0.000442 0.038738 -0.009600 0.000000 0.004623 0.000000
# 3 -0.008529 -0.009600 0.014321 0.000000 0.003394 0.000000
# 4 0.000000 0.000000 0.000000 0.038158 0.000000 0.002602
# 5 -0.000685 0.004623 0.003394 0.000000 0.030565 0.000000
# 6 0.000000 0.000000 0.000000 0.002602 0.000000 0.067249
#
#
# Mechanical properties :
#
#
# Convention : Reuss Voigt Hill
#
# Bulk Modulus (GPa) = 29.82792 61.03453 45.43122
# Shear Modulus (GPa) = 19.88694 25.58796 22.73745
#
# Velocity S-wave (km/s) = 3.24273 3.67827 3.46734
# Velocity P-wave (km/s) = 5.45820 7.09308 6.32865
#
# Compressibility (1/GPa) = 0.03352564
#
# Stress axis : x y z
#
# Youngs Moduli (GPa) = 63.12823 25.81417 69.82974
#
# Poissons Ratio (x) = -0.01140 0.59557
# Poissons Ratio (y) = -0.02787 0.67034
# Poissons Ratio (z) = 0.53841 0.24781
#
# Static dielectric constant tensor:
#      x y z
#    x 3.658610 0.000000 -0.229890 
#    y 0.000000 3.139410 0.000000 
#    z -0.229890 0.000000 3.534130 
# 
# 
# High freq. dielectric constant tensor:
#      x y z
#    x 1.740320 0.000000 -0.021890 
#    y 0.000000 1.696420 0.000000 
#    z -0.021890 0.000000 1.735690 
# 
# From -- ./inp_files/73089.got.cif
#   From: 2010.06.25/outbox.cif.g09.slc.cpg/sg11_37_cif.got.tgz:73089.got - 2010.06.27 23:14:04.
