data_PCOD8071837
_publ_section_title
;
Structure prediction by ZEFSAII (Michael W. Deem and Ramdas Pophale) SiO2 
 PCOD8071837
Probable space group: P 21/M
;
_chemical_formula_sum "Si O2"
_cell_formula_units_Z 32
_cell_length_a 8.548691
_cell_length_b 14.084265
_cell_length_c 15.194008
_cell_angle_alpha 90.000000
_cell_angle_beta 107.948053
_cell_angle_gamma 90.000000
_cell_volume 1740.364532
_symmetry_space_group_name_H-M "P 21/M"
_symmetry_group_IT_number 11
_symmetry_cell_setting 'monoclinic'
loop_
_space_group_symop_operation_xyz
x,y,z
-x,1/2+y,-z
-x,-y,-z
x,1/2-y,z
loop_
_atom_site_type_symbol
_atom_site_label
_atom_site_fract_x
_atom_site_fract_y
_atom_site_fract_z
Si Si1 0.422630 0.862747 0.671126
Si Si2 0.060475 0.857468 0.048732
Si Si3 0.181800 0.523612 0.505628
Si Si4 0.531984 0.022735 0.145713
Si Si5 0.769993 0.511655 0.033020
Si Si6 0.619336 0.143262 0.784889
Si Si7 0.631078 0.853448 0.550268
Si Si8 0.698290 0.353577 0.611765
O O1 0.379251 0.750000 0.664357
O O2 0.273716 0.923332 0.601735
O O3 0.448276 0.897262 0.776010
O O4 0.594068 0.880653 0.646358
O O5 0.027846 0.750000 0.010236
O O6 0.196922 0.859423 0.147289
O O7 0.126458 0.919480 0.978672
O O8 0.893797 0.899716 0.061569
O O9 0.270904 0.427396 0.491063
O O10 0.163132 0.586094 0.413596
O O11 0.000000 0.500000 0.500000
O O12 0.694608 0.016769 0.114151
O O13 0.509801 0.918788 0.183696
O O14 0.371952 0.045024 0.059012
O O15 0.547581 0.250000 0.771871
O O16 0.631575 0.098778 0.689366
O O17 0.718792 0.750000 0.558831
O O18 0.447825 0.846238 0.482414
O O19 0.770964 0.250000 0.647934
#
# Coordination Sequence:
#
# PCOD8071837 Si02
#       8
#     4   4   4   4   4   4   4   4
#     4  10  21  37  55  76 103 138 178 216 257 309
#     4   9  18  34  52  72 103 136 167 207 256 312
#     4  11  21  32  51  76 105 139 168 209 260 303
#     4  10  19  34  54  77 104 131 170 223 263 302
#     4   9  20  34  52  77 102 135 175 212 261 318
#     4   9  17  30  52  77 100 130 166 209 259 306
#     4   9  18  33  53  74  99 134 174 209 246 301
#     4   9  17  32  52  72  96 130 169 204 245 301
#
# _framework density 18.386952999999998
#
# number of rings (size 3 to 8) (size 9 to 14) (size 15 to 20)
#    0.000    2.500    0.000    4.125    0.000    3.500 
#    0.000    3.750    0.000    4.500    0.000    0.000 
#    0.000    0.000    0.000    0.000    0.000    0.000 
#
# Total GULP energy -396581.687219 kJ/mol
# GULP energy per Si atom -12393.177726 kJ/mol
# Density = 1.834510 g / cm^3
# Si number density = 18.386953 Si / 1000 Ang^3
#
#
#
# Elastic Constant Matrix: (Units=GPa)
#
#
# Indices 1 2 3 4 5 6 
#
# 1 98.8288 56.2876 29.9018 0.0000 -22.0218 0.0000
# 2 56.2876 124.1507 43.1764 0.0000 -11.4160 0.0000
# 3 29.9018 43.1764 92.2572 0.0000 -24.4344 0.0000
# 4 0.0000 0.0000 0.0000 30.6125 0.0000 -2.5144
# 5 -22.0218 -11.4160 -24.4344 0.0000 22.8478 0.0000
# 6 0.0000 0.0000 0.0000 -2.5144 0.0000 8.8704
#
#
#
# Elastic Compliance Matrix: (Units=1/GPa)
#
#
# Indices 1 2 3 4 5 6 
#
# 1 0.016731 -0.006810 0.001582 0.000000 0.014415 0.000000
# 2 -0.006810 0.012393 -0.005150 0.000000 -0.005879 0.000000
# 3 0.001582 -0.005150 0.017382 0.000000 0.017541 0.000000
# 4 0.000000 0.000000 0.000000 0.033445 0.000000 0.009480
# 5 0.014415 -0.005879 0.017541 0.000000 0.073484 0.000000
# 6 0.000000 0.000000 0.000000 0.009480 0.000000 0.115422
#
#
# Mechanical properties :
#
#
# Convention : Reuss Voigt Hill
#
# Bulk Modulus (GPa) = 38.83359 63.77425 51.30392
# Shear Modulus (GPa) = 16.76760 24.85753 20.81257
#
# Velocity S-wave (km/s) = 3.02309 3.68082 3.36805
# Velocity P-wave (km/s) = 5.77507 7.26804 6.56414
#
# Compressibility (1/GPa) = 0.02575090
#
# Stress axis : x y z
#
# Youngs Moduli (GPa) = 59.77095 80.69335 57.53001
#
# Poissons Ratio (x) = 0.54953 -0.09104
# Poissons Ratio (y) = 0.40705 0.29625
# Poissons Ratio (z) = -0.09458 0.41553
#
# Static dielectric constant tensor:
#      x y z
#    x 3.160450 0.000000 -0.165390 
#    y 0.000000 3.848450 0.000000 
#    z -0.165390 0.000000 3.473110 
# 
# 
# High freq. dielectric constant tensor:
#      x y z
#    x 1.688760 0.000000 -0.017060 
#    y 0.000000 1.724700 0.000000 
#    z -0.017060 0.000000 1.711370 
# 
# From -- ./inp_files/47466.got.cif
#   From: 2010.06.25/outbox.cif.g09.slc.cpg/sg11_24_cif.got.tgz:47466.got - 2010.06.27 23:14:04.
