data_PCOD8071374
_publ_section_title
;
Structure prediction by ZEFSAII (Michael W. Deem and Ramdas Pophale) SiO2 
 PCOD8071374
Probable space group: P 21/M
;
_chemical_formula_sum "Si O2"
_cell_formula_units_Z 28
_cell_length_a 19.179120
_cell_length_b 9.008242
_cell_length_c 14.309483
_cell_angle_alpha 90.000000
_cell_angle_beta 40.847480
_cell_angle_gamma 90.000000
_cell_volume 1616.970434
_symmetry_space_group_name_H-M "P 21/M"
_symmetry_group_IT_number 11
_symmetry_cell_setting 'monoclinic'
loop_
_space_group_symop_operation_xyz
x,y,z
-x,1/2+y,-z
-x,-y,-z
x,1/2-y,z
loop_
_atom_site_type_symbol
_atom_site_label
_atom_site_fract_x
_atom_site_fract_y
_atom_site_fract_z
Si Si1 0.623584 0.079408 0.790535
Si Si2 0.788998 0.423601 0.927240
Si Si3 0.876917 0.420758 0.036206
Si Si4 0.125151 0.421613 0.774587
Si Si5 0.819817 0.422818 0.463513
Si Si6 0.002412 0.926327 0.396985
Si Si7 0.617689 0.923750 0.984238
O O1 0.624367 0.250000 0.821836
O O2 0.703402 0.050571 0.624727
O O3 0.505828 0.031329 0.876674
O O4 0.661194 0.985245 0.841674
O O5 0.770578 0.250000 0.934087
O O6 0.888685 0.474974 0.763629
O O7 0.808823 0.465651 0.014916
O O8 0.682830 0.507212 0.003576
O O9 0.859597 0.250000 0.082198
O O10 0.838459 0.523375 0.160242
O O11 0.999985 0.449157 0.886867
O O12 0.155770 0.250000 0.732287
O O13 0.187082 0.517603 0.634886
O O14 0.851844 0.250000 0.432535
O O15 0.904622 0.516391 0.435385
O O16 0.993721 0.750000 0.415176
O O17 0.000000 0.000000 0.500000
O O18 0.635765 0.750000 0.966855
#
# Coordination Sequence:
#
# PCOD8071374 Si02
#       7
#     4   4   4   4   4   4   4
#     4   9  20  37  53  73 103 137 173 214 258 301
#     4  10  20  35  52  72 105 139 167 205 257 307
#     4   9  18  34  52  73 102 138 170 204 254 310
#     4  10  19  33  52  77 105 133 168 214 255 301
#     4  11  21  34  53  75 102 139 173 207 255 309
#     4  11  22  35  48  72 107 139 169 207 253 305
#     4  10  20  34  54  78 101 131 176 220 254 297
#
# _framework density 17.316333
#
# number of rings (size 3 to 8) (size 9 to 14) (size 15 to 20)
#    0.000    2.000    1.429    2.571    0.000    7.429 
#    0.000    0.000    0.000    0.857    0.000    0.000 
#    0.000    0.000    0.000    0.000    0.000    0.000 
#
# Total GULP energy -347310.868666 kJ/mol
# GULP energy per Si atom -12403.959595 kJ/mol
# Density = 1.727692 g / cm^3
# Si number density = 17.316333 Si / 1000 Ang^3
#
#
#
# Elastic Constant Matrix: (Units=GPa)
#
#
# Indices 1 2 3 4 5 6 
#
# 1 119.0856 49.4596 52.8640 0.0000 6.8730 0.0000
# 2 49.4596 67.7832 39.3302 0.0000 5.1313 0.0000
# 3 52.8640 39.3302 78.9587 0.0000 10.2192 0.0000
# 4 0.0000 0.0000 0.0000 26.5036 0.0000 3.3505
# 5 6.8730 5.1313 10.2192 0.0000 23.7338 0.0000
# 6 0.0000 0.0000 0.0000 3.3505 0.0000 35.6156
#
#
#
# Elastic Compliance Matrix: (Units=1/GPa)
#
#
# Indices 1 2 3 4 5 6 
#
# 1 0.013775 -0.006611 -0.005929 0.000000 -0.000007 0.000000
# 2 -0.006611 0.023923 -0.007486 0.000000 -0.000035 0.000000
# 3 -0.005929 -0.007486 0.021108 0.000000 -0.005753 0.000000
# 4 0.000000 0.000000 0.000000 0.038185 0.000000 -0.003592
# 5 -0.000007 -0.000035 -0.005753 0.000000 0.044621 0.000000
# 6 0.000000 0.000000 0.000000 -0.003592 0.000000 0.028416
#
#
# Mechanical properties :
#
#
# Convention : Reuss Voigt Hill
#
# Bulk Modulus (GPa) = 53.31953 61.01502 57.16727
# Shear Modulus (GPa) = 23.11293 25.44885 24.28089
#
# Velocity S-wave (km/s) = 3.65738 3.83775 3.74865
# Velocity P-wave (km/s) = 6.97808 7.41281 7.19873
#
# Compressibility (1/GPa) = 0.01875485
#
# Stress axis : x y z
#
# Youngs Moduli (GPa) = 72.59353 41.80129 47.37618
#
# Poissons Ratio (x) = 0.27634 0.28089
# Poissons Ratio (y) = 0.47990 0.35464
# Poissons Ratio (z) = 0.43040 0.31291
#
# Static dielectric constant tensor:
#      x y z
#    x 3.463850 0.000000 0.301260 
#    y 0.000000 3.311670 0.000000 
#    z 0.301260 0.000000 3.439210 
# 
# 
# High freq. dielectric constant tensor:
#      x y z
#    x 1.665900 0.000000 0.010400 
#    y 0.000000 1.678550 0.000000 
#    z 0.010400 0.000000 1.654900 
# 
# From -- ./inp_files/37146.got.cif
#   From: 2010.06.25/outbox.cif.g09.slc.cpg/sg11_19_cif.got.tgz:37146.got - 2010.06.27 23:14:04.
