data_PCOD8071682
_publ_section_title
;
Structure prediction by ZEFSAII (Michael W. Deem and Ramdas Pophale) SiO2 
 PCOD8071682
Probable space group: P 21/M
;
_chemical_formula_sum "Si O2"
_cell_formula_units_Z 32
_cell_length_a 9.483707
_cell_length_b 11.524401
_cell_length_c 19.691187
_cell_angle_alpha 90.000000
_cell_angle_beta 133.263280
_cell_angle_gamma 90.000000
_cell_volume 1567.206773
_symmetry_space_group_name_H-M "P 21/M"
_symmetry_group_IT_number 11
_symmetry_cell_setting 'monoclinic'
loop_
_space_group_symop_operation_xyz
x,y,z
-x,1/2+y,-z
-x,-y,-z
x,1/2-y,z
loop_
_atom_site_type_symbol
_atom_site_label
_atom_site_fract_x
_atom_site_fract_y
_atom_site_fract_z
Si Si1 0.587070 0.961651 0.434616
Si Si2 0.716940 0.486582 0.869834
Si Si3 0.097955 0.121956 0.953581
Si Si4 0.738064 0.615871 0.741515
Si Si5 0.306931 0.383153 0.763814
Si Si6 0.050686 0.459313 0.790664
Si Si7 0.893785 0.618860 0.440949
Si Si8 0.260897 0.624912 0.413117
O O1 0.437430 0.051214 0.352374
O O2 0.755761 0.031949 0.531320
O O3 0.686780 0.882319 0.410889
O O4 0.475105 0.881260 0.451018
O O5 0.731650 0.589865 0.819689
O O6 0.507534 0.429392 0.800713
O O7 0.873119 0.390041 0.900201
O O8 0.765865 0.533120 0.960912
O O9 0.167577 0.250000 0.995568
O O10 0.122538 0.105056 0.881573
O O11 0.710185 0.750000 0.719176
O O12 0.946627 0.579784 0.777773
O O13 0.330696 0.250000 0.796634
O O14 0.142827 0.389741 0.651537
O O15 0.237403 0.467510 0.802576
O O16 0.894465 0.384300 0.698096
O O17 0.984715 0.750000 0.486659
O O18 0.000000 0.500000 0.500000
O O19 0.236373 0.750000 0.439513
#
# Coordination Sequence:
#
# PCOD8071682 Si02
#       8
#     4   4   4   4   4   4   4   4
#     4  10  20  35  56  84 113 154 204 251 303 360
#     4  10  21  37  60  90 118 153 206 250 311 374
#     4  10  20  37  60  86 117 154 200 257 309 366
#     4  10  20  38  60  84 119 157 202 258 312 368
#     4  11  22  40  62  88 125 162 203 256 307 367
#     4  10  22  37  57  85 116 156 202 243 303 368
#     4  11  24  41  60  87 125 167 211 256 306 367
#     4  10  19  33  56  83 114 151 199 251 300 356
#
# _framework density 20.418492000000001
#
# number of rings (size 3 to 8) (size 9 to 14) (size 15 to 20)
#    0.000    1.750    1.250    3.375    0.000    2.500 
#    0.000    6.875    0.000    0.000    0.000    0.000 
#    0.000    0.000    0.000    0.000    0.000    0.000 
#
# Total GULP energy -396607.517740 kJ/mol
# GULP energy per Si atom -12393.984929 kJ/mol
# Density = 2.037202 g / cm^3
# Si number density = 20.418492 Si / 1000 Ang^3
#
#
#
# Elastic Constant Matrix: (Units=GPa)
#
#
# Indices 1 2 3 4 5 6 
#
# 1 92.1023 28.7149 21.0909 0.0000 -15.4675 0.0000
# 2 28.7149 106.3858 23.8874 0.0000 -1.3029 0.0000
# 3 21.0909 23.8874 80.5946 0.0000 -14.6388 0.0000
# 4 0.0000 0.0000 0.0000 18.2199 0.0000 1.3974
# 5 -15.4675 -1.3029 -14.6388 0.0000 35.6657 0.0000
# 6 0.0000 0.0000 0.0000 1.3974 0.0000 14.0258
#
#
#
# Elastic Compliance Matrix: (Units=1/GPa)
#
#
# Indices 1 2 3 4 5 6 
#
# 1 0.013006 -0.003091 -0.001603 0.000000 0.004870 0.000000
# 2 -0.003091 0.010833 -0.002781 0.000000 -0.002086 0.000000
# 3 -0.001603 -0.002781 0.014595 0.000000 0.005194 0.000000
# 4 0.000000 0.000000 0.000000 0.055308 0.000000 -0.005510
# 5 0.004870 -0.002086 0.005194 0.000000 0.032205 0.000000
# 6 0.000000 0.000000 0.000000 -0.005510 0.000000 0.071846
#
#
# Mechanical properties :
#
#
# Convention : Reuss Voigt Hill
#
# Bulk Modulus (GPa) = 42.58158 47.38545 44.98352
# Shear Modulus (GPa) = 22.66849 27.27492 24.97170
#
# Velocity S-wave (km/s) = 3.33557 3.65882 3.50093
# Velocity P-wave (km/s) = 5.97783 6.41146 6.19843
#
# Compressibility (1/GPa) = 0.02348433
#
# Stress axis : x y z
#
# Youngs Moduli (GPa) = 76.88743 92.31156 68.51767
#
# Poissons Ratio (x) = 0.28533 0.10983
# Poissons Ratio (y) = 0.23765 0.19053
# Poissons Ratio (z) = 0.12325 0.25670
#
# Static dielectric constant tensor:
#      x y z
#    x 3.906160 0.000000 -0.130570 
#    y 0.000000 3.637910 0.000000 
#    z -0.130570 0.000000 3.644420 
# 
# 
# High freq. dielectric constant tensor:
#      x y z
#    x 1.808780 0.000000 -0.012660 
#    y 0.000000 1.784630 0.000000 
#    z -0.012660 0.000000 1.791690 
# 
# From -- ./inp_files/63678.got.cif
#   From: 2010.06.25/outbox.cif.g09.slc.cpg/sg11_32_cif.got.tgz:63678.got - 2010.06.27 23:14:04.
