data_PCOD8071252
_publ_section_title
;
Structure prediction by ZEFSAII (Michael W. Deem and Ramdas Pophale) SiO2 
 PCOD8071252
Probable space group: P 21/M
;
_chemical_formula_sum "Si O2"
_cell_formula_units_Z 32
_cell_length_a 20.878111
_cell_length_b 9.277710
_cell_length_c 26.765653
_cell_angle_alpha 90.000000
_cell_angle_beta 160.521603
_cell_angle_gamma 90.000000
_cell_volume 1728.790663
_symmetry_space_group_name_H-M "P 21/M"
_symmetry_group_IT_number 11
_symmetry_cell_setting 'monoclinic'
loop_
_space_group_symop_operation_xyz
x,y,z
-x,1/2+y,-z
-x,-y,-z
x,1/2-y,z
loop_
_atom_site_type_symbol
_atom_site_label
_atom_site_fract_x
_atom_site_fract_y
_atom_site_fract_z
Si Si1 0.930847 0.417252 0.216588
Si Si2 0.711864 0.917439 0.769606
Si Si3 0.003229 0.081785 0.450695
Si Si4 0.300355 0.581211 0.854168
Si Si5 0.591917 0.917372 0.299014
Si Si6 0.235219 0.420160 0.998806
Si Si7 0.372752 0.416645 0.560566
Si Si8 0.982410 0.583699 0.061407
O O1 0.900172 0.250000 0.180107
O O2 0.814623 0.459196 0.180548
O O3 0.152475 0.452593 0.388570
O O4 0.859879 0.518428 0.120475
O O5 0.687623 0.750000 0.740188
O O6 0.501984 0.988564 0.618373
O O7 0.820345 0.948336 0.901172
O O8 0.829573 0.988146 0.810656
O O9 0.991304 0.250000 0.453376
O O10 0.195737 0.043263 0.562661
O O11 0.824245 0.031825 0.285184
O O12 0.000000 0.000000 0.500000
O O13 0.341698 0.750000 0.882404
O O14 0.500000 0.500000 0.000000
O O15 0.545185 0.750000 0.255657
O O16 0.575558 0.958457 0.344880
O O17 0.444871 0.011890 0.159107
O O18 0.259850 0.250000 0.012220
O O19 0.100527 0.462694 0.946229
O O20 0.418078 0.250000 0.583800
O O21 0.044284 0.750000 0.105606
#
# Coordination Sequence:
#
# PCOD8071252 Si02
#       8
#     4   4   4   4   4   4   4   4
#     4  10  22  41  61  82 113 154 195 233 278 342
#     4  10  19  32  55  85 115 147 186 235 285 336
#     4  10  22  40  60  86 117 149 189 237 284 336
#     4  10  22  41  61  83 115 152 192 234 280 338
#     4  10  20  37  61  84 111 150 193 235 283 340
#     4  11  23  38  57  86 120 150 186 239 289 332
#     4  10  19  36  61  84 109 149 193 235 283 335
#     4   9  19  35  52  79 117 151 185 231 284 337
#
# _framework density 18.510048999999999
#
# number of rings (size 3 to 8) (size 9 to 14) (size 15 to 20)
#    0.000    2.000    2.500    0.750    1.750    3.500 
#    0.000    0.625    0.000    0.000    0.000    0.000 
#    0.000    0.000    0.000    0.000    0.000    0.000 
#
# Total GULP energy -396922.519958 kJ/mol
# GULP energy per Si atom -12403.828749 kJ/mol
# Density = 1.846792 g / cm^3
# Si number density = 18.510049 Si / 1000 Ang^3
#
#
#
# Elastic Constant Matrix: (Units=GPa)
#
#
# Indices 1 2 3 4 5 6 
#
# 1 106.1853 58.8038 72.3336 0.0000 5.1411 0.0000
# 2 58.8038 76.8008 62.5932 0.0000 10.7749 0.0000
# 3 72.3336 62.5932 107.3205 0.0000 20.7772 0.0000
# 4 0.0000 0.0000 0.0000 25.2736 0.0000 4.7449
# 5 5.1411 10.7749 20.7772 0.0000 32.8783 0.0000
# 6 0.0000 0.0000 0.0000 4.7449 0.0000 34.6357
#
#
#
# Elastic Compliance Matrix: (Units=1/GPa)
#
#
# Indices 1 2 3 4 5 6 
#
# 1 0.020754 -0.008359 -0.010271 0.000000 0.005985 0.000000
# 2 -0.008359 0.028223 -0.010584 0.000000 -0.001254 0.000000
# 3 -0.010271 -0.010584 0.024419 0.000000 -0.010357 0.000000
# 4 0.000000 0.000000 0.000000 0.040611 0.000000 -0.005564
# 5 0.005985 -0.001254 -0.010357 0.000000 0.036435 0.000000
# 6 0.000000 0.000000 0.000000 -0.005564 0.000000 0.029634
#
#
# Mechanical properties :
#
#
# Convention : Reuss Voigt Hill
#
# Bulk Modulus (GPa) = 66.81515 75.30753 71.06134
# Shear Modulus (GPa) = 20.53449 24.99592 22.76521
#
# Velocity S-wave (km/s) = 3.33433 3.67876 3.51077
# Velocity P-wave (km/s) = 7.14134 7.66925 7.41000
#
# Compressibility (1/GPa) = 0.01496666
#
# Stress axis : x y z
#
# Youngs Moduli (GPa) = 48.18445 35.43251 40.95205
#
# Poissons Ratio (x) = 0.29617 0.42064
# Poissons Ratio (y) = 0.40276 0.43344
# Poissons Ratio (z) = 0.49492 0.37502
#
# Static dielectric constant tensor:
#      x y z
#    x 3.145220 0.000000 0.167130 
#    y 0.000000 3.368460 0.000000 
#    z 0.167130 0.000000 3.330340 
# 
# 
# High freq. dielectric constant tensor:
#      x y z
#    x 1.721870 0.000000 0.011200 
#    y 0.000000 1.715450 0.000000 
#    z 0.011200 0.000000 1.719480 
# 
# From -- ./inp_files/72150.got.cif
#   From: 2010.06.25/outbox.cif.g09.slc.cpg/sg11_37_cif.got.tgz:72150.got - 2010.06.27 23:14:04.
