data_PCOD8071243
_publ_section_title
;
Structure prediction by ZEFSAII (Michael W. Deem and Ramdas Pophale) SiO2 
 PCOD8071243
Probable space group: P 21/M
;
_chemical_formula_sum "Si O2"
_cell_formula_units_Z 28
_cell_length_a 30.557119
_cell_length_b 9.201312
_cell_length_c 10.116636
_cell_angle_alpha 90.000000
_cell_angle_beta 32.698844
_cell_angle_gamma 90.000000
_cell_volume 1536.638224
_symmetry_space_group_name_H-M "P 21/M"
_symmetry_group_IT_number 11
_symmetry_cell_setting 'monoclinic'
loop_
_space_group_symop_operation_xyz
x,y,z
-x,1/2+y,-z
-x,-y,-z
x,1/2-y,z
loop_
_atom_site_type_symbol
_atom_site_label
_atom_site_fract_x
_atom_site_fract_y
_atom_site_fract_z
Si Si1 0.924178 0.418830 0.028069
Si Si2 0.500287 0.417095 0.862654
Si Si3 0.916866 0.417796 0.355056
Si Si4 0.319466 0.582776 0.663755
Si Si5 0.338959 0.079982 0.135334
Si Si6 0.230103 0.078782 0.660786
Si Si7 0.257954 0.580152 0.106955
O O1 0.923408 0.250000 0.992871
O O2 0.011345 0.484495 0.768194
O O3 0.905820 0.446968 0.228074
O O4 0.856522 0.500199 0.114284
O O5 0.484129 0.250000 0.939138
O O6 0.584129 0.440055 0.572388
O O7 0.500000 0.500000 0.000000
O O8 0.427887 0.474239 0.953624
O O9 0.937835 0.250000 0.329060
O O10 0.834873 0.467683 0.635294
O O11 0.298428 0.750000 0.682469
O O12 0.283977 0.477497 0.643868
O O13 0.281841 0.536156 0.898647
O O14 0.337803 0.250000 0.109141
O O15 0.274767 0.037925 0.411455
O O16 0.317698 0.999771 0.054735
O O17 0.217432 0.250000 0.707770
O O18 0.268144 0.750000 0.107849
#
# Coordination Sequence:
#
# PCOD8071243 Si02
#       7
#     4   4   4   4   4   4   4
#     4  10  19  32  55  84 110 140 184 229 274 323
#     4  10  20  36  56  82 112 144 185 231 275 320
#     4   9  18  33  53  79 112 143 177 225 277 326
#     4  10  22  38  58  81 112 148 185 229 276 328
#     4  10  21  35  55  82 112 145 184 229 272 325
#     4  11  21  35  56  83 113 145 186 228 273 327
#     4  10  21  38  57  82 113 148 184 223 277 334
#
# _framework density 18.221596000000002
#
# number of rings (size 3 to 8) (size 9 to 14) (size 15 to 20)
#    0.000    2.000    2.857    0.857    0.000    3.429 
#    0.000    0.714    0.000    0.000    0.000    0.000 
#    0.000    0.000    0.000    0.000    0.000    0.000 
#
# Total GULP energy -347315.949616 kJ/mol
# GULP energy per Si atom -12404.141058 kJ/mol
# Density = 1.818012 g / cm^3
# Si number density = 18.221596 Si / 1000 Ang^3
#
#
#
# Elastic Constant Matrix: (Units=GPa)
#
#
# Indices 1 2 3 4 5 6 
#
# 1 66.5060 41.9065 15.2170 0.0000 -20.5020 0.0000
# 2 41.9065 68.1681 29.4019 0.0000 -10.8060 0.0000
# 3 15.2170 29.4019 79.6111 0.0000 -13.4881 0.0000
# 4 0.0000 0.0000 0.0000 20.4236 0.0000 -5.1739
# 5 -20.5020 -10.8060 -13.4881 0.0000 33.1365 0.0000
# 6 0.0000 0.0000 0.0000 -5.1739 0.0000 36.7901
#
#
#
# Elastic Compliance Matrix: (Units=1/GPa)
#
#
# Indices 1 2 3 4 5 6 
#
# 1 0.029477 -0.017255 0.003088 0.000000 0.013868 0.000000
# 2 -0.017255 0.027891 -0.007809 0.000000 -0.004759 0.000000
# 3 0.003088 -0.007809 0.015839 0.000000 0.005811 0.000000
# 4 0.000000 0.000000 0.000000 0.050772 0.000000 0.007140
# 5 0.013868 -0.004759 0.005811 0.000000 0.039572 0.000000
# 6 0.000000 0.000000 0.000000 0.007140 0.000000 0.028185
#
#
# Mechanical properties :
#
#
# Convention : Reuss Voigt Hill
#
# Bulk Modulus (GPa) = 34.18114 43.03735 38.60925
# Shear Modulus (GPa) = 20.37160 26.58736 23.47948
#
# Velocity S-wave (km/s) = 3.34727 3.82398 3.59354
# Velocity P-wave (km/s) = 5.80846 6.57018 6.20103
#
# Compressibility (1/GPa) = 0.02925590
#
# Stress axis : x y z
#
# Youngs Moduli (GPa) = 33.92438 35.85436 63.13389
#
# Poissons Ratio (x) = 0.61866 -0.19494
# Poissons Ratio (y) = 0.58535 0.49300
# Poissons Ratio (z) = -0.10475 0.27998
#
# Static dielectric constant tensor:
#      x y z
#    x 3.249330 0.000000 -0.191670 
#    y 0.000000 3.326500 0.000000 
#    z -0.191670 0.000000 3.481070 
# 
# 
# High freq. dielectric constant tensor:
#      x y z
#    x 1.701590 0.000000 -0.018750 
#    y 0.000000 1.706170 0.000000 
#    z -0.018750 0.000000 1.705660 
# 
# From -- ./inp_files/28312.got.cif
#   From: 2010.06.25/outbox.cif.g09.slc.cpg/sg11_15_cif.got.tgz:28312.got - 2010.06.27 23:14:04.
