data_PCOD8071043
_publ_section_title
;
Structure prediction by ZEFSAII (Michael W. Deem and Ramdas Pophale) SiO2 
 PCOD8071043
Probable space group: P 21/M
;
_chemical_formula_sum "Si O2"
_cell_formula_units_Z 28
_cell_length_a 16.576454
_cell_length_b 10.448004
_cell_length_c 10.843935
_cell_angle_alpha 90.000000
_cell_angle_beta 50.367283
_cell_angle_gamma 90.000000
_cell_volume 1446.394298
_symmetry_space_group_name_H-M "P 21/M"
_symmetry_group_IT_number 11
_symmetry_cell_setting 'monoclinic'
loop_
_space_group_symop_operation_xyz
x,y,z
-x,1/2+y,-z
-x,-y,-z
x,1/2-y,z
loop_
_atom_site_type_symbol
_atom_site_label
_atom_site_fract_x
_atom_site_fract_y
_atom_site_fract_z
Si Si1 0.584230 0.978599 0.241078
Si Si2 0.813069 0.398527 0.444666
Si Si3 0.203146 0.108366 0.074424
Si Si4 0.209598 0.606661 0.261065
Si Si5 0.988002 0.605745 0.909355
Si Si6 0.369730 0.605678 0.547468
Si Si7 0.448923 0.888913 0.970557
O O1 0.482506 0.893845 0.370650
O O2 0.629051 0.035665 0.323230
O O3 0.547177 0.086175 0.180090
O O4 0.676452 0.897794 0.087361
O O5 0.786095 0.250000 0.484730
O O6 0.816083 0.454061 0.580131
O O7 0.719703 0.459612 0.451978
O O8 0.926429 0.424824 0.277923
O O9 0.186957 0.250000 0.149631
O O10 0.128153 0.092903 0.030539
O O11 0.169206 0.996700 0.201523
O O12 0.159483 0.750000 0.289269
O O13 0.332412 0.620904 0.131645
O O14 0.006003 0.750000 0.944329
O O15 0.000000 0.500000 0.000000
O O16 0.336493 0.750000 0.608543
O O17 0.503831 0.750000 0.939666
O O18 0.500000 0.000000 0.000000
#
# Coordination Sequence:
#
# PCOD8071043 Si02
#       7
#     4   4   4   4   4   4   4
#     4  10  20  33  51  75 106 141 175 213 262 316
#     4   9  18  34  55  77 102 134 174 217 258 305
#     4  10  21  36  54  79 110 140 172 215 268 316
#     4   9  19  35  54  77 104 137 178 218 257 309
#     4  10  21  37  57  80 107 139 175 216 262 312
#     4  10  19  32  52  76 102 136 177 217 258 307
#     4  10  20  33  51  76 106 140 179 220 261 311
#
# _framework density 19.358483
#
# number of rings (size 3 to 8) (size 9 to 14) (size 15 to 20)
#    0.000    2.286    0.000    2.571    0.000    5.714 
#    0.000    0.714    0.000    4.286    0.000    0.000 
#    0.000    0.000    0.000    0.000    0.000    0.000 
#
# Total GULP energy -347039.333603 kJ/mol
# GULP energy per Si atom -12394.261914 kJ/mol
# Density = 1.931442 g / cm^3
# Si number density = 19.358483 Si / 1000 Ang^3
#
#
#
# Elastic Constant Matrix: (Units=GPa)
#
#
# Indices 1 2 3 4 5 6 
#
# 1 75.3271 44.9599 22.5707 0.0000 7.9254 0.0000
# 2 44.9599 125.4572 35.7824 0.0000 25.1189 0.0000
# 3 22.5707 35.7824 90.2598 0.0000 21.2537 0.0000
# 4 0.0000 0.0000 0.0000 17.5253 0.0000 3.7365
# 5 7.9254 25.1189 21.2537 0.0000 25.3540 0.0000
# 6 0.0000 0.0000 0.0000 3.7365 0.0000 30.5453
#
#
#
# Elastic Compliance Matrix: (Units=1/GPa)
#
#
# Indices 1 2 3 4 5 6 
#
# 1 0.017364 -0.006027 -0.002592 0.000000 0.002717 0.000000
# 2 -0.006027 0.012340 -0.001183 0.000000 -0.009350 0.000000
# 3 -0.002592 -0.001183 0.014614 0.000000 -0.010268 0.000000
# 4 0.000000 0.000000 0.000000 0.058588 0.000000 -0.007167
# 5 0.002717 -0.009350 -0.010268 0.000000 0.056463 0.000000
# 6 0.000000 0.000000 0.000000 -0.007167 0.000000 0.033615
#
#
# Mechanical properties :
#
#
# Convention : Reuss Voigt Hill
#
# Bulk Modulus (GPa) = 40.46497 55.29669 47.88083
# Shear Modulus (GPa) = 22.64204 27.20033 24.92118
#
# Velocity S-wave (km/s) = 3.42368 3.75251 3.59186
# Velocity P-wave (km/s) = 6.04790 6.88489 6.47992
#
# Compressibility (1/GPa) = 0.02471274
#
# Stress axis : x y z
#
# Youngs Moduli (GPa) = 57.59127 81.03526 68.42567
#
# Poissons Ratio (x) = 0.48841 0.17738
# Poissons Ratio (y) = 0.34711 0.08097
# Poissons Ratio (z) = 0.14930 0.09589
#
# Static dielectric constant tensor:
#      x y z
#    x 4.042680 0.000000 1.038690 
#    y 0.000000 3.588690 0.000000 
#    z 1.038690 0.000000 5.631010 
# 
# 
# High freq. dielectric constant tensor:
#      x y z
#    x 1.751060 0.000000 0.003000 
#    y 0.000000 1.741090 0.000000 
#    z 0.003000 0.000000 1.754880 
# 
# From -- ./inp_files/21435.got.cif
#   From: 2010.06.25/outbox.cif.g09.slc.cpg/sg11_11_cif.got.tgz:21435.got - 2010.06.27 23:14:04.
