data_PCOD8071326
_publ_section_title
;
Structure prediction by ZEFSAII (Michael W. Deem and Ramdas Pophale) SiO2 
 PCOD8071326
Probable space group: P 21/M
;
_chemical_formula_sum "Si O2"
_cell_formula_units_Z 28
_cell_length_a 13.854222
_cell_length_b 12.796524
_cell_length_c 22.444347
_cell_angle_alpha 90.000000
_cell_angle_beta 157.709681
_cell_angle_gamma 90.000000
_cell_volume 1509.259005
_symmetry_space_group_name_H-M "P 21/M"
_symmetry_group_IT_number 11
_symmetry_cell_setting 'monoclinic'
loop_
_space_group_symop_operation_xyz
x,y,z
-x,1/2+y,-z
-x,-y,-z
x,1/2-y,z
loop_
_atom_site_type_symbol
_atom_site_label
_atom_site_fract_x
_atom_site_fract_y
_atom_site_fract_z
Si Si1 0.041190 0.958274 0.106068
Si Si2 0.881858 0.127983 0.102685
Si Si3 0.889762 0.128586 0.554623
Si Si4 0.432724 0.478003 0.233101
Si Si5 0.636891 0.868584 0.255446
Si Si6 0.839796 0.506540 0.638195
Si Si7 0.376177 0.634145 0.386578
O O1 0.130219 0.871049 0.203626
O O2 0.249604 0.960059 0.173273
O O3 0.030926 0.072053 0.133127
O O4 0.763625 0.921252 0.924553
O O5 0.963682 0.250000 0.152554
O O6 0.945983 0.068175 0.201239
O O7 0.581676 0.115700 0.919284
O O8 0.900517 0.250000 0.580496
O O9 0.610852 0.104624 0.368500
O O10 0.095955 0.103500 0.622023
O O11 0.958253 0.052723 0.649126
O O12 0.604875 0.559834 0.295178
O O13 0.633525 0.750000 0.276896
O O14 0.622470 0.587460 0.493139
O O15 0.683922 0.421517 0.586143
O O16 0.444237 0.750000 0.443499
#
# Coordination Sequence:
#
# PCOD8071326 Si02
#       7
#     4   4   4   4   4   4   4
#     4   9  19  33  54  81 106 133 174 214 268 316
#     4   9  18  35  57  81 108 138 175 218 264 318
#     4  11  22  36  54  77 107 145 182 218 262 312
#     4  10  19  36  54  77 106 138 175 218 260 315
#     4   9  20  37  57  78 104 141 181 220 263 310
#     4  10  20  34  51  79 105 140 177 214 261 315
#     4  10  19  33  51  75 107 136 167 215 268 317
#
# _framework density 18.552150999999999
#
# number of rings (size 3 to 8) (size 9 to 14) (size 15 to 20)
#    0.000    2.286    1.429    1.286    0.000    2.286 
#    0.000    2.857    0.000    0.857    0.000    0.000 
#    0.000    0.000    0.000    0.000    0.000    0.000 
#
# Total GULP energy -347074.489539 kJ/mol
# GULP energy per Si atom -12395.517484 kJ/mol
# Density = 1.850993 g / cm^3
# Si number density = 18.552151 Si / 1000 Ang^3
#
#
#
# Elastic Constant Matrix: (Units=GPa)
#
#
# Indices 1 2 3 4 5 6 
#
# 1 68.7577 27.9666 25.5445 0.0000 2.4657 0.0000
# 2 27.9666 87.0167 20.5827 0.0000 -1.9939 0.0000
# 3 25.5445 20.5827 75.0980 0.0000 -6.6280 0.0000
# 4 0.0000 0.0000 0.0000 21.5225 0.0000 1.9567
# 5 2.4657 -1.9939 -6.6280 0.0000 31.2696 0.0000
# 6 0.0000 0.0000 0.0000 1.9567 0.0000 22.9721
#
#
#
# Elastic Compliance Matrix: (Units=1/GPa)
#
#
# Indices 1 2 3 4 5 6 
#
# 1 0.018544 -0.004784 -0.005251 0.000000 -0.002880 0.000000
# 2 -0.004784 0.013523 -0.002007 0.000000 0.000814 0.000000
# 3 -0.005251 -0.002007 0.015976 0.000000 0.003672 0.000000
# 4 0.000000 0.000000 0.000000 0.046826 0.000000 -0.003989
# 5 -0.002880 0.000814 0.003672 0.000000 0.033037 0.000000
# 6 0.000000 0.000000 0.000000 -0.003989 0.000000 0.043871
#
#
# Mechanical properties :
#
#
# Convention : Reuss Voigt Hill
#
# Bulk Modulus (GPa) = 41.73746 42.11775 41.92760
# Shear Modulus (GPa) = 24.52826 25.60474 25.06650
#
# Velocity S-wave (km/s) = 3.64005 3.71907 3.67977
# Velocity P-wave (km/s) = 6.34136 6.41822 6.37991
#
# Compressibility (1/GPa) = 0.02395929
#
# Stress axis : x y z
#
# Youngs Moduli (GPa) = 53.92703 73.94819 62.59305
#
# Poissons Ratio (x) = 0.35375 0.32865
# Poissons Ratio (y) = 0.25798 0.12564
# Poissons Ratio (z) = 0.28315 0.14844
#
# Static dielectric constant tensor:
#      x y z
#    x 3.265610 0.000000 -0.084400 
#    y 0.000000 3.315040 0.000000 
#    z -0.084400 0.000000 3.571400 
# 
# 
# High freq. dielectric constant tensor:
#      x y z
#    x 1.707190 0.000000 -0.008600 
#    y 0.000000 1.708030 0.000000 
#    z -0.008600 0.000000 1.729470 
# 
# From -- ./inp_files/64682.got.cif
#   From: 2010.06.25/outbox.cif.g09.slc.cpg/sg11_33_cif.got.tgz:64682.got - 2010.06.27 23:14:04.
