data_PCOD8071213
_publ_section_title
;
Structure prediction by ZEFSAII (Michael W. Deem and Ramdas Pophale) SiO2 
 PCOD8071213
Probable space group: P 21/M
;
_chemical_formula_sum "Si O2"
_cell_formula_units_Z 32
_cell_length_a 14.332635
_cell_length_b 19.992717
_cell_length_c 6.246115
_cell_angle_alpha 90.000000
_cell_angle_beta 110.765452
_cell_angle_gamma 90.000000
_cell_volume 1673.546765
_symmetry_space_group_name_H-M "P 21/M"
_symmetry_group_IT_number 11
_symmetry_cell_setting 'monoclinic'
loop_
_space_group_symop_operation_xyz
x,y,z
-x,1/2+y,-z
-x,-y,-z
x,1/2-y,z
loop_
_atom_site_type_symbol
_atom_site_label
_atom_site_fract_x
_atom_site_fract_y
_atom_site_fract_z
Si Si1 0.157011 0.024032 0.510068
Si Si2 0.335438 0.631464 0.992907
Si Si3 0.183895 0.921245 0.182667
Si Si4 0.490911 0.172516 0.584190
Si Si5 0.523940 0.430606 0.230442
Si Si6 0.173667 0.823083 0.553330
Si Si7 0.952894 0.413417 0.301854
Si Si8 0.620471 0.563596 0.257857
O O1 0.260484 0.056933 0.666653
O O2 0.071341 0.079192 0.409641
O O3 0.175216 0.992056 0.292162
O O4 0.115395 0.972489 0.652206
O O5 0.277201 0.579589 0.098606
O O6 0.411277 0.677193 0.188197
O O7 0.390715 0.584896 0.870968
O O8 0.258939 0.678614 0.804491
O O9 0.206384 0.865610 0.377386
O O10 0.080593 0.906637 0.972540
O O11 0.460457 0.250000 0.503113
O O12 0.516932 0.128780 0.396046
O O13 0.403179 0.133774 0.640803
O O14 0.563378 0.503728 0.346270
O O15 0.419367 0.435701 0.019100
O O16 0.154477 0.750000 0.447938
O O17 0.071375 0.847989 0.579174
#
# Coordination Sequence:
#
# PCOD8071213 Si02
#       8
#     4   4   4   4   4   4   4   4
#     4  10  19  36  58  80 106 135 173 222 271 318
#     4  10  20  34  55  82 110 140 176 217 270 325
#     4  10  19  32  54  83 108 133 169 218 272 322
#     4  11  23  37  54  78 111 148 183 221 265 318
#     4  10  21  37  56  82 111 141 180 226 272 320
#     4  10  20  33  50  77 111 143 175 213 262 321
#     4   9  20  35  55  81 106 136 174 218 270 320
#     4  10  21  36  57  81 106 141 181 224 271 320
#
# _framework density 19.121068000000001
#
# number of rings (size 3 to 8) (size 9 to 14) (size 15 to 20)
#    0.000    2.000    0.000    4.875    0.000    9.000 
#    0.000    0.625    0.000    1.500    0.000    0.000 
#    0.000    0.000    0.000    0.000    0.000    0.000 
#
# Total GULP energy -396625.955932 kJ/mol
# GULP energy per Si atom -12394.561123 kJ/mol
# Density = 1.907755 g / cm^3
# Si number density = 19.121068 Si / 1000 Ang^3
#
#
#
# Elastic Constant Matrix: (Units=GPa)
#
#
# Indices 1 2 3 4 5 6 
#
# 1 127.2462 38.4008 46.5672 0.0000 21.9453 0.0000
# 2 38.4008 81.2525 27.0146 0.0000 6.8275 0.0000
# 3 46.5672 27.0146 82.0727 0.0000 1.7675 0.0000
# 4 0.0000 0.0000 0.0000 17.1549 0.0000 3.6444
# 5 21.9453 6.8275 1.7675 0.0000 24.4772 0.0000
# 6 0.0000 0.0000 0.0000 3.6444 0.0000 12.0082
#
#
#
# Elastic Compliance Matrix: (Units=1/GPa)
#
#
# Indices 1 2 3 4 5 6 
#
# 1 0.012748 -0.003192 -0.005965 0.000000 -0.010109 0.000000
# 2 -0.003192 0.014931 -0.003080 0.000000 -0.001080 0.000000
# 3 -0.005965 -0.003080 0.016474 0.000000 0.005017 0.000000
# 4 0.000000 0.000000 0.000000 0.062310 0.000000 -0.018910
# 5 -0.010109 -0.001080 0.005017 0.000000 0.049856 0.000000
# 6 0.000000 0.000000 0.000000 -0.018910 0.000000 0.089016
#
#
# Mechanical properties :
#
#
# Convention : Reuss Voigt Hill
#
# Bulk Modulus (GPa) = 50.81485 57.17075 53.99280
# Shear Modulus (GPa) = 18.09170 22.63398 20.36284
#
# Velocity S-wave (km/s) = 3.07932 3.44425 3.26689
# Velocity P-wave (km/s) = 6.26705 6.76620 6.52140
#
# Compressibility (1/GPa) = 0.01967929
#
# Stress axis : x y z
#
# Youngs Moduli (GPa) = 78.44073 66.97525 60.70016
#
# Poissons Ratio (x) = 0.21382 0.36207
# Poissons Ratio (y) = 0.25042 0.18695
# Poissons Ratio (z) = 0.46789 0.20628
#
# Static dielectric constant tensor:
#      x y z
#    x 3.435920 0.000000 0.075020 
#    y 0.000000 3.347460 0.000000 
#    z 0.075020 0.000000 3.777810 
# 
# 
# High freq. dielectric constant tensor:
#      x y z
#    x 1.732660 0.000000 -0.002540 
#    y 0.000000 1.720310 0.000000 
#    z -0.002540 0.000000 1.753580 
# 
# From -- ./inp_files/7078.got.cif
#   From: 2010.06.25/outbox.cif.g09.slc.cpg/sg11_4_cif.got.tgz:7078.got - 2010.06.27 23:14:04.
