data_PCOD8071984
_publ_section_title
;
Structure prediction by ZEFSAII (Michael W. Deem and Ramdas Pophale) SiO2 
 PCOD8071984
Probable space group: P 21/M
;
_chemical_formula_sum "Si O2"
_cell_formula_units_Z 28
_cell_length_a 17.984181
_cell_length_b 13.203167
_cell_length_c 6.846058
_cell_angle_alpha 90.000000
_cell_angle_beta 116.397821
_cell_angle_gamma 90.000000
_cell_volume 1456.081990
_symmetry_space_group_name_H-M "P 21/M"
_symmetry_group_IT_number 11
_symmetry_cell_setting 'monoclinic'
loop_
_space_group_symop_operation_xyz
x,y,z
-x,1/2+y,-z
-x,-y,-z
x,1/2-y,z
loop_
_atom_site_type_symbol
_atom_site_label
_atom_site_fract_x
_atom_site_fract_y
_atom_site_fract_z
Si Si1 0.311328 0.028094 0.367198
Si Si2 0.136170 0.637198 0.684817
Si Si3 0.025969 0.866239 0.207960
Si Si4 0.565686 0.868037 0.227957
Si Si5 0.304889 0.635336 0.670321
Si Si6 0.590887 0.009121 0.909149
Si Si7 0.128794 0.005106 0.040701
O O1 0.349296 0.115208 0.551107
O O2 0.321615 0.920098 0.485367
O O3 0.359584 0.025778 0.221246
O O4 0.214381 0.052074 0.220199
O O5 0.137658 0.750000 0.779543
O O6 0.051118 0.620165 0.464736
O O7 0.208552 0.626058 0.610401
O O8 0.147125 0.555493 0.864783
O O9 0.032916 0.750000 0.149623
O O10 0.087563 0.930821 0.147329
O O11 0.931281 0.901128 0.074347
O O12 0.543173 0.750000 0.197412
O O13 0.494366 0.934665 0.251167
O O14 0.574012 0.907773 0.015471
O O15 0.333591 0.750000 0.672709
O O16 0.357259 0.589581 0.907216
#
# Coordination Sequence:
#
# PCOD8071984 Si02
#       7
#     4   4   4   4   4   4   4
#     4  11  22  37  60  89 117 150 194 239 289 345
#     4  10  19  34  56  83 112 145 189 236 287 339
#     4  10  22  38  55  82 114 150 194 238 286 345
#     4  10  23  41  60  86 120 155 192 236 286 346
#     4  10  20  33  56  88 118 146 189 243 289 339
#     4  10  21  41  62  85 118 154 195 239 287 342
#     4  11  21  36  60  81 116 154 186 239 292 340
#
# _framework density 19.229686000000001
#
# number of rings (size 3 to 8) (size 9 to 14) (size 15 to 20)
#    0.000    1.714    2.857    1.714    0.000    2.857 
#    0.000    0.000    0.000    0.000    0.000    0.000 
#    0.000    0.000    0.000    0.000    0.000    0.000 
#
# Total GULP energy -347259.155227 kJ/mol
# GULP energy per Si atom -12402.112687 kJ/mol
# Density = 1.918592 g / cm^3
# Si number density = 19.229686 Si / 1000 Ang^3
#
#
#
# Elastic Constant Matrix: (Units=GPa)
#
#
# Indices 1 2 3 4 5 6 
#
# 1 82.4683 26.0306 29.3187 0.0000 10.9818 0.0000
# 2 26.0306 70.8396 24.0666 0.0000 11.3518 0.0000
# 3 29.3187 24.0666 78.6610 0.0000 19.7141 0.0000
# 4 0.0000 0.0000 0.0000 22.5437 0.0000 0.0530
# 5 10.9818 11.3518 19.7141 0.0000 38.7847 0.0000
# 6 0.0000 0.0000 0.0000 0.0530 0.0000 27.0346
#
#
#
# Elastic Compliance Matrix: (Units=1/GPa)
#
#
# Indices 1 2 3 4 5 6 
#
# 1 0.014968 -0.003940 -0.004126 0.000000 -0.000988 0.000000
# 2 -0.003940 0.017001 -0.003169 0.000000 -0.002250 0.000000
# 3 -0.004126 -0.003169 0.016840 0.000000 -0.006464 0.000000
# 4 0.000000 0.000000 0.000000 0.044358 0.000000 -0.000087
# 5 -0.000988 -0.002250 -0.006464 0.000000 0.030007 0.000000
# 6 0.000000 0.000000 0.000000 -0.000087 0.000000 0.036990
#
#
# Mechanical properties :
#
#
# Convention : Reuss Voigt Hill
#
# Bulk Modulus (GPa) = 37.96640 43.42230 40.69435
# Shear Modulus (GPa) = 26.12126 27.84280 26.98203
#
# Velocity S-wave (km/s) = 3.68962 3.80927 3.74992
# Velocity P-wave (km/s) = 6.15935 6.47898 6.32119
#
# Compressibility (1/GPa) = 0.02633908
#
# Stress axis : x y z
#
# Youngs Moduli (GPa) = 66.80972 58.81863 59.38160
#
# Poissons Ratio (x) = 0.23175 0.24500
# Poissons Ratio (y) = 0.26324 0.18820
# Poissons Ratio (z) = 0.27565 0.18641
#
# Static dielectric constant tensor:
#      x y z
#    x 3.567390 0.000000 0.227280 
#    y 0.000000 3.358950 0.000000 
#    z 0.227280 0.000000 3.614650 
# 
# 
# High freq. dielectric constant tensor:
#      x y z
#    x 1.748610 0.000000 0.011060 
#    y 0.000000 1.735700 0.000000 
#    z 0.011060 0.000000 1.759390 
# 
# From -- ./inp_files/7981.got.cif
#   From: 2010.06.25/outbox.cif.g09.slc.cpg/sg11_4_cif.got.tgz:7981.got - 2010.06.27 23:14:04.
