data_PCOD8071980
_publ_section_title
;
Structure prediction by ZEFSAII (Michael W. Deem and Ramdas Pophale) SiO2 
 PCOD8071980
Probable space group: P 21/M
;
_chemical_formula_sum "Si O2"
_cell_formula_units_Z 32
_cell_length_a 20.785628
_cell_length_b 9.069224
_cell_length_c 26.188552
_cell_angle_alpha 90.000000
_cell_angle_beta 158.957854
_cell_angle_gamma 90.000000
_cell_volume 1772.577524
_symmetry_space_group_name_H-M "P 21/M"
_symmetry_group_IT_number 11
_symmetry_cell_setting 'monoclinic'
loop_
_space_group_symop_operation_xyz
x,y,z
-x,1/2+y,-z
-x,-y,-z
x,1/2-y,z
loop_
_atom_site_type_symbol
_atom_site_label
_atom_site_fract_x
_atom_site_fract_y
_atom_site_fract_z
Si Si1 0.997835 0.920610 0.574199
Si Si2 0.780951 0.419926 0.602635
Si Si3 0.933492 0.422304 0.900674
Si Si4 0.278598 0.577323 0.695974
Si Si5 0.468120 0.576031 0.422826
Si Si6 0.344589 0.922353 0.025222
Si Si7 0.963977 0.079222 0.280967
Si Si8 0.092932 0.419638 0.913081
O O1 0.945707 0.750000 0.530090
O O2 0.057565 0.960635 0.675664
O O3 0.164762 0.961417 0.661998
O O4 0.822994 0.013782 0.428933
O O5 0.730261 0.250000 0.556391
O O6 0.602190 0.513127 0.479594
O O7 0.875201 0.481228 0.621753
O O8 0.909243 0.440471 0.746169
O O9 0.953558 0.250000 0.923180
O O10 0.729009 0.466874 0.741073
O O11 0.054069 0.472651 0.941821
O O12 0.000000 0.500000 0.000000
O O13 0.305487 0.750000 0.708079
O O14 0.469379 0.503349 0.845102
O O15 0.500000 0.500000 0.500000
O O16 0.494955 0.750000 0.448916
O O17 0.379900 0.750000 0.057404
O O18 0.221427 0.959392 0.884950
O O19 0.249743 0.979650 0.006439
O O20 0.012799 0.250000 0.308582
O O21 0.155677 0.250000 0.957114
#
# Coordination Sequence:
#
# PCOD8071980 Si02
#       8
#     4   4   4   4   4   4   4   4
#     4   9  19  37  58  79 109 145 180 223 270 316
#     4  10  19  34  56  83 111 141 179 223 271 323
#     4  10  22  39  56  79 110 142 179 225 273 321
#     4  10  20  35  56  81 109 145 184 220 265 321
#     4  11  21  36  58  83 109 142 183 226 270 322
#     4  10  20  34  55  83 109 140 181 221 266 324
#     4   9  19  36  56  81 111 142 178 224 272 318
#     4   9  18  36  56  76 108 143 177 222 268 316
#
# _framework density 18.052807000000001
#
# number of rings (size 3 to 8) (size 9 to 14) (size 15 to 20)
#    0.000    2.250    1.250    1.500    0.000    4.000 
#    2.250    0.000    0.000    0.000    0.000    0.000 
#    0.000    0.000    0.000    0.000    0.000    0.000 
#
# Total GULP energy -396900.698388 kJ/mol
# GULP energy per Si atom -12403.146825 kJ/mol
# Density = 1.801172 g / cm^3
# Si number density = 18.052807 Si / 1000 Ang^3
#
#
#
# Elastic Constant Matrix: (Units=GPa)
#
#
# Indices 1 2 3 4 5 6 
#
# 1 127.8786 54.5977 76.2148 0.0000 -8.0110 0.0000
# 2 54.5977 88.3291 70.1971 0.0000 4.3826 0.0000
# 3 76.2148 70.1971 118.8583 0.0000 7.4898 0.0000
# 4 0.0000 0.0000 0.0000 32.7941 0.0000 3.2049
# 5 -8.0110 4.3826 7.4898 0.0000 25.9374 0.0000
# 6 0.0000 0.0000 0.0000 3.2049 0.0000 32.7891
#
#
#
# Elastic Compliance Matrix: (Units=1/GPa)
#
#
# Indices 1 2 3 4 5 6 
#
# 1 0.014163 -0.002890 -0.007823 0.000000 0.007122 0.000000
# 2 -0.002890 0.021925 -0.011006 0.000000 -0.001419 0.000000
# 3 -0.007823 -0.011006 0.020335 0.000000 -0.006429 0.000000
# 4 0.000000 0.000000 0.000000 0.030787 0.000000 -0.003009
# 5 0.007122 -0.001419 -0.006429 0.000000 0.042850 0.000000
# 6 0.000000 0.000000 0.000000 -0.003009 0.000000 0.030792
#
#
# Mechanical properties :
#
#
# Convention : Reuss Voigt Hill
#
# Bulk Modulus (GPa) = 77.02024 81.89836 79.45930
# Shear Modulus (GPa) = 23.96712 27.24120 25.60416
#
# Velocity S-wave (km/s) = 3.64759 3.88876 3.77011
# Velocity P-wave (km/s) = 7.77794 8.10110 7.94117
#
# Compressibility (1/GPa) = 0.01298360
#
# Stress axis : x y z
#
# Youngs Moduli (GPa) = 70.60835 45.61010 49.17619
#
# Poissons Ratio (x) = 0.13182 0.38472
# Poissons Ratio (y) = 0.20407 0.54124
# Poissons Ratio (z) = 0.55239 0.50199
#
# Static dielectric constant tensor:
#      x y z
#    x 3.365640 0.000000 0.020060 
#    y 0.000000 3.413440 0.000000 
#    z 0.020060 0.000000 3.199360 
# 
# 
# High freq. dielectric constant tensor:
#      x y z
#    x 1.701730 0.000000 0.007220 
#    y 0.000000 1.706030 0.000000 
#    z 0.007220 0.000000 1.692550 
# 
# From -- ./inp_files/72115.got.cif
#   From: 2010.06.25/outbox.cif.g09.slc.cpg/sg11_37_cif.got.tgz:72115.got - 2010.06.27 23:14:04.
