data_PCOD8071775
_publ_section_title
;
Structure prediction by ZEFSAII (Michael W. Deem and Ramdas Pophale) SiO2 
 PCOD8071775
Probable space group: P 21/M
;
_chemical_formula_sum "Si O2"
_cell_formula_units_Z 32
_cell_length_a 15.058542
_cell_length_b 13.400723
_cell_length_c 21.664393
_cell_angle_alpha 90.000000
_cell_angle_beta 19.519847
_cell_angle_gamma 90.000000
_cell_volume 1460.755485
_symmetry_space_group_name_H-M "P 21/M"
_symmetry_group_IT_number 11
_symmetry_cell_setting 'monoclinic'
loop_
_space_group_symop_operation_xyz
x,y,z
-x,1/2+y,-z
-x,-y,-z
x,1/2-y,z
loop_
_atom_site_type_symbol
_atom_site_label
_atom_site_fract_x
_atom_site_fract_y
_atom_site_fract_z
Si Si1 0.418490 0.859422 0.795371
Si Si2 0.008962 0.864670 0.619592
Si Si3 0.567484 0.865161 0.567293
Si Si4 0.488543 0.866728 0.885956
Si Si5 0.404756 0.136542 0.783819
Si Si6 0.933096 0.060512 0.170315
Si Si7 0.180804 0.356899 0.801064
Si Si8 0.961545 0.502924 0.770393
O O1 0.548521 0.750000 0.715965
O O2 0.543882 0.912092 0.652682
O O3 0.466567 0.910942 0.830451
O O4 0.110854 0.849493 0.979152
O O5 0.014008 0.750000 0.639503
O O6 0.788238 0.881068 0.712071
O O7 0.288938 0.891253 0.402996
O O8 0.939462 0.934452 0.722738
O O9 0.654253 0.750000 0.513984
O O10 0.289476 0.867277 0.711673
O O11 0.787324 0.930151 0.390206
O O12 0.399470 0.750000 0.947049
O O13 0.298127 0.933512 0.053418
O O14 0.337424 0.250000 0.847928
O O15 0.381567 0.122539 0.725387
O O16 0.203371 0.063616 0.951942
O O17 0.810108 0.948078 0.252225
O O18 0.007228 0.081789 0.193030
O O19 0.252257 0.250000 0.721609
#
# Coordination Sequence:
#
# PCOD8071775 Si02
#       8
#     4   4   4   4   4   4   4   4
#     4   9  18  36  63  91 118 154 200 256 309 354
#     4  10  24  44  64  88 123 165 210 260 308 360
#     4  11  24  41  61  94 132 163 201 254 311 371
#     4  10  21  43  68  90 121 162 211 262 307 358
#     4  10  21  39  63  88 117 158 206 258 314 366
#     4  12  23  37  61  93 126 166 201 248 309 372
#     4  10  19  33  59  90 121 156 199 252 310 365
#     4  12  25  39  61  92 126 170 210 245 304 372
#
# _framework density 21.906472999999998
#
# number of rings (size 3 to 8) (size 9 to 14) (size 15 to 20)
#    0.000    1.500    2.500    2.625    1.750    1.500 
#    0.000    5.000    0.000    3.000    0.000    0.000 
#    0.000    0.000    0.000    0.000    0.000    0.000 
#
# Total GULP energy -396653.233438 kJ/mol
# GULP energy per Si atom -12395.413545 kJ/mol
# Density = 2.185661 g / cm^3
# Si number density = 21.906473 Si / 1000 Ang^3
#
#
#
# Elastic Constant Matrix: (Units=GPa)
#
#
# Indices 1 2 3 4 5 6 
#
# 1 89.3630 23.8250 44.3712 0.0000 -12.8362 0.0000
# 2 23.8250 79.4392 19.2735 0.0000 -3.7362 0.0000
# 3 44.3712 19.2735 103.0897 0.0000 -20.8066 0.0000
# 4 0.0000 0.0000 0.0000 33.7842 0.0000 -35.5753
# 5 -12.8362 -3.7362 -20.8066 0.0000 30.6952 0.0000
# 6 0.0000 0.0000 0.0000 -35.5753 0.0000 198.4101
#
#
#
# Elastic Compliance Matrix: (Units=1/GPa)
#
#
# Indices 1 2 3 4 5 6 
#
# 1 0.015036 -0.003084 -0.005447 0.000000 0.002220 0.000000
# 2 -0.003084 0.013819 -0.001364 0.000000 -0.000532 0.000000
# 3 -0.005447 -0.001364 0.013678 0.000000 0.006828 0.000000
# 4 0.000000 0.000000 0.000000 0.036489 0.000000 0.006543
# 5 0.002220 -0.000532 0.006828 0.000000 0.038070 0.000000
# 6 0.000000 0.000000 0.000000 0.006543 0.000000 0.006213
#
#
# Mechanical properties :
#
#
# Convention : Reuss Voigt Hill
#
# Bulk Modulus (GPa) = 43.96774 49.64792 46.80783
# Shear Modulus (GPa) = 33.18404 64.87271 49.02837
#
# Velocity S-wave (km/s) = 3.89627 5.44773 4.73596
# Velocity P-wave (km/s) = 6.35260 7.89197 7.16375
#
# Compressibility (1/GPa) = 0.02274395
#
# Stress axis : x y z
#
# Youngs Moduli (GPa) = 66.50727 72.36472 73.11138
#
# Poissons Ratio (x) = 0.22314 0.39824
# Poissons Ratio (y) = 0.20508 0.09970
# Poissons Ratio (z) = 0.36227 0.09868
#
# Static dielectric constant tensor:
#      x y z
#    x 3.819410 0.000000 -0.072760 
#    y 0.000000 4.062550 0.000000 
#    z -0.072760 0.000000 3.794670 
# 
# 
# High freq. dielectric constant tensor:
#      x y z
#    x 1.852370 0.000000 -0.002480 
#    y 0.000000 1.868190 0.000000 
#    z -0.002480 0.000000 1.847430 
# 
# From -- ./inp_files/55027.got.cif
#   From: 2010.06.25/outbox.cif.g09.slc.cpg/sg11_28_cif.got.tgz:55027.got - 2010.06.27 23:14:04.
