data_PCOD8071496
_publ_section_title
;
Structure prediction by ZEFSAII (Michael W. Deem and Ramdas Pophale) SiO2 
 PCOD8071496
Probable space group: P 21/M
;
_chemical_formula_sum "Si O2"
_cell_formula_units_Z 32
_cell_length_a 22.936861
_cell_length_b 8.934684
_cell_length_c 12.314588
_cell_angle_alpha 90.000000
_cell_angle_beta 135.004607
_cell_angle_gamma 90.000000
_cell_volume 1784.362737
_symmetry_space_group_name_H-M "P 21/M"
_symmetry_group_IT_number 11
_symmetry_cell_setting 'monoclinic'
loop_
_space_group_symop_operation_xyz
x,y,z
-x,1/2+y,-z
-x,-y,-z
x,1/2-y,z
loop_
_atom_site_type_symbol
_atom_site_label
_atom_site_fract_x
_atom_site_fract_y
_atom_site_fract_z
Si Si1 0.786239 0.427812 0.049657
Si Si2 0.012974 0.918766 0.188192
Si Si3 0.169102 0.422996 0.102292
Si Si4 0.476870 0.074720 0.857348
Si Si5 0.316475 0.572877 0.674264
Si Si6 0.822308 0.922561 0.642664
Si Si7 0.653668 0.424588 0.042980
Si Si8 0.048672 0.079941 0.658140
O O1 0.789387 0.250000 0.052222
O O2 0.709583 0.491014 0.020005
O O3 0.867932 0.490283 0.212179
O O4 0.776817 0.485430 0.913554
O O5 0.032858 0.750000 0.174432
O O6 0.009468 0.923209 0.313552
O O7 0.082556 0.031779 0.239823
O O8 0.926224 0.976434 0.024727
O O9 0.170704 0.250000 0.068255
O O10 0.207022 0.447630 0.271599
O O11 0.461339 0.250000 0.852171
O O12 0.392436 0.998158 0.704319
O O13 0.557017 0.044615 0.886600
O O14 0.500000 0.000000 0.000000
O O15 0.324328 0.750000 0.679171
O O16 0.231111 0.523246 0.508316
O O17 0.320900 0.511492 0.804320
O O18 0.812933 0.750000 0.597041
O O19 0.670986 0.250000 0.073105
O O20 0.070204 0.250000 0.653688
O O21 0.000000 0.000000 0.500000
#
# Coordination Sequence:
#
# PCOD8071496 Si02
#       8
#     4   4   4   4   4   4   4   4
#     4  10  19  33  54  77  99 132 175 210 251 308
#     4   9  19  35  52  70  97 134 173 214 262 303
#     4   9  20  38  53  71 102 136 171 217 264 300
#     4   9  16  31  52  75 105 138 168 202 251 306
#     4  10  20  34  51  76 109 138 166 206 260 308
#     4  11  22  34  52  77 103 132 173 218 259 308
#     4   8  17  32  52  77 105 134 163 203 253 303
#     4  10  21  35  49  70 103 140 171 210 257 299
#
# _framework density 17.933572000000002
#
# number of rings (size 3 to 8) (size 9 to 14) (size 15 to 20)
#    0.000    2.500    0.000    3.750    1.750    3.500 
#    0.000    6.875    0.000    0.750    0.000    0.000 
#    0.000    0.000    0.000    0.000    0.000    0.000 
#
# Total GULP energy -396679.876154 kJ/mol
# GULP energy per Si atom -12396.246130 kJ/mol
# Density = 1.789275 g / cm^3
# Si number density = 17.933572 Si / 1000 Ang^3
#
#
#
# Elastic Constant Matrix: (Units=GPa)
#
#
# Indices 1 2 3 4 5 6 
#
# 1 116.9284 44.9035 32.7451 0.0000 8.2839 0.0000
# 2 44.9035 82.0584 22.8533 0.0000 1.5504 0.0000
# 3 32.7451 22.8533 47.9619 0.0000 -1.5976 0.0000
# 4 0.0000 0.0000 0.0000 28.8184 0.0000 1.9052
# 5 8.2839 1.5504 -1.5976 0.0000 18.0840 0.0000
# 6 0.0000 0.0000 0.0000 1.9052 0.0000 27.4931
#
#
#
# Elastic Compliance Matrix: (Units=1/GPa)
#
#
# Indices 1 2 3 4 5 6 
#
# 1 0.012729 -0.005047 -0.006485 0.000000 -0.005971 0.000000
# 2 -0.005047 0.016111 -0.004212 0.000000 0.000559 0.000000
# 3 -0.006485 -0.004212 0.027476 0.000000 0.005759 0.000000
# 4 0.000000 0.000000 0.000000 0.034860 0.000000 -0.002416
# 5 -0.005971 0.000559 0.005759 0.000000 0.058494 0.000000
# 6 0.000000 0.000000 0.000000 -0.002416 0.000000 0.036540
#
#
# Mechanical properties :
#
#
# Convention : Reuss Voigt Hill
#
# Bulk Modulus (GPa) = 40.27669 49.77250 45.02459
# Shear Modulus (GPa) = 22.12637 24.64221 23.38429
#
# Velocity S-wave (km/s) = 3.51635 3.71088 3.61493
# Velocity P-wave (km/s) = 6.24451 6.79521 6.52567
#
# Compressibility (1/GPa) = 0.02482826
#
# Stress axis : x y z
#
# Youngs Moduli (GPa) = 78.55780 62.07034 36.39501
#
# Poissons Ratio (x) = 0.31326 0.23602
# Poissons Ratio (y) = 0.39647 0.15331
# Poissons Ratio (z) = 0.50944 0.26146
#
# Static dielectric constant tensor:
#      x y z
#    x 3.619800 0.000000 0.114260 
#    y 0.000000 3.328930 0.000000 
#    z 0.114260 0.000000 3.207560 
# 
# 
# High freq. dielectric constant tensor:
#      x y z
#    x 1.689820 0.000000 0.004650 
#    y 0.000000 1.695440 0.000000 
#    z 0.004650 0.000000 1.674540 
# 
# From -- ./inp_files/42861.got.cif
#   From: 2010.06.25/outbox.cif.g09.slc.cpg/sg11_22_cif.got.tgz:42861.got - 2010.06.27 23:14:04.
