data_PCOD8071490
_publ_section_title
;
Structure prediction by ZEFSAII (Michael W. Deem and Ramdas Pophale) SiO2 
 PCOD8071490
Probable space group: P 21/M
;
_chemical_formula_sum "Si O2"
_cell_formula_units_Z 32
_cell_length_a 11.054064
_cell_length_b 16.584509
_cell_length_c 10.846883
_cell_angle_alpha 90.000000
_cell_angle_beta 113.305114
_cell_angle_gamma 90.000000
_cell_volume 1826.277043
_symmetry_space_group_name_H-M "P 21/M"
_symmetry_group_IT_number 11
_symmetry_cell_setting 'monoclinic'
loop_
_space_group_symop_operation_xyz
x,y,z
-x,1/2+y,-z
-x,-y,-z
x,1/2-y,z
loop_
_atom_site_type_symbol
_atom_site_label
_atom_site_fract_x
_atom_site_fract_y
_atom_site_fract_z
Si Si1 0.165043 0.339047 0.811839
Si Si2 0.887743 0.965848 0.605619
Si Si3 0.691453 0.162487 0.337101
Si Si4 0.030318 0.873682 0.480547
Si Si5 0.925685 0.503428 0.097819
Si Si6 0.670740 0.079256 0.073965
Si Si7 0.580598 0.580022 0.173400
Si Si8 0.393890 0.997564 0.562610
O O1 0.170179 0.250000 0.875955
O O2 0.049879 0.336522 0.664305
O O3 0.131396 0.406623 0.900486
O O4 0.305123 0.354151 0.801450
O O5 0.935077 0.882278 0.561493
O O6 0.962056 0.979398 0.761897
O O7 0.731523 0.966113 0.559625
O O8 0.914721 0.037552 0.521763
O O9 0.620665 0.250000 0.327896
O O10 0.689963 0.142960 0.190927
O O11 0.621870 0.093600 0.391240
O O12 0.842382 0.178743 0.437182
O O13 0.807561 0.438078 0.056890
O O14 0.000000 0.500000 0.000000
O O15 0.623972 0.996886 0.114500
O O16 0.560760 0.111705 0.933351
O O17 0.566708 0.557972 0.311317
O O18 0.500000 0.000000 0.500000
#
# Coordination Sequence:
#
# PCOD8071490 Si02
#       8
#     4   4   4   4   4   4   4   4
#     4  10  19  33  54  77 103 133 172 220 264 304
#     4   9  16  30  54  78  99 128 176 215 248 304
#     4  10  19  33  54  77 103 133 172 220 264 304
#     4   9  15  30  54  80 100 122 168 221 258 295
#     4  10  20  33  53  79 105 139 174 211 256 314
#     4   9  18  33  52  74  98 132 176 212 247 301
#     4   9  18  33  52  74  98 132 176 212 247 301
#     4  10  20  33  53  79 105 139 174 211 256 314
#
# _framework density 17.521985999999998
#
# number of rings (size 3 to 8) (size 9 to 14) (size 15 to 20)
#    0.000    2.500    2.500    0.375    1.750    0.500 
#    0.000    1.250    0.000    0.000    0.000    0.000 
#    0.000    0.000    0.000    0.000    0.000    0.000 
#
# Total GULP energy -396520.654110 kJ/mol
# GULP energy per Si atom -12391.270441 kJ/mol
# Density = 1.748211 g / cm^3
# Si number density = 17.521986 Si / 1000 Ang^3
#
#
#
# Elastic Constant Matrix: (Units=GPa)
#
#
# Indices 1 2 3 4 5 6 
#
# 1 130.1101 32.7344 58.9956 0.0000 -5.4797 0.0000
# 2 32.7344 78.5454 25.0420 0.0000 -6.9938 0.0000
# 3 58.9956 25.0420 82.6232 0.0000 13.9970 0.0000
# 4 0.0000 0.0000 0.0000 5.3813 0.0000 -1.9894
# 5 -5.4797 -6.9938 13.9970 0.0000 36.7158 0.0000
# 6 0.0000 0.0000 0.0000 -1.9894 0.0000 12.5490
#
#
#
# Elastic Compliance Matrix: (Units=1/GPa)
#
#
# Indices 1 2 3 4 5 6 
#
# 1 0.012565 -0.001829 -0.009275 0.000000 0.005063 0.000000
# 2 -0.001829 0.015129 -0.003979 0.000000 0.004126 0.000000
# 3 -0.009275 -0.003979 0.021696 0.000000 -0.010413 0.000000
# 4 0.000000 0.000000 0.000000 0.197396 0.000000 0.031294
# 5 0.005063 0.004126 -0.010413 0.000000 0.032748 0.000000
# 6 0.000000 0.000000 0.000000 0.031294 0.000000 0.084649
#
#
# Mechanical properties :
#
#
# Convention : Reuss Voigt Hill
#
# Bulk Modulus (GPa) = 52.01539 58.31363 55.16451
# Shear Modulus (GPa) = 12.47644 22.56301 17.51972
#
# Velocity S-wave (km/s) = 2.67131 3.59234 3.16550
# Velocity P-wave (km/s) = 6.26616 7.11049 6.70164
#
# Compressibility (1/GPa) = 0.01922508
#
# Stress axis : x y z
#
# Youngs Moduli (GPa) = 79.58860 66.09616 46.09179
#
# Poissons Ratio (x) = 0.12086 0.42750
# Poissons Ratio (y) = 0.14553 0.18339
# Poissons Ratio (z) = 0.73819 0.26299
#
# Static dielectric constant tensor:
#      x y z
#    x 3.258880 0.000000 0.354600 
#    y 0.000000 3.158670 0.000000 
#    z 0.354600 0.000000 3.519650 
# 
# 
# High freq. dielectric constant tensor:
#      x y z
#    x 1.665580 0.000000 0.020800 
#    y 0.000000 1.654950 0.000000 
#    z 0.020800 0.000000 1.678480 
# 
# From -- ./inp_files/35924.got.cif
#   From: 2010.06.25/outbox.cif.g09.slc.cpg/sg11_18_cif.got.tgz:35924.got - 2010.06.27 23:14:04.
