data_PCOD8071848
_publ_section_title
;
Structure prediction by ZEFSAII (Michael W. Deem and Ramdas Pophale) SiO2 
 PCOD8071848
Probable space group: P 21/M
;
_chemical_formula_sum "Si O2"
_cell_formula_units_Z 28
_cell_length_a 18.986507
_cell_length_b 8.756356
_cell_length_c 14.189713
_cell_angle_alpha 90.000000
_cell_angle_beta 138.169350
_cell_angle_gamma 90.000000
_cell_volume 1573.341889
_symmetry_space_group_name_H-M "P 21/M"
_symmetry_group_IT_number 11
_symmetry_cell_setting 'monoclinic'
loop_
_space_group_symop_operation_xyz
x,y,z
-x,1/2+y,-z
-x,-y,-z
x,1/2-y,z
loop_
_atom_site_type_symbol
_atom_site_label
_atom_site_fract_x
_atom_site_fract_y
_atom_site_fract_z
Si Si1 0.104095 0.426821 0.711004
Si Si2 0.694011 0.071653 0.407451
Si Si3 0.376567 0.072749 0.479352
Si Si4 0.502444 0.930000 0.104866
Si Si5 0.883630 0.573207 0.492747
Si Si6 0.293566 0.927344 0.004832
Si Si7 0.618952 0.074525 0.707684
O O1 0.074310 0.250000 0.693566
O O2 0.141198 0.460912 0.641466
O O3 0.003260 0.528423 0.636519
O O4 0.197214 0.470546 0.874379
O O5 0.673610 0.250000 0.376085
O O6 0.691174 0.024102 0.513997
O O7 0.605737 0.981526 0.262445
O O8 0.807982 0.030182 0.480267
O O9 0.354552 0.250000 0.475231
O O10 0.499422 0.030704 0.616425
O O11 0.340014 0.028428 0.337577
O O12 0.506261 0.750000 0.099957
O O13 0.399078 0.983886 0.057961
O O14 0.500000 0.000000 0.000000
O O15 0.865943 0.750000 0.499830
O O16 0.271606 0.750000 0.960711
O O17 0.305932 0.955636 0.128576
O O18 0.622292 0.250000 0.678669
#
# Coordination Sequence:
#
# PCOD8071848 Si02
#       7
#     4   4   4   4   4   4   4
#     4  10  21  36  56  82 108 138 183 229 268 319
#     4  12  23  35  54  80 110 145 182 224 271 324
#     4  10  19  34  54  78 108 142 180 225 270 322
#     4  11  22  36  51  76 111 147 182 220 268 324
#     4  10  21  38  58  78 106 144 184 228 272 318
#     4  10  20  35  54  76 109 146 179 218 268 322
#     4   9  18  34  53  77 107 142 181 223 267 321
#
# _framework density 17.796512
#
# number of rings (size 3 to 8) (size 9 to 14) (size 15 to 20)
#    0.000    1.714    1.429    3.857    0.000    6.286 
#    0.000    0.000    0.000    0.857    0.000    0.000 
#    0.000    0.000    0.000    0.000    0.000    0.000 
#
# Total GULP energy -347349.678336 kJ/mol
# GULP energy per Si atom -12405.345655 kJ/mol
# Density = 1.775601 g / cm^3
# Si number density = 17.796512 Si / 1000 Ang^3
#
#
#
# Elastic Constant Matrix: (Units=GPa)
#
#
# Indices 1 2 3 4 5 6 
#
# 1 82.0316 26.3345 47.5156 0.0000 -8.0747 0.0000
# 2 26.3345 59.2468 31.1703 0.0000 -4.4744 0.0000
# 3 47.5156 31.1703 78.4806 0.0000 -3.1557 0.0000
# 4 0.0000 0.0000 0.0000 31.7634 0.0000 -1.5253
# 5 -8.0747 -4.4744 -3.1557 0.0000 21.0746 0.0000
# 6 0.0000 0.0000 0.0000 -1.5253 0.0000 31.3561
#
#
#
# Elastic Compliance Matrix: (Units=1/GPa)
#
#
# Indices 1 2 3 4 5 6 
#
# 1 0.019788 -0.002780 -0.010660 0.000000 0.005396 0.000000
# 2 -0.002780 0.021956 -0.006934 0.000000 0.002558 0.000000
# 3 -0.010660 -0.006934 0.021858 0.000000 -0.002283 0.000000
# 4 0.000000 0.000000 0.000000 0.031556 0.000000 0.001535
# 5 0.005396 0.002558 -0.002283 0.000000 0.049719 0.000000
# 6 0.000000 0.000000 0.000000 0.001535 0.000000 0.031966
#
#
# Mechanical properties :
#
#
# Convention : Reuss Voigt Hill
#
# Bulk Modulus (GPa) = 43.75537 47.75554 45.75545
# Shear Modulus (GPa) = 22.20154 24.48807 23.34480
#
# Velocity S-wave (km/s) = 3.53586 3.71348 3.62576
# Velocity P-wave (km/s) = 6.42725 6.72897 6.57984
#
# Compressibility (1/GPa) = 0.02285434
#
# Stress axis : x y z
#
# Youngs Moduli (GPa) = 50.53448 45.54663 45.74979
#
# Poissons Ratio (x) = 0.12662 0.48768
# Poissons Ratio (y) = 0.14049 0.31723
# Poissons Ratio (z) = 0.53868 0.31582
#
# Static dielectric constant tensor:
#      x y z
#    x 3.403530 0.000000 -0.098410 
#    y 0.000000 3.343380 0.000000 
#    z -0.098410 0.000000 3.151120 
# 
# 
# High freq. dielectric constant tensor:
#      x y z
#    x 1.683810 0.000000 -0.009600 
#    y 0.000000 1.698890 0.000000 
#    z -0.009600 0.000000 1.675990 
# 
# From -- ./inp_files/53302.got.cif
#   From: 2010.06.25/outbox.cif.g09.slc.cpg/sg11_27_cif.got.tgz:53302.got - 2010.06.27 23:14:04.
