data_PCOD8071433
_publ_section_title
;
Structure prediction by ZEFSAII (Michael W. Deem and Ramdas Pophale) SiO2 
 PCOD8071433
Probable space group: P 21/M
;
_chemical_formula_sum "Si O2"
_cell_formula_units_Z 28
_cell_length_a 18.979818
_cell_length_b 8.727146
_cell_length_c 23.455876
_cell_angle_alpha 90.000000
_cell_angle_beta 23.007116
_cell_angle_gamma 90.000000
_cell_volume 1518.521701
_symmetry_space_group_name_H-M "P 21/M"
_symmetry_group_IT_number 11
_symmetry_cell_setting 'monoclinic'
loop_
_space_group_symop_operation_xyz
x,y,z
-x,1/2+y,-z
-x,-y,-z
x,1/2-y,z
loop_
_atom_site_type_symbol
_atom_site_label
_atom_site_fract_x
_atom_site_fract_y
_atom_site_fract_z
Si Si1 0.999407 0.566551 0.062848
Si Si2 0.692576 0.070126 0.367618
Si Si3 0.856392 0.568940 0.649889
Si Si4 0.752600 0.082547 0.028255
Si Si5 0.868780 0.068868 0.762426
Si Si6 0.103995 0.081957 0.689768
Si Si7 0.458966 0.566606 0.916324
O O1 0.999723 0.750000 0.061830
O O2 0.821205 0.509369 0.226315
O O3 0.178122 0.503531 0.964416
O O4 0.000000 0.500000 0.000000
O O5 0.690761 0.250000 0.358903
O O6 0.500000 0.000000 0.500000
O O7 0.755528 0.034734 0.385721
O O8 0.860789 0.750000 0.641193
O O9 0.903967 0.520067 0.678107
O O10 0.657504 0.504942 0.782437
O O11 0.000000 0.500000 0.500000
O O12 0.677105 0.250000 0.100769
O O13 0.927263 0.099437 0.859112
O O14 0.601602 0.998431 0.101244
O O15 0.862563 0.250000 0.755681
O O16 0.038885 0.024987 0.676013
O O17 0.680271 0.011767 0.930978
O O18 0.196193 0.250000 0.616266
O O19 0.450197 0.750000 0.919330
#
# Coordination Sequence:
#
# PCOD8071433 Si02
#       7
#     4   4   4   4   4   4   4
#     4  10  19  33  53  77 105 137 172 214 263 315
#     4  11  21  34  53  77 106 139 174 214 257 305
#     4  11  22  34  49  71 103 138 170 206 252 304
#     4   7  12  26  49  73  96 124 163 208 252 298
#     4   9  17  33  57  79  99 125 163 210 258 308
#     4   8  15  30  52  76 100 128 163 207 257 307
#     4   8  15  30  53  77  96 123 166 211 251 297
#
# _framework density 18.438984999999999
#
# number of rings (size 3 to 8) (size 9 to 14) (size 15 to 20)
#    0.000    2.857    0.000    5.143    0.000    0.571 
#    0.000    2.143    0.000   15.429    0.000    0.000 
#    0.000    0.000    0.000    0.000    0.000    0.000 
#
# Total GULP energy -346887.122147 kJ/mol
# GULP energy per Si atom -12388.825791 kJ/mol
# Density = 1.839702 g / cm^3
# Si number density = 18.438985 Si / 1000 Ang^3
#
#
#
# Elastic Constant Matrix: (Units=GPa)
#
#
# Indices 1 2 3 4 5 6 
#
# 1 179.2467 42.5493 65.5441 0.0000 7.7666 0.0000
# 2 42.5493 63.3809 27.7015 0.0000 -0.7810 0.0000
# 3 65.5441 27.7015 79.6221 0.0000 2.3791 0.0000
# 4 0.0000 0.0000 0.0000 23.6064 0.0000 3.1125
# 5 7.7666 -0.7810 2.3791 0.0000 26.1649 0.0000
# 6 0.0000 0.0000 0.0000 3.1125 0.0000 28.3331
#
#
#
# Elastic Compliance Matrix: (Units=1/GPa)
#
#
# Indices 1 2 3 4 5 6 
#
# 1 0.008586 -0.003218 -0.005886 0.000000 -0.002110 0.000000
# 2 -0.003218 0.019847 -0.004314 0.000000 0.001940 0.000000
# 3 -0.005886 -0.004314 0.018908 0.000000 -0.000101 0.000000
# 4 0.000000 0.000000 0.000000 0.042984 0.000000 -0.004722
# 5 -0.002110 0.001940 -0.000101 0.000000 0.038912 0.000000
# 6 0.000000 0.000000 0.000000 -0.004722 0.000000 0.035813
#
#
# Mechanical properties :
#
#
# Convention : Reuss Voigt Hill
#
# Bulk Modulus (GPa) = 48.76472 65.98217 57.37344
# Shear Modulus (GPa) = 25.16073 28.05119 26.60596
#
# Velocity S-wave (km/s) = 3.69798 3.90461 3.80270
# Velocity P-wave (km/s) = 6.68860 7.49598 7.10377
#
# Compressibility (1/GPa) = 0.02050663
#
# Stress axis : x y z
#
# Youngs Moduli (GPa) = 116.46457 50.38462 52.88692
#
# Poissons Ratio (x) = 0.16213 0.31127
# Poissons Ratio (y) = 0.37476 0.22817
# Poissons Ratio (z) = 0.68546 0.21737
#
# Static dielectric constant tensor:
#      x y z
#    x 4.120390 0.000000 -0.129180 
#    y 0.000000 3.107080 0.000000 
#    z -0.129180 0.000000 3.108460 
# 
# 
# High freq. dielectric constant tensor:
#      x y z
#    x 1.743080 0.000000 -0.006300 
#    y 0.000000 1.686530 0.000000 
#    z -0.006300 0.000000 1.677660 
# 
# From -- ./inp_files/65986.got.cif
#   From: 2010.06.25/outbox.cif.g09.slc.cpg/sg11_33_cif.got.tgz:65986.got - 2010.06.27 23:14:04.
