data_PCOD8071730
_publ_section_title
;
Structure prediction by ZEFSAII (Michael W. Deem and Ramdas Pophale) SiO2 
 PCOD8071730
Probable space group: P 21/M
;
_chemical_formula_sum "Si O2"
_cell_formula_units_Z 28
_cell_length_a 11.358883
_cell_length_b 9.358280
_cell_length_c 15.021657
_cell_angle_alpha 90.000000
_cell_angle_beta 119.345425
_cell_angle_gamma 90.000000
_cell_volume 1391.896960
_symmetry_space_group_name_H-M "P 21/M"
_symmetry_group_IT_number 11
_symmetry_cell_setting 'monoclinic'
loop_
_space_group_symop_operation_xyz
x,y,z
-x,1/2+y,-z
-x,-y,-z
x,1/2-y,z
loop_
_atom_site_type_symbol
_atom_site_label
_atom_site_fract_x
_atom_site_fract_y
_atom_site_fract_z
Si Si1 0.424232 0.584122 0.700435
Si Si2 0.185698 0.402844 0.556144
Si Si3 0.706879 0.093703 0.164322
Si Si4 0.947887 0.088442 0.816157
Si Si5 0.685069 0.421963 0.815954
Si Si6 0.762438 0.920952 0.020694
Si Si7 0.023437 0.995136 0.656410
O O1 0.448399 0.750000 0.685864
O O2 0.294547 0.530092 0.596602
O O3 0.398143 0.561065 0.795727
O O4 0.552386 0.488218 0.720364
O O5 0.261627 0.250000 0.585068
O O6 0.088559 0.401725 0.606625
O O7 0.095242 0.406049 0.433906
O O8 0.675918 0.250000 0.111327
O O9 0.858397 0.103847 0.260340
O O10 0.688096 0.969402 0.084316
O O11 0.941558 0.250000 0.844260
O O12 0.811435 0.018943 0.804605
O O13 0.082122 0.025505 0.912945
O O14 0.955015 0.080729 0.712142
O O15 0.674490 0.250000 0.817538
O O16 0.695473 0.492893 0.916441
O O17 0.746265 0.750000 0.003431
#
# Coordination Sequence:
#
# PCOD8071730 Si02
#       7
#     4   4   4   4   4   4   4
#     4  10  22  38  54  76 108 144 181 221 267 315
#     4  10  19  33  57  86 112 139 174 217 267 321
#     4   9  18  34  55  80 109 138 174 219 264 314
#     4   9  19  35  55  81 109 139 175 217 263 313
#     4  11  22  37  56  76 104 143 184 220 259 312
#     4  10  20  35  56  82 109 136 172 218 270 319
#     4   9  18  32  56  85 113 138 169 216 270 316
#
# _framework density 20.116432
#
# number of rings (size 3 to 8) (size 9 to 14) (size 15 to 20)
#    0.000    2.286    0.000    2.571    0.000    8.571 
#    0.000    8.571    0.000    0.000    0.000    0.000 
#    0.000    0.000    0.000    0.000    0.000    0.000 
#
# Total GULP energy -347026.756101 kJ/mol
# GULP energy per Si atom -12393.812718 kJ/mol
# Density = 2.007065 g / cm^3
# Si number density = 20.116432 Si / 1000 Ang^3
#
#
#
# Elastic Constant Matrix: (Units=GPa)
#
#
# Indices 1 2 3 4 5 6 
#
# 1 66.3547 21.8518 9.4570 0.0000 15.2341 0.0000
# 2 21.8518 105.1299 17.0860 0.0000 10.7969 0.0000
# 3 9.4570 17.0860 65.7596 0.0000 6.5372 0.0000
# 4 0.0000 0.0000 0.0000 22.2936 0.0000 5.1670
# 5 15.2341 10.7969 6.5372 0.0000 17.0513 0.0000
# 6 0.0000 0.0000 0.0000 5.1670 0.0000 24.3027
#
#
#
# Elastic Compliance Matrix: (Units=1/GPa)
#
#
# Indices 1 2 3 4 5 6 
#
# 1 0.019545 -0.002343 -0.000638 0.000000 -0.015734 0.000000
# 2 -0.002343 0.010736 -0.002064 0.000000 -0.003914 0.000000
# 3 -0.000638 -0.002064 0.016268 0.000000 -0.004360 0.000000
# 4 0.000000 0.000000 0.000000 0.047181 0.000000 -0.010031
# 5 -0.015734 -0.003914 -0.004360 0.000000 0.076854 0.000000
# 6 0.000000 0.000000 0.000000 -0.010031 0.000000 0.043280
#
#
# Mechanical properties :
#
#
# Convention : Reuss Voigt Hill
#
# Bulk Modulus (GPa) = 27.42654 37.11488 32.27071
# Shear Modulus (GPa) = 21.17676 25.31949 23.24812
#
# Velocity S-wave (km/s) = 3.24807 3.55159 3.40321
# Velocity P-wave (km/s) = 5.26594 5.94209 5.61420
#
# Compressibility (1/GPa) = 0.03646103
#
# Stress axis : x y z
#
# Youngs Moduli (GPa) = 51.16293 93.14129 61.46931
#
# Poissons Ratio (x) = 0.21823 0.03921
# Poissons Ratio (y) = 0.11988 0.12685
# Poissons Ratio (z) = 0.03264 0.19220
#
# Static dielectric constant tensor:
#      x y z
#    x 3.787720 0.000000 0.070250 
#    y 0.000000 3.517570 0.000000 
#    z 0.070250 0.000000 3.494110 
# 
# 
# High freq. dielectric constant tensor:
#      x y z
#    x 1.776120 0.000000 0.010860 
#    y 0.000000 1.779360 0.000000 
#    z 0.010860 0.000000 1.774390 
# 
# From -- ./inp_files/49457.got.cif
#   From: 2010.06.25/outbox.cif.g09.slc.cpg/sg11_25_cif.got.tgz:49457.got - 2010.06.27 23:14:04.
