data_PCOD8071041
_publ_section_title
;
Structure prediction by ZEFSAII (Michael W. Deem and Ramdas Pophale) SiO2 
 PCOD8071041
Probable space group: P 21/M
;
_chemical_formula_sum "Si O2"
_cell_formula_units_Z 28
_cell_length_a 19.027613
_cell_length_b 8.983020
_cell_length_c 14.316222
_cell_angle_alpha 90.000000
_cell_angle_beta 138.583502
_cell_angle_gamma 90.000000
_cell_volume 1618.762813
_symmetry_space_group_name_H-M "P 21/M"
_symmetry_group_IT_number 11
_symmetry_cell_setting 'monoclinic'
loop_
_space_group_symop_operation_xyz
x,y,z
-x,1/2+y,-z
-x,-y,-z
x,1/2-y,z
loop_
_atom_site_type_symbol
_atom_site_label
_atom_site_fract_x
_atom_site_fract_y
_atom_site_fract_z
Si Si1 0.315234 0.079030 0.025353
Si Si2 0.118663 0.079668 0.705844
Si Si3 0.625968 0.076742 0.527965
Si Si4 0.701705 0.925968 0.421957
Si Si5 0.876611 0.423015 0.478650
Si Si6 0.619356 0.578703 0.707291
Si Si7 0.499959 0.425656 0.899567
O O1 0.351169 0.250000 0.044887
O O2 0.312517 0.042269 0.132652
O O3 0.396107 0.972355 0.053193
O O4 0.196936 0.049699 0.870071
O O5 0.125796 0.250000 0.677898
O O6 0.000141 0.042406 0.621946
O O7 0.154049 0.975541 0.655828
O O8 0.650140 0.250000 0.542414
O O9 0.502319 0.038173 0.390981
O O10 0.691848 0.990674 0.515632
O O11 0.663902 0.021777 0.667728
O O12 0.706076 0.750000 0.432879
O O13 0.603868 0.979769 0.260105
O O14 0.810998 0.985725 0.488863
O O15 0.848991 0.250000 0.460321
O O16 0.628952 0.750000 0.686276
O O17 0.499724 0.250000 0.912861
O O18 0.500000 0.500000 0.000000
#
# Coordination Sequence:
#
# PCOD8071041 Si02
#       7
#     4   4   4   4   4   4   4
#     4  10  19  34  54  75 102 134 168 205 251 304
#     4   9  19  35  54  76 102 134 172 213 253 297
#     4  10  19  32  52  76 102 133 169 208 249 302
#     4  11  22  35  51  73 103 137 171 210 254 300
#     4  10  20  34  53  76 102 134 174 215 253 297
#     4   9  18  32  51  75 103 134 165 203 252 305
#     4  11  23  34  47  71 104 137 168 204 250 301
#
# _framework density 17.297159000000001
#
# number of rings (size 3 to 8) (size 9 to 14) (size 15 to 20)
#    0.000    2.000    1.429    2.571    0.000    7.429 
#    0.000    0.000    0.000    0.857    0.000    0.000 
#    0.000    0.000    0.000    0.000    0.000    0.000 
#
# Total GULP energy -347320.236374 kJ/mol
# GULP energy per Si atom -12404.294156 kJ/mol
# Density = 1.725779 g / cm^3
# Si number density = 17.297159 Si / 1000 Ang^3
#
#
#
# Elastic Constant Matrix: (Units=GPa)
#
#
# Indices 1 2 3 4 5 6 
#
# 1 122.3710 52.2992 59.2548 0.0000 -11.6125 0.0000
# 2 52.2992 68.3881 36.5756 0.0000 -5.8428 0.0000
# 3 59.2548 36.5756 96.5527 0.0000 -11.4314 0.0000
# 4 0.0000 0.0000 0.0000 22.9005 0.0000 -2.8579
# 5 -11.6125 -5.8428 -11.4314 0.0000 23.4907 0.0000
# 6 0.0000 0.0000 0.0000 -2.8579 0.0000 36.1967
#
#
#
# Elastic Compliance Matrix: (Units=1/GPa)
#
#
# Indices 1 2 3 4 5 6 
#
# 1 0.014488 -0.007863 -0.005620 0.000000 0.002471 0.000000
# 2 -0.007863 0.022639 -0.003761 0.000000 -0.000086 0.000000
# 3 -0.005620 -0.003761 0.015696 0.000000 0.003924 0.000000
# 4 0.000000 0.000000 0.000000 0.044102 0.000000 0.003482
# 5 0.002471 -0.000086 0.003924 0.000000 0.045680 0.000000
# 6 0.000000 0.000000 0.000000 0.003482 0.000000 0.027902
#
#
# Mechanical properties :
#
#
# Convention : Reuss Voigt Hill
#
# Bulk Modulus (GPa) = 54.53988 64.84122 59.69055
# Shear Modulus (GPa) = 23.68469 25.79640 24.74054
#
# Velocity S-wave (km/s) = 3.70440 3.86601 3.78607
# Velocity P-wave (km/s) = 7.06373 7.58262 7.32777
#
# Compressibility (1/GPa) = 0.01833521
#
# Stress axis : x y z
#
# Youngs Moduli (GPa) = 69.02104 44.17059 63.71207
#
# Poissons Ratio (x) = 0.34730 0.35809
# Poissons Ratio (y) = 0.54269 0.23962
# Poissons Ratio (z) = 0.38793 0.16612
#
# Static dielectric constant tensor:
#      x y z
#    x 3.152390 0.000000 -0.084330 
#    y 0.000000 3.296130 0.000000 
#    z -0.084330 0.000000 3.260960 
# 
# 
# High freq. dielectric constant tensor:
#      x y z
#    x 1.660730 0.000000 -0.010570 
#    y 0.000000 1.676950 0.000000 
#    z -0.010570 0.000000 1.656970 
# 
# From -- ./inp_files/44658.got.cif
#   From: 2010.06.25/outbox.cif.g09.slc.cpg/sg11_23_cif.got.tgz:44658.got - 2010.06.27 23:14:04.
