data_PCOD8071887
_publ_section_title
;
Structure prediction by ZEFSAII (Michael W. Deem and Ramdas Pophale) SiO2 
 PCOD8071887
Probable space group: P 21/M
;
_chemical_formula_sum "Si O2"
_cell_formula_units_Z 28
_cell_length_a 15.436855
_cell_length_b 9.725145
_cell_length_c 21.190663
_cell_angle_alpha 90.000000
_cell_angle_beta 27.492974
_cell_angle_gamma 90.000000
_cell_volume 1468.597333
_symmetry_space_group_name_H-M "P 21/M"
_symmetry_group_IT_number 11
_symmetry_cell_setting 'monoclinic'
loop_
_space_group_symop_operation_xyz
x,y,z
-x,1/2+y,-z
-x,-y,-z
x,1/2-y,z
loop_
_atom_site_type_symbol
_atom_site_label
_atom_site_fract_x
_atom_site_fract_y
_atom_site_fract_z
Si Si1 0.248002 0.596800 0.633734
Si Si2 0.366498 0.092680 0.045386
Si Si3 0.576467 0.587979 0.134116
Si Si4 0.826312 0.590614 0.087860
Si Si5 0.846198 0.084968 0.561099
Si Si6 0.951345 0.092823 0.356002
Si Si7 0.327755 0.101182 0.682772
O O1 0.167122 0.750000 0.698106
O O2 0.464805 0.599887 0.477808
O O3 0.205270 0.512740 0.725207
O O4 0.144387 0.520476 0.642555
O O5 0.438017 0.250000 0.000115
O O6 0.172082 0.076847 0.206960
O O7 0.357376 0.041714 0.978503
O O8 0.500000 0.000000 0.000000
O O9 0.578530 0.750000 0.140911
O O10 0.725722 0.530495 0.089539
O O11 0.362530 0.537718 0.283554
O O12 0.888965 0.750000 0.038506
O O13 0.669753 0.575927 0.243923
O O14 0.000000 0.500000 0.000000
O O15 0.877725 0.250000 0.548684
O O16 0.877216 0.032763 0.469496
O O17 0.000000 0.000000 0.500000
O O18 0.885297 0.250000 0.395952
O O19 0.235862 0.250000 0.728099
#
# Coordination Sequence:
#
# PCOD8071887 Si02
#       7
#     4   4   4   4   4   4   4
#     4   9  17  31  53  75  97 133 172 208 252 309
#     4  10  20  35  53  76 103 134 171 213 258 309
#     4   9  19  35  56  77 105 143 179 212 262 325
#     4  10  21  36  54  76 106 144 183 223 263 314
#     4  10  19  34  55  79 104 135 173 217 267 319
#     4   9  18  31  52  76  98 127 171 212 246 300
#     4   9  18  32  49  74 106 131 163 214 265 298
#
# _framework density 19.065811
#
# number of rings (size 3 to 8) (size 9 to 14) (size 15 to 20)
#    0.000    2.571    0.000    1.714    2.000    4.000 
#    0.000    2.857    0.000    1.714    0.000    0.000 
#    0.000    0.000    0.000    0.000    0.000    0.000 
#
# Total GULP energy -346983.752793 kJ/mol
# GULP energy per Si atom -12392.276885 kJ/mol
# Density = 1.902242 g / cm^3
# Si number density = 19.065811 Si / 1000 Ang^3
#
#
#
# Elastic Constant Matrix: (Units=GPa)
#
#
# Indices 1 2 3 4 5 6 
#
# 1 139.6199 45.5935 20.3413 0.0000 3.7021 0.0000
# 2 45.5935 53.8212 14.7639 0.0000 -0.8897 0.0000
# 3 20.3413 14.7639 55.7918 0.0000 9.8367 0.0000
# 4 0.0000 0.0000 0.0000 19.2908 0.0000 -2.2815
# 5 3.7021 -0.8897 9.8367 0.0000 33.0138 0.0000
# 6 0.0000 0.0000 0.0000 -2.2815 0.0000 30.7230
#
#
#
# Elastic Compliance Matrix: (Units=1/GPa)
#
#
# Indices 1 2 3 4 5 6 
#
# 1 0.010047 -0.008160 -0.001336 0.000000 -0.000948 0.000000
# 2 -0.008160 0.026820 -0.004655 0.000000 0.003025 0.000000
# 3 -0.001336 -0.004655 0.020728 0.000000 -0.006152 0.000000
# 4 0.000000 0.000000 0.000000 0.052297 0.000000 0.003884
# 5 -0.000948 0.003025 -0.006152 0.000000 0.032311 0.000000
# 6 0.000000 0.000000 0.000000 0.003884 0.000000 0.032837
#
#
# Mechanical properties :
#
#
# Convention : Reuss Voigt Hill
#
# Bulk Modulus (GPa) = 34.14099 45.62560 39.88330
# Shear Modulus (GPa) = 23.46235 27.84112 25.65174
#
# Velocity S-wave (km/s) = 3.51179 3.82549 3.67199
# Velocity P-wave (km/s) = 5.86425 6.59507 6.24037
#
# Compressibility (1/GPa) = 0.02929030
#
# Stress axis : x y z
#
# Youngs Moduli (GPa) = 99.53358 37.28596 48.24489
#
# Poissons Ratio (x) = 0.30426 0.06448
# Poissons Ratio (y) = 0.81220 0.22460
# Poissons Ratio (z) = 0.13302 0.17358
#
# Static dielectric constant tensor:
#      x y z
#    x 3.833860 0.000000 0.201420 
#    y 0.000000 3.454310 0.000000 
#    z 0.201420 0.000000 4.844310 
# 
# 
# High freq. dielectric constant tensor:
#      x y z
#    x 1.754660 0.000000 0.011640 
#    y 0.000000 1.700900 0.000000 
#    z 0.011640 0.000000 1.747020 
# 
# From -- ./inp_files/65336.got.cif
#   From: 2010.06.25/outbox.cif.g09.slc.cpg/sg11_33_cif.got.tgz:65336.got - 2010.06.27 23:14:04.
