data_PCOD8071574
_publ_section_title
;
Structure prediction by ZEFSAII (Michael W. Deem and Ramdas Pophale) SiO2 
 PCOD8071574
Probable space group: P 21/M
;
_chemical_formula_sum "Si O2"
_cell_formula_units_Z 28
_cell_length_a 17.948100
_cell_length_b 9.207566
_cell_length_c 15.478500
_cell_angle_alpha 90.000000
_cell_angle_beta 142.210487
_cell_angle_gamma 90.000000
_cell_volume 1567.416141
_symmetry_space_group_name_H-M "P 21/M"
_symmetry_group_IT_number 11
_symmetry_cell_setting 'monoclinic'
loop_
_space_group_symop_operation_xyz
x,y,z
-x,1/2+y,-z
-x,-y,-z
x,1/2-y,z
loop_
_atom_site_type_symbol
_atom_site_label
_atom_site_fract_x
_atom_site_fract_y
_atom_site_fract_z
Si Si1 0.398840 0.418850 0.849383
Si Si2 0.175000 0.580044 0.123321
Si Si3 0.120335 0.422136 0.573676
Si Si4 0.162464 0.584736 0.442398
Si Si5 0.980160 0.086969 0.859200
Si Si6 0.606542 0.917275 0.355059
Si Si7 0.443674 0.919174 0.367760
O O1 0.412789 0.250000 0.883540
O O2 0.255601 0.464808 0.736735
O O3 0.431994 0.450730 0.779375
O O4 0.500000 0.500000 0.000000
O O5 0.174462 0.750000 0.109383
O O6 0.123427 0.531859 0.169472
O O7 0.309020 0.517402 0.237364
O O8 0.097925 0.512548 0.974882
O O9 0.101690 0.250000 0.564411
O O10 0.120952 0.470836 0.475708
O O11 0.000000 0.500000 0.500000
O O12 0.175851 0.750000 0.489933
O O13 0.062170 0.578399 0.277135
O O14 0.289039 0.528336 0.519745
O O15 0.016355 0.250000 0.918135
O O16 0.651065 0.750000 0.402034
O O17 0.500607 0.949924 0.325978
O O18 0.447156 0.750000 0.393621
O O19 0.500000 0.000000 0.500000
#
# Coordination Sequence:
#
# PCOD8071574 Si02
#       7
#     4   4   4   4   4   4   4
#     4   9  19  36  57  80 109 144 182 224 274 329
#     4   9  18  32  49  70 100 136 174 213 257 311
#     4  10  21  38  58  83 113 142 179 226 273 327
#     4  10  19  33  55  79 105 136 174 217 262 315
#     4   9  18  32  49  71 100 134 171 215 260 306
#     4   9  19  35  53  76 107 139 176 220 263 320
#     4  10  20  34  52  75 105 137 174 220 266 314
#
# _framework density 17.863793999999999
#
# number of rings (size 3 to 8) (size 9 to 14) (size 15 to 20)
#    0.000    2.571    0.000    2.571    0.000    6.286 
#    2.571    2.857    0.000    0.000    0.000    0.000 
#    0.000    0.000    0.000    0.000    0.000    0.000 
#
# Total GULP energy -346959.333317 kJ/mol
# GULP energy per Si atom -12391.404761 kJ/mol
# Density = 1.782314 g / cm^3
# Si number density = 17.863794 Si / 1000 Ang^3
#
#
#
# Elastic Constant Matrix: (Units=GPa)
#
#
# Indices 1 2 3 4 5 6 
#
# 1 106.7712 42.2229 68.6623 0.0000 21.5144 0.0000
# 2 42.2229 60.5541 57.5284 0.0000 9.7754 0.0000
# 3 68.6623 57.5284 128.5134 0.0000 17.4728 0.0000
# 4 0.0000 0.0000 0.0000 36.3242 0.0000 0.7888
# 5 21.5144 9.7754 17.4728 0.0000 28.4480 0.0000
# 6 0.0000 0.0000 0.0000 0.7888 0.0000 28.5343
#
#
#
# Elastic Compliance Matrix: (Units=1/GPa)
#
#
# Indices 1 2 3 4 5 6 
#
# 1 0.016348 -0.004988 -0.005514 0.000000 -0.007263 0.000000
# 2 -0.004988 0.030377 -0.010941 0.000000 0.000054 0.000000
# 3 -0.005514 -0.010941 0.015872 0.000000 -0.001819 0.000000
# 4 0.000000 0.000000 0.000000 0.027546 0.000000 -0.000761
# 5 -0.007263 0.000054 -0.001819 0.000000 0.041743 0.000000
# 6 0.000000 0.000000 0.000000 -0.000761 0.000000 0.035067
#
#
# Mechanical properties :
#
#
# Convention : Reuss Voigt Hill
#
# Bulk Modulus (GPa) = 50.73019 70.29621 60.51320
# Shear Modulus (GPa) = 23.10438 27.15631 25.13034
#
# Velocity S-wave (km/s) = 3.60024 3.90319 3.75477
# Velocity P-wave (km/s) = 6.76330 7.72980 7.26265
#
# Compressibility (1/GPa) = 0.01971213
#
# Stress axis : x y z
#
# Youngs Moduli (GPa) = 61.17090 32.91923 63.00333
#
# Poissons Ratio (x) = 0.16420 0.34740
# Poissons Ratio (y) = 0.30512 0.68930
# Poissons Ratio (z) = 0.33730 0.36016
#
# Static dielectric constant tensor:
#      x y z
#    x 3.501090 0.000000 0.215730 
#    y 0.000000 3.430190 0.000000 
#    z 0.215730 0.000000 3.351150 
# 
# 
# High freq. dielectric constant tensor:
#      x y z
#    x 1.688860 0.000000 0.005490 
#    y 0.000000 1.693440 0.000000 
#    z 0.005490 0.000000 1.688310 
# 
# From -- ./inp_files/53298.got.cif
#   From: 2010.06.25/outbox.cif.g09.slc.cpg/sg11_27_cif.got.tgz:53298.got - 2010.06.27 23:14:04.
