data_PCOD8071452
_publ_section_title
;
Structure prediction by ZEFSAII (Michael W. Deem and Ramdas Pophale) SiO2 
 PCOD8071452
Probable space group: P 21/M
;
_chemical_formula_sum "Si O2"
_cell_formula_units_Z 32
_cell_length_a 23.825447
_cell_length_b 9.044244
_cell_length_c 15.038290
_cell_angle_alpha 90.000000
_cell_angle_beta 29.694968
_cell_angle_gamma 90.000000
_cell_volume 1605.285703
_symmetry_space_group_name_H-M "P 21/M"
_symmetry_group_IT_number 11
_symmetry_cell_setting 'monoclinic'
loop_
_space_group_symop_operation_xyz
x,y,z
-x,1/2+y,-z
-x,-y,-z
x,1/2-y,z
loop_
_atom_site_type_symbol
_atom_site_label
_atom_site_fract_x
_atom_site_fract_y
_atom_site_fract_z
Si Si1 0.791444 0.911500 0.118834
Si Si2 0.276880 0.425256 0.450281
Si Si3 0.274308 0.076348 0.087139
Si Si4 0.514151 0.574130 0.725613
Si Si5 0.832878 0.576030 0.579302
Si Si6 0.070825 0.420834 0.237621
Si Si7 0.416059 0.923424 0.549604
Si Si8 0.109267 0.410843 0.826957
O O1 0.742339 0.750000 0.153981
O O2 0.823789 0.891590 0.175240
O O3 0.703328 0.045564 0.237869
O O4 0.896181 0.952378 0.910382
O O5 0.267960 0.250000 0.465629
O O6 0.406157 0.468909 0.298994
O O7 0.240145 0.486162 0.403925
O O8 0.188136 0.491077 0.644799
O O9 0.299623 0.250000 0.042747
O O10 0.236843 0.032428 0.237591
O O11 0.175205 0.026481 0.156015
O O12 0.388481 0.988152 0.909494
O O13 0.508209 0.750000 0.720043
O O14 0.575220 0.501233 0.557458
O O15 0.849009 0.750000 0.549125
O O16 0.957754 0.509392 0.414739
O O17 0.044206 0.250000 0.292774
O O18 0.437858 0.750000 0.510038
O O19 0.500000 0.000000 0.500000
O O20 0.072138 0.250000 0.841758
O O21 0.000000 0.500000 0.000000
#
# Coordination Sequence:
#
# PCOD8071452 Si02
#       8
#     4   4   4   4   4   4   4   4
#     4  10  20  36  56  81 115 155 192 235 292 348
#     4   9  19  37  58  82 117 157 195 245 301 352
#     4  10  22  39  58  86 120 156 199 253 311 357
#     4  11  22  40  63  86 118 159 202 246 301 361
#     4  10  21  38  61  85 116 157 201 250 305 364
#     4  10  21  37  58  85 120 153 192 249 304 357
#     4  12  24  38  59  87 119 155 196 240 287 350
#     4  10  19  33  53  78 112 149 190 238 290 350
#
# _framework density 19.934146999999999
#
# number of rings (size 3 to 8) (size 9 to 14) (size 15 to 20)
#    0.000    1.750    1.250    3.375    0.000    3.500 
#    0.000    1.250    0.000    0.000    0.000    0.000 
#    0.000    0.000    0.000    0.000    0.000    0.000 
#
# Total GULP energy -396646.152741 kJ/mol
# GULP energy per Si atom -12395.192273 kJ/mol
# Density = 1.988878 g / cm^3
# Si number density = 19.934147 Si / 1000 Ang^3
#
#
#
# Elastic Constant Matrix: (Units=GPa)
#
#
# Indices 1 2 3 4 5 6 
#
# 1 91.6256 23.8337 25.0925 0.0000 -0.2745 0.0000
# 2 23.8337 73.4153 38.3787 0.0000 -7.3391 0.0000
# 3 25.0925 38.3787 88.8823 0.0000 -5.7962 0.0000
# 4 0.0000 0.0000 0.0000 35.8259 0.0000 -4.0907
# 5 -0.2745 -7.3391 -5.7962 0.0000 39.5097 0.0000
# 6 0.0000 0.0000 0.0000 -4.0907 0.0000 15.4618
#
#
#
# Elastic Compliance Matrix: (Units=1/GPa)
#
#
# Indices 1 2 3 4 5 6 
#
# 1 0.012283 -0.002876 -0.002277 0.000000 -0.000783 0.000000
# 2 -0.002876 0.018452 -0.007000 0.000000 0.002381 0.000000
# 3 -0.002277 -0.007000 0.014974 0.000000 0.000881 0.000000
# 4 0.000000 0.000000 0.000000 0.028782 0.000000 0.007615
# 5 -0.000783 0.002381 0.000881 0.000000 0.025876 0.000000
# 6 0.000000 0.000000 0.000000 0.007615 0.000000 0.066690
#
#
# Mechanical properties :
#
#
# Convention : Reuss Voigt Hill
#
# Bulk Modulus (GPa) = 46.72232 47.61479 47.16855
# Shear Modulus (GPa) = 25.18911 29.26737 27.22824
#
# Velocity S-wave (km/s) = 3.55859 3.83587 3.69983
# Velocity P-wave (km/s) = 6.35405 6.59973 6.47806
#
# Compressibility (1/GPa) = 0.02140305
#
# Stress axis : x y z
#
# Youngs Moduli (GPa) = 81.41187 54.19402 66.78299
#
# Poissons Ratio (x) = 0.15584 0.15207
# Poissons Ratio (y) = 0.23410 0.46751
# Poissons Ratio (z) = 0.18538 0.37939
#
# Static dielectric constant tensor:
#      x y z
#    x 3.048690 0.000000 -0.049040 
#    y 0.000000 3.669390 0.000000 
#    z -0.049040 0.000000 3.520730 
# 
# 
# High freq. dielectric constant tensor:
#      x y z
#    x 1.788640 0.000000 0.002330 
#    y 0.000000 1.758190 0.000000 
#    z 0.002330 0.000000 1.783400 
# 
# From -- ./inp_files/51725.got.cif
#   From: 2010.06.25/outbox.cif.g09.slc.cpg/sg11_26_cif.got.tgz:51725.got - 2010.06.27 23:14:04.
