data_PCOD8071028
_publ_section_title
;
Structure prediction by ZEFSAII (Michael W. Deem and Ramdas Pophale) SiO2 
 PCOD8071028
Probable space group: P 21/M
;
_chemical_formula_sum "Si O2"
_cell_formula_units_Z 32
_cell_length_a 9.307381
_cell_length_b 9.138912
_cell_length_c 22.406080
_cell_angle_alpha 90.000000
_cell_angle_beta 114.307923
_cell_angle_gamma 90.000000
_cell_volume 1736.886080
_symmetry_space_group_name_H-M "P 21/M"
_symmetry_group_IT_number 11
_symmetry_cell_setting 'monoclinic'
loop_
_space_group_symop_operation_xyz
x,y,z
-x,1/2+y,-z
-x,-y,-z
x,1/2-y,z
loop_
_atom_site_type_symbol
_atom_site_label
_atom_site_fract_x
_atom_site_fract_y
_atom_site_fract_z
Si Si1 0.970332 0.077163 0.309259
Si Si2 0.409975 0.078427 0.069325
Si Si3 0.710662 0.580548 0.575906
Si Si4 0.341771 0.924204 0.679393
Si Si5 0.732666 0.078654 0.061637
Si Si6 0.640193 0.576042 0.805862
Si Si7 0.970971 0.924489 0.812639
Si Si8 0.581928 0.920310 0.425575
O O1 0.958650 0.250000 0.301773
O O2 0.807792 0.017407 0.308777
O O3 0.113489 0.031256 0.376936
O O4 0.997547 0.010982 0.247950
O O5 0.377588 0.250000 0.060715
O O6 0.587701 0.039798 0.080402
O O7 0.384307 0.016281 0.131382
O O8 0.284715 0.001687 0.004470
O O9 0.679815 0.750000 0.586820
O O10 0.591763 0.485369 0.594915
O O11 0.688133 0.551079 0.502064
O O12 0.338894 0.750000 0.671202
O O13 0.498420 0.979432 0.739877
O O14 0.331436 0.997414 0.613063
O O15 0.740812 0.250000 0.050209
O O16 0.891370 0.020641 0.119919
O O17 0.639672 0.750000 0.807022
O O18 0.804184 0.514606 0.807848
O O19 0.968426 0.750000 0.810117
O O20 0.566023 0.750000 0.408153
#
# Coordination Sequence:
#
# PCOD8071028 Si02
#       8
#     4   4   4   4   4   4   4   4
#     4   9  17  30  51  76  97 123 164 208 243 282
#     4   9  17  30  47  67  92 121 154 192 234 282
#     4   9  18  34  54  74  98 130 167 203 239 285
#     4  10  19  32  52  75  98 127 164 203 243 289
#     4   9  17  29  46  68  93 121 152 189 236 286
#     4   9  17  29  48  72  94 121 160 202 238 277
#     4   9  16  27  46  71  95 119 155 202 241 276
#     4  10  20  33  50  74 103 132 162 199 244 291
#
# _framework density 18.423776
#
# number of rings (size 3 to 8) (size 9 to 14) (size 15 to 20)
#    0.000    2.750    0.000    1.875    0.000    6.500 
#    0.000    1.250    0.000    5.250    0.000    0.000 
#    0.000    0.000    0.000    0.000    0.000    0.000 
#
# Total GULP energy -396827.155805 kJ/mol
# GULP energy per Si atom -12400.848619 kJ/mol
# Density = 1.838184 g / cm^3
# Si number density = 18.423776 Si / 1000 Ang^3
#
#
#
# Elastic Constant Matrix: (Units=GPa)
#
#
# Indices 1 2 3 4 5 6 
#
# 1 136.5090 26.3725 78.8527 0.0000 2.4899 0.0000
# 2 26.3725 28.4822 29.2988 0.0000 -2.5776 0.0000
# 3 78.8527 29.2988 130.4593 0.0000 3.1083 0.0000
# 4 0.0000 0.0000 0.0000 26.6051 0.0000 -3.7810
# 5 2.4899 -2.5776 3.1083 0.0000 41.8126 0.0000
# 6 0.0000 0.0000 0.0000 -3.7810 0.0000 16.9925
#
#
#
# Elastic Compliance Matrix: (Units=1/GPa)
#
#
# Indices 1 2 3 4 5 6 
#
# 1 0.011719 -0.004716 -0.006011 0.000000 -0.000542 0.000000
# 2 -0.004716 0.048098 -0.008043 0.000000 0.003844 0.000000
# 3 -0.006011 -0.008043 0.013131 0.000000 -0.001114 0.000000
# 4 0.000000 0.000000 0.000000 0.038814 0.000000 0.008637
# 5 -0.000542 0.003844 -0.001114 0.000000 0.024268 0.000000
# 6 0.000000 0.000000 0.000000 0.008637 0.000000 0.060771
#
#
# Mechanical properties :
#
#
# Convention : Reuss Voigt Hill
#
# Bulk Modulus (GPa) = 28.24262 62.72209 45.48235
# Shear Modulus (GPa) = 20.31327 27.81047 24.06187
#
# Velocity S-wave (km/s) = 3.32408 3.88943 3.61781
# Velocity P-wave (km/s) = 5.48593 7.36805 6.49552
#
# Compressibility (1/GPa) = 0.03540748
#
# Stress axis : x y z
#
# Youngs Moduli (GPa) = 85.33347 20.79092 76.15463
#
# Poissons Ratio (x) = 0.09806 0.45776
# Poissons Ratio (y) = 0.40247 0.61249
# Poissons Ratio (z) = 0.51293 0.16722
#
# Static dielectric constant tensor:
#      x y z
#    x 3.531980 0.000000 -0.001820 
#    y 0.000000 2.953420 0.000000 
#    z -0.001820 0.000000 3.564630 
# 
# 
# High freq. dielectric constant tensor:
#      x y z
#    x 1.718870 0.000000 -0.000680 
#    y 0.000000 1.665600 0.000000 
#    z -0.000680 0.000000 1.728990 
# 
# From -- ./inp_files/63574.got.cif
#   From: 2010.06.25/outbox.cif.g09.slc.cpg/sg11_32_cif.got.tgz:63574.got - 2010.06.27 23:14:04.
