data_PCOD8071972
_publ_section_title
;
Structure prediction by ZEFSAII (Michael W. Deem and Ramdas Pophale) SiO2 
 PCOD8071972
Probable space group: P 21/M
;
_chemical_formula_sum "Si O2"
_cell_formula_units_Z 28
_cell_length_a 26.351775
_cell_length_b 8.760077
_cell_length_c 9.201632
_cell_angle_alpha 90.000000
_cell_angle_beta 42.685450
_cell_angle_gamma 90.000000
_cell_volume 1440.108021
_symmetry_space_group_name_H-M "P 21/M"
_symmetry_group_IT_number 11
_symmetry_cell_setting 'monoclinic'
loop_
_space_group_symop_operation_xyz
x,y,z
-x,1/2+y,-z
-x,-y,-z
x,1/2-y,z
loop_
_atom_site_type_symbol
_atom_site_label
_atom_site_fract_x
_atom_site_fract_y
_atom_site_fract_z
Si Si1 0.084356 0.573047 0.178068
Si Si2 0.667940 0.571655 0.034053
Si Si3 0.801890 0.930442 0.555891
Si Si4 0.068408 0.573195 0.545470
Si Si5 0.505645 0.928318 0.331126
Si Si6 0.227003 0.929410 0.692754
Si Si7 0.359468 0.069423 0.584026
O O1 0.065272 0.750000 0.191581
O O2 0.093873 0.537430 0.327929
O O3 0.017837 0.472741 0.250265
O O4 0.160585 0.522519 0.940857
O O5 0.680825 0.750000 0.025669
O O6 0.737846 0.502895 0.798729
O O7 0.591732 0.540223 0.101053
O O8 0.663141 0.503678 0.208254
O O9 0.794158 0.750000 0.548168
O O10 0.882411 0.969836 0.451941
O O11 0.794252 0.016476 0.421414
O O12 0.078826 0.750000 0.563715
O O13 0.488557 0.750000 0.373785
O O14 0.500000 0.000000 0.500000
O O15 0.442457 0.008210 0.364422
O O16 0.240511 0.750000 0.666087
O O17 0.302264 0.012011 0.584048
O O18 0.362096 0.250000 0.577407
#
# Coordination Sequence:
#
# PCOD8071972 Si02
#       7
#     4   4   4   4   4   4   4
#     4   9  20  38  59  82 108 138 174 217 265 315
#     4   8  17  33  55  80 106 137 176 220 263 312
#     4  11  22  37  55  77 108 145 180 216 262 314
#     4  10  20  36  59  85 108 134 173 219 265 314
#     4   9  16  30  52  80 109 137 174 221 269 314
#     4  11  23  38  54  77 109 143 179 219 263 313
#     4  10  19  34  56  82 108 138 177 220 269 320
#
# _framework density 19.442985
#
# number of rings (size 3 to 8) (size 9 to 14) (size 15 to 20)
#    0.000    2.286    0.000    3.857    0.000    2.286 
#    0.000    8.571    0.000    0.000    0.000    0.000 
#    0.000    0.000    0.000    0.000    0.000    0.000 
#
# Total GULP energy -347166.443971 kJ/mol
# GULP energy per Si atom -12398.801570 kJ/mol
# Density = 1.939873 g / cm^3
# Si number density = 19.442985 Si / 1000 Ang^3
#
#
#
# Elastic Constant Matrix: (Units=GPa)
#
#
# Indices 1 2 3 4 5 6 
#
# 1 115.5718 29.0974 37.0706 0.0000 -17.0746 0.0000
# 2 29.0974 63.3557 21.6771 0.0000 -8.8945 0.0000
# 3 37.0706 21.6771 27.1156 0.0000 -7.9421 0.0000
# 4 0.0000 0.0000 0.0000 23.0695 0.0000 -2.9330
# 5 -17.0746 -8.8945 -7.9421 0.0000 25.4578 0.0000
# 6 0.0000 0.0000 0.0000 -2.9330 0.0000 37.3273
#
#
#
# Elastic Compliance Matrix: (Units=1/GPa)
#
#
# Indices 1 2 3 4 5 6 
#
# 1 0.015826 0.000423 -0.020715 0.000000 0.004300 0.000000
# 2 0.000423 0.021871 -0.017324 0.000000 0.002520 0.000000
# 3 -0.020715 -0.017324 0.080568 0.000000 0.005189 0.000000
# 4 0.000000 0.000000 0.000000 0.043785 0.000000 0.003440
# 5 0.004300 0.002520 0.005189 0.000000 0.044664 0.000000
# 6 0.000000 0.000000 0.000000 0.003440 0.000000 0.027060
#
#
# Mechanical properties :
#
#
# Convention : Reuss Voigt Hill
#
# Bulk Modulus (GPa) = 23.23807 42.41482 32.82645
# Shear Modulus (GPa) = 15.46308 25.05079 20.25693
#
# Velocity S-wave (km/s) = 2.82317 3.59335 3.23129
# Velocity P-wave (km/s) = 4.75446 6.25129 5.55354
#
# Compressibility (1/GPa) = 0.04303283
#
# Stress axis : x y z
#
# Youngs Moduli (GPa) = 63.18786 45.72255 12.41182
#
# Poissons Ratio (x) = -0.01933 0.25711
# Poissons Ratio (y) = -0.02672 0.21503
# Poissons Ratio (z) = 1.30892 0.79211
#
# Static dielectric constant tensor:
#      x y z
#    x 3.614690 0.000000 -0.273300 
#    y 0.000000 3.504230 0.000000 
#    z -0.273300 0.000000 3.761650 
# 
# 
# High freq. dielectric constant tensor:
#      x y z
#    x 1.760130 0.000000 -0.022100 
#    y 0.000000 1.753450 0.000000 
#    z -0.022100 0.000000 1.744990 
# 
# From -- ./inp_files/28340.got.cif
#   From: 2010.06.25/outbox.cif.g09.slc.cpg/sg11_15_cif.got.tgz:28340.got - 2010.06.27 23:14:04.
