data_PCOD8071691
_publ_section_title
;
Structure prediction by ZEFSAII (Michael W. Deem and Ramdas Pophale) SiO2 
 PCOD8071691
Probable space group: P 21/M
;
_chemical_formula_sum "Si O2"
_cell_formula_units_Z 28
_cell_length_a 14.179746
_cell_length_b 8.963272
_cell_length_c 19.547455
_cell_angle_alpha 90.000000
_cell_angle_beta 37.140773
_cell_angle_gamma 90.000000
_cell_volume 1500.032517
_symmetry_space_group_name_H-M "P 21/M"
_symmetry_group_IT_number 11
_symmetry_cell_setting 'monoclinic'
loop_
_space_group_symop_operation_xyz
x,y,z
-x,1/2+y,-z
-x,-y,-z
x,1/2-y,z
loop_
_atom_site_type_symbol
_atom_site_label
_atom_site_fract_x
_atom_site_fract_y
_atom_site_fract_z
Si Si1 0.268073 0.923012 0.424381
Si Si2 0.417661 0.921733 0.753075
Si Si3 0.999451 0.074379 0.663923
Si Si4 0.619111 0.423272 0.068424
Si Si5 0.302501 0.922513 0.246813
Si Si6 0.925652 0.926800 0.844783
Si Si7 0.909607 0.076345 0.113146
O O1 0.243549 0.750000 0.456155
O O2 0.250269 0.956303 0.354392
O O3 0.439413 0.972729 0.350785
O O4 0.140883 0.021539 0.535505
O O5 0.471502 0.750000 0.716454
O O6 0.360786 0.956916 0.862884
O O7 0.275041 0.958587 0.784718
O O8 0.012387 0.250000 0.667326
O O9 0.837756 0.029887 0.721242
O O10 0.011201 0.992760 0.729436
O O11 0.636501 0.250000 0.040893
O O12 0.450801 0.478754 0.139870
O O13 0.750540 0.511484 0.951045
O O14 0.348352 0.750000 0.212051
O O15 0.920083 0.750000 0.842444
O O16 0.027199 0.981756 0.850863
O O17 0.941768 0.250000 0.086090
O O18 0.000000 0.000000 0.000000
#
# Coordination Sequence:
#
# PCOD8071691 Si02
#       7
#     4   4   4   4   4   4   4
#     4  10  20  36  59  85 111 140 182 231 276 326
#     4   9  18  34  56  84 113 141 179 225 273 326
#     4  11  23  39  57  78 110 151 188 227 275 329
#     4  10  19  33  56  84 113 145 182 227 277 328
#     4   9  20  37  58  83 110 143 185 230 277 327
#     4  11  23  37  55  81 115 150 184 227 276 328
#     4  10  20  35  58  85 113 144 181 226 275 327
#
# _framework density 18.666263000000001
#
# number of rings (size 3 to 8) (size 9 to 14) (size 15 to 20)
#    0.000    2.000    1.429    2.143    0.000    4.000 
#    0.000    0.714    0.000    0.000    0.000    0.000 
#    0.000    0.000    0.000    0.000    0.000    0.000 
#
# Total GULP energy -347329.731212 kJ/mol
# GULP energy per Si atom -12404.633258 kJ/mol
# Density = 1.862378 g / cm^3
# Si number density = 18.666263 Si / 1000 Ang^3
#
#
#
# Elastic Constant Matrix: (Units=GPa)
#
#
# Indices 1 2 3 4 5 6 
#
# 1 107.8469 41.2110 34.8014 0.0000 -4.0518 0.0000
# 2 41.2110 70.0374 34.7573 0.0000 -2.2948 0.0000
# 3 34.8014 34.7573 34.2401 0.0000 -4.1879 0.0000
# 4 0.0000 0.0000 0.0000 38.4270 0.0000 -0.3107
# 5 -4.0518 -2.2948 -4.1879 0.0000 20.5113 0.0000
# 6 0.0000 0.0000 0.0000 -0.3107 0.0000 26.2127
#
#
#
# Elastic Compliance Matrix: (Units=1/GPa)
#
#
# Indices 1 2 3 4 5 6 
#
# 1 0.013990 -0.002374 -0.011799 0.000000 0.000089 0.000000
# 2 -0.002374 0.029335 -0.027714 0.000000 -0.002845 0.000000
# 3 -0.011799 -0.027714 0.070425 0.000000 0.008948 0.000000
# 4 0.000000 0.000000 0.000000 0.026026 0.000000 0.000308
# 5 0.000089 -0.002845 0.008948 0.000000 0.050280 0.000000
# 6 0.000000 0.000000 0.000000 0.000308 0.000000 0.038153
#
#
# Mechanical properties :
#
#
# Convention : Reuss Voigt Hill
#
# Bulk Modulus (GPa) = 33.35879 48.18488 40.77183
# Shear Modulus (GPa) = 15.52921 23.78718 19.65819
#
# Velocity S-wave (km/s) = 2.88747 3.57366 3.24873
# Velocity P-wave (km/s) = 5.38763 6.54966 5.99686
#
# Compressibility (1/GPa) = 0.02997711
#
# Stress axis : x y z
#
# Youngs Moduli (GPa) = 71.47806 34.08920 14.19954
#
# Poissons Ratio (x) = 0.08091 0.16755
# Poissons Ratio (y) = 0.16965 0.39352
# Poissons Ratio (z) = 0.84340 0.94473
#
# Static dielectric constant tensor:
#      x y z
#    x 3.576840 0.000000 -0.126140 
#    y 0.000000 3.442630 0.000000 
#    z -0.126140 0.000000 3.327020 
# 
# 
# High freq. dielectric constant tensor:
#      x y z
#    x 1.722120 0.000000 -0.010670 
#    y 0.000000 1.731060 0.000000 
#    z -0.010670 0.000000 1.720530 
# 
# From -- ./inp_files/54595.got.cif
#   From: 2010.06.25/outbox.cif.g09.slc.cpg/sg11_28_cif.got.tgz:54595.got - 2010.06.27 23:14:04.
