data_PCOD8071277
_publ_section_title
;
Structure prediction by ZEFSAII (Michael W. Deem and Ramdas Pophale) SiO2 
 PCOD8071277
Probable space group: P 21/M
;
_chemical_formula_sum "Si O2"
_cell_formula_units_Z 28
_cell_length_a 22.152614
_cell_length_b 8.764945
_cell_length_c 17.127020
_cell_angle_alpha 90.000000
_cell_angle_beta 153.747161
_cell_angle_gamma 90.000000
_cell_volume 1470.975531
_symmetry_space_group_name_H-M "P 21/M"
_symmetry_group_IT_number 11
_symmetry_cell_setting 'monoclinic'
loop_
_space_group_symop_operation_xyz
x,y,z
-x,1/2+y,-z
-x,-y,-z
x,1/2-y,z
loop_
_atom_site_type_symbol
_atom_site_label
_atom_site_fract_x
_atom_site_fract_y
_atom_site_fract_z
Si Si1 0.906962 0.574090 0.668342
Si Si2 0.100521 0.425843 0.516950
Si Si3 0.655296 0.572331 0.487446
Si Si4 0.812222 0.571996 0.967025
Si Si5 0.618767 0.571203 0.885216
Si Si6 0.358391 0.570555 0.362677
Si Si7 0.200661 0.927175 0.780551
O O1 0.953905 0.750000 0.729053
O O2 0.858372 0.537599 0.524017
O O3 0.782288 0.535670 0.579652
O O4 0.031277 0.466593 0.835951
O O5 0.123874 0.250000 0.566206
O O6 0.195646 0.527149 0.683550
O O7 0.942402 0.470092 0.344950
O O8 0.643590 0.750000 0.493829
O O9 0.520492 0.519652 0.286648
O O10 0.678628 0.480074 0.593490
O O11 0.796673 0.750000 0.931601
O O12 0.721774 0.522416 0.936004
O O13 0.763447 0.480050 0.834898
O O14 0.588236 0.750000 0.848375
O O15 0.682106 0.524101 0.041485
O O16 0.500000 0.500000 0.500000
O O17 0.375048 0.750000 0.379871
O O18 0.235846 0.750000 0.829597
#
# Coordination Sequence:
#
# PCOD8071277 Si02
#       7
#     4   4   4   4   4   4   4
#     4  10  22  41  62  88 121 160 198 241 298 356
#     4   9  18  34  56  84 120 153 190 241 295 347
#     4  11  24  41  63  88 120 158 198 243 298 357
#     4  11  23  38  62  91 119 154 199 246 293 351
#     4  11  22  37  59  88 120 155 199 245 294 350
#     4  12  24  40  63  89 120 155 197 247 297 348
#     4  10  19  32  57  88 118 151 196 245 294 347
#
# _framework density 19.034986
#
# number of rings (size 3 to 8) (size 9 to 14) (size 15 to 20)
#    0.000    1.429    2.857    3.000    0.000    4.000 
#    0.000    0.714    0.000    0.000    0.000    0.000 
#    0.000    0.000    0.000    0.000    0.000    0.000 
#
# Total GULP energy -347378.369139 kJ/mol
# GULP energy per Si atom -12406.370326 kJ/mol
# Density = 1.899166 g / cm^3
# Si number density = 19.034986 Si / 1000 Ang^3
#
#
#
# Elastic Constant Matrix: (Units=GPa)
#
#
# Indices 1 2 3 4 5 6 
#
# 1 101.8616 42.3947 40.4480 0.0000 -6.4507 0.0000
# 2 42.3947 91.2222 41.2325 0.0000 0.7320 0.0000
# 3 40.4480 41.2325 99.3342 0.0000 -7.4113 0.0000
# 4 0.0000 0.0000 0.0000 38.2152 0.0000 -4.1193
# 5 -6.4507 0.7320 -7.4113 0.0000 31.8904 0.0000
# 6 0.0000 0.0000 0.0000 -4.1193 0.0000 23.6754
#
#
#
# Elastic Compliance Matrix: (Units=1/GPa)
#
#
# Indices 1 2 3 4 5 6 
#
# 1 0.013189 -0.004660 -0.003286 0.000000 0.002011 0.000000
# 2 -0.004660 0.015226 -0.004598 0.000000 -0.002361 0.000000
# 3 -0.003286 -0.004598 0.013506 0.000000 0.002580 0.000000
# 4 0.000000 0.000000 0.000000 0.026668 0.000000 0.004640
# 5 0.002011 -0.002361 0.002580 0.000000 0.032418 0.000000
# 6 0.000000 0.000000 0.000000 0.004640 0.000000 0.043045
#
#
# Mechanical properties :
#
#
# Convention : Reuss Voigt Hill
#
# Bulk Modulus (GPa) = 59.41289 60.06314 59.73801
# Shear Modulus (GPa) = 28.61204 29.97907 29.29555
#
# Velocity S-wave (km/s) = 3.88123 3.97286 3.92731
# Velocity P-wave (km/s) = 7.16697 7.25723 7.21224
#
# Compressibility (1/GPa) = 0.01683137
#
# Stress axis : x y z
#
# Youngs Moduli (GPa) = 75.82042 65.67908 74.03975
#
# Poissons Ratio (x) = 0.30609 0.24329
# Poissons Ratio (y) = 0.35335 0.34047
# Poissons Ratio (z) = 0.24914 0.30202
#
# Static dielectric constant tensor:
#      x y z
#    x 3.480600 0.000000 -0.158490 
#    y 0.000000 3.531910 0.000000 
#    z -0.158490 0.000000 3.510560 
# 
# 
# High freq. dielectric constant tensor:
#      x y z
#    x 1.730800 0.000000 -0.016010 
#    y 0.000000 1.749160 0.000000 
#    z -0.016010 0.000000 1.745290 
# 
# From -- ./inp_files/54514.got.cif
#   From: 2010.06.25/outbox.cif.g09.slc.cpg/sg11_28_cif.got.tgz:54514.got - 2010.06.27 23:14:04.
