data_PCOD8071569
_publ_section_title
;
Structure prediction by ZEFSAII (Michael W. Deem and Ramdas Pophale) SiO2 
 PCOD8071569
Probable space group: P 21/M
;
_chemical_formula_sum "Si O2"
_cell_formula_units_Z 28
_cell_length_a 13.801603
_cell_length_b 13.752392
_cell_length_c 13.809244
_cell_angle_alpha 90.000000
_cell_angle_beta 28.405698
_cell_angle_gamma 90.000000
_cell_volume 1246.870925
_symmetry_space_group_name_H-M "P 21/M"
_symmetry_group_IT_number 11
_symmetry_cell_setting 'monoclinic'
loop_
_space_group_symop_operation_xyz
x,y,z
-x,1/2+y,-z
-x,-y,-z
x,1/2-y,z
loop_
_atom_site_type_symbol
_atom_site_label
_atom_site_fract_x
_atom_site_fract_y
_atom_site_fract_z
Si Si1 0.259810 0.544224 0.864346
Si Si2 0.694025 0.139380 0.983647
Si Si3 0.750194 0.642213 0.236247
Si Si4 0.734007 0.143594 0.332699
Si Si5 0.121095 0.859293 0.386843
Si Si6 0.741284 0.549335 0.649317
Si Si7 0.743786 0.958912 0.432745
O O1 0.188763 0.579482 0.033624
O O2 0.190730 0.432859 0.902175
O O3 0.172084 0.612976 0.855090
O O4 0.502105 0.553412 0.649746
O O5 0.654115 0.250000 0.054492
O O6 0.483632 0.088739 0.139799
O O7 0.827946 0.137914 0.770851
O O8 0.830052 0.750000 0.139552
O O9 0.508518 0.641248 0.462093
O O10 0.839753 0.607573 0.262218
O O11 0.815487 0.250000 0.288609
O O12 0.805118 0.069659 0.353320
O O13 0.145681 0.750000 0.407306
O O14 0.885597 0.894409 0.598923
O O15 0.259441 0.933265 0.327355
O O16 0.827807 0.567928 0.464584
#
# Coordination Sequence:
#
# PCOD8071569 Si02
#       7
#     4   4   4   4   4   4   4
#     4   8  14  24  40  67  99 128 161 200 244 288
#     4  10  19  33  55  79 102 133 172 209 250 303
#     4   8  13  22  38  64  98 130 163 201 238 288
#     4   8  12  20  36  62  95 126 159 199 241 289
#     4  10  22  37  54  77 102 131 170 214 259 306
#     4  10  20  36  55  75 103 133 167 213 260 301
#     4   8  15  24  40  67  92 124 164 199 242 296
#
# _framework density 22.456213999999999
#
# number of rings (size 3 to 8) (size 9 to 14) (size 15 to 20)
#    0.000    3.143    0.000    3.000    0.000    4.571 
#    0.000    2.143    0.000    7.714    0.000    2.000 
#    0.000    0.000    0.000    0.000    0.000    0.000 
#
# Total GULP energy -347064.373508 kJ/mol
# GULP energy per Si atom -12395.156197 kJ/mol
# Density = 2.240510 g / cm^3
# Si number density = 22.456214 Si / 1000 Ang^3
#
#
#
# Elastic Constant Matrix: (Units=GPa)
#
#
# Indices 1 2 3 4 5 6 
#
# 1 63.4060 34.0723 -0.7587 0.0000 -0.5947 0.0000
# 2 34.0723 168.4618 -1.3727 0.0000 -3.4163 0.0000
# 3 -0.7587 -1.3727 20.0029 0.0000 5.3951 0.0000
# 4 0.0000 0.0000 0.0000 10.4617 0.0000 10.7353
# 5 -0.5947 -3.4163 5.3951 0.0000 23.0534 0.0000
# 6 0.0000 0.0000 0.0000 10.7353 0.0000 26.0843
#
#
#
# Elastic Compliance Matrix: (Units=1/GPa)
#
#
# Indices 1 2 3 4 5 6 
#
# 1 0.017699 -0.003580 0.000476 0.000000 -0.000185 0.000000
# 2 -0.003580 0.006679 0.000086 0.000000 0.000877 0.000000
# 3 0.000476 0.000086 0.053379 0.000000 -0.012467 0.000000
# 4 0.000000 0.000000 0.000000 0.165468 0.000000 -0.068100
# 5 -0.000185 0.000877 -0.012467 0.000000 0.046421 0.000000
# 6 0.000000 0.000000 0.000000 -0.068100 0.000000 0.066365
#
#
# Mechanical properties :
#
#
# Convention : Reuss Voigt Hill
#
# Bulk Modulus (GPa) = 13.94298 35.08361 24.51329
# Shear Modulus (GPa) = 12.95495 26.58186 19.76841
#
# Velocity S-wave (km/s) = 2.40448 3.44426 2.97022
# Velocity P-wave (km/s) = 3.73244 5.61019 4.76473
#
# Compressibility (1/GPa) = 0.07172069
#
# Stress axis : x y z
#
# Youngs Moduli (GPa) = 56.50075 149.73329 18.73385
#
# Poissons Ratio (x) = 0.53598 -0.00891
# Poissons Ratio (y) = 0.20225 -0.00161
# Poissons Ratio (z) = -0.02687 -0.01286
#
# Static dielectric constant tensor:
#      x y z
#    x 3.966980 0.000000 0.083630 
#    y 0.000000 4.341490 0.000000 
#    z 0.083630 0.000000 3.845030 
# 
# 
# High freq. dielectric constant tensor:
#      x y z
#    x 1.864810 0.000000 -0.011840 
#    y 0.000000 1.884380 0.000000 
#    z -0.011840 0.000000 1.889970 
# 
# From -- ./inp_files/52437.got.cif
#   From: 2010.06.25/outbox.cif.g09.slc.cpg/sg11_27_cif.got.tgz:52437.got - 2010.06.27 23:14:04.
