data_PCOD8071863
_publ_section_title
;
Structure prediction by ZEFSAII (Michael W. Deem and Ramdas Pophale) SiO2 
 PCOD8071863
Probable space group: P 21/M
;
_chemical_formula_sum "Si O2"
_cell_formula_units_Z 32
_cell_length_a 24.995074
_cell_length_b 8.986829
_cell_length_c 20.357848
_cell_angle_alpha 90.000000
_cell_angle_beta 157.503052
_cell_angle_gamma 90.000000
_cell_volume 1749.752324
_symmetry_space_group_name_H-M "P 21/M"
_symmetry_group_IT_number 11
_symmetry_cell_setting 'monoclinic'
loop_
_space_group_symop_operation_xyz
x,y,z
-x,1/2+y,-z
-x,-y,-z
x,1/2-y,z
loop_
_atom_site_type_symbol
_atom_site_label
_atom_site_fract_x
_atom_site_fract_y
_atom_site_fract_z
Si Si1 0.408214 0.575486 0.084984
Si Si2 0.858637 0.074690 0.005552
Si Si3 0.157892 0.922490 0.493120
Si Si4 0.584839 0.574756 0.654044
Si Si5 0.881293 0.422841 0.180548
Si Si6 0.864992 0.420128 0.683794
Si Si7 0.454567 0.926976 0.881172
Si Si8 0.561534 0.421718 0.376207
O O1 0.431083 0.750000 0.098865
O O2 0.444020 0.484576 0.060718
O O3 0.503549 0.526931 0.253782
O O4 0.247032 0.538011 0.917818
O O5 0.838901 0.250000 0.974898
O O6 0.740374 0.991549 0.829917
O O7 0.846907 0.020521 0.067889
O O8 0.009971 0.025658 0.149180
O O9 0.136582 0.750000 0.481112
O O10 0.176929 0.960995 0.438218
O O11 0.296112 0.979225 0.686997
O O12 0.020697 0.001078 0.367097
O O13 0.500000 0.500000 0.500000
O O14 0.591307 0.750000 0.650011
O O15 0.509279 0.532729 0.636177
O O16 0.912520 0.250000 0.212766
O O17 0.916354 0.250000 0.746754
O O18 0.728030 0.447753 0.572733
O O19 0.466506 0.750000 0.898541
O O20 0.500000 0.000000 0.000000
O O21 0.531250 0.250000 0.322834
#
# Coordination Sequence:
#
# PCOD8071863 Si02
#       8
#     4   4   4   4   4   4   4   4
#     4  11  21  35  57  86 115 146 184 232 279 328
#     4  10  19  34  54  82 115 146 183 228 277 332
#     4   9  18  33  55  80 110 144 182 227 276 328
#     4  11  23  38  58  82 113 153 189 230 283 338
#     4   9  19  33  53  83 115 142 180 231 277 325
#     4   9  17  33  55  82 111 140 180 231 279 327
#     4  11  23  40  58  83 115 151 190 231 280 337
#     4  10  20  36  58  84 112 145 188 234 279 330
#
# _framework density 18.288302999999999
#
# number of rings (size 3 to 8) (size 9 to 14) (size 15 to 20)
#    0.000    2.000    2.500    1.500    0.000    3.500 
#    0.000    1.250    0.000    0.000    0.000    0.000 
#    0.000    0.000    0.000    0.000    0.000    0.000 
#
# Total GULP energy -396887.555087 kJ/mol
# GULP energy per Si atom -12402.736096 kJ/mol
# Density = 1.824668 g / cm^3
# Si number density = 18.288303 Si / 1000 Ang^3
#
#
#
# Elastic Constant Matrix: (Units=GPa)
#
#
# Indices 1 2 3 4 5 6 
#
# 1 56.1606 23.8966 29.2449 0.0000 8.0823 0.0000
# 2 23.8966 59.8597 36.5372 0.0000 6.5026 0.0000
# 3 29.2449 36.5372 113.0794 0.0000 12.9564 0.0000
# 4 0.0000 0.0000 0.0000 36.9828 0.0000 0.6229
# 5 8.0823 6.5026 12.9564 0.0000 26.8294 0.0000
# 6 0.0000 0.0000 0.0000 0.6229 0.0000 27.3834
#
#
#
# Elastic Compliance Matrix: (Units=1/GPa)
#
#
# Indices 1 2 3 4 5 6 
#
# 1 0.022931 -0.006717 -0.003340 0.000000 -0.003667 0.000000
# 2 -0.006717 0.022870 -0.005556 0.000000 -0.000836 0.000000
# 3 -0.003340 -0.005556 0.011891 0.000000 -0.003389 0.000000
# 4 0.000000 0.000000 0.000000 0.027050 0.000000 -0.000615
# 5 -0.003667 -0.000836 -0.003389 0.000000 0.040217 0.000000
# 6 0.000000 0.000000 0.000000 -0.000615 0.000000 0.036532
#
#
# Mechanical properties :
#
#
# Convention : Reuss Voigt Hill
#
# Bulk Modulus (GPa) = 37.78668 45.38413 41.58540
# Shear Modulus (GPa) = 24.80898 27.53385 26.17142
#
# Velocity S-wave (km/s) = 3.68713 3.88434 3.78702
# Velocity P-wave (km/s) = 6.23162 6.70726 6.47381
#
# Compressibility (1/GPa) = 0.02646436
#
# Stress axis : x y z
#
# Youngs Moduli (GPa) = 43.60845 43.72598 84.09859
#
# Poissons Ratio (x) = 0.29373 0.28088
# Poissons Ratio (y) = 0.29294 0.46728
# Poissons Ratio (z) = 0.14565 0.24296
#
# Static dielectric constant tensor:
#      x y z
#    x 2.527280 0.000000 0.150390 
#    y 0.000000 3.381760 0.000000 
#    z 0.150390 0.000000 3.448570 
# 
# 
# High freq. dielectric constant tensor:
#      x y z
#    x 1.690340 0.000000 0.020430 
#    y 0.000000 1.713710 0.000000 
#    z 0.020430 0.000000 1.712480 
# 
# From -- ./inp_files/67248.got.cif
#   From: 2010.06.25/outbox.cif.g09.slc.cpg/sg11_34_cif.got.tgz:67248.got - 2010.06.27 23:14:04.
