data_PCOD8071238
_publ_section_title
;
Structure prediction by ZEFSAII (Michael W. Deem and Ramdas Pophale) SiO2 
 PCOD8071238
Probable space group: P 21/M
;
_chemical_formula_sum "Si O2"
_cell_formula_units_Z 32
_cell_length_a 16.823623
_cell_length_b 19.593786
_cell_length_c 9.058759
_cell_angle_alpha 90.000000
_cell_angle_beta 143.870058
_cell_angle_gamma 90.000000
_cell_volume 1760.668974
_symmetry_space_group_name_H-M "P 21/M"
_symmetry_group_IT_number 11
_symmetry_cell_setting 'monoclinic'
loop_
_space_group_symop_operation_xyz
x,y,z
-x,1/2+y,-z
-x,-y,-z
x,1/2-y,z
loop_
_atom_site_type_symbol
_atom_site_label
_atom_site_fract_x
_atom_site_fract_y
_atom_site_fract_z
Si Si1 0.173163 0.438104 0.681895
Si Si2 0.088340 0.910376 0.212893
Si Si3 0.552527 0.926431 0.404470
Si Si4 0.651430 0.170607 0.057407
Si Si5 0.447473 0.426431 0.246889
Si Si6 0.826837 0.561896 0.662406
Si Si7 0.348570 0.670607 0.603117
Si Si8 0.911660 0.410376 0.447872
O O1 0.189222 0.424238 0.533833
O O2 0.157980 0.517866 0.697643
O O3 0.042630 0.397259 0.544327
O O4 0.304385 0.409483 0.959604
O O5 0.194990 0.851006 0.338782
O O6 0.041536 0.910703 0.312304
O O7 0.157980 0.982134 0.276297
O O8 0.957371 0.897259 0.916439
O O9 0.569232 0.924607 0.603849
O O10 0.695615 0.909483 0.546449
O O11 0.500000 1.000000 0.270765
O O12 0.448642 0.868739 0.199832
O O13 0.636986 0.250000 0.002012
O O14 0.616067 0.152923 0.174100
O O15 0.805010 0.148994 0.253811
O O16 0.551358 0.368739 0.353906
O O17 0.363014 0.750000 0.591054
#
# Coordination Sequence:
#
# PCOD8071238 Si02
#       8
#     4   4   4   4   4   4   4   4
#     4  10  19  32  55  82 109 142 183 230 277 324
#     4   9  18  33  53  80 111 141 178 227 279 331
#     4  11  22  35  55  83 114 148 188 233 279 329
#     4  10  21  38  59  82 111 148 186 227 282 342
#     4  11  22  35  55  83 114 148 188 233 279 329
#     4  10  19  32  55  82 109 142 183 230 277 324
#     4  10  21  38  59  82 111 148 186 227 282 342
#     4   9  18  33  53  80 111 141 178 227 279 331
#
# _framework density 18.174910000000001
#
# number of rings (size 3 to 8) (size 9 to 14) (size 15 to 20)
#    0.000    2.000    2.500    1.500    0.000    3.500 
#    0.000    1.250    0.000    4.500    0.000    0.000 
#    0.000    0.000    0.000    0.000    0.000    0.000 
#
# Total GULP energy -396954.358894 kJ/mol
# GULP energy per Si atom -12404.823715 kJ/mol
# Density = 1.813354 g / cm^3
# Si number density = 18.174910 Si / 1000 Ang^3
#
#
#
# Elastic Constant Matrix: (Units=GPa)
#
#
# Indices 1 2 3 4 5 6 
#
# 1 110.6226 38.6572 46.6638 0.0000 16.0859 0.0000
# 2 38.6572 75.5186 42.3592 0.0000 4.6352 0.0000
# 3 46.6638 42.3592 126.6650 0.0000 4.0006 0.0000
# 4 0.0000 0.0000 0.0000 24.1771 0.0000 3.0588
# 5 16.0859 4.6352 4.0006 0.0000 23.2710 0.0000
# 6 0.0000 0.0000 0.0000 3.0588 0.0000 21.7342
#
#
#
# Elastic Compliance Matrix: (Units=1/GPa)
#
#
# Indices 1 2 3 4 5 6 
#
# 1 0.012990 -0.004474 -0.003050 0.000000 -0.007563 0.000000
# 2 -0.004474 0.017966 -0.004368 0.000000 0.000265 0.000000
# 3 -0.003050 -0.004368 0.010442 0.000000 0.001183 0.000000
# 4 0.000000 0.000000 0.000000 0.042111 0.000000 -0.005927
# 5 -0.007563 0.000265 0.001183 0.000000 0.047944 0.000000
# 6 0.000000 0.000000 0.000000 -0.005927 0.000000 0.046845
#
#
# Mechanical properties :
#
#
# Convention : Reuss Voigt Hill
#
# Bulk Modulus (GPa) = 56.77840 63.12961 59.95401
# Shear Modulus (GPa) = 24.04382 26.17821 25.11102
#
# Velocity S-wave (km/s) = 3.64113 3.79931 3.72106
# Velocity P-wave (km/s) = 6.99892 7.35229 7.17778
#
# Compressibility (1/GPa) = 0.01761233
#
# Stress axis : x y z
#
# Youngs Moduli (GPa) = 76.98360 55.66081 95.76672
#
# Poissons Ratio (x) = 0.24903 0.29212
# Poissons Ratio (y) = 0.34443 0.41833
# Poissons Ratio (z) = 0.23483 0.24314
#
# Static dielectric constant tensor:
#      x y z
#    x 3.361540 0.000000 0.019240 
#    y 0.000000 3.121650 0.000000 
#    z 0.019240 0.000000 3.376910 
# 
# 
# High freq. dielectric constant tensor:
#      x y z
#    x 1.710610 0.000000 0.003150 
#    y 0.000000 1.674500 0.000000 
#    z 0.003150 0.000000 1.713130 
# 
# From -- ./inp_files/23103.got.cif
#   From: 2010.06.25/outbox.cif.g09.slc.cpg/sg11_12_cif.got.tgz:23103.got - 2010.06.27 23:14:04.
