data_PCOD8071727
_publ_section_title
;
Structure prediction by ZEFSAII (Michael W. Deem and Ramdas Pophale) SiO2 
 PCOD8071727
Probable space group: P 21/M
;
_chemical_formula_sum "Si O2"
_cell_formula_units_Z 32
_cell_length_a 20.203995
_cell_length_b 8.851886
_cell_length_c 28.270068
_cell_angle_alpha 90.000000
_cell_angle_beta 20.915880
_cell_angle_gamma 90.000000
_cell_volume 1804.946661
_symmetry_space_group_name_H-M "P 21/M"
_symmetry_group_IT_number 11
_symmetry_cell_setting 'monoclinic'
loop_
_space_group_symop_operation_xyz
x,y,z
-x,1/2+y,-z
-x,-y,-z
x,1/2-y,z
loop_
_atom_site_type_symbol
_atom_site_label
_atom_site_fract_x
_atom_site_fract_y
_atom_site_fract_z
Si Si1 0.175626 0.424504 0.406085
Si Si2 0.681210 0.071112 0.593888
Si Si3 0.228116 0.429946 0.563494
Si Si4 0.567806 0.422033 0.117170
Si Si5 0.469220 0.071223 0.571743
Si Si6 0.068933 0.924391 0.166861
Si Si7 0.291924 0.076255 0.885795
Si Si8 0.949943 0.925647 0.144763
O O1 0.131992 0.250000 0.444327
O O2 0.222763 0.500158 0.424384
O O3 0.349039 0.444999 0.253404
O O4 0.000000 0.500000 0.500000
O O5 0.710052 0.250000 0.576785
O O6 0.460474 0.030523 0.737976
O O7 0.781265 0.002639 0.481734
O O8 0.239965 0.250000 0.551016
O O9 0.403331 0.490376 0.475249
O O10 0.041334 0.490783 0.714624
O O11 0.600406 0.250000 0.114189
O O12 0.629990 0.541234 0.114543
O O13 0.706028 0.448843 0.979817
O O14 0.508578 0.250000 0.543273
O O15 0.260273 0.037295 0.728869
O O16 0.500000 0.000000 0.500000
O O17 0.014407 0.750000 0.202610
O O18 0.993206 0.995049 0.168079
O O19 0.245345 0.250000 0.911722
O O20 0.095529 0.991805 0.008861
O O21 0.988012 0.750000 0.120505
#
# Coordination Sequence:
#
# PCOD8071727 Si02
#       8
#     4   4   4   4   4   4   4   4
#     4  10  19  33  57  85 109 136 166 203 251 303
#     4  10  21  37  53  75 107 138 171 211 255 308
#     4  11  21  34  52  75 103 137 176 215 261 312
#     4   8  15  29  49  73 102 133 164 199 249 305
#     4  11  21  34  50  72 103 137 175 220 265 309
#     4   8  14  28  48  71  98 129 167 210 251 297
#     4   9  17  29  48  72  97 126 166 216 259 299
#     4   9  17  31  49  69  97 131 169 215 264 308
#
# _framework density 17.729054999999999
#
# number of rings (size 3 to 8) (size 9 to 14) (size 15 to 20)
#    0.000    2.500    1.250    2.625    0.000    3.000 
#    0.000    1.250    0.000    0.750    0.000    0.000 
#    0.000    0.000    0.000    0.000    0.000    0.000 
#
# Total GULP energy -396440.502754 kJ/mol
# GULP energy per Si atom -12388.765711 kJ/mol
# Density = 1.768870 g / cm^3
# Si number density = 17.729055 Si / 1000 Ang^3
#
#
#
# Elastic Constant Matrix: (Units=GPa)
#
#
# Indices 1 2 3 4 5 6 
#
# 1 73.1807 34.3059 60.2865 0.0000 -2.6789 0.0000
# 2 34.3059 65.9975 47.2919 0.0000 0.2795 0.0000
# 3 60.2865 47.2919 155.4975 0.0000 -4.2969 0.0000
# 4 0.0000 0.0000 0.0000 26.0863 0.0000 -1.4597
# 5 -2.6789 0.2795 -4.2969 0.0000 24.3341 0.0000
# 6 0.0000 0.0000 0.0000 -1.4597 0.0000 26.6313
#
#
#
# Elastic Compliance Matrix: (Units=1/GPa)
#
#
# Indices 1 2 3 4 5 6 
#
# 1 0.022335 -0.006954 -0.006506 0.000000 0.001390 0.000000
# 2 -0.006954 0.021578 -0.003914 0.000000 -0.001704 0.000000
# 3 -0.006506 -0.003914 0.010175 0.000000 0.001125 0.000000
# 4 0.000000 0.000000 0.000000 0.038452 0.000000 0.002108
# 5 0.001390 -0.001704 0.001125 0.000000 0.041466 0.000000
# 6 0.000000 0.000000 0.000000 0.002108 0.000000 0.037665
#
#
# Mechanical properties :
#
#
# Convention : Reuss Voigt Hill
#
# Bulk Modulus (GPa) = 51.70342 64.27158 57.98750
# Shear Modulus (GPa) = 23.48891 25.59645 24.54268
#
# Velocity S-wave (km/s) = 3.64384 3.80380 3.72468
# Velocity P-wave (km/s) = 6.85054 7.45806 7.16075
#
# Compressibility (1/GPa) = 0.01934108
#
# Stress axis : x y z
#
# Youngs Moduli (GPa) = 44.77227 46.34250 98.28189
#
# Poissons Ratio (x) = 0.32226 0.63943
# Poissons Ratio (y) = 0.31134 0.38466
# Poissons Ratio (z) = 0.29129 0.18138
#
# Static dielectric constant tensor:
#      x y z
#    x 2.880320 0.000000 -0.013250 
#    y 0.000000 3.277770 0.000000 
#    z -0.013250 0.000000 3.873760 
# 
# 
# High freq. dielectric constant tensor:
#      x y z
#    x 1.630220 0.000000 -0.004930 
#    y 0.000000 1.684880 0.000000 
#    z -0.004930 0.000000 1.709450 
# 
# From -- ./inp_files/72021.got.cif
#   From: 2010.06.25/outbox.cif.g09.slc.cpg/sg11_37_cif.got.tgz:72021.got - 2010.06.27 23:14:04.
