data_PCOD8071140
_publ_section_title
;
Structure prediction by ZEFSAII (Michael W. Deem and Ramdas Pophale) SiO2 
 PCOD8071140
Probable space group: P 21/M
;
_chemical_formula_sum "Si O2"
_cell_formula_units_Z 32
_cell_length_a 14.685436
_cell_length_b 13.891762
_cell_length_c 8.180832
_cell_angle_alpha 90.000000
_cell_angle_beta 81.636200
_cell_angle_gamma 90.000000
_cell_volume 1651.193410
_symmetry_space_group_name_H-M "P 21/M"
_symmetry_group_IT_number 11
_symmetry_cell_setting 'monoclinic'
loop_
_space_group_symop_operation_xyz
x,y,z
-x,1/2+y,-z
-x,-y,-z
x,1/2-y,z
loop_
_atom_site_type_symbol
_atom_site_label
_atom_site_fract_x
_atom_site_fract_y
_atom_site_fract_z
Si Si1 0.506798 0.542078 0.732113
Si Si2 0.353182 0.949793 0.523559
Si Si3 0.995002 0.358853 0.180461
Si Si4 0.970901 0.642620 0.199572
Si Si5 0.287659 0.642999 0.227900
Si Si6 0.156335 0.506238 0.654535
Si Si7 0.486350 0.640316 0.066964
Si Si8 0.880700 0.014678 0.705757
O O1 0.600514 0.533582 0.601131
O O2 0.427567 0.586041 0.636710
O O3 0.476591 0.435416 0.807041
O O4 0.525576 0.613668 0.877976
O O5 0.319944 0.865739 0.409360
O O6 0.265393 0.984666 0.650532
O O7 0.011162 0.250000 0.237329
O O8 0.900013 0.397768 0.282004
O O9 0.084979 0.422089 0.201870
O O10 0.982385 0.362499 0.989423
O O11 0.948300 0.750000 0.261021
O O12 0.876054 0.582640 0.224901
O O13 0.040155 0.595725 0.312269
O O14 0.245064 0.750000 0.218012
O O15 0.375432 0.630328 0.087229
O O16 0.213011 0.561954 0.198068
O O17 0.135439 0.480701 0.472988
O O18 0.515622 0.750000 0.104696
#
# Coordination Sequence:
#
# PCOD8071140 Si02
#       8
#     4   4   4   4   4   4   4   4
#     4   9  18  35  55  75 106 136 166 214 262 308
#     4   9  19  34  52  75 103 136 168 209 264 307
#     4  10  21  35  52  75 104 138 175 215 256 304
#     4  10  20  34  50  70 100 136 172 211 258 306
#     4   9  18  32  52  81 110 135 171 215 257 302
#     4  10  20  33  52  75  99 131 173 215 255 305
#     4   9  18  33  55  80 104 136 174 211 256 309
#     4  10  19  32  53  77 105 138 169 210 259 304
#
# _framework density 19.379923000000002
#
# number of rings (size 3 to 8) (size 9 to 14) (size 15 to 20)
#    0.000    2.500    0.000    3.375    0.000    6.500 
#    0.000    4.375    0.000   15.000    0.000    0.000 
#    0.000    0.000    0.000    0.000    0.000    0.000 
#
# Total GULP energy -396640.530814 kJ/mol
# GULP energy per Si atom -12395.016588 kJ/mol
# Density = 1.933581 g / cm^3
# Si number density = 19.379923 Si / 1000 Ang^3
#
#
#
# Elastic Constant Matrix: (Units=GPa)
#
#
# Indices 1 2 3 4 5 6 
#
# 1 82.8191 28.5906 14.8851 0.0000 -8.0187 0.0000
# 2 28.5906 120.4390 8.4045 0.0000 -3.4151 0.0000
# 3 14.8851 8.4045 43.1833 0.0000 -10.0026 0.0000
# 4 0.0000 0.0000 0.0000 23.2479 0.0000 2.6702
# 5 -8.0187 -3.4151 -10.0026 0.0000 24.0597 0.0000
# 6 0.0000 0.0000 0.0000 2.6702 0.0000 13.1424
#
#
#
# Elastic Compliance Matrix: (Units=1/GPa)
#
#
# Indices 1 2 3 4 5 6 
#
# 1 0.014025 -0.002999 -0.003615 0.000000 0.002746 0.000000
# 2 -0.002999 0.009066 -0.000735 0.000000 -0.000018 0.000000
# 3 -0.003615 -0.000735 0.026826 0.000000 0.009844 0.000000
# 4 0.000000 0.000000 0.000000 0.044042 0.000000 -0.008948
# 5 0.002746 -0.000018 0.009844 0.000000 0.046568 0.000000
# 6 0.000000 0.000000 0.000000 -0.008948 0.000000 0.077908
#
#
# Mechanical properties :
#
#
# Convention : Reuss Voigt Hill
#
# Bulk Modulus (GPa) = 28.39322 38.91131 33.65227
# Shear Modulus (GPa) = 20.41871 25.06074 22.73972
#
# Velocity S-wave (km/s) = 3.24944 3.59991 3.42916
# Velocity P-wave (km/s) = 5.36294 6.11563 5.75161
#
# Compressibility (1/GPa) = 0.03521967
#
# Stress axis : x y z
#
# Youngs Moduli (GPa) = 71.29881 110.30565 37.27699
#
# Poissons Ratio (x) = 0.33085 0.13475
# Poissons Ratio (y) = 0.21385 0.02739
# Poissons Ratio (z) = 0.25773 0.08105
#
# Static dielectric constant tensor:
#      x y z
#    x 3.505640 0.000000 -0.173620 
#    y 0.000000 3.521310 0.000000 
#    z -0.173620 0.000000 3.551160 
# 
# 
# High freq. dielectric constant tensor:
#      x y z
#    x 1.737270 0.000000 -0.008150 
#    y 0.000000 1.739690 0.000000 
#    z -0.008150 0.000000 1.757750 
# 
# From -- ./inp_files/21855.got.cif
#   From: 2010.06.25/outbox.cif.g09.slc.cpg/sg11_11_cif.got.tgz:21855.got - 2010.06.27 23:14:04.
