data_PCOD8071508
_publ_section_title
;
Structure prediction by ZEFSAII (Michael W. Deem and Ramdas Pophale) SiO2 
 PCOD8071508
Probable space group: P 21/M
;
_chemical_formula_sum "Si O2"
_cell_formula_units_Z 28
_cell_length_a 10.062501
_cell_length_b 8.907944
_cell_length_c 30.527870
_cell_angle_alpha 90.000000
_cell_angle_beta 145.351263
_cell_angle_gamma 90.000000
_cell_volume 1555.764232
_symmetry_space_group_name_H-M "P 21/M"
_symmetry_group_IT_number 11
_symmetry_cell_setting 'monoclinic'
loop_
_space_group_symop_operation_xyz
x,y,z
-x,1/2+y,-z
-x,-y,-z
x,1/2-y,z
loop_
_atom_site_type_symbol
_atom_site_label
_atom_site_fract_x
_atom_site_fract_y
_atom_site_fract_z
Si Si1 0.734703 0.423860 0.548392
Si Si2 0.933911 0.072657 0.832942
Si Si3 0.007874 0.575843 0.548698
Si Si4 0.775941 0.073019 0.167022
Si Si5 0.454226 0.924575 0.727915
Si Si6 0.361115 0.422173 0.999801
Si Si7 0.819741 0.575872 0.271727
O O1 0.500000 0.500000 0.500000
O O2 0.690240 0.250000 0.527280
O O3 0.806406 0.500677 0.522666
O O4 0.931129 0.449876 0.638196
O O5 0.894504 0.250000 0.816018
O O6 0.086631 0.036467 0.918941
O O7 0.689330 0.991551 0.772112
O O8 0.061775 0.008541 0.824656
O O9 0.949939 0.750000 0.528369
O O10 0.000000 0.500000 0.500000
O O11 0.259414 0.547483 0.638363
O O12 0.830162 0.250000 0.180510
O O13 0.833679 0.009333 0.229887
O O14 0.496401 0.040360 0.081974
O O15 0.486033 0.750000 0.747256
O O16 0.386035 0.007756 0.754303
O O17 0.390085 0.250000 0.997003
O O18 0.500000 0.500000 0.000000
O O19 0.764478 0.750000 0.249052
#
# Coordination Sequence:
#
# PCOD8071508 Si02
#       7
#     4   4   4   4   4   4   4
#     4  10  21  37  57  79 105 136 172 213 258 307
#     4  10  19  33  54  79 106 137 174 216 258 305
#     4  10  21  37  57  79 105 136 172 213 258 307
#     4  10  19  33  54  79 106 137 174 216 258 305
#     4  10  21  37  55  77 105 138 173 212 259 309
#     4   8  16  30  49  74 103 134 170 212 258 302
#     4  10  21  37  55  77 105 138 173 212 259 309
#
# _framework density 17.997585000000001
#
# number of rings (size 3 to 8) (size 9 to 14) (size 15 to 20)
#    0.000    2.286    0.000    2.571    0.000    5.714 
#    0.000    0.714    0.000    0.000    0.000    0.000 
#    0.000    0.000    0.000    0.000    0.000    0.000 
#
# Total GULP energy -347045.904348 kJ/mol
# GULP energy per Si atom -12394.496584 kJ/mol
# Density = 1.795662 g / cm^3
# Si number density = 17.997585 Si / 1000 Ang^3
#
#
#
# Elastic Constant Matrix: (Units=GPa)
#
#
# Indices 1 2 3 4 5 6 
#
# 1 100.9081 38.3194 61.8994 0.0000 9.0042 0.0000
# 2 38.3194 79.0447 48.6300 0.0000 9.8264 0.0000
# 3 61.8994 48.6300 75.0492 0.0000 3.5999 0.0000
# 4 0.0000 0.0000 0.0000 26.0907 0.0000 -0.4052
# 5 9.0042 9.8264 3.5999 0.0000 23.3644 0.0000
# 6 0.0000 0.0000 0.0000 -0.4052 0.0000 37.6915
#
#
#
# Elastic Compliance Matrix: (Units=1/GPa)
#
#
# Indices 1 2 3 4 5 6 
#
# 1 0.020845 0.001728 -0.018025 0.000000 -0.005983 0.000000
# 2 0.001728 0.022310 -0.015514 0.000000 -0.007659 0.000000
# 3 -0.018025 -0.015514 0.037878 0.000000 0.007635 0.000000
# 4 0.000000 0.000000 0.000000 0.038334 0.000000 0.000412
# 5 -0.005983 -0.007659 0.007635 0.000000 0.047150 0.000000
# 6 0.000000 0.000000 0.000000 0.000412 0.000000 0.026536
#
#
# Mechanical properties :
#
#
# Convention : Reuss Voigt Hill
#
# Bulk Modulus (GPa) = 57.43784 61.41105 59.42445
# Shear Modulus (GPa) = 19.04915 24.50622 21.77768
#
# Velocity S-wave (km/s) = 3.25688 3.69404 3.48233
# Velocity P-wave (km/s) = 6.79165 7.23813 7.01844
#
# Compressibility (1/GPa) = 0.01741012
#
# Stress axis : x y z
#
# Youngs Moduli (GPa) = 47.97404 44.82265 26.40054
#
# Poissons Ratio (x) = -0.07746 0.47587
# Poissons Ratio (y) = -0.08290 0.40959
# Poissons Ratio (z) = 0.86473 0.69539
#
# Static dielectric constant tensor:
#      x y z
#    x 3.185920 0.000000 0.034010 
#    y 0.000000 3.734320 0.000000 
#    z 0.034010 0.000000 3.810480 
# 
# 
# High freq. dielectric constant tensor:
#      x y z
#    x 1.680620 0.000000 0.002000 
#    y 0.000000 1.717470 0.000000 
#    z 0.002000 0.000000 1.706410 
# 
# From -- ./inp_files/28313.got.cif
#   From: 2010.06.25/outbox.cif.g09.slc.cpg/sg11_15_cif.got.tgz:28313.got - 2010.06.27 23:14:04.
