data_PCOD8071832
_publ_section_title
;
Structure prediction by ZEFSAII (Michael W. Deem and Ramdas Pophale) SiO2 
 PCOD8071832
Probable space group: P 21/M
;
_chemical_formula_sum "Si O2"
_cell_formula_units_Z 32
_cell_length_a 5.021179
_cell_length_b 29.509684
_cell_length_c 10.818617
_cell_angle_alpha 90.000000
_cell_angle_beta 89.798877
_cell_angle_gamma 90.000000
_cell_volume 1603.021449
_symmetry_space_group_name_H-M "P 21/M"
_symmetry_group_IT_number 11
_symmetry_cell_setting 'monoclinic'
loop_
_space_group_symop_operation_xyz
x,y,z
-x,1/2+y,-z
-x,-y,-z
x,1/2-y,z
loop_
_atom_site_type_symbol
_atom_site_label
_atom_site_fract_x
_atom_site_fract_y
_atom_site_fract_z
Si Si1 0.516394 0.152896 0.434325
Si Si2 0.443596 0.586913 0.351298
Si Si3 0.001824 0.386052 0.014706
Si Si4 0.047507 0.133200 0.761080
Si Si5 0.500625 0.603719 0.812599
Si Si6 0.433701 0.501984 0.748307
Si Si7 0.935078 0.025443 0.878488
Si Si8 0.006840 0.302409 0.540953
O O1 0.572973 0.106926 0.510861
O O2 0.544136 0.142119 0.289422
O O3 0.222383 0.171125 0.459101
O O4 0.726392 0.191451 0.471609
O O5 0.662230 0.613471 0.270329
O O6 0.498293 0.532277 0.366311
O O7 0.165730 0.593871 0.278798
O O8 0.022926 0.347761 0.906047
O O9 0.036792 0.424647 0.909511
O O10 0.221847 0.386414 0.120091
O O11 0.720698 0.391298 0.081909
O O12 0.990299 0.177664 0.678979
O O13 0.505210 0.555265 0.741046
O O14 0.118874 0.497176 0.772407
O O15 0.620313 0.480195 0.855110
O O16 0.000000 0.000000 0.000000
O O17 0.080243 0.250000 0.549681
#
# Coordination Sequence:
#
# PCOD8071832 Si02
#       8
#     4   4   4   4   4   4   4   4
#     4  10  23  40  57  87 117 142 188 232 277 341
#     4  10  19  34  54  76 113 150 191 244 274 298
#     4  12  21  34  53  79 118 157 185 231 283 316
#     4  10  20  34  57  88 109 134 179 237 292 327
#     4  12  24  34  52  80 120 163 193 223 264 332
#     4  12  20  31  50  76 109 158 206 235 266 303
#     4  12  20  30  47  75 108 150 210 239 254 306
#     4  10  21  42  71  88 101 132 178 237 290 344
#
# _framework density 19.962304
#
# number of rings (size 3 to 8) (size 9 to 14) (size 15 to 20)
#    0.000    1.000    5.000    3.000    0.000    0.500 
#    0.000    0.000    0.000   12.000    0.000    0.000 
#    0.000    0.000    0.000    0.000    0.000    0.000 
#
# Total GULP energy -396479.674162 kJ/mol
# GULP energy per Si atom -12389.989818 kJ/mol
# Density = 1.991687 g / cm^3
# Si number density = 19.962304 Si / 1000 Ang^3
#
#
#
# Elastic Constant Matrix: (Units=GPa)
#
#
# Indices 1 2 3 4 5 6 
#
# 1 90.2701 0.9087 15.2404 0.0000 6.6649 0.0000
# 2 0.9087 66.9963 33.1279 0.0000 5.3516 0.0000
# 3 15.2404 33.1279 81.0016 0.0000 8.0171 0.0000
# 4 0.0000 0.0000 0.0000 14.3344 0.0000 0.0131
# 5 6.6649 5.3516 8.0171 0.0000 19.8452 0.0000
# 6 0.0000 0.0000 0.0000 0.0131 0.0000 16.3338
#
#
#
# Elastic Compliance Matrix: (Units=1/GPa)
#
#
# Indices 1 2 3 4 5 6 
#
# 1 0.011716 0.001296 -0.002406 0.000000 -0.003312 0.000000
# 2 0.001296 0.018932 -0.007748 0.000000 -0.002410 0.000000
# 3 -0.002406 -0.007748 0.016333 0.000000 -0.003701 0.000000
# 4 0.000000 0.000000 0.000000 0.069762 0.000000 -0.000056
# 5 -0.003312 -0.002410 -0.003701 0.000000 0.053647 0.000000
# 6 0.000000 0.000000 0.000000 -0.000056 0.000000 0.061223
#
#
# Mechanical properties :
#
#
# Convention : Reuss Voigt Hill
#
# Bulk Modulus (GPa) = 34.17237 37.42468 35.79853
# Shear Modulus (GPa) = 19.29862 22.70209 21.00035
#
# Velocity S-wave (km/s) = 3.11264 3.37597 3.24697
# Velocity P-wave (km/s) = 5.48394 5.82963 5.65943
#
# Compressibility (1/GPa) = 0.02926341
#
# Stress axis : x y z
#
# Youngs Moduli (GPa) = 85.35620 52.81947 61.22469
#
# Poissons Ratio (x) = -0.06843 0.14733
# Poissons Ratio (y) = -0.11058 0.47438
# Poissons Ratio (z) = 0.20540 0.40925
#
# Static dielectric constant tensor:
#      x y z
#    x 3.171940 0.000000 0.193860 
#    y 0.000000 3.350570 0.000000 
#    z 0.193860 0.000000 3.518380 
# 
# 
# High freq. dielectric constant tensor:
#      x y z
#    x 1.798680 0.000000 0.004740 
#    y 0.000000 1.741850 0.000000 
#    z 0.004740 0.000000 1.773490 
# 
# From -- ./inp_files/10861.got.cif
#   From: 2010.06.25/outbox.cif.g09.slc.cpg/sg11_6_cif.got.tgz:10861.got - 2010.06.27 23:14:04.
