data_PCOD8071808
_publ_section_title
;
Structure prediction by ZEFSAII (Michael W. Deem and Ramdas Pophale) SiO2 
 PCOD8071808
Probable space group: P 21/M
;
_chemical_formula_sum "Si O2"
_cell_formula_units_Z 28
_cell_length_a 29.173853
_cell_length_b 8.898676
_cell_length_c 12.713082
_cell_angle_alpha 90.000000
_cell_angle_beta 150.765167
_cell_angle_gamma 90.000000
_cell_volume 1611.896044
_symmetry_space_group_name_H-M "P 21/M"
_symmetry_group_IT_number 11
_symmetry_cell_setting 'monoclinic'
loop_
_space_group_symop_operation_xyz
x,y,z
-x,1/2+y,-z
-x,-y,-z
x,1/2-y,z
loop_
_atom_site_type_symbol
_atom_site_label
_atom_site_fract_x
_atom_site_fract_y
_atom_site_fract_z
Si Si1 0.094894 0.926462 0.568996
Si Si2 0.600822 0.927179 0.698449
Si Si3 0.395557 0.076581 0.894401
Si Si4 0.280234 0.072689 0.263004
Si Si5 0.723384 0.573904 0.140216
Si Si6 0.901858 0.073245 0.182434
Si Si7 0.610880 0.076086 0.334272
O O1 0.082905 0.750000 0.531012
O O2 0.116116 0.971257 0.732183
O O3 0.178949 0.985413 0.664782
O O4 0.000057 0.005320 0.339918
O O5 0.587759 0.750000 0.674184
O O6 0.653859 0.982479 0.700228
O O7 0.500000 0.000000 0.500000
O O8 0.659275 0.983220 0.915966
O O9 0.384713 0.250000 0.839012
O O10 0.328484 0.033674 0.855907
O O11 0.366410 0.971718 0.739307
O O12 0.502187 0.044307 0.143221
O O13 0.266317 0.250000 0.232623
O O14 0.326096 0.023999 0.463771
O O15 0.179185 0.996227 0.051323
O O16 0.744075 0.750000 0.170787
O O17 0.904409 0.250000 0.171049
O O18 0.636601 0.250000 0.401069
#
# Coordination Sequence:
#
# PCOD8071808 Si02
#       7
#     4   4   4   4   4   4   4
#     4  10  20  33  52  78 106 137 175 218 260 312
#     4  10  21  33  48  73 107 142 172 209 258 311
#     4   9  19  35  55  77 104 140 181 222 262 308
#     4  11  21  34  53  77 107 140 176 217 262 314
#     4  10  19  34  53  75 106 141 175 214 262 314
#     4  10  20  34  53  76 105 140 176 216 261 312
#     4  10  20  35  55  77 105 139 181 225 263 309
#
# _framework density 17.370847999999999
#
# number of rings (size 3 to 8) (size 9 to 14) (size 15 to 20)
#    0.000    2.000    1.429    2.571    0.000    5.143 
#    0.000    0.000    0.000    0.857    0.000    0.000 
#    0.000    0.000    0.000    0.000    0.000    0.000 
#
# Total GULP energy -347347.071002 kJ/mol
# GULP energy per Si atom -12405.252536 kJ/mol
# Density = 1.733131 g / cm^3
# Si number density = 17.370848 Si / 1000 Ang^3
#
#
#
# Elastic Constant Matrix: (Units=GPa)
#
#
# Indices 1 2 3 4 5 6 
#
# 1 95.6411 38.7917 62.0597 0.0000 11.3270 0.0000
# 2 38.7917 63.9278 46.3255 0.0000 7.2467 0.0000
# 3 62.0597 46.3255 120.0631 0.0000 15.7732 0.0000
# 4 0.0000 0.0000 0.0000 32.9816 0.0000 5.0047
# 5 11.3270 7.2467 15.7732 0.0000 22.8528 0.0000
# 6 0.0000 0.0000 0.0000 5.0047 0.0000 25.5733
#
#
#
# Elastic Compliance Matrix: (Units=1/GPa)
#
#
# Indices 1 2 3 4 5 6 
#
# 1 0.017124 -0.005462 -0.006440 0.000000 -0.002310 0.000000
# 2 -0.005462 0.023487 -0.006176 0.000000 -0.000478 0.000000
# 3 -0.006440 -0.006176 0.014697 0.000000 -0.004993 0.000000
# 4 0.000000 0.000000 0.000000 0.031248 0.000000 -0.006115
# 5 -0.002310 -0.000478 -0.004993 0.000000 0.048501 0.000000
# 6 0.000000 0.000000 0.000000 -0.006115 0.000000 0.040300
#
#
# Mechanical properties :
#
#
# Convention : Reuss Voigt Hill
#
# Bulk Modulus (GPa) = 52.21750 63.77620 57.99685
# Shear Modulus (GPa) = 22.94669 25.11188 24.02928
#
# Velocity S-wave (km/s) = 3.63848 3.80627 3.72332
# Velocity P-wave (km/s) = 6.91210 7.49074 7.20723
#
# Compressibility (1/GPa) = 0.01915067
#
# Stress axis : x y z
#
# Youngs Moduli (GPa) = 58.39907 42.57720 68.04188
#
# Poissons Ratio (x) = 0.23256 0.43819
# Poissons Ratio (y) = 0.31897 0.42024
# Poissons Ratio (z) = 0.37609 0.26297
#
# Static dielectric constant tensor:
#      x y z
#    x 3.152780 0.000000 0.069000 
#    y 0.000000 3.220180 0.000000 
#    z 0.069000 0.000000 3.181760 
# 
# 
# High freq. dielectric constant tensor:
#      x y z
#    x 1.657920 0.000000 0.008340 
#    y 0.000000 1.678080 0.000000 
#    z 0.008340 0.000000 1.669070 
# 
# From -- ./inp_files/44677.got.cif
#   From: 2010.06.25/outbox.cif.g09.slc.cpg/sg11_23_cif.got.tgz:44677.got - 2010.06.27 23:14:04.
