data_PCOD8071534
_publ_section_title
;
Structure prediction by ZEFSAII (Michael W. Deem and Ramdas Pophale) SiO2 
 PCOD8071534
Probable space group: P 21/M
;
_chemical_formula_sum "Si O2"
_cell_formula_units_Z 24
_cell_length_a 8.707918
_cell_length_b 10.132348
_cell_length_c 13.354668
_cell_angle_alpha 90.000000
_cell_angle_beta 95.069262
_cell_angle_gamma 90.000000
_cell_volume 1173.695661
_symmetry_space_group_name_H-M "P 21/M"
_symmetry_group_IT_number 11
_symmetry_cell_setting 'monoclinic'
loop_
_space_group_symop_operation_xyz
x,y,z
-x,1/2+y,-z
-x,-y,-z
x,1/2-y,z
loop_
_atom_site_type_symbol
_atom_site_label
_atom_site_fract_x
_atom_site_fract_y
_atom_site_fract_z
Si Si1 0.275810 0.250000 0.099419
Si Si2 0.294139 0.750000 0.045252
Si Si3 0.118005 0.599542 0.383808
Si Si4 0.783927 0.599560 0.452213
Si Si5 0.348623 0.250000 0.885155
Si Si6 0.753083 0.023058 0.813936
Si Si7 0.365808 0.750000 0.830887
Si Si8 0.604251 0.522939 0.256024
O O1 0.200809 0.377522 0.146692
O O2 0.457853 0.250000 0.125710
O O3 0.242041 0.250000 0.978157
O O4 0.475583 0.750000 0.071775
O O5 0.221316 0.620022 0.090831
O O6 0.259600 0.750000 0.924501
O O7 0.170451 0.750000 0.408782
O O8 0.223060 0.499182 0.454064
O O9 0.134149 0.566154 0.268159
O O10 0.940036 0.578332 0.399327
O O11 0.768722 0.750000 0.490564
O O12 0.642678 0.564883 0.371244
O O13 0.312712 0.120830 0.817445
O O14 0.578927 0.031001 0.764187
O O15 0.329482 0.622383 0.761916
#
# Coordination Sequence:
#
# PCOD8071534 Si02
#       8
#     2   2   4   4   2   4   2   4
#     4   9  18  30  50  81 112 140 171 209 252 305
#     4   9  16  30  52  77 108 142 173 207 254 307
#     4  10  22  39  57  76 101 136 174 213 262 316
#     4  10  22  39  57  76 101 136 174 213 262 316
#     4   9  16  30  52  77 108 142 173 207 254 307
#     4  10  19  33  54  81 108 136 173 215 257 299
#     4   9  18  30  50  81 112 140 171 209 252 305
#     4  10  19  33  54  81 108 136 173 215 257 299
#
# _framework density 20.448229000000001
#
# number of rings (size 3 to 8) (size 9 to 14) (size 15 to 20)
#    0.000    2.333    1.667    1.000    2.333    4.667 
#    0.000    0.000    0.000    6.000    0.000    0.000 
#    0.000    0.000    0.000    0.000    0.000    0.000 
#
# Total GULP energy -297642.617540 kJ/mol
# GULP energy per Si atom -12401.775731 kJ/mol
# Density = 2.040169 g / cm^3
# Si number density = 20.448229 Si / 1000 Ang^3
#
#
#
# Elastic Constant Matrix: (Units=GPa)
#
#
# Indices 1 2 3 4 5 6 
#
# 1 9.7322 9.5829 1.3269 0.0000 -6.4670 0.0000
# 2 9.5829 163.8003 23.3086 0.0000 -12.3389 0.0000
# 3 1.3269 23.3086 50.7050 0.0000 -19.4334 0.0000
# 4 0.0000 0.0000 0.0000 38.9215 0.0000 -3.0749
# 5 -6.4670 -12.3389 -19.4334 0.0000 26.4246 0.0000
# 6 0.0000 0.0000 0.0000 -3.0749 0.0000 16.5464
#
#
#
# Elastic Compliance Matrix: (Units=1/GPa)
#
#
# Indices 1 2 3 4 5 6 
#
# 1 0.134827 -0.006989 0.015429 0.000000 0.041080 0.000000
# 2 -0.006989 0.006921 -0.003364 0.000000 -0.000952 0.000000
# 3 0.015429 -0.003364 0.030230 0.000000 0.024438 0.000000
# 4 0.000000 0.000000 0.000000 0.026076 0.000000 0.004846
# 5 0.041080 -0.000952 0.024438 0.000000 0.065425 0.000000
# 6 0.000000 0.000000 0.000000 0.004846 0.000000 0.061337
#
#
# Mechanical properties :
#
#
# Convention : Reuss Voigt Hill
#
# Bulk Modulus (GPa) = 5.49056 32.51938 19.00497
# Shear Modulus (GPa) = 13.32012 29.04643 21.18328
#
# Velocity S-wave (km/s) = 2.55504 3.77302 3.22210
# Velocity P-wave (km/s) = 3.37568 5.90921 4.81217
#
# Compressibility (1/GPa) = 0.18213084
#
# Stress axis : x y z
#
# Youngs Moduli (GPa) = 7.41693 144.49300 33.07924
#
# Poissons Ratio (x) = 1.00984 -0.51038
# Poissons Ratio (y) = 0.05184 0.11126
# Poissons Ratio (z) = -0.11443 0.48601
#
# Static dielectric constant tensor:
#      x y z
#    x 3.170980 0.000000 -0.092360 
#    y 0.000000 4.020670 0.000000 
#    z -0.092360 0.000000 3.695460 
# 
# 
# High freq. dielectric constant tensor:
#      x y z
#    x 1.752050 0.000000 -0.009600 
#    y 0.000000 1.818000 0.000000 
#    z -0.009600 0.000000 1.799120 
# 
# From -- ./inp_files/27689.got.cif
#   From: 2010.06.25/outbox.cif.g09.slc.cpg/sg11_14_cif.got.tgz:27689.got - 2010.06.27 23:14:04.
