data_PCOD8071741
_publ_section_title
;
Structure prediction by ZEFSAII (Michael W. Deem and Ramdas Pophale) SiO2 
 PCOD8071741
Probable space group: P 21/M
;
_chemical_formula_sum "Si O2"
_cell_formula_units_Z 24
_cell_length_a 14.313331
_cell_length_b 9.008067
_cell_length_c 14.318026
_cell_angle_alpha 90.000000
_cell_angle_beta 145.569622
_cell_angle_gamma 90.000000
_cell_volume 1043.793648
_symmetry_space_group_name_H-M "P 21/M"
_symmetry_group_IT_number 11
_symmetry_cell_setting 'monoclinic'
loop_
_space_group_symop_operation_xyz
x,y,z
-x,1/2+y,-z
-x,-y,-z
x,1/2-y,z
loop_
_atom_site_type_symbol
_atom_site_label
_atom_site_fract_x
_atom_site_fract_y
_atom_site_fract_z
Si Si1 0.311269 0.088200 0.326401
Si Si2 0.270833 0.574302 0.597095
Si Si3 0.327466 0.424734 0.834232
Si Si4 0.953955 0.087205 0.054898
Si Si5 0.932204 0.921655 0.218680
Si Si6 0.519858 0.075968 0.673662
O O1 0.378022 0.250000 0.348769
O O2 0.143411 0.109347 0.244295
O O3 0.425985 0.020684 0.503024
O O4 0.299457 0.984705 0.217191
O O5 0.287576 0.750000 0.623850
O O6 0.246209 0.498170 0.676460
O O7 0.443464 0.511346 0.697411
O O8 0.113761 0.530034 0.404661
O O9 0.352818 0.250000 0.839126
O O10 0.202082 0.458392 0.814130
O O11 0.500000 0.500000 0.000000
O O12 0.869879 0.250000 0.970423
O O13 0.870313 0.005503 0.074312
O O14 0.000000 0.000000 0.000000
O O15 0.936362 0.750000 0.195970
O O16 0.516333 0.250000 0.691549
#
# Coordination Sequence:
#
# PCOD8071741 Si02
#       6
#     4   4   4   4   4   4
#     4   9  19  35  53  81 119 158 199 247 299 354
#     4  11  22  39  66  97 127 164 209 261 316 374
#     4  11  25  45  67  94 128 165 207 259 317 379
#     4  11  23  39  61  89 124 164 207 254 307 369
#     4  10  23  43  67  94 125 163 210 263 316 372
#     4  10  19  33  57  87 118 155 199 247 299 358
#
# _framework density 22.993048999999999
#
# number of rings (size 3 to 8) (size 9 to 14) (size 15 to 20)
#    0.000    1.667    1.667    2.500    0.000    5.333 
#    0.000    1.667    0.000    0.000    0.000    0.000 
#    0.000    0.000    0.000    0.000    0.000    0.000 
#
# Total GULP energy -297368.083003 kJ/mol
# GULP energy per Si atom -12390.336792 kJ/mol
# Density = 2.294072 g / cm^3
# Si number density = 22.993049 Si / 1000 Ang^3
#
#
#
# Elastic Constant Matrix: (Units=GPa)
#
#
# Indices 1 2 3 4 5 6 
#
# 1 152.1210 80.0308 40.7431 0.0000 -14.2430 0.0000
# 2 80.0308 146.7868 29.3856 0.0000 -25.5790 0.0000
# 3 40.7431 29.3856 40.1353 0.0000 -18.4449 0.0000
# 4 0.0000 0.0000 0.0000 33.5398 0.0000 -8.5284
# 5 -14.2430 -25.5790 -18.4449 0.0000 44.7550 0.0000
# 6 0.0000 0.0000 0.0000 -8.5284 0.0000 45.5128
#
#
#
# Elastic Compliance Matrix: (Units=1/GPa)
#
#
# Indices 1 2 3 4 5 6 
#
# 1 0.011342 -0.004835 -0.009357 0.000000 -0.003010 0.000000
# 2 -0.004835 0.010308 -0.000788 0.000000 0.004028 0.000000
# 3 -0.009357 -0.000788 0.041223 0.000000 0.013561 0.000000
# 4 0.000000 0.000000 0.000000 0.031307 0.000000 0.005866
# 5 -0.003010 0.004028 0.013561 0.000000 0.029277 0.000000
# 6 0.000000 0.000000 0.000000 0.005866 0.000000 0.023071
#
#
# Mechanical properties :
#
#
# Convention : Reuss Voigt Hill
#
# Bulk Modulus (GPa) = 30.38219 71.04023 50.71121
# Shear Modulus (GPa) = 26.67237 37.35374 32.01305
#
# Velocity S-wave (km/s) = 3.40960 4.03496 3.73539
# Velocity P-wave (km/s) = 5.36123 7.25750 6.38021
#
# Compressibility (1/GPa) = 0.03291402
#
# Stress axis : x y z
#
# Youngs Moduli (GPa) = 88.17055 97.00755 24.25804
#
# Poissons Ratio (x) = 0.46904 0.22698
# Poissons Ratio (y) = 0.42631 0.01911
# Poissons Ratio (z) = 0.82499 0.07644
#
# Static dielectric constant tensor:
#      x y z
#    x 4.900570 0.000000 0.854440 
#    y 0.000000 4.376120 0.000000 
#    z 0.854440 0.000000 5.212890 
# 
# 
# High freq. dielectric constant tensor:
#      x y z
#    x 1.924360 0.000000 0.010380 
#    y 0.000000 1.911910 0.000000 
#    z 0.010380 0.000000 1.926560 
# 
# From -- ./inp_files/51837.got.cif
#   From: 2010.06.25/outbox.cif.g09.slc.cpg/sg11_26_cif.got.tgz:51837.got - 2010.06.27 23:14:04.
