data_PCOD8071826
_publ_section_title
;
Structure prediction by ZEFSAII (Michael W. Deem and Ramdas Pophale) SiO2 
 PCOD8071826
Probable space group: P 21/M
;
_chemical_formula_sum "Si O2"
_cell_formula_units_Z 24
_cell_length_a 12.761108
_cell_length_b 9.155301
_cell_length_c 11.707479
_cell_angle_alpha 90.000000
_cell_angle_beta 90.036529
_cell_angle_gamma 90.000000
_cell_volume 1367.805389
_symmetry_space_group_name_H-M "P 21/M"
_symmetry_group_IT_number 11
_symmetry_cell_setting 'monoclinic'
loop_
_space_group_symop_operation_xyz
x,y,z
-x,1/2+y,-z
-x,-y,-z
x,1/2-y,z
loop_
_atom_site_type_symbol
_atom_site_label
_atom_site_fract_x
_atom_site_fract_y
_atom_site_fract_z
Si Si1 0.990741 0.423530 0.620256
Si Si2 0.609663 0.921865 0.370697
Si Si3 0.598656 0.581183 0.631492
Si Si4 0.188383 0.419002 0.248186
Si Si5 0.190541 0.422572 0.762046
Si Si6 0.889927 0.580154 0.999313
O O1 0.988793 0.250000 0.605075
O O2 0.885298 0.474902 0.680754
O O3 0.000000 0.500000 0.500000
O O4 0.088423 0.478746 0.695290
O O5 0.600338 0.750000 0.353810
O O6 0.631303 0.963496 0.502711
O O7 0.704639 0.988454 0.295290
O O8 0.501809 0.991471 0.326518
O O9 0.567904 0.750000 0.635689
O O10 0.692965 0.544368 0.717131
O O11 0.161281 0.250000 0.276185
O O12 0.175846 0.453443 0.114326
O O13 0.196482 0.250000 0.751190
O O14 0.180808 0.473082 0.893830
O O15 0.916261 0.750000 0.012279
O O16 0.000000 0.500000 0.000000
#
# Coordination Sequence:
#
# PCOD8071826 Si02
#       6
#     4   4   4   4   4   4
#     4  11  21  33  51  76 107 136 168 212 260 311
#     4   9  17  32  53  72  96 133 174 210 253 311
#     4   9  18  33  51  73 102 133 168 213 263 307
#     4  10  20  34  53  76 104 137 172 212 259 311
#     4   9  18  33  52  74 102 136 170 210 259 308
#     4  10  19  34  54  75 102 138 176 211 256 310
#
# _framework density 17.546357
#
# number of rings (size 3 to 8) (size 9 to 14) (size 15 to 20)
#    0.000    2.333    1.667    1.500    0.000    3.333 
#    0.000    6.667    0.000    0.000    0.000    0.000 
#    0.000    0.000    0.000    0.000    0.000    0.000 
#
# Total GULP energy -297613.844093 kJ/mol
# GULP energy per Si atom -12400.576837 kJ/mol
# Density = 1.750642 g / cm^3
# Si number density = 17.546357 Si / 1000 Ang^3
#
#
#
# Elastic Constant Matrix: (Units=GPa)
#
#
# Indices 1 2 3 4 5 6 
#
# 1 123.1919 35.1629 65.2747 0.0000 10.5198 0.0000
# 2 35.1629 42.0779 36.3687 0.0000 4.1479 0.0000
# 3 65.2747 36.3687 131.1129 0.0000 8.2861 0.0000
# 4 0.0000 0.0000 0.0000 21.6115 0.0000 -0.8342
# 5 10.5198 4.1479 8.2861 0.0000 28.9215 0.0000
# 6 0.0000 0.0000 0.0000 -0.8342 0.0000 30.8112
#
#
#
# Elastic Compliance Matrix: (Units=1/GPa)
#
#
# Indices 1 2 3 4 5 6 
#
# 1 0.012412 -0.006481 -0.004232 0.000000 -0.002373 0.000000
# 2 -0.006481 0.034762 -0.006365 0.000000 -0.000805 0.000000
# 3 -0.004232 -0.006365 0.011554 0.000000 -0.000858 0.000000
# 4 0.000000 0.000000 0.000000 0.046320 0.000000 0.001254
# 5 -0.002373 -0.000805 -0.000858 0.000000 0.035801 0.000000
# 6 0.000000 0.000000 0.000000 0.001254 0.000000 0.032490
#
#
# Mechanical properties :
#
#
# Convention : Reuss Voigt Hill
#
# Bulk Modulus (GPa) = 40.69610 63.33280 52.01445
# Shear Modulus (GPa) = 23.18202 26.90727 25.04464
#
# Velocity S-wave (km/s) = 3.63876 3.92024 3.78212
# Velocity P-wave (km/s) = 6.39515 7.52754 6.98433
#
# Compressibility (1/GPa) = 0.02457238
#
# Stress axis : x y z
#
# Youngs Moduli (GPa) = 80.56647 28.76699 86.55314
#
# Poissons Ratio (x) = 0.18643 0.36627
# Poissons Ratio (y) = 0.52214 0.55092
# Poissons Ratio (z) = 0.34094 0.18311
#
# Static dielectric constant tensor:
#      x y z
#    x 25.021500 0.000000 -19.195050 
#    y 0.000000 3.091160 0.000000 
#    z -19.195050 0.000000 20.428320 
# 
# 
# High freq. dielectric constant tensor:
#      x y z
#    x 1.679040 0.000000 0.000300 
#    y 0.000000 1.660940 0.000000 
#    z 0.000300 0.000000 1.681970 
# 
# From -- ./inp_files/33762.got.cif
#   From: 2010.06.25/outbox.cif.g09.slc.cpg/sg11_17_cif.got.tgz:33762.got - 2010.06.27 23:14:04.
