data_PCOD8071915
_publ_section_title
;
Structure prediction by ZEFSAII (Michael W. Deem and Ramdas Pophale) SiO2 
 PCOD8071915
Probable space group: P 21/M
;
_chemical_formula_sum "Si O2"
_cell_formula_units_Z 32
_cell_length_a 25.342742
_cell_length_b 9.966643
_cell_length_c 14.947207
_cell_angle_alpha 90.000000
_cell_angle_beta 154.093318
_cell_angle_gamma 90.000000
_cell_volume 1649.495947
_symmetry_space_group_name_H-M "P 21/M"
_symmetry_group_IT_number 11
_symmetry_cell_setting 'monoclinic'
loop_
_space_group_symop_operation_xyz
x,y,z
-x,1/2+y,-z
-x,-y,-z
x,1/2-y,z
loop_
_atom_site_type_symbol
_atom_site_label
_atom_site_fract_x
_atom_site_fract_y
_atom_site_fract_z
Si Si1 0.268795 0.092091 0.455426
Si Si2 0.929893 0.899455 0.558976
Si Si3 0.544475 0.391562 0.634870
Si Si4 0.115136 0.591878 0.348835
Si Si5 0.197623 0.974053 0.970497
Si Si6 0.465805 0.901961 0.181941
Si Si7 0.253556 0.400164 0.873336
Si Si8 0.157395 0.402480 0.100418
O O1 0.233002 0.250000 0.415295
O O2 0.412486 0.072450 0.688797
O O3 0.224331 0.040216 0.290214
O O4 0.211104 0.992187 0.438948
O O5 0.895155 0.750000 0.543248
O O6 0.866256 0.925958 0.367339
O O7 0.890813 0.020720 0.563783
O O8 0.073434 0.897921 0.762105
O O9 0.500000 0.500000 0.500000
O O10 0.492103 0.250000 0.521184
O O11 0.491500 0.424702 0.651053
O O12 0.689069 0.375046 0.862575
O O13 0.151305 0.750000 0.414242
O O14 0.985799 0.578876 0.103677
O O15 0.218692 0.083366 0.924336
O O16 0.201585 0.030785 0.076690
O O17 0.418512 0.750000 0.094992
O O18 0.358034 0.002937 0.993810
O O19 0.302726 0.250000 0.935382
O O20 0.194481 0.250000 0.146146
#
# Coordination Sequence:
#
# PCOD8071915 Si02
#       8
#     4   4   4   4   4   4   4   4
#     4  10  19  35  57  78 105 145 183 219 266 320
#     4  10  21  38  58  81 108 141 181 224 271 324
#     4  10  20  33  50  75 108 145 180 215 256 308
#     4  10  21  36  55  82 110 138 176 226 276 320
#     4  10  19  34  55  82 113 144 178 217 260 315
#     4   9  20  36  53  75 105 142 183 222 266 320
#     4  10  21  36  57  83 110 141 179 225 273 316
#     4   9  18  32  52  80 113 144 175 212 261 319
#
# _framework density 19.399865999999999
#
# number of rings (size 3 to 8) (size 9 to 14) (size 15 to 20)
#    0.000    2.250    0.000    2.625    0.000    5.500 
#    0.000    5.000    0.000    0.000    0.000    0.000 
#    0.000    0.000    0.000    0.000    0.000    0.000 
#
# Total GULP energy -396575.394851 kJ/mol
# GULP energy per Si atom -12392.981089 kJ/mol
# Density = 1.935571 g / cm^3
# Si number density = 19.399866 Si / 1000 Ang^3
#
#
#
# Elastic Constant Matrix: (Units=GPa)
#
#
# Indices 1 2 3 4 5 6 
#
# 1 75.9372 36.6730 29.3848 0.0000 16.3002 0.0000
# 2 36.6730 107.2566 40.2314 0.0000 5.0172 0.0000
# 3 29.3848 40.2314 73.4050 0.0000 2.2056 0.0000
# 4 0.0000 0.0000 0.0000 27.0636 0.0000 -2.9608
# 5 16.3002 5.0172 2.2056 0.0000 26.1431 0.0000
# 6 0.0000 0.0000 0.0000 -2.9608 0.0000 25.5205
#
#
#
# Elastic Compliance Matrix: (Units=1/GPa)
#
#
# Indices 1 2 3 4 5 6 
#
# 1 0.019571 -0.004235 -0.005184 0.000000 -0.010952 0.000000
# 2 -0.004235 0.012730 -0.005301 0.000000 0.000645 0.000000
# 3 -0.005184 -0.005301 0.018523 0.000000 0.002687 0.000000
# 4 0.000000 0.000000 0.000000 0.037425 0.000000 0.004342
# 5 -0.010952 0.000645 0.002687 0.000000 0.044729 0.000000
# 6 0.000000 0.000000 0.000000 0.004342 0.000000 0.039688
#
#
# Mechanical properties :
#
#
# Convention : Reuss Voigt Hill
#
# Bulk Modulus (GPa) = 46.76521 52.13081 49.44801
# Shear Modulus (GPa) = 23.89672 25.76609 24.83140
#
# Velocity S-wave (km/s) = 3.51351 3.64834 3.58156
# Velocity P-wave (km/s) = 6.37322 6.68411 6.53051
#
# Compressibility (1/GPa) = 0.02138342
#
# Stress axis : x y z
#
# Youngs Moduli (GPa) = 51.09593 78.55737 53.98696
#
# Poissons Ratio (x) = 0.33267 0.27989
# Poissons Ratio (y) = 0.21638 0.28618
# Poissons Ratio (z) = 0.26491 0.41643
#
# Static dielectric constant tensor:
#      x y z
#    x 5.530080 0.000000 0.777490 
#    y 0.000000 3.630700 0.000000 
#    z 0.777490 0.000000 3.876580 
# 
# 
# High freq. dielectric constant tensor:
#      x y z
#    x 1.744690 0.000000 0.008420 
#    y 0.000000 1.754870 0.000000 
#    z 0.008420 0.000000 1.756360 
# 
# From -- ./inp_files/55661.got.cif
#   From: 2010.06.25/outbox.cif.g09.slc.cpg/sg11_28_cif.got.tgz:55661.got - 2010.06.27 23:14:04.
