data_PCOD8071582
_publ_section_title
;
Structure prediction by ZEFSAII (Michael W. Deem and Ramdas Pophale) SiO2 
 PCOD8071582
Probable space group: P 21/M
;
_chemical_formula_sum "Si O2"
_cell_formula_units_Z 28
_cell_length_a 15.398902
_cell_length_b 9.291688
_cell_length_c 17.452060
_cell_angle_alpha 90.000000
_cell_angle_beta 36.140299
_cell_angle_gamma 90.000000
_cell_volume 1472.684469
_symmetry_space_group_name_H-M "P 21/M"
_symmetry_group_IT_number 11
_symmetry_cell_setting 'monoclinic'
loop_
_space_group_symop_operation_xyz
x,y,z
-x,1/2+y,-z
-x,-y,-z
x,1/2-y,z
loop_
_atom_site_type_symbol
_atom_site_label
_atom_site_fract_x
_atom_site_fract_y
_atom_site_fract_z
Si Si1 0.846948 0.908603 0.524674
Si Si2 0.183235 0.908824 0.317909
Si Si3 0.173875 0.414278 0.064247
Si Si4 0.105825 0.418406 0.677817
Si Si5 0.151944 0.081824 0.906560
Si Si6 0.355017 0.417446 0.078329
Si Si7 0.351769 0.082209 0.625103
O O1 0.770834 0.750000 0.578843
O O2 0.848591 0.976271 0.438469
O O3 0.009675 0.889212 0.441888
O O4 0.760941 0.017502 0.642516
O O5 0.258372 0.750000 0.257531
O O6 0.221711 0.012197 0.220044
O O7 0.120619 0.250000 0.109329
O O8 0.318483 0.439365 0.014092
O O9 0.041869 0.511328 0.186945
O O10 0.212353 0.451562 0.948768
O O11 0.072281 0.250000 0.696221
O O12 0.237430 0.456315 0.640377
O O13 0.119039 0.250000 0.916955
O O14 0.279201 0.030535 0.757099
O O15 0.000000 0.000000 0.000000
O O16 0.369782 0.250000 0.088832
O O17 0.500000 0.500000 0.000000
O O18 0.389154 0.250000 0.601215
O O19 0.500000 0.000000 0.500000
#
# Coordination Sequence:
#
# PCOD8071582 Si02
#       7
#     4   4   4   4   4   4   4
#     4   9  18  32  53  80 111 141 179 229 278 331
#     4  10  19  33  55  80 107 142 184 228 282 337
#     4  10  21  36  59  88 115 146 192 244 292 348
#     4  10  19  35  59  85 113 148 191 237 285 345
#     4  10  20  37  62  91 120 152 194 243 293 352
#     4  11  23  39  57  79 114 153 194 242 294 350
#     4  10  22  39  59  84 120 157 193 238 291 351
#
# _framework density 19.012898
#
# number of rings (size 3 to 8) (size 9 to 14) (size 15 to 20)
#    0.000    2.000    2.857    0.857    0.000    2.857 
#    2.571    0.000    0.000    0.000    0.000    0.000 
#    0.000    0.000    0.000    0.000    0.000    0.000 
#
# Total GULP energy -347132.892578 kJ/mol
# GULP energy per Si atom -12397.603306 kJ/mol
# Density = 1.896962 g / cm^3
# Si number density = 19.012898 Si / 1000 Ang^3
#
#
#
# Elastic Constant Matrix: (Units=GPa)
#
#
# Indices 1 2 3 4 5 6 
#
# 1 128.3060 52.9143 64.0092 0.0000 27.2693 0.0000
# 2 52.9143 87.2791 43.5472 0.0000 5.8115 0.0000
# 3 64.0092 43.5472 87.0059 0.0000 16.3912 0.0000
# 4 0.0000 0.0000 0.0000 34.5949 0.0000 0.3767
# 5 27.2693 5.8115 16.3912 0.0000 40.0249 0.0000
# 6 0.0000 0.0000 0.0000 0.3767 0.0000 25.1587
#
#
#
# Elastic Compliance Matrix: (Units=1/GPa)
#
#
# Indices 1 2 3 4 5 6 
#
# 1 0.014785 -0.004948 -0.007193 0.000000 -0.006409 0.000000
# 2 -0.004948 0.016963 -0.005441 0.000000 0.003136 0.000000
# 3 -0.007193 -0.005441 0.019978 0.000000 -0.002491 0.000000
# 4 0.000000 0.000000 0.000000 0.028911 0.000000 -0.000433
# 5 -0.006409 0.003136 -0.002491 0.000000 0.029915 0.000000
# 6 0.000000 0.000000 0.000000 -0.000433 0.000000 0.039754
#
#
# Mechanical properties :
#
#
# Convention : Reuss Voigt Hill
#
# Bulk Modulus (GPa) = 60.37978 69.28137 64.83057
# Shear Modulus (GPa) = 26.17915 29.43039 27.80477
#
# Velocity S-wave (km/s) = 3.71471 3.93863 3.82830
# Velocity P-wave (km/s) = 7.08696 7.56320 7.32895
#
# Compressibility (1/GPa) = 0.01656184
#
# Stress axis : x y z
#
# Youngs Moduli (GPa) = 67.63534 58.95148 50.05500
#
# Poissons Ratio (x) = 0.29169 0.36007
# Poissons Ratio (y) = 0.33465 0.27235
# Poissons Ratio (z) = 0.48653 0.32075
#
# Static dielectric constant tensor:
#      x y z
#    x 3.791870 0.000000 0.363260 
#    y 0.000000 3.718590 0.000000 
#    z 0.363260 0.000000 3.519760 
# 
# 
# High freq. dielectric constant tensor:
#      x y z
#    x 1.740910 0.000000 0.024390 
#    y 0.000000 1.742040 0.000000 
#    z 0.024390 0.000000 1.723900 
# 
# From -- ./inp_files/60085.got.cif
#   From: 2010.06.25/outbox.cif.g09.slc.cpg/sg11_31_cif.got.tgz:60085.got - 2010.06.27 23:14:04.
