data_PCOD8071415
_publ_section_title
;
Structure prediction by ZEFSAII (Michael W. Deem and Ramdas Pophale) SiO2 
 PCOD8071415
Probable space group: P 21/M
;
_chemical_formula_sum "Si O2"
_cell_formula_units_Z 32
_cell_length_a 22.356746
_cell_length_b 8.983744
_cell_length_c 27.221310
_cell_angle_alpha 90.000000
_cell_angle_beta 18.726196
_cell_angle_gamma 90.000000
_cell_volume 1755.263341
_symmetry_space_group_name_H-M "P 21/M"
_symmetry_group_IT_number 11
_symmetry_cell_setting 'monoclinic'
loop_
_space_group_symop_operation_xyz
x,y,z
-x,1/2+y,-z
-x,-y,-z
x,1/2-y,z
loop_
_atom_site_type_symbol
_atom_site_label
_atom_site_fract_x
_atom_site_fract_y
_atom_site_fract_z
Si Si1 0.172891 0.425782 0.790004
Si Si2 0.841641 0.926158 0.656200
Si Si3 0.800049 0.923282 0.960476
Si Si4 0.693655 0.076866 0.859837
Si Si5 0.570092 0.080055 0.059912
Si Si6 0.167817 0.080763 0.681891
Si Si7 0.430581 0.576976 0.667501
Si Si8 0.208203 0.074307 0.920373
O O1 0.169666 0.250000 0.802647
O O2 0.214925 0.467099 0.700919
O O3 0.333847 0.500741 0.696345
O O4 0.975524 0.496452 0.958658
O O5 0.873412 0.750000 0.634520
O O6 0.639714 0.968147 0.791174
O O7 0.851554 0.994912 0.704025
O O8 0.000000 0.000000 0.500000
O O9 0.807640 0.750000 0.946990
O O10 0.758827 0.968113 0.048690
O O11 0.000949 0.985925 0.788350
O O12 0.634112 0.984144 0.056220
O O13 0.686499 0.250000 0.850678
O O14 0.717995 0.058502 0.899832
O O15 0.500000 0.000000 0.000000
O O16 0.568170 0.250000 0.078332
O O17 0.099057 0.250000 0.735039
O O18 0.348570 0.056369 0.508395
O O19 0.374245 0.750000 0.713212
O O20 0.380352 0.492958 0.756688
O O21 0.191792 0.250000 0.924986
#
# Coordination Sequence:
#
# PCOD8071415 Si02
#       8
#     4   4   4   4   4   4   4   4
#     4  10  19  33  53  75  99 131 166 206 257 312
#     4  10  20  34  54  83 115 146 175 212 259 304
#     4  10  21  36  56  77  98 131 176 217 254 298
#     4   9  17  31  52  79 108 139 173 211 252 299
#     4   9  19  35  56  79 105 138 175 210 253 307
#     4   9  20  36  53  73 100 132 167 208 258 310
#     4  11  21  33  51  76 101 129 165 208 259 312
#     4  10  21  36  51  72 102 134 169 212 256 304
#
# _framework density 18.230881
#
# number of rings (size 3 to 8) (size 9 to 14) (size 15 to 20)
#    0.000    2.250    0.000    3.750    0.000    6.000 
#    0.000    1.250    0.000    1.500    0.000    0.000 
#    0.000    0.000    0.000    0.000    0.000    0.000 
#
# Total GULP energy -396778.846401 kJ/mol
# GULP energy per Si atom -12399.338950 kJ/mol
# Density = 1.818939 g / cm^3
# Si number density = 18.230881 Si / 1000 Ang^3
#
#
#
# Elastic Constant Matrix: (Units=GPa)
#
#
# Indices 1 2 3 4 5 6 
#
# 1 64.6626 33.1580 31.6438 0.0000 -5.9736 0.0000
# 2 33.1580 82.9022 32.6432 0.0000 -1.8868 0.0000
# 3 31.6438 32.6432 82.8910 0.0000 11.7031 0.0000
# 4 0.0000 0.0000 0.0000 32.2685 0.0000 1.6453
# 5 -5.9736 -1.8868 11.7031 0.0000 25.2795 0.0000
# 6 0.0000 0.0000 0.0000 1.6453 0.0000 34.3351
#
#
#
# Elastic Compliance Matrix: (Units=1/GPa)
#
#
# Indices 1 2 3 4 5 6 
#
# 1 0.023088 -0.006029 -0.007646 0.000000 0.008545 0.000000
# 2 -0.006029 0.016224 -0.004341 0.000000 0.001796 0.000000
# 3 -0.007646 -0.004341 0.018182 0.000000 -0.010548 0.000000
# 4 0.000000 0.000000 0.000000 0.031066 0.000000 -0.001489
# 5 0.008545 0.001796 -0.010548 0.000000 0.046594 0.000000
# 6 0.000000 0.000000 0.000000 -0.001489 0.000000 0.029196
#
#
# Mechanical properties :
#
#
# Convention : Reuss Voigt Hill
#
# Bulk Modulus (GPa) = 46.59604 47.26065 46.92834
# Shear Modulus (GPa) = 24.09228 27.24400 25.66814
#
# Velocity S-wave (km/s) = 3.63920 3.86992 3.75633
# Velocity P-wave (km/s) = 6.57820 6.77850 6.67910
#
# Compressibility (1/GPa) = 0.02146105
#
# Stress axis : x y z
#
# Youngs Moduli (GPa) = 43.31329 61.63685 55.00049
#
# Poissons Ratio (x) = 0.37162 0.42053
# Poissons Ratio (y) = 0.26114 0.23876
# Poissons Ratio (z) = 0.33117 0.26757
#
# Static dielectric constant tensor:
#      x y z
#    x 3.418540 0.000000 0.251970 
#    y 0.000000 3.511820 0.000000 
#    z 0.251970 0.000000 3.318410 
# 
# 
# High freq. dielectric constant tensor:
#      x y z
#    x 1.696450 0.000000 0.017420 
#    y 0.000000 1.721400 0.000000 
#    z 0.017420 0.000000 1.694820 
# 
# From -- ./inp_files/71984.got.cif
#   From: 2010.06.25/outbox.cif.g09.slc.cpg/sg11_36_cif.got.tgz:71984.got - 2010.06.27 23:14:04.
