data_PCOD8071958
_publ_section_title
;
Structure prediction by ZEFSAII (Michael W. Deem and Ramdas Pophale) SiO2 
 PCOD8071958
Probable space group: P 21/M
;
_chemical_formula_sum "Si O2"
_cell_formula_units_Z 24
_cell_length_a 16.499698
_cell_length_b 9.115620
_cell_length_c 23.251983
_cell_angle_alpha 90.000000
_cell_angle_beta 22.728369
_cell_angle_gamma 90.000000
_cell_volume 1351.193289
_symmetry_space_group_name_H-M "P 21/M"
_symmetry_group_IT_number 11
_symmetry_cell_setting 'monoclinic'
loop_
_space_group_symop_operation_xyz
x,y,z
-x,1/2+y,-z
-x,-y,-z
x,1/2-y,z
loop_
_atom_site_type_symbol
_atom_site_label
_atom_site_fract_x
_atom_site_fract_y
_atom_site_fract_z
Si Si1 0.970693 0.075314 0.958043
Si Si2 0.299037 0.918479 0.153828
Si Si3 0.347352 0.421207 0.913357
Si Si4 0.286582 0.418346 0.651922
Si Si5 0.802567 0.079530 0.654795
Si Si6 0.100323 0.917119 0.168152
O O1 0.951441 0.250000 0.977494
O O2 0.756666 0.014113 0.069957
O O3 0.167130 0.031684 0.788523
O O4 0.000000 0.000000 0.000000
O O5 0.362042 0.750000 0.121265
O O6 0.227091 0.985222 0.261570
O O7 0.114308 0.938034 0.227625
O O8 0.500000 0.000000 0.000000
O O9 0.295075 0.250000 0.939153
O O10 0.597100 0.449248 0.750212
O O11 0.259824 0.473150 0.032290
O O12 0.500000 0.500000 0.500000
O O13 0.346375 0.250000 0.618126
O O14 0.136823 0.450983 0.695623
O O15 0.855408 0.250000 0.623426
O O16 0.000000 0.000000 0.500000
O O17 0.158821 0.750000 0.111603
#
# Coordination Sequence:
#
# PCOD8071958 Si02
#       6
#     4   4   4   4   4   4
#     4  10  21  38  59  83 109 142 184 226 269 323
#     4  10  19  34  56  81 107 137 180 227 266 318
#     4  10  19  34  56  81 110 141 181 226 269 324
#     4   9  19  35  54  79 110 140 174 218 269 321
#     4  10  22  37  53  78 113 147 181 224 273 323
#     4   9  18  33  55  80 107 139 180 223 268 323
#
# _framework density 17.762077999999999
#
# number of rings (size 3 to 8) (size 9 to 14) (size 15 to 20)
#    0.000    2.333    1.667    2.000    0.000    5.333 
#    3.000    0.000    0.000    0.000    0.000    0.000 
#    0.000    0.000    0.000    0.000    0.000    0.000 
#
# Total GULP energy -297558.931095 kJ/mol
# GULP energy per Si atom -12398.288796 kJ/mol
# Density = 1.772165 g / cm^3
# Si number density = 17.762078 Si / 1000 Ang^3
#
#
#
# Elastic Constant Matrix: (Units=GPa)
#
#
# Indices 1 2 3 4 5 6 
#
# 1 142.6058 54.9401 76.1315 0.0000 6.8317 0.0000
# 2 54.9401 76.4555 60.7218 0.0000 -3.2429 0.0000
# 3 76.1315 60.7218 138.3554 0.0000 -4.0643 0.0000
# 4 0.0000 0.0000 0.0000 35.8603 0.0000 -1.3495
# 5 6.8317 -3.2429 -4.0643 0.0000 24.8714 0.0000
# 6 0.0000 0.0000 0.0000 -1.3495 0.0000 29.5235
#
#
#
# Elastic Compliance Matrix: (Units=1/GPa)
#
#
# Indices 1 2 3 4 5 6 
#
# 1 0.011415 -0.005065 -0.004190 0.000000 -0.004481 0.000000
# 2 -0.005065 0.022360 -0.006933 0.000000 0.003174 0.000000
# 3 -0.004190 -0.006933 0.012644 0.000000 0.002313 0.000000
# 4 0.000000 0.000000 0.000000 0.027934 0.000000 0.001277
# 5 -0.004481 0.003174 0.002313 0.000000 0.042229 0.000000
# 6 0.000000 0.000000 0.000000 0.001277 0.000000 0.033930
#
#
# Mechanical properties :
#
#
# Convention : Reuss Voigt Hill
#
# Bulk Modulus (GPa) = 71.20953 82.33372 76.77163
# Shear Modulus (GPa) = 26.65669 29.09262 27.87465
#
# Velocity S-wave (km/s) = 3.87817 4.05150 3.96578
# Velocity P-wave (km/s) = 7.76089 8.26683 8.01785
#
# Compressibility (1/GPa) = 0.01404306
#
# Stress axis : x y z
#
# Youngs Moduli (GPa) = 87.60214 44.72219 79.08827
#
# Poissons Ratio (x) = 0.22653 0.33138
# Poissons Ratio (y) = 0.44372 0.54833
# Poissons Ratio (z) = 0.36705 0.31006
#
# Static dielectric constant tensor:
#      x y z
#    x 4.121430 0.000000 0.067920 
#    y 0.000000 3.353820 0.000000 
#    z 0.067920 0.000000 3.130880 
# 
# 
# High freq. dielectric constant tensor:
#      x y z
#    x 1.699980 0.000000 -0.006810 
#    y 0.000000 1.690260 0.000000 
#    z -0.006810 0.000000 1.667570 
# 
# From -- ./inp_files/20619.got.cif
#   From: 2010.06.25/outbox.cif.g09.slc.cpg/sg11_11_cif.got.tgz:20619.got - 2010.06.27 23:14:04.
