data_PCOD8071528
_publ_section_title
;
Structure prediction by ZEFSAII (Michael W. Deem and Ramdas Pophale) SiO2 
 PCOD8071528
Probable space group: P 21/M
;
_chemical_formula_sum "Si O2"
_cell_formula_units_Z 24
_cell_length_a 18.194372
_cell_length_b 8.713732
_cell_length_c 12.640883
_cell_angle_alpha 90.000000
_cell_angle_beta 139.541356
_cell_angle_gamma 90.000000
_cell_volume 1300.456405
_symmetry_space_group_name_H-M "P 21/M"
_symmetry_group_IT_number 11
_symmetry_cell_setting 'monoclinic'
loop_
_space_group_symop_operation_xyz
x,y,z
-x,1/2+y,-z
-x,-y,-z
x,1/2-y,z
loop_
_atom_site_type_symbol
_atom_site_label
_atom_site_fract_x
_atom_site_fract_y
_atom_site_fract_z
Si Si1 0.701803 0.569714 0.401122
Si Si2 0.863342 0.071862 0.740311
Si Si3 0.236698 0.077913 0.950622
Si Si4 0.098026 0.571757 0.976992
Si Si5 0.465353 0.424636 0.102535
Si Si6 0.730040 0.430367 0.220116
O O1 0.700136 0.750000 0.383752
O O2 0.765055 0.525719 0.577859
O O3 0.574648 0.507257 0.268204
O O4 0.769770 0.493219 0.377314
O O5 0.843150 0.250000 0.694941
O O6 0.856044 0.032380 0.856303
O O7 0.985320 0.023969 0.828079
O O8 0.188266 0.250000 0.909171
O O9 0.373991 0.077890 0.099257
O O10 0.194976 0.973388 0.000726
O O11 0.195460 0.006872 0.792267
O O12 0.068041 0.750000 0.933964
O O13 0.493490 0.250000 0.097120
O O14 0.403755 0.518734 0.938464
O O15 0.744294 0.250000 0.230038
#
# Coordination Sequence:
#
# PCOD8071528 Si02
#       6
#     4   4   4   4   4   4
#     4  12  22  34  53  81 113 143 182 224 267 316
#     4  10  22  38  58  81 107 141 179 223 270 317
#     4   9  19  34  56  81 108 144 181 218 263 320
#     4  10  20  38  61  82 105 137 181 224 268 321
#     4   9  19  34  53  80 111 146 181 216 264 318
#     4  10  19  33  54  80 111 146 180 217 266 318
#
# _framework density 18.45506
#
# number of rings (size 3 to 8) (size 9 to 14) (size 15 to 20)
#    1.000    1.000    0.000    5.000    0.000    2.000 
#    0.000    1.667    0.000    0.000    0.000    0.000 
#    0.000    0.000    0.000    0.000    0.000    0.000 
#
# Total GULP energy -297541.022826 kJ/mol
# GULP energy per Si atom -12397.542618 kJ/mol
# Density = 1.841306 g / cm^3
# Si number density = 18.455060 Si / 1000 Ang^3
#
#
#
# Elastic Constant Matrix: (Units=GPa)
#
#
# Indices 1 2 3 4 5 6 
#
# 1 58.3843 19.1275 13.5316 0.0000 -14.4909 0.0000
# 2 19.1275 103.8133 22.9208 0.0000 -3.0018 0.0000
# 3 13.5316 22.9208 64.2566 0.0000 0.2310 0.0000
# 4 0.0000 0.0000 0.0000 32.7757 0.0000 -1.4889
# 5 -14.4909 -3.0018 0.2310 0.0000 14.8467 0.0000
# 6 0.0000 0.0000 0.0000 -1.4889 0.0000 32.5297
#
#
#
# Elastic Compliance Matrix: (Units=1/GPa)
#
#
# Indices 1 2 3 4 5 6 
#
# 1 0.025028 -0.002972 -0.004296 0.000000 0.023894 0.000000
# 2 -0.002972 0.010880 -0.003253 0.000000 -0.000650 0.000000
# 3 -0.004296 -0.003253 0.017646 0.000000 -0.005126 0.000000
# 4 0.000000 0.000000 0.000000 0.030574 0.000000 0.001399
# 5 0.023894 -0.000650 -0.005126 0.000000 0.090624 0.000000
# 6 0.000000 0.000000 0.000000 0.001399 0.000000 0.030805
#
#
# Mechanical properties :
#
#
# Convention : Reuss Voigt Hill
#
# Bulk Modulus (GPa) = 30.75828 37.51267 34.13547
# Shear Modulus (GPa) = 21.05836 27.42204 24.24020
#
# Velocity S-wave (km/s) = 3.38163 3.85890 3.62812
# Velocity P-wave (km/s) = 5.65243 6.34235 6.00730
#
# Compressibility (1/GPa) = 0.03251157
#
# Stress axis : x y z
#
# Youngs Moduli (GPa) = 39.95586 91.91534 56.66994
#
# Poissons Ratio (x) = 0.27316 0.24347
# Poissons Ratio (y) = 0.11874 0.18433
# Poissons Ratio (z) = 0.17166 0.29897
#
# Static dielectric constant tensor:
#      x y z
#    x 3.268250 0.000000 -0.102460 
#    y 0.000000 3.465850 0.000000 
#    z -0.102460 0.000000 3.165780 
# 
# 
# High freq. dielectric constant tensor:
#      x y z
#    x 1.708690 0.000000 -0.010110 
#    y 0.000000 1.736500 0.000000 
#    z -0.010110 0.000000 1.690210 
# 
# From -- ./inp_files/42658.got.cif
#   From: 2010.06.25/outbox.cif.g09.slc.cpg/sg11_22_cif.got.tgz:42658.got - 2010.06.27 23:14:04.
