data_PCOD8071430
_publ_section_title
;
Structure prediction by ZEFSAII (Michael W. Deem and Ramdas Pophale) SiO2 
 PCOD8071430
Probable space group: P 21/M
;
_chemical_formula_sum "Si O2"
_cell_formula_units_Z 32
_cell_length_a 34.552610
_cell_length_b 8.907188
_cell_length_c 13.961010
_cell_angle_alpha 90.000000
_cell_angle_beta 23.577406
_cell_angle_gamma 90.000000
_cell_volume 1718.639900
_symmetry_space_group_name_H-M "P 21/M"
_symmetry_group_IT_number 11
_symmetry_cell_setting 'monoclinic'
loop_
_space_group_symop_operation_xyz
x,y,z
-x,1/2+y,-z
-x,-y,-z
x,1/2-y,z
loop_
_atom_site_type_symbol
_atom_site_label
_atom_site_fract_x
_atom_site_fract_y
_atom_site_fract_z
Si Si1 0.104856 0.575470 0.563452
Si Si2 0.112883 0.071618 0.942416
Si Si3 0.526421 0.073848 0.840008
Si Si4 0.652788 0.576001 0.282566
Si Si5 0.292115 0.572484 0.038066
Si Si6 0.550830 0.422241 0.164431
Si Si7 0.730061 0.073544 0.287713
Si Si8 0.897069 0.074931 0.222735
O O1 0.090139 0.750000 0.581063
O O2 0.182359 0.517345 0.309876
O O3 0.152183 0.548154 0.561855
O O4 0.996999 0.506442 0.795091
O O5 0.116345 0.250000 0.930629
O O6 0.176767 0.011842 0.883979
O O7 0.157595 0.006802 0.741144
O O8 0.515448 0.250000 0.875943
O O9 0.635522 0.027656 0.563372
O O10 0.453170 0.019410 0.923408
O O11 0.500000 0.000000 0.000000
O O12 0.680685 0.750000 0.229019
O O13 0.541109 0.546958 0.559631
O O14 0.719252 0.479597 0.203061
O O15 0.670122 0.521243 0.136307
O O16 0.298303 0.750000 0.002195
O O17 0.355966 0.531526 0.985833
O O18 0.555294 0.250000 0.121534
O O19 0.748455 0.250000 0.248632
O O20 0.906174 0.250000 0.177814
O O21 0.000000 0.000000 0.000000
#
# Coordination Sequence:
#
# PCOD8071430 Si02
#       8
#     4   4   4   4   4   4   4   4
#     4   8  17  32  50  74 105 136 170 211 255 303
#     4  10  19  33  53  77 104 137 174 216 262 309
#     4  10  21  36  55  79 110 141 172 211 256 304
#     4  10  20  35  53  77 105 132 168 217 263 307
#     4  10  19  34  55  77 102 136 172 210 258 311
#     4   9  19  34  54  78 106 139 173 208 254 309
#     4  10  21  37  56  77 100 136 179 214 252 309
#     4   9  16  29  48  71 100 135 172 211 253 302
#
# _framework density 18.619374000000001
#
# number of rings (size 3 to 8) (size 9 to 14) (size 15 to 20)
#    0.000    2.500    0.000    3.000    0.000    3.500 
#    0.000    6.875    0.000    0.000    0.000    0.000 
#    0.000    0.000    0.000    0.000    0.000    0.000 
#
# Total GULP energy -396680.927278 kJ/mol
# GULP energy per Si atom -12396.278977 kJ/mol
# Density = 1.857700 g / cm^3
# Si number density = 18.619374 Si / 1000 Ang^3
#
#
#
# Elastic Constant Matrix: (Units=GPa)
#
#
# Indices 1 2 3 4 5 6 
#
# 1 101.3122 39.2441 48.3635 0.0000 0.5451 0.0000
# 2 39.2441 72.7567 33.6843 0.0000 4.4211 0.0000
# 3 48.3635 33.6843 76.0357 0.0000 7.9295 0.0000
# 4 0.0000 0.0000 0.0000 22.9892 0.0000 3.6991
# 5 0.5451 4.4211 7.9295 0.0000 29.8645 0.0000
# 6 0.0000 0.0000 0.0000 3.6991 0.0000 39.3137
#
#
#
# Elastic Compliance Matrix: (Units=1/GPa)
#
#
# Indices 1 2 3 4 5 6 
#
# 1 0.015559 -0.004834 -0.008022 0.000000 0.002562 0.000000
# 2 -0.004834 0.018801 -0.005115 0.000000 -0.001337 0.000000
# 3 -0.008022 -0.005115 0.021008 0.000000 -0.004674 0.000000
# 4 0.000000 0.000000 0.000000 0.044167 0.000000 -0.004156
# 5 0.002562 -0.001337 -0.004674 0.000000 0.034877 0.000000
# 6 0.000000 0.000000 0.000000 -0.004156 0.000000 0.025827
#
#
# Mechanical properties :
#
#
# Convention : Reuss Voigt Hill
#
# Bulk Modulus (GPa) = 51.47802 54.74318 53.11060
# Shear Modulus (GPa) = 24.67240 27.02099 25.84669
#
# Velocity S-wave (km/s) = 3.64413 3.81363 3.72985
# Velocity P-wave (km/s) = 6.73898 6.98976 6.86551
#
# Compressibility (1/GPa) = 0.01942577
#
# Stress axis : x y z
#
# Youngs Moduli (GPa) = 64.27323 53.18841 47.60181
#
# Poissons Ratio (x) = 0.25710 0.38186
# Poissons Ratio (y) = 0.31069 0.24348
# Poissons Ratio (z) = 0.51560 0.27206
#
# Static dielectric constant tensor:
#      x y z
#    x 3.575890 0.000000 0.079550 
#    y 0.000000 3.459950 0.000000 
#    z 0.079550 0.000000 3.569370 
# 
# 
# High freq. dielectric constant tensor:
#      x y z
#    x 1.725550 0.000000 0.003960 
#    y 0.000000 1.718810 0.000000 
#    z 0.003960 0.000000 1.709480 
# 
# From -- ./inp_files/45181.got.cif
#   From: 2010.06.25/outbox.cif.g09.slc.cpg/sg11_23_cif.got.tgz:45181.got - 2010.06.27 23:14:04.
