data_PCOD8071615
_publ_section_title
;
Structure prediction by ZEFSAII (Michael W. Deem and Ramdas Pophale) SiO2 
 PCOD8071615
Probable space group: P 21/M
;
_chemical_formula_sum "Si O2"
_cell_formula_units_Z 32
_cell_length_a 9.745346
_cell_length_b 14.070539
_cell_length_c 14.488101
_cell_angle_alpha 90.000000
_cell_angle_beta 126.774644
_cell_angle_gamma 90.000000
_cell_volume 1591.292514
_symmetry_space_group_name_H-M "P 21/M"
_symmetry_group_IT_number 11
_symmetry_cell_setting 'monoclinic'
loop_
_space_group_symop_operation_xyz
x,y,z
-x,1/2+y,-z
-x,-y,-z
x,1/2-y,z
loop_
_atom_site_type_symbol
_atom_site_label
_atom_site_fract_x
_atom_site_fract_y
_atom_site_fract_z
Si Si1 0.334694 0.857338 0.137383
Si Si2 0.301205 0.358739 0.647410
Si Si3 0.382345 0.519911 0.541098
Si Si4 0.849931 0.524428 0.873053
Si Si5 0.206628 0.642185 0.714309
Si Si6 0.550123 0.642540 0.763460
Si Si7 0.102882 0.862129 0.869064
Si Si8 0.923484 0.137417 0.533116
O O1 0.290361 0.750000 0.149027
O O2 0.540427 0.873375 0.217551
O O3 0.255240 0.926021 0.185332
O O4 0.253327 0.881618 0.004656
O O5 0.290323 0.250000 0.608520
O O6 0.327960 0.420956 0.566665
O O7 0.124971 0.384331 0.631662
O O8 0.500000 0.500000 0.500000
O O9 0.502119 0.582492 0.654448
O O10 0.204831 0.579618 0.449926
O O11 0.726269 0.600293 0.874142
O O12 0.930551 0.576364 0.816769
O O13 0.000000 0.500000 0.000000
O O14 0.145285 0.750000 0.694061
O O15 0.410835 0.632648 0.787692
O O16 0.159342 0.595772 0.792891
O O17 0.117388 0.597924 0.587464
O O18 0.574152 0.750000 0.741047
O O19 0.059448 0.750000 0.850687
O O20 0.881469 0.250000 0.524866
#
# Coordination Sequence:
#
# PCOD8071615 Si02
#       8
#     4   4   4   4   4   4   4   4
#     4   9  18  34  54  77 112 155 192 229 279 342
#     4  10  20  36  58  78 109 157 195 225 277 348
#     4  11  22  36  58  87 118 147 188 239 292 344
#     4  10  19  33  55  82 113 147 187 233 284 341
#     4   8  16  32  55  84 113 141 177 232 287 332
#     4  10  20  37  60  83 114 151 186 233 293 347
#     4   9  17  31  56  86 113 142 187 238 283 335
#     4   9  19  37  60  85 114 148 187 237 291 340
#
# _framework density 20.109438000000001
#
# number of rings (size 3 to 8) (size 9 to 14) (size 15 to 20)
#    0.000    2.500    1.250    1.875    0.000    2.500 
#    0.000    3.750    2.750    0.000    0.000    0.875 
#    0.000    0.000    0.000    0.000    0.000    0.000 
#
# Total GULP energy -396423.446239 kJ/mol
# GULP energy per Si atom -12388.232695 kJ/mol
# Density = 2.006367 g / cm^3
# Si number density = 20.109438 Si / 1000 Ang^3
#
#
#
# Elastic Constant Matrix: (Units=GPa)
#
#
# Indices 1 2 3 4 5 6 
#
# 1 151.7341 71.5448 55.9085 0.0000 13.2169 0.0000
# 2 71.5448 106.3069 32.9697 0.0000 5.3859 0.0000
# 3 55.9085 32.9697 50.7098 0.0000 15.6480 0.0000
# 4 0.0000 0.0000 0.0000 24.0522 0.0000 7.7965
# 5 13.2169 5.3859 15.6480 0.0000 37.0268 0.0000
# 6 0.0000 0.0000 0.0000 7.7965 0.0000 37.5279
#
#
#
# Elastic Compliance Matrix: (Units=1/GPa)
#
#
# Indices 1 2 3 4 5 6 
#
# 1 0.013268 -0.005454 -0.011345 0.000000 0.000852 0.000000
# 2 -0.005454 0.014124 -0.003607 0.000000 0.001417 0.000000
# 3 -0.011345 -0.003607 0.038135 0.000000 -0.011542 0.000000
# 4 0.000000 0.000000 0.000000 0.044578 0.000000 -0.009261
# 5 0.000852 0.001417 -0.011542 0.000000 0.031375 0.000000
# 6 0.000000 0.000000 0.000000 -0.009261 0.000000 0.028571
#
#
# Mechanical properties :
#
#
# Convention : Reuss Voigt Hill
#
# Bulk Modulus (GPa) = 40.46141 69.95520 55.20830
# Shear Modulus (GPa) = 22.82029 29.60991 26.21510
#
# Velocity S-wave (km/s) = 3.37234 3.84140 3.61449
# Velocity P-wave (km/s) = 5.94373 7.38498 6.70320
#
# Compressibility (1/GPa) = 0.02471491
#
# Stress axis : x y z
#
# Youngs Moduli (GPa) = 75.36736 70.80019 26.22249
#
# Poissons Ratio (x) = 0.38616 0.29750
# Poissons Ratio (y) = 0.41107 0.09458
# Poissons Ratio (z) = 0.85507 0.25537
#
# Static dielectric constant tensor:
#      x y z
#    x 4.137270 0.000000 0.431340 
#    y 0.000000 4.251800 0.000000 
#    z 0.431340 0.000000 3.632210 
# 
# 
# High freq. dielectric constant tensor:
#      x y z
#    x 1.782850 0.000000 0.034040 
#    y 0.000000 1.798130 0.000000 
#    z 0.034040 0.000000 1.753330 
# 
# From -- ./inp_files/47643.got.cif
#   From: 2010.06.25/outbox.cif.g09.slc.cpg/sg11_24_cif.got.tgz:47643.got - 2010.06.27 23:14:04.
