data_PCOD8071245
_publ_section_title
;
Structure prediction by ZEFSAII (Michael W. Deem and Ramdas Pophale) SiO2 
 PCOD8071245
Probable space group: P 21/M
;
_chemical_formula_sum "Si O2"
_cell_formula_units_Z 32
_cell_length_a 16.147619
_cell_length_b 9.093687
_cell_length_c 12.080710
_cell_angle_alpha 90.000000
_cell_angle_beta 92.174641
_cell_angle_gamma 90.000000
_cell_volume 1772.670703
_symmetry_space_group_name_H-M "P 21/M"
_symmetry_group_IT_number 11
_symmetry_cell_setting 'monoclinic'
loop_
_space_group_symop_operation_xyz
x,y,z
-x,1/2+y,-z
-x,-y,-z
x,1/2-y,z
loop_
_atom_site_type_symbol
_atom_site_label
_atom_site_fract_x
_atom_site_fract_y
_atom_site_fract_z
Si Si1 0.617210 0.416702 0.028747
Si Si2 0.044938 0.077995 0.902377
Si Si3 0.726211 0.421153 0.373669
Si Si4 0.211811 0.581855 0.865695
Si Si5 0.464811 0.923528 0.606033
Si Si6 0.016931 0.920535 0.339766
Si Si7 0.494504 0.580282 0.176234
Si Si8 0.129858 0.077713 0.505545
O O1 0.594329 0.250000 0.065668
O O2 0.715761 0.439546 0.040009
O O3 0.573324 0.529087 0.109258
O O4 0.588438 0.443554 0.901114
O O5 0.046915 0.250000 0.925130
O O6 0.994119 0.040363 0.788976
O O7 0.138544 0.024075 0.897278
O O8 0.000000 0.000000 0.000000
O O9 0.739929 0.250000 0.396417
O O10 0.752745 0.465277 0.251496
O O11 0.631252 0.466283 0.385798
O O12 0.780804 0.509126 0.465129
O O13 0.180090 0.750000 0.862197
O O14 0.478194 0.750000 0.598925
O O15 0.500000 0.000000 0.500000
O O16 0.515295 0.984980 0.713674
O O17 0.036256 0.750000 0.360507
O O18 0.932446 0.965443 0.398311
O O19 0.094327 0.013155 0.389160
O O20 0.507024 0.750000 0.209143
O O21 0.140581 0.250000 0.492277
#
# Coordination Sequence:
#
# PCOD8071245 Si02
#       8
#     4   4   4   4   4   4   4   4
#     4   9  18  34  55  83 115 146 186 231 278 331
#     4  11  23  39  57  82 114 148 186 228 276 333
#     4  10  20  35  57  82 112 147 185 227 277 331
#     4  10  19  35  58  83 111 147 188 230 275 326
#     4  11  23  40  58  81 114 151 190 230 280 339
#     4   9  19  35  53  78 112 146 180 222 276 329
#     4  10  19  32  55  84 114 149 187 229 279 329
#     4  10  19  32  55  85 112 138 181 232 274 322
#
# _framework density 18.051857999999999
#
# number of rings (size 3 to 8) (size 9 to 14) (size 15 to 20)
#    0.000    2.000    2.500    1.500    0.000    3.500 
#    0.000    1.250    0.000    3.000    0.000    0.000 
#    0.000    0.000    0.000    0.000    0.000    0.000 
#
# Total GULP energy -396906.074256 kJ/mol
# GULP energy per Si atom -12403.314821 kJ/mol
# Density = 1.801077 g / cm^3
# Si number density = 18.051858 Si / 1000 Ang^3
#
#
#
# Elastic Constant Matrix: (Units=GPa)
#
#
# Indices 1 2 3 4 5 6 
#
# 1 104.4896 60.2385 69.3003 0.0000 10.4726 0.0000
# 2 60.2385 91.0978 69.5134 0.0000 7.4976 0.0000
# 3 69.3003 69.5134 130.7276 0.0000 6.0452 0.0000
# 4 0.0000 0.0000 0.0000 34.1201 0.0000 1.6871
# 5 10.4726 7.4976 6.0452 0.0000 30.7054 0.0000
# 6 0.0000 0.0000 0.0000 1.6871 0.0000 32.3572
#
#
#
# Elastic Compliance Matrix: (Units=1/GPa)
#
#
# Indices 1 2 3 4 5 6 
#
# 1 0.017645 -0.007372 -0.005287 0.000000 -0.003177 0.000000
# 2 -0.007372 0.021761 -0.007603 0.000000 -0.001302 0.000000
# 3 -0.005287 -0.007603 0.014457 0.000000 0.000813 0.000000
# 4 0.000000 0.000000 0.000000 0.029384 0.000000 -0.001532
# 5 -0.003177 -0.001302 0.000813 0.000000 0.033809 0.000000
# 6 0.000000 0.000000 0.000000 -0.001532 0.000000 0.030985
#
#
# Mechanical properties :
#
#
# Convention : Reuss Voigt Hill
#
# Bulk Modulus (GPa) = 74.96581 80.49104 77.72842
# Shear Modulus (GPa) = 25.90520 27.92073 26.91296
#
# Velocity S-wave (km/s) = 3.79231 3.93707 3.86537
# Velocity P-wave (km/s) = 7.79703 8.08412 7.94187
#
# Compressibility (1/GPa) = 0.01333941
#
# Stress axis : x y z
#
# Youngs Moduli (GPa) = 56.67223 45.95453 69.16930
#
# Poissons Ratio (x) = 0.33879 0.36570
# Poissons Ratio (y) = 0.41780 0.52588
# Poissons Ratio (z) = 0.29962 0.34938
#
# Static dielectric constant tensor:
#      x y z
#    x 3.068820 0.000000 0.316270 
#    y 0.000000 3.403840 0.000000 
#    z 0.316270 0.000000 3.320320 
# 
# 
# High freq. dielectric constant tensor:
#      x y z
#    x 1.688190 0.000000 0.023000 
#    y 0.000000 1.706790 0.000000 
#    z 0.023000 0.000000 1.693230 
# 
# From -- ./inp_files/38249.got.cif
#   From: 2010.06.25/outbox.cif.g09.slc.cpg/sg11_20_cif.got.tgz:38249.got - 2010.06.27 23:14:04.
