data_PCOD8071442
_publ_section_title
;
Structure prediction by ZEFSAII (Michael W. Deem and Ramdas Pophale) SiO2 
 PCOD8071442
Probable space group: P 21/M
;
_chemical_formula_sum "Si O2"
_cell_formula_units_Z 28
_cell_length_a 30.639172
_cell_length_b 9.647800
_cell_length_c 10.174405
_cell_angle_alpha 90.000000
_cell_angle_beta 32.616600
_cell_angle_gamma 90.000000
_cell_volume 1621.119617
_symmetry_space_group_name_H-M "P 21/M"
_symmetry_group_IT_number 11
_symmetry_cell_setting 'monoclinic'
loop_
_space_group_symop_operation_xyz
x,y,z
-x,1/2+y,-z
-x,-y,-z
x,1/2-y,z
loop_
_atom_site_type_symbol
_atom_site_label
_atom_site_fract_x
_atom_site_fract_y
_atom_site_fract_z
Si Si1 0.320232 0.088184 0.190830
Si Si2 0.335406 0.909878 0.673309
Si Si3 0.096530 0.091820 0.144862
Si Si4 0.266731 0.089632 0.612962
Si Si5 0.761477 0.409854 0.820517
Si Si6 0.505981 0.908694 0.356326
Si Si7 0.082480 0.908507 0.429172
O O1 0.301206 0.250000 0.219890
O O2 0.300496 0.038981 0.387957
O O3 0.413720 0.052581 0.927728
O O4 0.262910 0.004445 0.238690
O O5 0.316499 0.750000 0.688685
O O6 0.288225 0.955518 0.924369
O O7 0.430611 0.936415 0.452007
O O8 0.308645 0.002189 0.619900
O O9 0.096270 0.250000 0.194490
O O10 0.010233 0.055287 0.295036
O O11 0.111785 0.999221 0.233153
O O12 0.169525 0.065510 0.858206
O O13 0.288081 0.250000 0.583952
O O14 0.742688 0.250000 0.834012
O O15 0.857366 0.435094 0.601536
O O16 0.507241 0.750000 0.400604
O O17 0.500000 0.000000 0.500000
O O18 0.090271 0.750000 0.362830
#
# Coordination Sequence:
#
# PCOD8071442 Si02
#       7
#     4   4   4   4   4   4   4
#     4  10  22  37  53  74 105 139 170 208 254 305
#     4  10  20  34  54  78 103 132 170 214 254 299
#     4   9  17  30  50  74 102 134 166 205 251 298
#     4  10  21  36  52  76 107 138 170 205 253 308
#     4  10  19  33  53  78 104 132 171 213 253 300
#     4  10  20  35  54  76 102 132 170 213 254 297
#     4   9  17  30  50  76 102 129 167 212 251 292
#
# _framework density 17.272013000000001
#
# number of rings (size 3 to 8) (size 9 to 14) (size 15 to 20)
#    0.000    2.286    2.857    0.000    0.000    2.857 
#    0.000    0.714    0.000    0.000    0.000    0.000 
#    0.000    0.000    0.000    0.000    0.000    0.000 
#
# Total GULP energy -347199.126099 kJ/mol
# GULP energy per Si atom -12399.968789 kJ/mol
# Density = 1.723270 g / cm^3
# Si number density = 17.272013 Si / 1000 Ang^3
#
#
#
# Elastic Constant Matrix: (Units=GPa)
#
#
# Indices 1 2 3 4 5 6 
#
# 1 111.6584 54.6633 62.0844 0.0000 2.4937 0.0000
# 2 54.6633 60.3612 45.0799 0.0000 7.1116 0.0000
# 3 62.0844 45.0799 116.1714 0.0000 2.5692 0.0000
# 4 0.0000 0.0000 0.0000 20.1076 0.0000 0.8299
# 5 2.4937 7.1116 2.5692 0.0000 30.3476 0.0000
# 6 0.0000 0.0000 0.0000 0.8299 0.0000 36.0151
#
#
#
# Elastic Compliance Matrix: (Units=1/GPa)
#
#
# Indices 1 2 3 4 5 6 
#
# 1 0.017756 -0.012941 -0.004510 0.000000 0.001956 0.000000
# 2 -0.012941 0.033452 -0.005926 0.000000 -0.006274 0.000000
# 3 -0.004510 -0.005926 0.013304 0.000000 0.000633 0.000000
# 4 0.000000 0.000000 0.000000 0.049780 0.000000 -0.001147
# 5 0.001956 -0.006274 0.000633 0.000000 0.034207 0.000000
# 6 0.000000 0.000000 0.000000 -0.001147 0.000000 0.027793
#
#
# Mechanical properties :
#
#
# Convention : Reuss Voigt Hill
#
# Bulk Modulus (GPa) = 56.31955 67.98290 62.15122
# Shear Modulus (GPa) = 21.83742 25.71829 23.77785
#
# Velocity S-wave (km/s) = 3.55959 3.86296 3.71437
# Velocity P-wave (km/s) = 7.04077 7.70339 7.37952
#
# Compressibility (1/GPa) = 0.01775582
#
# Stress axis : x y z
#
# Youngs Moduli (GPa) = 56.31997 29.89399 75.16600
#
# Poissons Ratio (x) = 0.38687 0.33903
# Poissons Ratio (y) = 0.72886 0.44542
# Poissons Ratio (z) = 0.25402 0.17715
#
# Static dielectric constant tensor:
#      x y z
#    x 3.163070 0.000000 -0.291280 
#    y 0.000000 3.242720 0.000000 
#    z -0.291280 0.000000 3.426140 
# 
# 
# High freq. dielectric constant tensor:
#      x y z
#    x 1.658110 0.000000 -0.023950 
#    y 0.000000 1.668270 0.000000 
#    z -0.023950 0.000000 1.667710 
# 
# From -- ./inp_files/28249.got.cif
#   From: 2010.06.25/outbox.cif.g09.slc.cpg/sg11_15_cif.got.tgz:28249.got - 2010.06.27 23:14:04.
