data_PCOD8071113
_publ_section_title
;
Structure prediction by ZEFSAII (Michael W. Deem and Ramdas Pophale) SiO2 
 PCOD8071113
Probable space group: P 21/M
;
_chemical_formula_sum "Si O2"
_cell_formula_units_Z 28
_cell_length_a 23.177417
_cell_length_b 8.792659
_cell_length_c 17.628099
_cell_angle_alpha 90.000000
_cell_angle_beta 155.619565
_cell_angle_gamma 90.000000
_cell_volume 1482.939809
_symmetry_space_group_name_H-M "P 21/M"
_symmetry_group_IT_number 11
_symmetry_cell_setting 'monoclinic'
loop_
_space_group_symop_operation_xyz
x,y,z
-x,1/2+y,-z
-x,-y,-z
x,1/2-y,z
loop_
_atom_site_type_symbol
_atom_site_label
_atom_site_fract_x
_atom_site_fract_y
_atom_site_fract_z
Si Si1 0.903122 0.427793 0.057622
Si Si2 0.142357 0.426207 0.144635
Si Si3 0.875105 0.930372 0.183165
Si Si4 0.692587 0.429888 0.091047
Si Si5 0.605790 0.071228 0.267250
Si Si6 0.777003 0.924250 0.597108
Si Si7 0.174556 0.569901 0.594355
O O1 0.877715 0.250000 0.035188
O O2 0.848544 0.510118 0.067108
O O3 0.065283 0.468508 0.237691
O O4 0.809360 0.489995 0.874783
O O5 0.117610 0.250000 0.097170
O O6 0.248252 0.446892 0.342509
O O7 0.000000 0.500000 0.000000
O O8 0.874349 0.750000 0.181860
O O9 0.022069 0.996009 0.391130
O O10 0.749850 0.989999 0.084777
O O11 0.701308 0.250000 0.091709
O O12 0.782884 0.486954 0.271195
O O13 0.534349 0.478689 0.914925
O O14 0.575918 0.250000 0.225292
O O15 0.713857 0.010873 0.333364
O O16 0.669044 0.034031 0.425489
O O17 0.747216 0.750000 0.538547
O O18 0.171364 0.750000 0.587273
#
# Coordination Sequence:
#
# PCOD8071113 Si02
#       7
#     4   4   4   4   4   4   4
#     4  10  19  32  52  81 112 144 183 223 274 328
#     4   9  17  29  48  77 112 144 179 224 273 322
#     4  11  21  37  58  82 111 145 185 230 277 328
#     4  11  23  39  55  78 112 148 185 229 278 330
#     4  11  21  36  57  82 110 145 186 228 276 328
#     4   9  18  32  51  79 111 143 180 222 271 322
#     4   9  20  37  58  82 108 140 185 234 279 325
#
# _framework density 18.881413999999999
#
# number of rings (size 3 to 8) (size 9 to 14) (size 15 to 20)
#    0.000    2.000    1.429    3.857    0.000    2.857 
#    0.000    4.286    0.000    0.857    0.000    0.000 
#    0.000    0.000    0.000    0.000    0.000    0.000 
#
# Total GULP energy -347210.397767 kJ/mol
# GULP energy per Si atom -12400.371349 kJ/mol
# Density = 1.883844 g / cm^3
# Si number density = 18.881414 Si / 1000 Ang^3
#
#
#
# Elastic Constant Matrix: (Units=GPa)
#
#
# Indices 1 2 3 4 5 6 
#
# 1 97.2713 31.1459 29.5099 0.0000 -18.0611 0.0000
# 2 31.1459 75.8574 20.7339 0.0000 -10.7358 0.0000
# 3 29.5099 20.7339 32.5114 0.0000 -13.6979 0.0000
# 4 0.0000 0.0000 0.0000 27.9356 0.0000 -2.5158
# 5 -18.0611 -10.7358 -13.6979 0.0000 33.9434 0.0000
# 6 0.0000 0.0000 0.0000 -2.5158 0.0000 28.0100
#
#
#
# Elastic Compliance Matrix: (Units=1/GPa)
#
#
# Indices 1 2 3 4 5 6 
#
# 1 0.014906 -0.002845 -0.010546 0.000000 0.002776 0.000000
# 2 -0.002845 0.016545 -0.007714 0.000000 0.000606 0.000000
# 3 -0.010546 -0.007714 0.050433 0.000000 0.012301 0.000000
# 4 0.000000 0.000000 0.000000 0.036089 0.000000 0.003241
# 5 0.002776 0.000606 0.012301 0.000000 0.036094 0.000000
# 6 0.000000 0.000000 0.000000 0.003241 0.000000 0.035993
#
#
# Mechanical properties :
#
#
# Convention : Reuss Voigt Hill
#
# Bulk Modulus (GPa) = 25.20500 40.93549 33.07025
# Shear Modulus (GPa) = 20.36709 26.26117 23.31413
#
# Velocity S-wave (km/s) = 3.28790 3.73345 3.51774
# Velocity P-wave (km/s) = 5.27179 6.34919 5.83541
#
# Compressibility (1/GPa) = 0.03967466
#
# Stress axis : x y z
#
# Youngs Moduli (GPa) = 67.08539 60.44178 19.82816
#
# Poissons Ratio (x) = 0.17195 0.20912
# Poissons Ratio (y) = 0.19085 0.15295
# Poissons Ratio (z) = 0.70751 0.46623
#
# Static dielectric constant tensor:
#      x y z
#    x 3.555100 0.000000 -0.374910 
#    y 0.000000 3.402820 0.000000 
#    z -0.374910 0.000000 3.531140 
# 
# 
# High freq. dielectric constant tensor:
#      x y z
#    x 1.729730 0.000000 -0.028520 
#    y 0.000000 1.733230 0.000000 
#    z -0.028520 0.000000 1.718580 
# 
# From -- ./inp_files/54620.got.cif
#   From: 2010.06.25/outbox.cif.g09.slc.cpg/sg11_28_cif.got.tgz:54620.got - 2010.06.27 23:14:04.
