data_PCOD8071012
_publ_section_title
;
Structure prediction by ZEFSAII (Michael W. Deem and Ramdas Pophale) SiO2 
 PCOD8071012
Probable space group: P 21/M
;
_chemical_formula_sum "Si O2"
_cell_formula_units_Z 32
_cell_length_a 25.410711
_cell_length_b 9.726281
_cell_length_c 14.759978
_cell_angle_alpha 90.000000
_cell_angle_beta 27.727073
_cell_angle_gamma 90.000000
_cell_volume 1697.248315
_symmetry_space_group_name_H-M "P 21/M"
_symmetry_group_IT_number 11
_symmetry_cell_setting 'monoclinic'
loop_
_space_group_symop_operation_xyz
x,y,z
-x,1/2+y,-z
-x,-y,-z
x,1/2-y,z
loop_
_atom_site_type_symbol
_atom_site_label
_atom_site_fract_x
_atom_site_fract_y
_atom_site_fract_z
Si Si1 0.090759 0.910965 0.413685
Si Si2 0.330450 0.598062 0.548957
Si Si3 0.149971 0.907434 0.521755
Si Si4 0.652901 0.896603 0.766858
Si Si5 0.484388 0.416740 0.432493
Si Si6 0.666470 0.093780 0.011850
Si Si7 0.903876 0.088906 0.193275
Si Si8 0.512903 0.478410 0.838764
O O1 0.076595 0.750000 0.411118
O O2 0.072074 0.930235 0.551320
O O3 0.211421 0.974333 0.195102
O O4 0.000000 0.000000 0.500000
O O5 0.317582 0.750000 0.614974
O O6 0.371410 0.478962 0.556207
O O7 0.213615 0.554353 0.678421
O O8 0.428535 0.617529 0.324840
O O9 0.186321 0.750000 0.475646
O O10 0.096997 0.955314 0.698615
O O11 0.263696 0.987443 0.325860
O O12 0.716197 0.750000 0.671791
O O13 0.611115 0.924671 0.728893
O O14 0.542432 0.885549 0.999108
O O15 0.500000 0.500000 0.500000
O O16 0.470428 0.250000 0.464924
O O17 0.599173 0.456940 0.203569
O O18 0.697021 0.250000 0.977974
O O19 0.584066 0.075255 0.053109
O O20 0.932815 0.250000 0.140580
O O21 0.000000 0.000000 0.000000
#
# Coordination Sequence:
#
# PCOD8071012 Si02
#       8
#     4   4   4   4   4   4   4   4
#     4  10  21  40  62  83 112 151 193 242 291 343
#     4  10  20  37  60  84 115 152 189 235 293 346
#     4  10  21  40  62  82 116 158 192 233 296 357
#     4  11  21  29  51  89 122 149 182 223 267 336
#     4  10  21  38  60  87 118 153 195 239 288 347
#     4   9  18  35  58  81 111 150 186 227 284 343
#     4  10  22  41  62  85 114 154 198 244 295 350
#     4  10  19  32  51  83 122 151 180 216 283 343
#
# _framework density 18.854047999999999
#
# number of rings (size 3 to 8) (size 9 to 14) (size 15 to 20)
#    0.000    2.000    2.500    1.125    0.000    4.000 
#    2.250    1.250    0.000    0.000    0.000    0.000 
#    0.000    0.000    0.000    0.000    0.000    0.000 
#
# Total GULP energy -396431.610712 kJ/mol
# GULP energy per Si atom -12388.487835 kJ/mol
# Density = 1.881114 g / cm^3
# Si number density = 18.854048 Si / 1000 Ang^3
#
#
#
# Elastic Constant Matrix: (Units=GPa)
#
#
# Indices 1 2 3 4 5 6 
#
# 1 133.4734 63.0916 52.7671 0.0000 -5.1287 0.0000
# 2 63.0916 83.0692 47.8869 0.0000 6.0936 0.0000
# 3 52.7671 47.8869 90.5498 0.0000 -8.0071 0.0000
# 4 0.0000 0.0000 0.0000 26.5873 0.0000 -4.8006
# 5 -5.1287 6.0936 -8.0071 0.0000 24.5196 0.0000
# 6 0.0000 0.0000 0.0000 -4.8006 0.0000 26.3814
#
#
#
# Elastic Compliance Matrix: (Units=1/GPa)
#
#
# Indices 1 2 3 4 5 6 
#
# 1 0.012625 -0.008388 -0.002578 0.000000 0.003883 0.000000
# 2 -0.008388 0.024347 -0.008936 0.000000 -0.010723 0.000000
# 3 -0.002578 -0.008936 0.017938 0.000000 0.007540 0.000000
# 4 0.000000 0.000000 0.000000 0.038890 0.000000 0.007077
# 5 0.003883 -0.010723 0.007540 0.000000 0.046723 0.000000
# 6 0.000000 0.000000 0.000000 0.007077 0.000000 0.039193
#
#
# Mechanical properties :
#
#
# Convention : Reuss Voigt Hill
#
# Bulk Modulus (GPa) = 66.19510 70.50928 68.35219
# Shear Modulus (GPa) = 22.26619 25.05411 23.66015
#
# Velocity S-wave (km/s) = 3.44026 3.64929 3.54631
# Velocity P-wave (km/s) = 7.13905 7.43203 7.28701
#
# Compressibility (1/GPa) = 0.01510686
#
# Stress axis : x y z
#
# Youngs Moduli (GPa) = 79.20565 41.07350 55.74612
#
# Poissons Ratio (x) = 0.34451 0.14372
# Poissons Ratio (y) = 0.66435 0.49815
# Poissons Ratio (z) = 0.20420 0.36703
#
# Static dielectric constant tensor:
#      x y z
#    x 3.517080 0.000000 0.171830 
#    y 0.000000 3.462720 0.000000 
#    z 0.171830 0.000000 3.714790 
# 
# 
# High freq. dielectric constant tensor:
#      x y z
#    x 1.732120 0.000000 0.006840 
#    y 0.000000 1.726340 0.000000 
#    z 0.006840 0.000000 1.718270 
# 
# From -- ./inp_files/55604.got.cif
#   From: 2010.06.25/outbox.cif.g09.slc.cpg/sg11_28_cif.got.tgz:55604.got - 2010.06.27 23:14:04.
