data_PCOD8071099
_publ_section_title
;
Structure prediction by ZEFSAII (Michael W. Deem and Ramdas Pophale) SiO2 
 PCOD8071099
Probable space group: P 21/M
;
_chemical_formula_sum "Si O2"
_cell_formula_units_Z 32
_cell_length_a 15.714615
_cell_length_b 13.132152
_cell_length_c 9.285176
_cell_angle_alpha 90.000000
_cell_angle_beta 61.290662
_cell_angle_gamma 90.000000
_cell_volume 1680.594725
_symmetry_space_group_name_H-M "P 21/M"
_symmetry_group_IT_number 11
_symmetry_cell_setting 'monoclinic'
loop_
_space_group_symop_operation_xyz
x,y,z
-x,1/2+y,-z
-x,-y,-z
x,1/2-y,z
loop_
_atom_site_type_symbol
_atom_site_label
_atom_site_fract_x
_atom_site_fract_y
_atom_site_fract_z
Si Si1 0.751149 0.865813 0.808134
Si Si2 0.762092 0.003445 0.062185
Si Si3 0.625389 0.937990 0.659178
Si Si4 0.411616 0.632784 0.850866
Si Si5 0.218477 0.369855 0.679918
Si Si6 0.084986 0.129765 0.528266
Si Si7 0.872684 0.368781 0.763435
Si Si8 0.675495 0.363837 0.767445
O O1 0.764836 0.750000 0.843968
O O2 0.664422 0.873698 0.763363
O O3 0.850842 0.912808 0.657514
O O4 0.722429 0.928252 0.971211
O O5 0.799288 0.937394 0.164778
O O6 0.672151 0.077232 0.174327
O O7 0.851560 0.070545 0.928582
O O8 0.512182 0.920064 0.730604
O O9 0.677834 0.898762 0.472639
O O10 0.643510 0.058325 0.669507
O O11 0.413186 0.750000 0.802249
O O12 0.390552 0.622210 0.037836
O O13 0.215782 0.250000 0.720451
O O14 0.133055 0.402420 0.640441
O O15 0.092605 0.250000 0.508860
O O16 0.973826 0.092168 0.611472
O O17 0.880262 0.250000 0.798945
O O18 0.787107 0.386948 0.718221
O O19 0.664701 0.250000 0.713670
#
# Coordination Sequence:
#
# PCOD8071099 Si02
#       8
#     4   4   4   4   4   4   4   4
#     4  10  19  32  52  80 105 137 184 223 261 314
#     4  11  21  34  52  79 108 142 176 224 270 315
#     4  11  19  37  56  78 103 146 181 214 268 324
#     4  10  20  35  57  81 108 138 178 222 267 322
#     4  10  22  38  53  75 110 144 178 223 269 313
#     4   8  17  34  56  77 104 143 180 217 264 319
#     4   9  17  34  57  79 108 142 177 219 269 319
#     4   9  18  32  53  85 112 132 170 229 274 307
#
# _framework density 19.040879
#
# number of rings (size 3 to 8) (size 9 to 14) (size 15 to 20)
#    0.000    2.250    2.500    3.750    0.000    1.500 
#    0.000    1.875    0.000    0.000    0.000    0.000 
#    0.000    0.000    0.000    0.000    0.000    0.000 
#
# Total GULP energy -396768.976192 kJ/mol
# GULP energy per Si atom -12399.030506 kJ/mol
# Density = 1.899754 g / cm^3
# Si number density = 19.040879 Si / 1000 Ang^3
#
#
#
# Elastic Constant Matrix: (Units=GPa)
#
#
# Indices 1 2 3 4 5 6 
#
# 1 58.6404 22.7357 24.6295 0.0000 -23.9803 0.0000
# 2 22.7357 107.0160 22.3861 0.0000 -1.9130 0.0000
# 3 24.6295 22.3861 44.3311 0.0000 -5.8652 0.0000
# 4 0.0000 0.0000 0.0000 26.4746 0.0000 -0.1004
# 5 -23.9803 -1.9130 -5.8652 0.0000 33.6752 0.0000
# 6 0.0000 0.0000 0.0000 -0.1004 0.0000 29.7206
#
#
#
# Elastic Compliance Matrix: (Units=1/GPa)
#
#
# Indices 1 2 3 4 5 6 
#
# 1 0.032627 -0.003737 -0.013505 0.000000 0.020669 0.000000
# 2 -0.003737 0.010880 -0.003775 0.000000 -0.002701 0.000000
# 3 -0.013505 -0.003775 0.031389 0.000000 -0.004364 0.000000
# 4 0.000000 0.000000 0.000000 0.037773 0.000000 0.000128
# 5 0.020669 -0.002701 -0.004364 0.000000 0.043501 0.000000
# 6 0.000000 0.000000 0.000000 0.000128 0.000000 0.033647
#
#
# Mechanical properties :
#
#
# Convention : Reuss Voigt Hill
#
# Bulk Modulus (GPa) = 30.43056 38.83225 34.63140
# Shear Modulus (GPa) = 20.59274 27.32314 23.95794
#
# Velocity S-wave (km/s) = 3.29219 3.79221 3.55101
# Velocity P-wave (km/s) = 5.51976 6.29388 5.91949
#
# Compressibility (1/GPa) = 0.03286170
#
# Stress axis : x y z
#
# Youngs Moduli (GPa) = 30.64990 91.91381 31.85779
#
# Poissons Ratio (x) = 0.34349 0.43024
# Poissons Ratio (y) = 0.11454 0.12027
# Poissons Ratio (z) = 0.41392 0.34698
#
# Static dielectric constant tensor:
#      x y z
#    x 3.322100 0.000000 -0.295250 
#    y 0.000000 3.678510 0.000000 
#    z -0.295250 0.000000 3.363920 
# 
# 
# High freq. dielectric constant tensor:
#      x y z
#    x 1.717450 0.000000 -0.025580 
#    y 0.000000 1.758840 0.000000 
#    z -0.025580 0.000000 1.719130 
# 
# From -- ./inp_files/22154.got.cif
#   From: 2010.06.25/outbox.cif.g09.slc.cpg/sg11_12_cif.got.tgz:22154.got - 2010.06.27 23:14:04.
