data_PCOD8071097
_publ_section_title
;
Structure prediction by ZEFSAII (Michael W. Deem and Ramdas Pophale) SiO2 
 PCOD8071097
Probable space group: P 21/M
;
_chemical_formula_sum "Si O2"
_cell_formula_units_Z 28
_cell_length_a 19.570079
_cell_length_b 9.656106
_cell_length_c 13.305616
_cell_angle_alpha 90.000000
_cell_angle_beta 144.588982
_cell_angle_gamma 90.000000
_cell_volume 1456.922651
_symmetry_space_group_name_H-M "P 21/M"
_symmetry_group_IT_number 11
_symmetry_cell_setting 'monoclinic'
loop_
_space_group_symop_operation_xyz
x,y,z
-x,1/2+y,-z
-x,-y,-z
x,1/2-y,z
loop_
_atom_site_type_symbol
_atom_site_label
_atom_site_fract_x
_atom_site_fract_y
_atom_site_fract_z
Si Si1 0.109354 0.910752 0.594548
Si Si2 0.217128 0.406190 0.058517
Si Si3 0.690338 0.089634 0.009301
Si Si4 0.981869 0.410607 0.879434
Si Si5 0.408228 0.093170 0.447259
Si Si6 0.577589 0.588972 0.307532
Si Si7 0.216541 0.910462 0.512014
O O1 0.075841 0.750000 0.566617
O O2 0.224191 0.949483 0.797159
O O3 0.137335 0.948483 0.513293
O O4 0.000000 0.000000 0.500000
O O5 0.227673 0.250000 0.028915
O O6 0.281745 0.419947 0.243165
O O7 0.274864 0.507085 0.047948
O O8 0.081900 0.446073 0.916918
O O9 0.698823 0.250000 0.989951
O O10 0.557146 0.052779 0.882707
O O11 0.989999 0.250000 0.920500
O O12 0.857754 0.444717 0.677518
O O13 0.000000 0.500000 0.000000
O O14 0.456454 0.250000 0.502595
O O15 0.396957 0.042904 0.547791
O O16 0.500000 0.000000 0.500000
O O17 0.605690 0.750000 0.323831
O O18 0.664347 0.500065 0.341732
O O19 0.253169 0.750000 0.560038
#
# Coordination Sequence:
#
# PCOD8071097 Si02
#       7
#     4   4   4   4   4   4   4
#     4  10  22  41  63  86 112 144 186 233 283 337
#     4  10  20  34  55  82 112 148 188 230 277 332
#     4  10  21  37  58  84 112 144 185 233 280 328
#     4  10  21  37  56  80 111 146 185 229 277 330
#     4  10  19  32  52  79 113 150 185 224 272 327
#     4  10  21  37  56  82 116 150 187 230 276 331
#     4  10  22  39  58  82 114 150 186 230 280 333
#
# _framework density 19.218589999999999
#
# number of rings (size 3 to 8) (size 9 to 14) (size 15 to 20)
#    0.000    2.000    1.429    1.714    0.000    6.286 
#    0.000    0.000    0.000    0.000    0.000    0.000 
#    0.000    0.000    0.000    0.000    0.000    0.000 
#
# Total GULP energy -347279.833853 kJ/mol
# GULP energy per Si atom -12402.851209 kJ/mol
# Density = 1.917485 g / cm^3
# Si number density = 19.218590 Si / 1000 Ang^3
#
#
#
# Elastic Constant Matrix: (Units=GPa)
#
#
# Indices 1 2 3 4 5 6 
#
# 1 108.4106 65.7581 55.7555 0.0000 10.9155 0.0000
# 2 65.7581 77.4567 54.0274 0.0000 12.5784 0.0000
# 3 55.7555 54.0274 118.2956 0.0000 9.9928 0.0000
# 4 0.0000 0.0000 0.0000 29.7708 0.0000 6.4751
# 5 10.9155 12.5784 9.9928 0.0000 36.0613 0.0000
# 6 0.0000 0.0000 0.0000 6.4751 0.0000 37.2154
#
#
#
# Elastic Compliance Matrix: (Units=1/GPa)
#
#
# Indices 1 2 3 4 5 6 
#
# 1 0.019466 -0.014853 -0.002387 0.000000 -0.000050 0.000000
# 2 -0.014853 0.030957 -0.006764 0.000000 -0.004428 0.000000
# 3 -0.002387 -0.006764 0.012705 0.000000 -0.000439 0.000000
# 4 0.000000 0.000000 0.000000 0.034911 0.000000 -0.006074
# 5 -0.000050 -0.004428 -0.000439 0.000000 0.029412 0.000000
# 6 0.000000 0.000000 0.000000 -0.006074 0.000000 0.027927
#
#
# Mechanical properties :
#
#
# Convention : Reuss Voigt Hill
#
# Bulk Modulus (GPa) = 66.13759 72.80498 69.47128
# Shear Modulus (GPa) = 23.98926 29.18428 26.58677
#
# Velocity S-wave (km/s) = 3.53687 3.90108 3.72343
# Velocity P-wave (km/s) = 7.15313 7.63256 7.39673
#
# Compressibility (1/GPa) = 0.01511999
#
# Stress axis : x y z
#
# Youngs Moduli (GPa) = 51.37107 32.30266 78.71061
#
# Poissons Ratio (x) = 0.47979 0.18789
# Poissons Ratio (y) = 0.76301 0.53240
# Poissons Ratio (z) = 0.12263 0.21850
#
# Static dielectric constant tensor:
#      x y z
#    x 3.581860 0.000000 -0.144790 
#    y 0.000000 3.439050 0.000000 
#    z -0.144790 0.000000 3.858450 
# 
# 
# High freq. dielectric constant tensor:
#      x y z
#    x 1.740170 0.000000 0.002750 
#    y 0.000000 1.742290 0.000000 
#    z 0.002750 0.000000 1.762380 
# 
# From -- ./inp_files/54619.got.cif
#   From: 2010.06.25/outbox.cif.g09.slc.cpg/sg11_28_cif.got.tgz:54619.got - 2010.06.27 23:14:04.
