data_PCOD8071404
_publ_section_title
;
Structure prediction by ZEFSAII (Michael W. Deem and Ramdas Pophale) SiO2 
 PCOD8071404
Probable space group: P 21/M
;
_chemical_formula_sum "Si O2"
_cell_formula_units_Z 32
_cell_length_a 9.440843
_cell_length_b 8.942093
_cell_length_c 23.418165
_cell_angle_alpha 90.000000
_cell_angle_beta 116.798874
_cell_angle_gamma 90.000000
_cell_volume 1764.644037
_symmetry_space_group_name_H-M "P 21/M"
_symmetry_group_IT_number 11
_symmetry_cell_setting 'monoclinic'
loop_
_space_group_symop_operation_xyz
x,y,z
-x,1/2+y,-z
-x,-y,-z
x,1/2-y,z
loop_
_atom_site_type_symbol
_atom_site_label
_atom_site_fract_x
_atom_site_fract_y
_atom_site_fract_z
Si Si1 0.384091 0.579762 0.850046
Si Si2 0.140421 0.576028 0.902130
Si Si3 0.981933 0.578053 0.555827
Si Si4 0.282114 0.075071 0.036896
Si Si5 0.637841 0.926615 0.488419
Si Si6 0.827994 0.075306 0.872353
Si Si7 0.326259 0.574431 0.628212
Si Si8 0.513431 0.576945 0.239473
O O1 0.396177 0.750000 0.830421
O O2 0.226228 0.551830 0.857360
O O3 0.533963 0.541735 0.917262
O O4 0.377556 0.474109 0.793644
O O5 0.123538 0.750000 0.914161
O O6 0.969893 0.499990 0.863157
O O7 0.242828 0.496937 0.969396
O O8 0.975835 0.750000 0.539681
O O9 0.808895 0.534853 0.550759
O O10 0.000000 0.500000 0.500000
O O11 0.145541 0.541980 0.619739
O O12 0.242843 0.250000 0.027998
O O13 0.174526 0.999283 0.065826
O O14 0.607572 0.750000 0.479929
O O15 0.500000 0.000000 0.500000
O O16 0.638275 0.991237 0.424585
O O17 0.859401 0.250000 0.886029
O O18 0.668795 0.042918 0.808391
O O19 0.353675 0.750000 0.623468
O O20 0.448314 0.515567 0.697126
O O21 0.545746 0.750000 0.257085
#
# Coordination Sequence:
#
# PCOD8071404 Si02
#       8
#     4   4   4   4   4   4   4   4
#     4   9  20  36  53  74 100 131 167 210 257 306
#     4  11  21  33  51  76 103 130 165 210 261 311
#     4   8  16  30  50  76 104 134 167 204 243 287
#     4  10  19  33  53  75 100 131 167 207 257 313
#     4  10  19  33  53  81 115 143 171 208 252 297
#     4  10  21  36  52  72 101 135 171 211 256 307
#     4  10  19  34  57  80 103 136 175 211 252 302
#     4  10  21  37  56  76  99 132 174 215 254 301
#
# _framework density 18.133967999999999
#
# number of rings (size 3 to 8) (size 9 to 14) (size 15 to 20)
#    0.000    2.250    0.000    3.000    0.000    4.000 
#    0.000    1.250    0.000    1.500    0.000    0.000 
#    0.000    0.000    0.000    0.000    0.000    0.000 
#
# Total GULP energy -396655.869297 kJ/mol
# GULP energy per Si atom -12395.495916 kJ/mol
# Density = 1.809269 g / cm^3
# Si number density = 18.133968 Si / 1000 Ang^3
#
#
#
# Elastic Constant Matrix: (Units=GPa)
#
#
# Indices 1 2 3 4 5 6 
#
# 1 125.6442 55.5606 37.0388 0.0000 0.5009 0.0000
# 2 55.5606 98.9410 41.7474 0.0000 -0.1518 0.0000
# 3 37.0388 41.7474 76.8720 0.0000 -2.3375 0.0000
# 4 0.0000 0.0000 0.0000 31.0618 0.0000 -1.9195
# 5 0.5009 -0.1518 -2.3375 0.0000 14.4479 0.0000
# 6 0.0000 0.0000 0.0000 -1.9195 0.0000 31.2401
#
#
#
# Elastic Compliance Matrix: (Units=1/GPa)
#
#
# Indices 1 2 3 4 5 6 
#
# 1 0.010960 -0.005081 -0.002547 0.000000 -0.000845 0.000000
# 2 -0.005081 0.015482 -0.005979 0.000000 -0.000628 0.000000
# 3 -0.002547 -0.005979 0.017570 0.000000 0.002868 0.000000
# 4 0.000000 0.000000 0.000000 0.032317 0.000000 0.001986
# 5 -0.000845 -0.000628 0.002868 0.000000 0.069701 0.000000
# 6 0.000000 0.000000 0.000000 0.001986 0.000000 0.032132
#
#
# Mechanical properties :
#
#
# Convention : Reuss Voigt Hill
#
# Bulk Modulus (GPa) = 59.53073 63.35008 61.44041
# Shear Modulus (GPa) = 23.69940 26.49066 25.09503
#
# Velocity S-wave (km/s) = 3.61904 3.82623 3.72407
# Velocity P-wave (km/s) = 7.09668 7.38447 7.24200
#
# Compressibility (1/GPa) = 0.01679805
#
# Stress axis : x y z
#
# Youngs Moduli (GPa) = 91.23928 64.59029 56.91506
#
# Poissons Ratio (x) = 0.32820 0.14497
# Poissons Ratio (y) = 0.46362 0.34029
# Poissons Ratio (z) = 0.23239 0.38617
#
# Static dielectric constant tensor:
#      x y z
#    x 3.587200 0.000000 0.333280 
#    y 0.000000 3.504990 0.000000 
#    z 0.333280 0.000000 3.246740 
# 
# 
# High freq. dielectric constant tensor:
#      x y z
#    x 1.705170 0.000000 0.016410 
#    y 0.000000 1.718540 0.000000 
#    z 0.016410 0.000000 1.681650 
# 
# From -- ./inp_files/67888.got.cif
#   From: 2010.06.25/outbox.cif.g09.slc.cpg/sg11_34_cif.got.tgz:67888.got - 2010.06.27 23:14:04.
