data_PCOD8071387
_publ_section_title
;
Structure prediction by ZEFSAII (Michael W. Deem and Ramdas Pophale) SiO2 
 PCOD8071387
Probable space group: P 21/M
;
_chemical_formula_sum "Si O2"
_cell_formula_units_Z 20
_cell_length_a 5.260225
_cell_length_b 20.445497
_cell_length_c 9.896550
_cell_angle_alpha 90.000000
_cell_angle_beta 77.878635
_cell_angle_gamma 90.000000
_cell_volume 1040.623560
_symmetry_space_group_name_H-M "P 21/M"
_symmetry_group_IT_number 11
_symmetry_cell_setting 'monoclinic'
loop_
_space_group_symop_operation_xyz
x,y,z
-x,1/2+y,-z
-x,-y,-z
x,1/2-y,z
loop_
_atom_site_type_symbol
_atom_site_label
_atom_site_fract_x
_atom_site_fract_y
_atom_site_fract_z
Si Si1 0.412750 0.110592 0.701918
Si Si2 0.725255 0.172826 0.152601
Si Si3 0.949578 0.435776 0.590438
Si Si4 0.714078 0.827945 0.999000
Si Si5 0.736825 0.175093 0.457984
O O1 0.161553 0.069463 0.685117
O O2 0.358596 0.147051 0.846030
O O3 0.660344 0.061564 0.689293
O O4 0.480216 0.164904 0.579329
O O5 0.731063 0.250000 0.135348
O O6 0.003630 0.144453 0.074274
O O7 0.495922 0.144133 0.084551
O O8 0.669624 0.153240 0.313252
O O9 0.965267 0.371973 0.490109
O O10 0.000000 0.500000 0.500000
O O11 0.711801 0.750000 0.000823
O O12 0.834215 0.250000 0.452678
#
# Coordination Sequence:
#
# PCOD8071387 Si02
#       5
#     4   4   4   4   4
#     4  10  21  35  59  81 108 144 190 235 269 331
#     4   9  19  32  50  77 116 148 174 221 289 339
#     4  10  22  38  59  83 113 152 188 231 284 332
#     4  10  19  33  52  81 116 146 176 227 290 336
#     4   9  21  35  58  88 111 143 191 239 277 327
#
# _framework density 19.219244
#
# number of rings (size 3 to 8) (size 9 to 14) (size 15 to 20)
#    1.200    1.200    0.000    2.400    2.800    1.600 
#    0.000    0.000    0.000    7.200    0.000    0.000 
#    0.000    0.000    0.000    0.000    0.000    0.000 
#
# Total GULP energy -247851.901661 kJ/mol
# GULP energy per Si atom -12392.595083 kJ/mol
# Density = 1.917550 g / cm^3
# Si number density = 19.219244 Si / 1000 Ang^3
#
#
#
# Elastic Constant Matrix: (Units=GPa)
#
#
# Indices 1 2 3 4 5 6 
#
# 1 140.9092 8.5794 38.8436 0.0000 18.3564 0.0000
# 2 8.5794 45.5336 4.1927 0.0000 7.4208 0.0000
# 3 38.8436 4.1927 131.1030 0.0000 0.1197 0.0000
# 4 0.0000 0.0000 0.0000 4.8141 0.0000 4.6559
# 5 18.3564 7.4208 0.1197 0.0000 20.7628 0.0000
# 6 0.0000 0.0000 0.0000 4.6559 0.0000 13.6952
#
#
#
# Elastic Compliance Matrix: (Units=1/GPa)
#
#
# Indices 1 2 3 4 5 6 
#
# 1 0.008832 -0.000164 -0.002605 0.000000 -0.007735 0.000000
# 2 -0.000164 0.023395 -0.000692 0.000000 -0.008213 0.000000
# 3 -0.002605 -0.000692 0.008419 0.000000 0.002502 0.000000
# 4 0.000000 0.000000 0.000000 0.309477 0.000000 -0.105212
# 5 -0.007735 -0.008213 0.002502 0.000000 0.057923 0.000000
# 6 0.000000 0.000000 0.000000 -0.105212 0.000000 0.108787
#
#
# Mechanical properties :
#
#
# Convention : Reuss Voigt Hill
#
# Bulk Modulus (GPa) = 29.65120 46.75301 38.20210
# Shear Modulus (GPa) = 9.34587 25.58311 17.46449
#
# Velocity S-wave (km/s) = 2.20756 3.65241 3.01773
# Velocity P-wave (km/s) = 4.68606 6.49352 5.66237
#
# Compressibility (1/GPa) = 0.03372545
#
# Stress axis : x y z
#
# Youngs Moduli (GPa) = 113.21962 42.74440 118.77703
#
# Poissons Ratio (x) = 0.00700 0.30937
# Poissons Ratio (y) = 0.01854 0.08221
# Poissons Ratio (z) = 0.29489 0.02959
#
# Static dielectric constant tensor:
#      x y z
#    x 3.831940 0.000000 0.083860 
#    y 0.000000 3.154000 0.000000 
#    z 0.083860 0.000000 3.488000 
# 
# 
# High freq. dielectric constant tensor:
#      x y z
#    x 1.756070 0.000000 0.004290 
#    y 0.000000 1.703530 0.000000 
#    z 0.004290 0.000000 1.751370 
# 
# From -- ./inp_files/2354.got.cif
#   From: 2010.06.25/outbox.cif.g09.slc.cpg/sg11_2_cif.got.tgz:2354.got - 2010.06.27 23:14:04.
