data_PCOD8071685
_publ_section_title
;
Structure prediction by ZEFSAII (Michael W. Deem and Ramdas Pophale) SiO2 
 PCOD8071685
Probable space group: P 21/M
;
_chemical_formula_sum "Si O2"
_cell_formula_units_Z 32
_cell_length_a 25.091515
_cell_length_b 9.225596
_cell_length_c 15.803434
_cell_angle_alpha 90.000000
_cell_angle_beta 154.038575
_cell_angle_gamma 90.000000
_cell_volume 1601.454991
_symmetry_space_group_name_H-M "P 21/M"
_symmetry_group_IT_number 11
_symmetry_cell_setting 'monoclinic'
loop_
_space_group_symop_operation_xyz
x,y,z
-x,1/2+y,-z
-x,-y,-z
x,1/2-y,z
loop_
_atom_site_type_symbol
_atom_site_label
_atom_site_fract_x
_atom_site_fract_y
_atom_site_fract_z
Si Si1 0.620190 0.085376 0.649431
Si Si2 0.881373 0.082587 0.075557
Si Si3 0.909347 0.078984 0.305873
Si Si4 0.493755 0.410349 0.074378
Si Si5 0.397571 0.413658 0.532398
Si Si6 0.004810 0.582111 0.097487
Si Si7 0.722033 0.092716 0.505292
Si Si8 0.362474 0.583122 0.031695
O O1 0.579394 0.250000 0.585571
O O2 0.500000 0.000000 0.500000
O O3 0.659717 0.025455 0.615161
O O4 0.734667 0.065674 0.875411
O O5 0.914209 0.250000 0.103338
O O6 0.935871 0.034871 0.245150
O O7 0.924250 0.988106 0.056877
O O8 0.927009 0.250000 0.342145
O O9 0.771165 0.033402 0.130361
O O10 0.000000 0.000000 0.500000
O O11 0.440460 0.250000 0.981957
O O12 0.634600 0.400157 0.300558
O O13 0.405204 0.483825 0.015866
O O14 0.500000 0.500000 0.000000
O O15 0.370762 0.250000 0.465761
O O16 0.320246 0.451295 0.504387
O O17 0.542431 0.436146 0.754535
O O18 0.964916 0.750000 0.027458
O O19 0.140438 0.569947 0.328082
O O20 0.000000 0.500000 0.000000
O O21 0.711771 0.250000 0.539218
O O22 0.363497 0.750000 0.003192
#
# Coordination Sequence:
#
# PCOD8071685 Si02
#       8
#     4   4   4   4   4   4   4   4
#     4  11  22  36  56  81 111 145 180 223 276 332
#     4  10  23  42  60  83 118 156 194 239 292 349
#     4  10  22  41  62  83 112 152 198 247 296 345
#     4  10  20  35  56  83 114 146 185 235 289 345
#     4  10  19  33  56  84 111 141 179 221 272 335
#     4  11  23  39  60  86 118 157 197 238 287 345
#     4   9  20  37  54  76 109 146 182 223 275 333
#     4   9  19  37  58  80 112 151 187 230 287 346
#
# _framework density 19.981829999999999
#
# number of rings (size 3 to 8) (size 9 to 14) (size 15 to 20)
#    0.000    2.000    0.000    3.000    0.000   10.000 
#    0.000    5.000    0.000    0.000    0.000    0.000 
#    0.000    0.000    0.000    0.000    0.000    0.000 
#
# Total GULP energy -396545.428462 kJ/mol
# GULP energy per Si atom -12392.044639 kJ/mol
# Density = 1.993635 g / cm^3
# Si number density = 19.981830 Si / 1000 Ang^3
#
#
#
# Elastic Constant Matrix: (Units=GPa)
#
#
# Indices 1 2 3 4 5 6 
#
# 1 98.0369 58.2149 46.7234 0.0000 -8.3376 0.0000
# 2 58.2149 122.5259 52.7212 0.0000 -7.8165 0.0000
# 3 46.7234 52.7212 94.1074 0.0000 -0.1344 0.0000
# 4 0.0000 0.0000 0.0000 30.8626 0.0000 -2.9063
# 5 -8.3376 -7.8165 -0.1344 0.0000 33.2585 0.0000
# 6 0.0000 0.0000 0.0000 -2.9063 0.0000 37.4352
#
#
#
# Elastic Compliance Matrix: (Units=1/GPa)
#
#
# Indices 1 2 3 4 5 6 
#
# 1 0.015914 -0.005256 -0.004953 0.000000 0.002734 0.000000
# 2 -0.005256 0.012702 -0.004504 0.000000 0.001650 0.000000
# 3 -0.004953 -0.004504 0.015605 0.000000 -0.002237 0.000000
# 4 0.000000 0.000000 0.000000 0.032640 0.000000 0.002534
# 5 0.002734 0.001650 -0.002237 0.000000 0.031132 0.000000
# 6 0.000000 0.000000 0.000000 0.002534 0.000000 0.026910
#
#
# Mechanical properties :
#
#
# Convention : Reuss Voigt Hill
#
# Bulk Modulus (GPa) = 67.58621 69.99880 68.79250
# Shear Modulus (GPa) = 29.54027 30.77864 30.15946
#
# Velocity S-wave (km/s) = 3.84911 3.92896 3.88924
# Velocity P-wave (km/s) = 7.32472 7.46255 7.39395
#
# Compressibility (1/GPa) = 0.01479592
#
# Stress axis : x y z
#
# Youngs Moduli (GPa) = 62.83735 78.72837 64.08010
#
# Poissons Ratio (x) = 0.41376 0.31739
# Poissons Ratio (y) = 0.33024 0.28863
# Poissons Ratio (z) = 0.31124 0.35461
#
# Static dielectric constant tensor:
#      x y z
#    x 3.725610 0.000000 -0.365120 
#    y 0.000000 3.581910 0.000000 
#    z -0.365120 0.000000 3.971010 
# 
# 
# High freq. dielectric constant tensor:
#      x y z
#    x 1.771830 0.000000 0.002150 
#    y 0.000000 1.786860 0.000000 
#    z 0.002150 0.000000 1.783470 
# 
# From -- ./inp_files/55772.got.cif
#   From: 2010.06.25/outbox.cif.g09.slc.cpg/sg11_28_cif.got.tgz:55772.got - 2010.06.27 23:14:04.
