data_PCOD8071324
_publ_section_title
;
Structure prediction by ZEFSAII (Michael W. Deem and Ramdas Pophale) SiO2 
 PCOD8071324
Probable space group: P 21/M
;
_chemical_formula_sum "Si O2"
_cell_formula_units_Z 24
_cell_length_a 23.928678
_cell_length_b 8.766980
_cell_length_c 11.994498
_cell_angle_alpha 90.000000
_cell_angle_beta 33.130572
_cell_angle_gamma 90.000000
_cell_volume 1375.244138
_symmetry_space_group_name_H-M "P 21/M"
_symmetry_group_IT_number 11
_symmetry_cell_setting 'monoclinic'
loop_
_space_group_symop_operation_xyz
x,y,z
-x,1/2+y,-z
-x,-y,-z
x,1/2-y,z
loop_
_atom_site_type_symbol
_atom_site_label
_atom_site_fract_x
_atom_site_fract_y
_atom_site_fract_z
Si Si1 0.388490 0.068394 0.680650
Si Si2 0.136593 0.069178 0.498339
Si Si3 0.236394 0.923246 0.770764
Si Si4 0.075560 0.922238 0.233752
Si Si5 0.111198 0.068362 0.788481
Si Si6 0.232376 0.071163 0.122176
O O1 0.393567 0.250000 0.669692
O O2 0.500000 0.000000 0.500000
O O3 0.333854 0.010056 0.659699
O O4 0.327422 0.004071 0.892309
O O5 0.125561 0.250000 0.520307
O O6 0.150113 0.010514 0.601653
O O7 0.229575 0.021020 0.258280
O O8 0.032200 0.003264 0.620115
O O9 0.268286 0.750000 0.688406
O O10 0.199703 0.009553 0.721623
O O11 0.143052 0.926679 0.010704
O O12 0.065213 0.750000 0.295591
O O13 0.124597 0.023000 0.248842
O O14 0.102214 0.250000 0.810759
O O15 0.000000 0.000000 0.000000
O O16 0.240448 0.250000 0.099279
#
# Coordination Sequence:
#
# PCOD8071324 Si02
#       6
#     4   4   4   4   4   4
#     4  10  20  35  56  80 100 126 163 210 261 307
#     4   9  17  30  46  67 100 137 166 200 244 288
#     4  10  19  33  51  75 104 134 169 210 249 293
#     4   9  16  28  45  67  99 134 163 196 244 291
#     4  11  20  32  49  71 103 142 177 206 240 289
#     4   9  18  31  48  71  97 126 165 205 247 299
#
# _framework density 17.451447000000002
#
# number of rings (size 3 to 8) (size 9 to 14) (size 15 to 20)
#    0.000    2.333    1.667    2.000    0.000    1.333 
#    0.000    1.667    0.000    1.000    0.000    0.000 
#    0.000    0.000    0.000    0.000    0.000    0.000 
#
# Total GULP energy -297424.026110 kJ/mol
# GULP energy per Si atom -12392.667755 kJ/mol
# Density = 1.741173 g / cm^3
# Si number density = 17.451447 Si / 1000 Ang^3
#
#
#
# Elastic Constant Matrix: (Units=GPa)
#
#
# Indices 1 2 3 4 5 6 
#
# 1 130.6146 35.9399 84.2268 0.0000 12.1056 0.0000
# 2 35.9399 49.8748 36.7876 0.0000 2.8211 0.0000
# 3 84.2268 36.7876 88.4561 0.0000 3.0660 0.0000
# 4 0.0000 0.0000 0.0000 18.8942 0.0000 -3.8111
# 5 12.1056 2.8211 3.0660 0.0000 31.4754 0.0000
# 6 0.0000 0.0000 0.0000 -3.8111 0.0000 28.8526
#
#
#
# Elastic Compliance Matrix: (Units=1/GPa)
#
#
# Indices 1 2 3 4 5 6 
#
# 1 0.020956 -0.000278 -0.019626 0.000000 -0.006123 0.000000
# 2 -0.000278 0.028990 -0.011745 0.000000 -0.001347 0.000000
# 3 -0.019626 -0.011745 0.034696 0.000000 0.005221 0.000000
# 4 0.000000 0.000000 0.000000 0.054375 0.000000 0.007182
# 5 -0.006123 -0.001347 0.005221 0.000000 0.033738 0.000000
# 6 0.000000 0.000000 0.000000 0.007182 0.000000 0.035608
#
#
# Mechanical properties :
#
#
# Convention : Reuss Voigt Hill
#
# Bulk Modulus (GPa) = 46.85195 64.76158 55.80677
# Shear Modulus (GPa) = 17.93557 23.31053 20.62305
#
# Velocity S-wave (km/s) = 3.20932 3.65874 3.44137
# Velocity P-wave (km/s) = 6.37482 7.41880 6.91653
#
# Compressibility (1/GPa) = 0.02134383
#
# Stress axis : x y z
#
# Youngs Moduli (GPa) = 47.71880 34.49477 28.82162
#
# Poissons Ratio (x) = 0.00961 0.56566
# Poissons Ratio (y) = 0.01329 0.33850
# Poissons Ratio (z) = 0.93653 0.40513
#
# Static dielectric constant tensor:
#      x y z
#    x 3.375850 0.000000 0.339520 
#    y 0.000000 3.214660 0.000000 
#    z 0.339520 0.000000 3.477550 
# 
# 
# High freq. dielectric constant tensor:
#      x y z
#    x 1.665490 0.000000 0.019310 
#    y 0.000000 1.666160 0.000000 
#    z 0.019310 0.000000 1.660250 
# 
# From -- ./inp_files/33829.got.cif
#   From: 2010.06.25/outbox.cif.g09.slc.cpg/sg11_17_cif.got.tgz:33829.got - 2010.06.27 23:14:04.
