data_PCOD8071556
_publ_section_title
;
Structure prediction by ZEFSAII (Michael W. Deem and Ramdas Pophale) SiO2 
 PCOD8071556
Probable space group: P 21/M
;
_chemical_formula_sum "Si O2"
_cell_formula_units_Z 32
_cell_length_a 21.570992
_cell_length_b 9.003793
_cell_length_c 27.963955
_cell_angle_alpha 90.000000
_cell_angle_beta 18.936182
_cell_angle_gamma 90.000000
_cell_volume 1762.498373
_symmetry_space_group_name_H-M "P 21/M"
_symmetry_group_IT_number 11
_symmetry_cell_setting 'monoclinic'
loop_
_space_group_symop_operation_xyz
x,y,z
-x,1/2+y,-z
-x,-y,-z
x,1/2-y,z
loop_
_atom_site_type_symbol
_atom_site_label
_atom_site_fract_x
_atom_site_fract_y
_atom_site_fract_z
Si Si1 0.087890 0.578136 0.594767
Si Si2 0.546282 0.573264 0.416143
Si Si3 0.630602 0.923253 0.543341
Si Si4 0.310552 0.075804 0.156655
Si Si5 0.375808 0.921567 0.300230
Si Si6 0.953813 0.920824 0.082362
Si Si7 0.647196 0.419511 0.168565
Si Si8 0.199762 0.425755 0.342934
O O1 0.110377 0.750000 0.592852
O O2 0.174042 0.478289 0.574260
O O3 0.197094 0.547753 0.465372
O O4 0.867606 0.532977 0.747534
O O5 0.500000 0.500000 0.500000
O O6 0.528749 0.750000 0.432572
O O7 0.399263 0.513254 0.483720
O O8 0.759818 0.519198 0.247271
O O9 0.650221 0.750000 0.517048
O O10 0.451483 0.956943 0.708651
O O11 0.343594 0.250000 0.131854
O O12 0.269591 0.021143 0.240161
O O13 0.500000 0.000000 0.000000
O O14 0.390528 0.750000 0.275193
O O15 0.570743 0.971179 0.183628
O O16 0.354961 0.019042 0.267905
O O17 0.930889 0.750000 0.085942
O O18 0.126781 0.947095 0.993156
O O19 0.000000 0.000000 0.000000
O O20 0.598926 0.250000 0.189723
O O21 0.174467 0.250000 0.363815
O O22 0.000000 0.500000 0.500000
#
# Coordination Sequence:
#
# PCOD8071556 Si02
#       8
#     4   4   4   4   4   4   4   4
#     4   9  18  35  55  79 113 145 182 229 276 330
#     4  11  23  38  57  82 114 153 190 229 279 331
#     4  10  19  33  56  84 111 142 185 231 279 333
#     4  10  22  39  57  82 114 149 187 230 278 331
#     4  10  19  33  54  83 114 145 184 230 280 332
#     4  10  20  35  57  83 111 143 182 227 279 331
#     4   9  18  33  53  82 114 143 180 230 282 332
#     4  11  21  36  57  83 113 145 184 230 279 329
#
# _framework density 18.156044000000001
#
# number of rings (size 3 to 8) (size 9 to 14) (size 15 to 20)
#    0.000    2.000    2.500    1.500    0.000    3.500 
#    0.000    1.250    0.000    1.500    0.000    0.000 
#    0.000    0.000    0.000    0.000    0.000    0.000 
#
# Total GULP energy -396888.323233 kJ/mol
# GULP energy per Si atom -12402.760101 kJ/mol
# Density = 1.811472 g / cm^3
# Si number density = 18.156044 Si / 1000 Ang^3
#
#
#
# Elastic Constant Matrix: (Units=GPa)
#
#
# Indices 1 2 3 4 5 6 
#
# 1 128.7612 58.1749 64.7314 0.0000 0.8052 0.0000
# 2 58.1749 75.6540 46.5216 0.0000 2.3106 0.0000
# 3 64.7314 46.5216 116.9056 0.0000 -2.6550 0.0000
# 4 0.0000 0.0000 0.0000 27.8118 0.0000 -2.3098
# 5 0.8052 2.3106 -2.6550 0.0000 24.4211 0.0000
# 6 0.0000 0.0000 0.0000 -2.3098 0.0000 37.2733
#
#
#
# Elastic Compliance Matrix: (Units=1/GPa)
#
#
# Indices 1 2 3 4 5 6 
#
# 1 0.013418 -0.007600 -0.004410 0.000000 -0.000203 0.000000
# 2 -0.007600 0.021949 -0.004579 0.000000 -0.002324 0.000000
# 3 -0.004410 -0.004579 0.012863 0.000000 0.001977 0.000000
# 4 0.000000 0.000000 0.000000 0.036142 0.000000 0.002240
# 5 -0.000203 -0.002324 0.001977 0.000000 0.041390 0.000000
# 6 0.000000 0.000000 0.000000 0.002240 0.000000 0.026968
#
#
# Mechanical properties :
#
#
# Convention : Reuss Voigt Hill
#
# Bulk Modulus (GPa) = 66.43668 73.35297 69.89482
# Shear Modulus (GPa) = 26.18827 28.02743 27.10785
#
# Velocity S-wave (km/s) = 3.80201 3.93325 3.86819
# Velocity P-wave (km/s) = 7.47965 7.81770 7.65054
#
# Compressibility (1/GPa) = 0.01505193
#
# Stress axis : x y z
#
# Youngs Moduli (GPa) = 74.52439 45.56024 77.74342
#
# Poissons Ratio (x) = 0.34627 0.34285
# Poissons Ratio (y) = 0.56640 0.35598
# Poissons Ratio (z) = 0.32866 0.20862
#
# Static dielectric constant tensor:
#      x y z
#    x 3.723870 0.000000 -0.367170 
#    y 0.000000 3.370240 0.000000 
#    z -0.367170 0.000000 3.577820 
# 
# 
# High freq. dielectric constant tensor:
#      x y z
#    x 1.708330 0.000000 -0.017240 
#    y 0.000000 1.708640 0.000000 
#    z -0.017240 0.000000 1.684670 
# 
# From -- ./inp_files/42508.got.cif
#   From: 2010.06.25/outbox.cif.g09.slc.cpg/sg11_22_cif.got.tgz:42508.got - 2010.06.27 23:14:04.
