data_PCOD8071470
_publ_section_title
;
Structure prediction by ZEFSAII (Michael W. Deem and Ramdas Pophale) SiO2 
 PCOD8071470
Probable space group: P 21/M
;
_chemical_formula_sum "Si O2"
_cell_formula_units_Z 28
_cell_length_a 14.350196
_cell_length_b 8.625830
_cell_length_c 13.438733
_cell_angle_alpha 90.000000
_cell_angle_beta 122.004397
_cell_angle_gamma 90.000000
_cell_volume 1410.641670
_symmetry_space_group_name_H-M "P 21/M"
_symmetry_group_IT_number 11
_symmetry_cell_setting 'monoclinic'
loop_
_space_group_symop_operation_xyz
x,y,z
-x,1/2+y,-z
-x,-y,-z
x,1/2-y,z
loop_
_atom_site_type_symbol
_atom_site_label
_atom_site_fract_x
_atom_site_fract_y
_atom_site_fract_z
Si Si1 0.177129 0.433690 0.283375
Si Si2 0.955873 0.933299 0.201387
Si Si3 0.172275 0.071924 0.059870
Si Si4 0.242182 0.569794 0.805040
Si Si5 0.399537 0.567436 0.724964
Si Si6 0.380307 0.070237 0.053433
Si Si7 0.603613 0.066126 0.500541
O O1 0.194342 0.250000 0.294561
O O2 0.156477 0.501194 0.160111
O O3 0.284787 0.513914 0.385382
O O4 0.071647 0.483430 0.289057
O O5 0.972517 0.750000 0.208888
O O6 0.869024 0.973399 0.239122
O O7 0.907432 0.001318 0.069479
O O8 0.140005 0.250000 0.048065
O O9 0.298405 0.049711 0.100044
O O10 0.213878 0.750000 0.798289
O O11 0.287244 0.527559 0.720389
O O12 0.338760 0.529032 0.936894
O O13 0.417577 0.750000 0.728340
O O14 0.503554 0.500529 0.844918
O O15 0.395289 0.498551 0.611408
O O16 0.385965 0.250000 0.023822
O O17 0.596279 0.250000 0.496706
O O18 0.500000 0.000000 0.500000
#
# Coordination Sequence:
#
# PCOD8071470 Si02
#       7
#     4   4   4   4   4   4   4
#     4  11  21  36  57  82 109 142 180 223 268 316
#     4  10  20  36  55  79 109 144 179 218 266 321
#     4   8  16  30  52  79 110 142 174 211 263 322
#     4  10  19  33  53  81 110 140 177 222 269 319
#     4   9  19  35  56  77 106 145 183 220 267 317
#     4   9  16  31  53  79 109 143 175 213 266 324
#     4  11  23  41  60  81 108 142 180 221 263 313
#
# _framework density 19.849124
#
# number of rings (size 3 to 8) (size 9 to 14) (size 15 to 20)
#    0.000    2.286    0.000    4.286    0.000    2.286 
#    0.000   15.000    0.000    0.000    0.000    0.000 
#    0.000    0.000    0.000    0.000    0.000    0.000 
#
# Total GULP energy -347150.291571 kJ/mol
# GULP energy per Si atom -12398.224699 kJ/mol
# Density = 1.980395 g / cm^3
# Si number density = 19.849124 Si / 1000 Ang^3
#
#
#
# Elastic Constant Matrix: (Units=GPa)
#
#
# Indices 1 2 3 4 5 6 
#
# 1 139.9190 28.9343 70.2321 0.0000 3.0015 0.0000
# 2 28.9343 47.8101 21.2763 0.0000 -1.7162 0.0000
# 3 70.2321 21.2763 79.0328 0.0000 6.0679 0.0000
# 4 0.0000 0.0000 0.0000 25.7149 0.0000 5.4509
# 5 3.0015 -1.7162 6.0679 0.0000 37.4613 0.0000
# 6 0.0000 0.0000 0.0000 5.4509 0.0000 30.1333
#
#
#
# Elastic Compliance Matrix: (Units=1/GPa)
#
#
# Indices 1 2 3 4 5 6 
#
# 1 0.013325 -0.003129 -0.011043 0.000000 0.000578 0.000000
# 2 -0.003129 0.024670 -0.004017 0.000000 0.002032 0.000000
# 3 -0.011043 -0.004017 0.023790 0.000000 -0.003153 0.000000
# 4 0.000000 0.000000 0.000000 0.040439 0.000000 -0.007315
# 5 0.000578 0.002032 -0.003153 0.000000 0.027252 0.000000
# 6 0.000000 0.000000 0.000000 -0.007315 0.000000 0.034509
#
#
# Mechanical properties :
#
#
# Convention : Reuss Voigt Hill
#
# Bulk Modulus (GPa) = 39.35922 56.40528 47.88225
# Shear Modulus (GPa) = 23.94293 28.41652 26.17973
#
# Velocity S-wave (km/s) = 3.47687 3.78779 3.63566
# Velocity P-wave (km/s) = 5.99920 6.89989 6.46525
#
# Compressibility (1/GPa) = 0.02540701
#
# Stress axis : x y z
#
# Youngs Moduli (GPa) = 75.04930 40.53471 42.03523
#
# Poissons Ratio (x) = 0.12683 0.46419
# Poissons Ratio (y) = 0.23482 0.16885
# Poissons Ratio (z) = 0.82876 0.16282
#
# Static dielectric constant tensor:
#      x y z
#    x 3.844820 0.000000 -0.040750 
#    y 0.000000 3.334330 0.000000 
#    z -0.040750 0.000000 3.658940 
# 
# 
# High freq. dielectric constant tensor:
#      x y z
#    x 1.790260 0.000000 0.004770 
#    y 0.000000 1.751230 0.000000 
#    z 0.004770 0.000000 1.756040 
# 
# From -- ./inp_files/51102.got.cif
#   From: 2010.06.25/outbox.cif.g09.slc.cpg/sg11_26_cif.got.tgz:51102.got - 2010.06.27 23:14:04.
