data_PCOD8071019
_publ_section_title
;
Structure prediction by ZEFSAII (Michael W. Deem and Ramdas Pophale) SiO2 
 PCOD8071019
Probable space group: P 21/M
;
_chemical_formula_sum "Si O2"
_cell_formula_units_Z 32
_cell_length_a 13.148501
_cell_length_b 9.363864
_cell_length_c 19.630872
_cell_angle_alpha 90.000000
_cell_angle_beta 132.642955
_cell_angle_gamma 90.000000
_cell_volume 1777.896225
_symmetry_space_group_name_H-M "P 21/M"
_symmetry_group_IT_number 11
_symmetry_cell_setting 'monoclinic'
loop_
_space_group_symop_operation_xyz
x,y,z
-x,1/2+y,-z
-x,-y,-z
x,1/2-y,z
loop_
_atom_site_type_symbol
_atom_site_label
_atom_site_fract_x
_atom_site_fract_y
_atom_site_fract_z
Si Si1 0.699690 0.405403 0.584301
Si Si2 0.493536 0.580925 0.717744
Si Si3 0.457998 0.407103 0.576038
Si Si4 0.208716 0.084860 0.093843
Si Si5 0.068584 0.412542 0.274975
Si Si6 0.998635 0.913375 0.600258
Si Si7 0.968413 0.086444 0.084821
Si Si8 0.212906 0.416442 0.612182
O O1 0.752596 0.250000 0.582817
O O2 0.556167 0.382252 0.556988
O O3 0.681191 0.512835 0.512087
O O4 0.807767 0.478034 0.684306
O O5 0.465478 0.750000 0.697613
O O6 0.532012 0.510534 0.663030
O O7 0.628863 0.549802 0.824371
O O8 0.357958 0.500349 0.683824
O O9 0.417418 0.250000 0.588291
O O10 0.188588 0.250000 0.069501
O O11 0.116520 0.041254 0.118378
O O12 0.156697 0.002671 0.003568
O O13 0.123821 0.250000 0.297947
O O14 0.009425 0.448430 0.322913
O O15 0.964220 0.438337 0.164749
O O16 0.046711 0.750000 0.611129
O O17 0.855291 0.938912 0.493720
O O18 0.114053 0.019965 0.624903
O O19 0.938432 0.250000 0.053921
O O20 0.237270 0.250000 0.639109
#
# Coordination Sequence:
#
# PCOD8071019 Si02
#       8
#     4   4   4   4   4   4   4   4
#     4  10  20  31  45  68  99 135 170 203 243 295
#     4  11  21  33  52  75 100 132 170 211 256 307
#     4  10  20  32  45  66  99 135 169 205 245 293
#     4   9  19  34  51  74 104 136 169 208 255 304
#     4  10  19  32  52  75 100 131 168 210 255 304
#     4   9  19  35  53  74 102 135 168 206 254 304
#     4   9  18  33  53  76 102 134 171 210 253 302
#     4  10  20  34  53  77 104 134 169 209 253 304
#
# _framework density 17.998801
#
# number of rings (size 3 to 8) (size 9 to 14) (size 15 to 20)
#    0.000    2.250    0.000    3.000    0.000    6.000 
#    0.000    2.500    0.000    0.750    0.000    0.000 
#    0.000    0.000    0.000    0.000    0.000    0.000 
#
# Total GULP energy -396559.350629 kJ/mol
# GULP energy per Si atom -12392.479707 kJ/mol
# Density = 1.795783 g / cm^3
# Si number density = 17.998801 Si / 1000 Ang^3
#
#
#
# Elastic Constant Matrix: (Units=GPa)
#
#
# Indices 1 2 3 4 5 6 
#
# 1 48.2743 38.6983 42.9245 0.0000 -2.8895 0.0000
# 2 38.6983 124.1945 75.2389 0.0000 6.3867 0.0000
# 3 42.9245 75.2389 129.7128 0.0000 -1.3649 0.0000
# 4 0.0000 0.0000 0.0000 32.7140 0.0000 2.9234
# 5 -2.8895 6.3867 -1.3649 0.0000 28.3002 0.0000
# 6 0.0000 0.0000 0.0000 2.9234 0.0000 22.5801
#
#
#
# Elastic Compliance Matrix: (Units=1/GPa)
#
#
# Indices 1 2 3 4 5 6 
#
# 1 0.032032 -0.005866 -0.007153 0.000000 0.004249 0.000000
# 2 -0.005866 0.013776 -0.006091 0.000000 -0.004002 0.000000
# 3 -0.007153 -0.006091 0.013623 0.000000 0.001301 0.000000
# 4 0.000000 0.000000 0.000000 0.030926 0.000000 -0.004004
# 5 0.004249 -0.004002 0.001301 0.000000 0.036735 0.000000
# 6 0.000000 0.000000 0.000000 -0.004004 0.000000 0.044805
#
#
# Mechanical properties :
#
#
# Convention : Reuss Voigt Hill
#
# Bulk Modulus (GPa) = 47.14674 68.43389 57.79031
# Shear Modulus (GPa) = 23.02157 26.40685 24.71421
#
# Velocity S-wave (km/s) = 3.58028 3.83449 3.70956
# Velocity P-wave (km/s) = 6.58350 7.59660 7.10812
#
# Compressibility (1/GPa) = 0.02121038
#
# Stress axis : x y z
#
# Youngs Moduli (GPa) = 31.21892 72.59084 73.40412
#
# Poissons Ratio (x) = 0.42584 0.52503
# Poissons Ratio (y) = 0.18314 0.44713
# Poissons Ratio (z) = 0.22329 0.44218
#
# Static dielectric constant tensor:
#      x y z
#    x 3.087640 0.000000 -0.044440 
#    y 0.000000 3.635630 0.000000 
#    z -0.044440 0.000000 3.225870 
# 
# 
# High freq. dielectric constant tensor:
#      x y z
#    x 1.674530 0.000000 -0.001470 
#    y 0.000000 1.714050 0.000000 
#    z -0.001470 0.000000 1.679750 
# 
# From -- ./inp_files/65231.got.cif
#   From: 2010.06.25/outbox.cif.g09.slc.cpg/sg11_33_cif.got.tgz:65231.got - 2010.06.27 23:14:04.
