data_PCOD8071674
_publ_section_title
;
Structure prediction by ZEFSAII (Michael W. Deem and Ramdas Pophale) SiO2 
 PCOD8071674
Probable space group: P 21/M
;
_chemical_formula_sum "Si O2"
_cell_formula_units_Z 32
_cell_length_a 19.502551
_cell_length_b 8.787656
_cell_length_c 14.263394
_cell_angle_alpha 90.000000
_cell_angle_beta 46.438302
_cell_angle_gamma 90.000000
_cell_volume 1771.353671
_symmetry_space_group_name_H-M "P 21/M"
_symmetry_group_IT_number 11
_symmetry_cell_setting 'monoclinic'
loop_
_space_group_symop_operation_xyz
x,y,z
-x,1/2+y,-z
-x,-y,-z
x,1/2-y,z
loop_
_atom_site_type_symbol
_atom_site_label
_atom_site_fract_x
_atom_site_fract_y
_atom_site_fract_z
Si Si1 0.163751 0.429113 0.028271
Si Si2 0.972535 0.071179 0.123962
Si Si3 0.695342 0.574927 0.954618
Si Si4 0.360944 0.071952 0.357358
Si Si5 0.765818 0.429657 0.375869
Si Si6 0.459633 0.422356 0.740214
Si Si7 0.599387 0.071170 0.878042
Si Si8 0.695757 0.571944 0.260792
O O1 0.182830 0.250000 0.010050
O O2 0.210167 0.488822 0.081633
O O3 0.053212 0.472495 0.124734
O O4 0.219361 0.491749 0.884821
O O5 0.969054 0.250000 0.111752
O O6 0.872238 0.010677 0.255481
O O7 0.000000 0.000000 0.000000
O O8 0.706921 0.750000 0.912361
O O9 0.679259 0.473001 0.878334
O O10 0.607387 0.556439 0.107244
O O11 0.353253 0.250000 0.346390
O O12 0.267877 0.012808 0.498283
O O13 0.452774 0.036635 0.334305
O O14 0.366649 0.986303 0.253987
O O15 0.762216 0.250000 0.394417
O O16 0.697521 0.476366 0.354598
O O17 0.498665 0.250000 0.701134
O O18 0.403545 0.459047 0.697555
O O19 0.585932 0.250000 0.886930
O O20 0.500000 0.000000 0.000000
O O21 0.708590 0.750000 0.271925
#
# Coordination Sequence:
#
# PCOD8071674 Si02
#       8
#     4   4   4   4   4   4   4   4
#     4   8  15  30  54  82 111 142 178 220 267 319
#     4  10  19  33  56  83 110 144 183 224 271 317
#     4   9  17  32  56  83 110 142 177 219 270 320
#     4  12  25  39  56  77 105 147 188 227 273 324
#     4  11  23  36  52  79 113 148 184 229 275 319
#     4   9  18  33  54  79 109 144 182 225 266 315
#     4  12  23  37  58  84 112 141 177 224 270 323
#     4   9  17  32  54  78 108 148 185 218 265 322
#
# _framework density 18.065280000000001
#
# number of rings (size 3 to 8) (size 9 to 14) (size 15 to 20)
#    0.000    2.000    2.500    4.125    0.000    1.500 
#    0.000    2.500    0.000    0.750    0.000    0.000 
#    0.000    0.000    0.000    0.000    0.000    0.000 
#
# Total GULP energy -396794.200683 kJ/mol
# GULP energy per Si atom -12399.818771 kJ/mol
# Density = 1.802416 g / cm^3
# Si number density = 18.065280 Si / 1000 Ang^3
#
#
#
# Elastic Constant Matrix: (Units=GPa)
#
#
# Indices 1 2 3 4 5 6 
#
# 1 117.2552 41.1746 61.2779 0.0000 3.7344 0.0000
# 2 41.1746 87.9011 41.5526 0.0000 3.3262 0.0000
# 3 61.2779 41.5526 105.3620 0.0000 4.3333 0.0000
# 4 0.0000 0.0000 0.0000 23.6253 0.0000 4.5630
# 5 3.7344 3.3262 4.3333 0.0000 25.6577 0.0000
# 6 0.0000 0.0000 0.0000 4.5630 0.0000 27.6163
#
#
#
# Elastic Compliance Matrix: (Units=1/GPa)
#
#
# Indices 1 2 3 4 5 6 
#
# 1 0.012896 -0.003057 -0.006277 0.000000 -0.000420 0.000000
# 2 -0.003057 0.014728 -0.003998 0.000000 -0.000789 0.000000
# 3 -0.006277 -0.003998 0.014762 0.000000 -0.001061 0.000000
# 4 0.000000 0.000000 0.000000 0.043723 0.000000 -0.007224
# 5 -0.000420 -0.000789 -0.001061 0.000000 0.039317 0.000000
# 6 0.000000 0.000000 0.000000 -0.007224 0.000000 0.037404
#
#
# Mechanical properties :
#
#
# Convention : Reuss Voigt Hill
#
# Bulk Modulus (GPa) = 63.60724 66.50316 65.05520
# Shear Modulus (GPa) = 25.67578 26.48073 26.07826
#
# Velocity S-wave (km/s) = 3.77407 3.83278 3.80354
# Velocity P-wave (km/s) = 7.36733 7.51529 7.44168
#
# Compressibility (1/GPa) = 0.01572148
#
# Stress axis : x y z
#
# Youngs Moduli (GPa) = 77.54437 67.89629 67.74092
#
# Poissons Ratio (x) = 0.20759 0.42521
# Poissons Ratio (y) = 0.23709 0.27082
# Poissons Ratio (z) = 0.48675 0.27144
#
# Static dielectric constant tensor:
#      x y z
#    x 3.784220 0.000000 -0.112700 
#    y 0.000000 3.266740 0.000000 
#    z -0.112700 0.000000 3.234280 
# 
# 
# High freq. dielectric constant tensor:
#      x y z
#    x 1.706630 0.000000 0.000750 
#    y 0.000000 1.687660 0.000000 
#    z 0.000750 0.000000 1.676700 
# 
# From -- ./inp_files/54240.got.cif
#   From: 2010.06.25/outbox.cif.g09.slc.cpg/sg11_28_cif.got.tgz:54240.got - 2010.06.27 23:14:04.
