data_PCOD8071044
_publ_section_title
;
Structure prediction by ZEFSAII (Michael W. Deem and Ramdas Pophale) SiO2 
 PCOD8071044
Probable space group: P 21/M
;
_chemical_formula_sum "Si O2"
_cell_formula_units_Z 32
_cell_length_a 15.028907
_cell_length_b 8.548505
_cell_length_c 30.751689
_cell_angle_alpha 90.000000
_cell_angle_beta 151.943052
_cell_angle_gamma 90.000000
_cell_volume 1858.260909
_symmetry_space_group_name_H-M "P 21/M"
_symmetry_group_IT_number 11
_symmetry_cell_setting 'monoclinic'
loop_
_space_group_symop_operation_xyz
x,y,z
-x,1/2+y,-z
-x,-y,-z
x,1/2-y,z
loop_
_atom_site_type_symbol
_atom_site_label
_atom_site_fract_x
_atom_site_fract_y
_atom_site_fract_z
Si Si1 0.700738 0.432365 0.812250
Si Si2 0.676667 0.431530 0.127449
Si Si3 0.958690 0.429313 0.412692
Si Si4 0.637741 0.566595 0.878701
Si Si5 0.755075 0.931479 0.072948
Si Si6 0.724706 0.570209 0.386528
Si Si7 0.061947 0.931488 0.927625
Si Si8 0.740313 0.930878 0.245480
O O1 0.752297 0.250000 0.836843
O O2 0.712205 0.502186 0.865288
O O3 0.496660 0.460751 0.702349
O O4 0.847024 0.523068 0.844980
O O5 0.702622 0.250000 0.128713
O O6 0.784479 0.526219 0.136176
O O7 0.766455 0.473683 0.212383
O O8 0.456150 0.478047 0.033137
O O9 0.942975 0.250000 0.391639
O O10 0.800200 0.460443 0.380853
O O11 0.921224 0.534340 0.354018
O O12 0.166113 0.469412 0.521458
O O13 0.595940 0.750000 0.857994
O O14 0.446229 0.479391 0.808833
O O15 0.798188 0.536385 0.983398
O O16 0.797083 0.750000 0.083761
O O17 0.899918 0.031857 0.106521
O O18 0.764293 0.750000 0.390056
O O19 0.097022 0.750000 0.952757
O O20 0.729560 0.750000 0.228981
#
# Coordination Sequence:
#
# PCOD8071044 Si02
#       8
#     4   4   4   4   4   4   4   4
#     4  11  22  37  54  74 103 139 179 219 258 305
#     4  10  20  34  54  77 104 135 170 212 259 308
#     4  10  19  32  52  76 103 134 171 214 260 310
#     4  12  23  36  51  73 103 139 180 219 256 302
#     4  10  20  35  54  76 103 135 172 214 259 304
#     4   9  19  34  52  74 101 135 173 215 261 306
#     4  12  24  37  53  74 103 141 180 217 256 303
#     4  12  22  33  51  77 107 141 174 210 258 311
#
# _framework density 17.220402
#
# number of rings (size 3 to 8) (size 9 to 14) (size 15 to 20)
#    0.000    1.250    2.500    5.250    0.000    2.000 
#    0.000    0.000    0.000    0.000    0.000    0.875 
#    0.000    0.000    0.000    0.000    0.000    0.000 
#
# Total GULP energy -396972.156926 kJ/mol
# GULP energy per Si atom -12405.379904 kJ/mol
# Density = 1.718121 g / cm^3
# Si number density = 17.220402 Si / 1000 Ang^3
#
#
#
# Elastic Constant Matrix: (Units=GPa)
#
#
# Indices 1 2 3 4 5 6 
#
# 1 88.4103 17.5258 37.1730 0.0000 -5.9021 0.0000
# 2 17.5258 64.6008 14.1903 0.0000 0.1807 0.0000
# 3 37.1730 14.1903 72.4016 0.0000 -10.3436 0.0000
# 4 0.0000 0.0000 0.0000 23.7042 0.0000 -2.8118
# 5 -5.9021 0.1807 -10.3436 0.0000 20.2045 0.0000
# 6 0.0000 0.0000 0.0000 -2.8118 0.0000 30.2024
#
#
#
# Elastic Compliance Matrix: (Units=1/GPa)
#
#
# Indices 1 2 3 4 5 6 
#
# 1 0.014797 -0.002478 -0.007003 0.000000 0.000760 0.000000
# 2 -0.002478 0.016660 -0.002285 0.000000 -0.002043 0.000000
# 3 -0.007003 -0.002285 0.018952 0.000000 0.007677 0.000000
# 4 0.000000 0.000000 0.000000 0.042658 0.000000 0.003971
# 5 0.000760 -0.002043 0.007677 0.000000 0.053664 0.000000
# 6 0.000000 0.000000 0.000000 0.003971 0.000000 0.033480
#
#
# Mechanical properties :
#
#
# Convention : Reuss Voigt Hill
#
# Bulk Modulus (GPa) = 37.20653 40.35454 38.78053
# Shear Modulus (GPa) = 23.50709 25.25712 24.38211
#
# Velocity S-wave (km/s) = 3.69870 3.83390 3.76691
# Velocity P-wave (km/s) = 6.31613 6.56380 6.44115
#
# Compressibility (1/GPa) = 0.02687700
#
# Stress axis : x y z
#
# Youngs Moduli (GPa) = 67.57932 60.02552 52.76481
#
# Poissons Ratio (x) = 0.14876 0.36952
# Poissons Ratio (y) = 0.16748 0.12055
# Poissons Ratio (z) = 0.47327 0.13713
#
# Static dielectric constant tensor:
#      x y z
#    x 3.100210 0.000000 -0.086870 
#    y 0.000000 3.311740 0.000000 
#    z -0.086870 0.000000 3.245910 
# 
# 
# High freq. dielectric constant tensor:
#      x y z
#    x 1.645030 0.000000 -0.014370 
#    y 0.000000 1.682060 0.000000 
#    z -0.014370 0.000000 1.648660 
# 
# From -- ./inp_files/73308.got.cif
#   From: 2010.06.25/outbox.cif.g09.slc.cpg/sg11_37_cif.got.tgz:73308.got - 2010.06.27 23:14:04.
