data_PCOD8071285
_publ_section_title
;
Structure prediction by ZEFSAII (Michael W. Deem and Ramdas Pophale) SiO2 
 PCOD8071285
Probable space group: P 21/M
;
_chemical_formula_sum "Si O2"
_cell_formula_units_Z 32
_cell_length_a 19.783426
_cell_length_b 8.917137
_cell_length_c 25.508138
_cell_angle_alpha 90.000000
_cell_angle_beta 158.734667
_cell_angle_gamma 90.000000
_cell_volume 1632.067878
_symmetry_space_group_name_H-M "P 21/M"
_symmetry_group_IT_number 11
_symmetry_cell_setting 'monoclinic'
loop_
_space_group_symop_operation_xyz
x,y,z
-x,1/2+y,-z
-x,-y,-z
x,1/2-y,z
loop_
_atom_site_type_symbol
_atom_site_label
_atom_site_fract_x
_atom_site_fract_y
_atom_site_fract_z
Si Si1 0.294698 0.577710 0.203141
Si Si2 0.186319 0.076236 0.654505
Si Si3 0.496962 0.924107 0.811123
Si Si4 0.371382 0.574905 0.603682
Si Si5 0.924472 0.923098 0.137469
Si Si6 0.699196 0.574978 0.145751
Si Si7 0.006621 0.073042 0.300589
Si Si8 0.990070 0.078615 0.916360
O O1 0.349004 0.750000 0.233118
O O2 0.479975 0.478131 0.332376
O O3 0.207977 0.552165 0.198307
O O4 0.144025 0.531825 0.050794
O O5 0.169948 0.250000 0.629999
O O6 0.202502 0.045197 0.727813
O O7 0.368540 0.015647 0.757580
O O8 0.000000 0.000000 0.500000
O O9 0.460582 0.750000 0.795382
O O10 0.450653 0.965193 0.717942
O O11 0.709297 0.969533 0.975247
O O12 0.331804 0.750000 0.567883
O O13 0.180418 0.486262 0.459156
O O14 0.941429 0.750000 0.166622
O O15 0.034262 0.953625 0.162704
O O16 0.024294 0.026001 0.252681
O O17 0.677960 0.750000 0.118337
O O18 0.819241 0.500298 0.186990
O O19 0.500000 0.500000 0.000000
O O20 0.995334 0.250000 0.297844
O O21 0.060234 0.250000 0.975886
#
# Coordination Sequence:
#
# PCOD8071285 Si02
#       8
#     4   4   4   4   4   4   4   4
#     4  10  19  32  57  91 123 154 193 245 294 344
#     4  11  24  39  58  85 116 147 188 237 290 346
#     4  10  21  37  61  87 113 147 193 239 286 344
#     4  11  22  40  61  85 119 161 202 241 293 358
#     4  10  20  39  62  86 116 156 197 239 289 349
#     4  11  24  43  64  88 116 155 199 242 292 354
#     4  12  26  41  59  88 121 155 197 247 299 355
#     4   9  18  35  58  87 121 157 198 239 289 349
#
# _framework density 19.607028
#
# number of rings (size 3 to 8) (size 9 to 14) (size 15 to 20)
#    0.000    1.500    1.250    4.125    0.000    9.500 
#    0.000    0.625    0.000    0.000    0.000    0.000 
#    0.000    0.000    0.000    0.000    0.000    0.000 
#
# Total GULP energy -396978.347813 kJ/mol
# GULP energy per Si atom -12405.573369 kJ/mol
# Density = 1.956240 g / cm^3
# Si number density = 19.607028 Si / 1000 Ang^3
#
#
#
# Elastic Constant Matrix: (Units=GPa)
#
#
# Indices 1 2 3 4 5 6 
#
# 1 96.2697 44.8126 7.6537 0.0000 5.2024 0.0000
# 2 44.8126 102.3964 32.0404 0.0000 -5.9289 0.0000
# 3 7.6537 32.0404 53.9658 0.0000 -3.0359 0.0000
# 4 0.0000 0.0000 0.0000 36.7415 0.0000 3.4290
# 5 5.2024 -5.9289 -3.0359 0.0000 29.9349 0.0000
# 6 0.0000 0.0000 0.0000 3.4290 0.0000 32.0473
#
#
#
# Elastic Compliance Matrix: (Units=1/GPa)
#
#
# Indices 1 2 3 4 5 6 
#
# 1 0.013556 -0.006721 0.001871 0.000000 -0.003497 0.000000
# 2 -0.006721 0.015409 -0.008004 0.000000 0.003408 0.000000
# 3 0.001871 -0.008004 0.023041 0.000000 0.000426 0.000000
# 4 0.000000 0.000000 0.000000 0.027492 0.000000 -0.002942
# 5 -0.003497 0.003408 0.000426 0.000000 0.034732 0.000000
# 6 0.000000 0.000000 0.000000 -0.002942 0.000000 0.031519
#
#
# Mechanical properties :
#
#
# Convention : Reuss Voigt Hill
#
# Bulk Modulus (GPa) = 38.02430 46.84947 42.43688
# Shear Modulus (GPa) = 27.74370 30.95308 29.34839
#
# Velocity S-wave (km/s) = 3.76571 3.97756 3.87309
# Velocity P-wave (km/s) = 6.19215 6.71124 6.45692
#
# Compressibility (1/GPa) = 0.02629897
#
# Stress axis : x y z
#
# Youngs Moduli (GPa) = 73.76756 64.89774 43.40123
#
# Poissons Ratio (x) = 0.43615 -0.08119
# Poissons Ratio (y) = 0.49576 0.34737
# Poissons Ratio (z) = -0.13800 0.51942
#
# Static dielectric constant tensor:
#      x y z
#    x 3.418720 0.000000 0.029290 
#    y 0.000000 3.645670 0.000000 
#    z 0.029290 0.000000 3.437740 
# 
# 
# High freq. dielectric constant tensor:
#      x y z
#    x 1.777100 0.000000 0.006310 
#    y 0.000000 1.769180 0.000000 
#    z 0.006310 0.000000 1.755630 
# 
# From -- ./inp_files/72133.got.cif
#   From: 2010.06.25/outbox.cif.g09.slc.cpg/sg11_37_cif.got.tgz:72133.got - 2010.06.27 23:14:04.
