data_PCOD8071013
_publ_section_title
;
Structure prediction by ZEFSAII (Michael W. Deem and Ramdas Pophale) SiO2 
 PCOD8071013
Probable space group: P 21/M
;
_chemical_formula_sum "Si O2"
_cell_formula_units_Z 32
_cell_length_a 23.901715
_cell_length_b 9.154061
_cell_length_c 17.623417
_cell_angle_alpha 90.000000
_cell_angle_beta 28.225547
_cell_angle_gamma 90.000000
_cell_volume 1823.653830
_symmetry_space_group_name_H-M "P 21/M"
_symmetry_group_IT_number 11
_symmetry_cell_setting 'monoclinic'
loop_
_space_group_symop_operation_xyz
x,y,z
-x,1/2+y,-z
-x,-y,-z
x,1/2-y,z
loop_
_atom_site_type_symbol
_atom_site_label
_atom_site_fract_x
_atom_site_fract_y
_atom_site_fract_z
Si Si1 0.393064 0.419976 0.468857
Si Si2 0.670847 0.920488 0.621724
Si Si3 0.790824 0.582219 0.747709
Si Si4 0.482216 0.417949 0.943001
Si Si5 0.621584 0.420045 0.370647
Si Si6 0.339814 0.919469 0.840378
Si Si7 0.875746 0.922429 0.484144
Si Si8 0.137523 0.923661 0.190371
O O1 0.396529 0.250000 0.486739
O O2 0.320744 0.448146 0.478312
O O3 0.323474 0.505955 0.619356
O O4 0.528274 0.481368 0.300198
O O5 0.648497 0.750000 0.666067
O O6 0.791429 0.978793 0.516785
O O7 0.560476 0.010080 0.784478
O O8 0.831343 0.750000 0.707528
O O9 0.828967 0.516534 0.620584
O O10 0.855139 0.487585 0.734419
O O11 0.651310 0.566548 0.925146
O O12 0.518329 0.250000 0.911425
O O13 0.500000 0.500000 0.000000
O O14 0.500000 0.500000 0.500000
O O15 0.600207 0.250000 0.411767
O O16 0.699027 0.443583 0.201498
O O17 0.343067 0.750000 0.856388
O O18 0.240185 0.991473 0.013620
O O19 0.865353 0.750000 0.499918
O O20 0.010501 0.971389 0.307494
O O21 0.146192 0.750000 0.185815
#
# Coordination Sequence:
#
# PCOD8071013 Si02
#       8
#     4   4   4   4   4   4   4   4
#     4   9  17  29  48  72  98 126 157 193 239 293
#     4  10  19  34  52  71 100 132 163 202 243 287
#     4  10  20  34  48  68  99 125 156 204 252 285
#     4  11  21  33  50  71  98 129 161 200 246 294
#     4   9  16  28  47  70  99 125 152 193 241 291
#     4   8  15  28  45  70  95 118 153 195 233 280
#     4   9  18  33  50  68  94 129 165 205 243 281
#     4  10  19  32  52  72  91 124 170 204 238 290
#
# _framework density 17.547190000000001
#
# number of rings (size 3 to 8) (size 9 to 14) (size 15 to 20)
#    0.000    2.500    1.250    2.625    0.000    2.500 
#    0.000    5.000    0.000    0.750    0.000    0.000 
#    0.000    0.000    0.000    0.000    0.000    0.500 
#
# Total GULP energy -396641.131562 kJ/mol
# GULP energy per Si atom -12395.035361 kJ/mol
# Density = 1.750725 g / cm^3
# Si number density = 17.547190 Si / 1000 Ang^3
#
#
#
# Elastic Constant Matrix: (Units=GPa)
#
#
# Indices 1 2 3 4 5 6 
#
# 1 129.4712 36.1972 56.4920 0.0000 11.0123 0.0000
# 2 36.1972 51.3031 16.3117 0.0000 4.0152 0.0000
# 3 56.4920 16.3117 68.3040 0.0000 1.1792 0.0000
# 4 0.0000 0.0000 0.0000 18.7658 0.0000 5.7792
# 5 11.0123 4.0152 1.1792 0.0000 23.2086 0.0000
# 6 0.0000 0.0000 0.0000 5.7792 0.0000 27.9231
#
#
#
# Elastic Compliance Matrix: (Units=1/GPa)
#
#
# Indices 1 2 3 4 5 6 
#
# 1 0.014514 -0.006540 -0.010352 0.000000 -0.005229 0.000000
# 2 -0.006540 0.024311 -0.000378 0.000000 -0.001084 0.000000
# 3 -0.010352 -0.000378 0.023227 0.000000 0.003797 0.000000
# 4 0.000000 0.000000 0.000000 0.056916 0.000000 -0.011780
# 5 -0.005229 -0.001084 0.003797 0.000000 0.045563 0.000000
# 6 0.000000 0.000000 0.000000 -0.011780 0.000000 0.038251
#
#
# Mechanical properties :
#
#
# Convention : Reuss Voigt Hill
#
# Bulk Modulus (GPa) = 36.34750 51.89780 44.12265
# Shear Modulus (GPa) = 20.28467 23.31800 21.80134
#
# Velocity S-wave (km/s) = 3.40370 3.64933 3.52865
# Velocity P-wave (km/s) = 6.01714 6.88456 6.46541
#
# Compressibility (1/GPa) = 0.02751221
#
# Stress axis : x y z
#
# Youngs Moduli (GPa) = 68.90114 41.13337 43.05379
#
# Poissons Ratio (x) = 0.26899 0.44568
# Poissons Ratio (y) = 0.45058 0.01629
# Poissons Ratio (z) = 0.71324 0.01556
#
# Static dielectric constant tensor:
#      x y z
#    x 3.604230 0.000000 0.157570 
#    y 0.000000 3.174940 0.000000 
#    z 0.157570 0.000000 3.453480 
# 
# 
# High freq. dielectric constant tensor:
#      x y z
#    x 1.680990 0.000000 0.012710 
#    y 0.000000 1.655280 0.000000 
#    z 0.012710 0.000000 1.659570 
# 
# From -- ./inp_files/61757.got.cif
#   From: 2010.06.25/outbox.cif.g09.slc.cpg/sg11_31_cif.got.tgz:61757.got - 2010.06.27 23:14:04.
