data_PCOD8071819
_publ_section_title
;
Structure prediction by ZEFSAII (Michael W. Deem and Ramdas Pophale) SiO2 
 PCOD8071819
Probable space group: P 21/M
;
_chemical_formula_sum "Si O2"
_cell_formula_units_Z 32
_cell_length_a 28.768737
_cell_length_b 8.822455
_cell_length_c 11.878978
_cell_angle_alpha 90.000000
_cell_angle_beta 31.307598
_cell_angle_gamma 90.000000
_cell_volume 1566.698987
_symmetry_space_group_name_H-M "P 21/M"
_symmetry_group_IT_number 11
_symmetry_cell_setting 'monoclinic'
loop_
_space_group_symop_operation_xyz
x,y,z
-x,1/2+y,-z
-x,-y,-z
x,1/2-y,z
loop_
_atom_site_type_symbol
_atom_site_label
_atom_site_fract_x
_atom_site_fract_y
_atom_site_fract_z
Si Si1 0.673869 0.928976 0.067594
Si Si2 0.158350 0.069319 0.895773
Si Si3 0.585489 0.422653 0.877755
Si Si4 0.005450 0.928463 0.364843
Si Si5 0.170937 0.072349 0.413058
Si Si6 0.524140 0.076466 0.251332
Si Si7 0.326669 0.429763 0.682178
Si Si8 0.213616 0.930484 0.558004
O O1 0.676615 0.750000 0.060600
O O2 0.696779 0.990115 0.144582
O O3 0.574371 0.982790 0.243334
O O4 0.746118 0.993106 0.830502
O O5 0.150391 0.250000 0.906675
O O6 0.253050 0.009895 0.748142
O O7 0.152055 0.999953 0.783917
O O8 0.083492 0.005836 0.132785
O O9 0.580211 0.250000 0.850430
O O10 0.683138 0.490185 0.642641
O O11 0.500000 0.500000 0.000000
O O12 0.579758 0.441868 0.022816
O O13 0.022790 0.750000 0.341162
O O14 0.915912 0.962493 0.480983
O O15 0.000000 0.000000 0.500000
O O16 0.180906 0.250000 0.418176
O O17 0.168310 0.983902 0.535950
O O18 0.518892 0.250000 0.301988
O O19 0.424127 0.010525 0.442177
O O20 0.324992 0.250000 0.684321
O O21 0.210836 0.750000 0.567974
#
# Coordination Sequence:
#
# PCOD8071819 Si02
#       8
#     4   4   4   4   4   4   4   4
#     4  10  19  34  56  84 115 152 198 245 292 357
#     4  11  23  42  66  90 121 162 204 252 310 370
#     4  10  21  35  54  81 117 160 207 256 303 358
#     4  11  24  44  69  98 128 160 202 252 306 369
#     4  10  22  40  63  88 121 164 207 251 308 374
#     4  10  19  34  53  80 116 155 196 243 300 358
#     4   9  19  35  57  83 117 158 199 244 300 363
#     4  11  23  40  61  89 124 159 206 263 311 364
#
# _framework density 20.425111000000001
#
# number of rings (size 3 to 8) (size 9 to 14) (size 15 to 20)
#    0.000    1.750    1.250    3.000    0.000    6.000 
#    0.000    3.750    0.000    0.000    0.000    0.000 
#    0.000    0.000    0.000    0.000    0.000    0.000 
#
# Total GULP energy -396790.903183 kJ/mol
# GULP energy per Si atom -12399.715724 kJ/mol
# Density = 2.037862 g / cm^3
# Si number density = 20.425111 Si / 1000 Ang^3
#
#
#
# Elastic Constant Matrix: (Units=GPa)
#
#
# Indices 1 2 3 4 5 6 
#
# 1 111.7899 43.9097 48.9475 0.0000 2.3042 0.0000
# 2 43.9097 64.1402 41.3571 0.0000 3.3158 0.0000
# 3 48.9475 41.3571 137.2010 0.0000 9.7012 0.0000
# 4 0.0000 0.0000 0.0000 28.7430 0.0000 -3.8653
# 5 2.3042 3.3158 9.7012 0.0000 35.8924 0.0000
# 6 0.0000 0.0000 0.0000 -3.8653 0.0000 28.3489
#
#
#
# Elastic Compliance Matrix: (Units=1/GPa)
#
#
# Indices 1 2 3 4 5 6 
#
# 1 0.012850 -0.007254 -0.002433 0.000000 0.000503 0.000000
# 2 -0.007254 0.023449 -0.004445 0.000000 -0.000499 0.000000
# 3 -0.002433 -0.004445 0.009641 0.000000 -0.002039 0.000000
# 4 0.000000 0.000000 0.000000 0.035441 0.000000 0.004832
# 5 0.000503 -0.000499 -0.002039 0.000000 0.028426 0.000000
# 6 0.000000 0.000000 0.000000 0.004832 0.000000 0.035934
#
#
# Mechanical properties :
#
#
# Convention : Reuss Voigt Hill
#
# Bulk Modulus (GPa) = 56.57775 64.61776 60.59775
# Shear Modulus (GPa) = 27.79397 30.52464 29.15930
#
# Velocity S-wave (km/s) = 3.69287 3.87003 3.78249
# Velocity P-wave (km/s) = 6.77815 7.18850 6.98634
#
# Compressibility (1/GPa) = 0.01767479
#
# Stress axis : x y z
#
# Youngs Moduli (GPa) = 77.82363 42.64637 103.72675
#
# Poissons Ratio (x) = 0.30935 0.25239
# Poissons Ratio (y) = 0.56451 0.46108
# Poissons Ratio (z) = 0.18936 0.18957
#
# Static dielectric constant tensor:
#      x y z
#    x 3.837030 0.000000 0.008520 
#    y 0.000000 3.518650 0.000000 
#    z 0.008520 0.000000 3.987950 
# 
# 
# High freq. dielectric constant tensor:
#      x y z
#    x 1.808880 0.000000 0.004000 
#    y 0.000000 1.778890 0.000000 
#    z 0.004000 0.000000 1.810550 
# 
# From -- ./inp_files/45237.got.cif
#   From: 2010.06.25/outbox.cif.g09.slc.cpg/sg11_23_cif.got.tgz:45237.got - 2010.06.27 23:14:04.
