data_PCOD8071361
_publ_section_title
;
Structure prediction by ZEFSAII (Michael W. Deem and Ramdas Pophale) SiO2 
 PCOD8071361
Probable space group: P 21/M
;
_chemical_formula_sum "Si O2"
_cell_formula_units_Z 32
_cell_length_a 11.999578
_cell_length_b 9.000436
_cell_length_c 21.858277
_cell_angle_alpha 90.000000
_cell_angle_beta 133.837938
_cell_angle_gamma 90.000000
_cell_volume 1702.795311
_symmetry_space_group_name_H-M "P 21/M"
_symmetry_group_IT_number 11
_symmetry_cell_setting 'monoclinic'
loop_
_space_group_symop_operation_xyz
x,y,z
-x,1/2+y,-z
-x,-y,-z
x,1/2-y,z
loop_
_atom_site_type_symbol
_atom_site_label
_atom_site_fract_x
_atom_site_fract_y
_atom_site_fract_z
Si Si1 0.403256 0.573947 0.409141
Si Si2 0.928799 0.421311 0.530148
Si Si3 0.559835 0.425415 0.225225
Si Si4 0.003673 0.576097 0.094432
Si Si5 0.415676 0.923163 0.624603
Si Si6 0.849817 0.924800 0.278298
Si Si7 0.935892 0.074495 0.747110
Si Si8 0.759203 0.423169 0.920547
O O1 0.500000 0.500000 0.500000
O O2 0.419197 0.750000 0.421748
O O3 0.462119 0.523033 0.364923
O O4 0.224877 0.520021 0.344459
O O5 0.953400 0.250000 0.526585
O O6 0.748673 0.457937 0.468954
O O7 0.000000 0.500000 0.500000
O O8 0.016223 0.472899 0.623963
O O9 0.554848 0.250000 0.216631
O O10 0.588763 0.473397 0.306359
O O11 0.694715 0.486600 0.233226
O O12 0.401533 0.492159 0.140876
O O13 0.961027 0.750000 0.078384
O O14 0.041254 0.511677 0.175884
O O15 0.153456 0.545269 0.109874
O O16 0.857968 0.485217 0.014416
O O17 0.459984 0.750000 0.635487
O O18 0.814350 0.750000 0.268258
O O19 0.916650 0.972715 0.237594
O O20 0.924753 0.250000 0.747192
O O21 0.729204 0.250000 0.919434
#
# Coordination Sequence:
#
# PCOD8071361 Si02
#       8
#     4   4   4   4   4   4   4   4
#     4  11  22  37  57  82 114 149 187 229 276 330
#     4  10  19  33  52  75 107 145 185 230 275 324
#     4  11  22  36  55  81 113 145 181 230 279 325
#     4   9  18  36  61  86 110 141 180 222 274 332
#     4  10  21  36  54  79 112 145 183 233 282 328
#     4  10  20  35  56  78 106 146 188 229 274 328
#     4   9  19  37  59  80 108 147 186 226 274 328
#     4  10  20  35  58  87 116 141 175 224 276 335
#
# _framework density 18.792629000000002
#
# number of rings (size 3 to 8) (size 9 to 14) (size 15 to 20)
#    0.000    2.000    1.250    2.625    0.000    5.000 
#    0.000    5.000    0.000    0.000    0.000    0.000 
#    0.000    0.000    0.000    0.000    0.000    0.000 
#
# Total GULP energy -396848.668533 kJ/mol
# GULP energy per Si atom -12401.520892 kJ/mol
# Density = 1.874986 g / cm^3
# Si number density = 18.792629 Si / 1000 Ang^3
#
#
#
# Elastic Constant Matrix: (Units=GPa)
#
#
# Indices 1 2 3 4 5 6 
#
# 1 132.8884 50.6068 75.1315 0.0000 5.6715 0.0000
# 2 50.6068 58.3978 43.3361 0.0000 3.3806 0.0000
# 3 75.1315 43.3361 130.8334 0.0000 2.0940 0.0000
# 4 0.0000 0.0000 0.0000 26.8063 0.0000 -0.4613
# 5 5.6715 3.3806 2.0940 0.0000 30.2301 0.0000
# 6 0.0000 0.0000 0.0000 -0.4613 0.0000 29.0384
#
#
#
# Elastic Compliance Matrix: (Units=1/GPa)
#
#
# Indices 1 2 3 4 5 6 
#
# 1 0.013433 -0.007766 -0.005121 0.000000 -0.001297 0.000000
# 2 -0.007766 0.027318 -0.004569 0.000000 -0.001282 0.000000
# 3 -0.005121 -0.004569 0.012087 0.000000 0.000634 0.000000
# 4 0.000000 0.000000 0.000000 0.037315 0.000000 0.000593
# 5 -0.001297 -0.001282 0.000634 0.000000 0.033422 0.000000
# 6 0.000000 0.000000 0.000000 0.000593 0.000000 0.034447
#
#
# Mechanical properties :
#
#
# Convention : Reuss Voigt Hill
#
# Bulk Modulus (GPa) = 55.77945 73.36315 64.57130
# Shear Modulus (GPa) = 25.13719 27.41799 26.27759
#
# Velocity S-wave (km/s) = 3.66130 3.82380 3.74343
# Velocity P-wave (km/s) = 6.90069 7.65626 7.28827
#
# Compressibility (1/GPa) = 0.01792775
#
# Stress axis : x y z
#
# Youngs Moduli (GPa) = 74.44326 36.60583 82.73225
#
# Poissons Ratio (x) = 0.28427 0.42367
# Poissons Ratio (y) = 0.57810 0.37798
# Poissons Ratio (z) = 0.38122 0.16724
#
# Static dielectric constant tensor:
#      x y z
#    x 3.490690 0.000000 -0.007740 
#    y 0.000000 3.341950 0.000000 
#    z -0.007740 0.000000 3.573670 
# 
# 
# High freq. dielectric constant tensor:
#      x y z
#    x 1.733650 0.000000 0.002780 
#    y 0.000000 1.717490 0.000000 
#    z 0.002780 0.000000 1.732140 
# 
# From -- ./inp_files/64455.got.cif
#   From: 2010.06.25/outbox.cif.g09.slc.cpg/sg11_33_cif.got.tgz:64455.got - 2010.06.27 23:14:04.
