data_PCOD8071426
_publ_section_title
;
Structure prediction by ZEFSAII (Michael W. Deem and Ramdas Pophale) SiO2 
 PCOD8071426
Probable space group: P 21/M
;
_chemical_formula_sum "Si O2"
_cell_formula_units_Z 32
_cell_length_a 30.641932
_cell_length_b 9.319457
_cell_length_c 11.787186
_cell_angle_alpha 90.000000
_cell_angle_beta 149.551938
_cell_angle_gamma 90.000000
_cell_volume 1705.755301
_symmetry_space_group_name_H-M "P 21/M"
_symmetry_group_IT_number 11
_symmetry_cell_setting 'monoclinic'
loop_
_space_group_symop_operation_xyz
x,y,z
-x,1/2+y,-z
-x,-y,-z
x,1/2-y,z
loop_
_atom_site_type_symbol
_atom_site_label
_atom_site_fract_x
_atom_site_fract_y
_atom_site_fract_z
Si Si1 0.587464 0.916362 0.670153
Si Si2 0.247043 0.086610 0.820764
Si Si3 0.275489 0.082957 0.630673
Si Si4 0.774523 0.417929 0.698395
Si Si5 0.468348 0.086117 0.035333
Si Si6 0.935926 0.084435 0.210583
Si Si7 0.627878 0.084204 0.543970
Si Si8 0.101820 0.582977 0.616222
O O1 0.565344 0.750000 0.597005
O O2 0.500000 0.000000 0.500000
O O3 0.637068 0.984172 0.673924
O O4 0.652408 0.931633 0.921603
O O5 0.218178 0.250000 0.780810
O O6 0.233591 0.049040 0.658424
O O7 0.189812 0.979692 0.765446
O O8 0.269021 0.250000 0.586767
O O9 0.374293 0.031782 0.859309
O O10 0.225468 0.997122 0.421717
O O11 0.766549 0.250000 0.657102
O O12 0.695198 0.468799 0.599436
O O13 0.863706 0.458430 0.958365
O O14 0.466987 0.250000 0.993724
O O15 0.531004 0.064396 0.282265
O O16 0.500000 0.000000 0.000000
O O17 0.962472 0.250000 0.259684
O O18 0.898274 0.051017 0.250269
O O19 0.019999 0.990647 0.372891
O O20 0.646958 0.250000 0.619623
O O21 0.097957 0.750000 0.579889
#
# Coordination Sequence:
#
# PCOD8071426 Si02
#       8
#     4   4   4   4   4   4   4   4
#     4  11  23  38  57  81 111 147 187 230 277 331
#     4  10  22  40  58  78 111 152 186 224 280 330
#     4  10  21  36  54  77 109 148 188 230 274 326
#     4  10  20  35  56  82 111 145 181 224 277 327
#     4  10  19  33  53  76 108 147 185 229 274 321
#     4   9  19  36  58  85 117 144 171 219 281 333
#     4  10  20  35  55  80 113 146 181 231 284 330
#     4  10  20  36  61  89 111 140 182 224 269 329
#
# _framework density 18.760017000000001
#
# number of rings (size 3 to 8) (size 9 to 14) (size 15 to 20)
#    0.000    2.000    1.250    2.250    0.000    6.500 
#    0.000    1.875    0.000    0.000    0.000    0.000 
#    0.000    0.000    0.000    0.000    0.000    0.000 
#
# Total GULP energy -396910.678799 kJ/mol
# GULP energy per Si atom -12403.458712 kJ/mol
# Density = 1.871732 g / cm^3
# Si number density = 18.760017 Si / 1000 Ang^3
#
#
#
# Elastic Constant Matrix: (Units=GPa)
#
#
# Indices 1 2 3 4 5 6 
#
# 1 77.5549 47.1271 40.7383 0.0000 -4.6562 0.0000
# 2 47.1271 81.7079 50.1254 0.0000 -2.1069 0.0000
# 3 40.7383 50.1254 108.3828 0.0000 -4.2528 0.0000
# 4 0.0000 0.0000 0.0000 30.7905 0.0000 1.3323
# 5 -4.6562 -2.1069 -4.2528 0.0000 31.4169 0.0000
# 6 0.0000 0.0000 0.0000 1.3323 0.0000 35.4395
#
#
#
# Elastic Compliance Matrix: (Units=1/GPa)
#
#
# Indices 1 2 3 4 5 6 
#
# 1 0.020710 -0.010005 -0.003080 0.000000 0.001982 0.000000
# 2 -0.010005 0.021920 -0.006412 0.000000 -0.000881 0.000000
# 3 -0.003080 -0.006412 0.013386 0.000000 0.000926 0.000000
# 4 0.000000 0.000000 0.000000 0.032531 0.000000 -0.001223
# 5 0.001982 -0.000881 0.000926 0.000000 0.032190 0.000000
# 6 0.000000 0.000000 0.000000 -0.001223 0.000000 0.028263
#
#
# Mechanical properties :
#
#
# Convention : Reuss Voigt Hill
#
# Bulk Modulus (GPa) = 58.74150 60.40301 59.57226
# Shear Modulus (GPa) = 25.81764 28.17302 26.99533
#
# Velocity S-wave (km/s) = 3.71375 3.87946 3.79751
# Velocity P-wave (km/s) = 7.05474 7.23426 7.14506
#
# Compressibility (1/GPa) = 0.01702374
#
# Stress axis : x y z
#
# Youngs Moduli (GPa) = 48.28527 45.62074 74.70656
#
# Poissons Ratio (x) = 0.45643 0.23007
# Poissons Ratio (y) = 0.48308 0.47899
# Poissons Ratio (z) = 0.14870 0.29250
#
# Static dielectric constant tensor:
#      x y z
#    x 3.295290 0.000000 -0.096620 
#    y 0.000000 3.624300 0.000000 
#    z -0.096620 0.000000 3.513020 
# 
# 
# High freq. dielectric constant tensor:
#      x y z
#    x 1.721580 0.000000 -0.001530 
#    y 0.000000 1.726420 0.000000 
#    z -0.001530 0.000000 1.731840 
# 
# From -- ./inp_files/42818.got.cif
#   From: 2010.06.25/outbox.cif.g09.slc.cpg/sg11_22_cif.got.tgz:42818.got - 2010.06.27 23:14:04.
