data_PCOD8071766
_publ_section_title
;
Structure prediction by ZEFSAII (Michael W. Deem and Ramdas Pophale) SiO2 
 PCOD8071766
Probable space group: P 21/M
;
_chemical_formula_sum "Si O2"
_cell_formula_units_Z 28
_cell_length_a 10.653988
_cell_length_b 13.109356
_cell_length_c 12.199461
_cell_angle_alpha 90.000000
_cell_angle_beta 120.585625
_cell_angle_gamma 90.000000
_cell_volume 1466.802471
_symmetry_space_group_name_H-M "P 21/M"
_symmetry_group_IT_number 11
_symmetry_cell_setting 'monoclinic'
loop_
_space_group_symop_operation_xyz
x,y,z
-x,1/2+y,-z
-x,-y,-z
x,1/2-y,z
loop_
_atom_site_type_symbol
_atom_site_label
_atom_site_fract_x
_atom_site_fract_y
_atom_site_fract_z
Si Si1 0.830113 0.003340 0.759214
Si Si2 0.099974 0.367163 0.831341
Si Si3 0.150588 0.467881 0.621524
Si Si4 0.585105 0.368505 0.551432
Si Si5 0.299902 0.133248 0.116778
Si Si6 0.375635 0.867613 0.685004
Si Si7 0.262875 0.368605 0.463993
O O1 0.694866 0.079355 0.684078
O O2 0.975525 0.069184 0.838139
O O3 0.804213 0.935765 0.854976
O O4 0.850906 0.929909 0.662629
O O5 0.048643 0.250000 0.799633
O O6 0.127049 0.408878 0.722974
O O7 0.247583 0.376491 0.968029
O O8 0.249781 0.567296 0.687810
O O9 0.235366 0.390484 0.578996
O O10 0.000000 0.500000 0.500000
O O11 0.583883 0.250000 0.579705
O O12 0.634911 0.388264 0.449255
O O13 0.421927 0.411122 0.498274
O O14 0.288065 0.250000 0.154100
O O15 0.467371 0.097677 0.199096
O O16 0.345394 0.750000 0.699634
O O17 0.246166 0.250000 0.431600
#
# Coordination Sequence:
#
# PCOD8071766 Si02
#       7
#     4   4   4   4   4   4   4
#     4  12  19  36  61  88 114 146 191 242 289 340
#     4  11  25  42  57  80 119 162 196 232 285 350
#     4  12  23  39  57  85 117 153 191 233 291 345
#     4  10  19  33  58  90 118 145 183 240 297 340
#     4  10  22  40  62  86 115 153 195 239 288 340
#     4  10  20  37  61  88 118 152 194 239 285 344
#     4  11  21  33  55  87 116 144 183 237 293 339
#
# _framework density 19.089141999999999
#
# number of rings (size 3 to 8) (size 9 to 14) (size 15 to 20)
#    0.000    1.143    4.286    3.000    0.000    2.857 
#    0.000    0.000    0.000    1.714    0.000    0.000 
#    0.000    0.000    0.000    0.000    0.000    0.000 
#
# Total GULP energy -347336.785492 kJ/mol
# GULP energy per Si atom -12404.885196 kJ/mol
# Density = 1.904569 g / cm^3
# Si number density = 19.089142 Si / 1000 Ang^3
#
#
#
# Elastic Constant Matrix: (Units=GPa)
#
#
# Indices 1 2 3 4 5 6 
#
# 1 82.8695 44.7216 35.5486 0.0000 10.7743 0.0000
# 2 44.7216 79.3701 39.7880 0.0000 9.6435 0.0000
# 3 35.5486 39.7880 96.5081 0.0000 1.6622 0.0000
# 4 0.0000 0.0000 0.0000 29.9880 0.0000 1.1107
# 5 10.7743 9.6435 1.6622 0.0000 26.1785 0.0000
# 6 0.0000 0.0000 0.0000 1.1107 0.0000 37.4325
#
#
#
# Elastic Compliance Matrix: (Units=1/GPa)
#
#
# Indices 1 2 3 4 5 6 
#
# 1 0.018509 -0.008215 -0.003356 0.000000 -0.004379 0.000000
# 2 -0.008215 0.020341 -0.005295 0.000000 -0.003776 0.000000
# 3 -0.003356 -0.005295 0.013739 0.000000 0.002459 0.000000
# 4 0.000000 0.000000 0.000000 0.033383 0.000000 -0.000991
# 5 -0.004379 -0.003776 0.002459 0.000000 0.041236 0.000000
# 6 0.000000 0.000000 0.000000 -0.000991 0.000000 0.026744
#
#
# Mechanical properties :
#
#
# Convention : Reuss Voigt Hill
#
# Bulk Modulus (GPa) = 53.02930 55.42933 54.22931
# Shear Modulus (GPa) = 25.77716 27.96575 26.87145
#
# Velocity S-wave (km/s) = 3.67871 3.83170 3.75598
# Velocity P-wave (km/s) = 6.77377 6.97682 6.87604
#
# Compressibility (1/GPa) = 0.01885750
#
# Stress axis : x y z
#
# Youngs Moduli (GPa) = 54.02706 49.16120 72.78778
#
# Poissons Ratio (x) = 0.40386 0.24425
# Poissons Ratio (y) = 0.44383 0.38542
# Poissons Ratio (z) = 0.18129 0.26032
#
# Static dielectric constant tensor:
#      x y z
#    x 3.414070 0.000000 0.107070 
#    y 0.000000 3.666910 0.000000 
#    z 0.107070 0.000000 3.400120 
# 
# 
# High freq. dielectric constant tensor:
#      x y z
#    x 1.732410 0.000000 0.008280 
#    y 0.000000 1.762140 0.000000 
#    z 0.008280 0.000000 1.733070 
# 
# From -- ./inp_files/31729.got.cif
#   From: 2010.06.25/outbox.cif.g09.slc.cpg/sg11_16_cif.got.tgz:31729.got - 2010.06.27 23:14:04.
