data_PCOD8071823
_publ_section_title
;
Structure prediction by ZEFSAII (Michael W. Deem and Ramdas Pophale) SiO2 
 PCOD8071823
Probable space group: P 21/M
;
_chemical_formula_sum "Si O2"
_cell_formula_units_Z 28
_cell_length_a 19.209035
_cell_length_b 8.445667
_cell_length_c 14.941537
_cell_angle_alpha 90.000000
_cell_angle_beta 38.112302
_cell_angle_gamma 90.000000
_cell_volume 1496.111937
_symmetry_space_group_name_H-M "P 21/M"
_symmetry_group_IT_number 11
_symmetry_cell_setting 'monoclinic'
loop_
_space_group_symop_operation_xyz
x,y,z
-x,1/2+y,-z
-x,-y,-z
x,1/2-y,z
loop_
_atom_site_type_symbol
_atom_site_label
_atom_site_fract_x
_atom_site_fract_y
_atom_site_fract_z
Si Si1 0.068782 0.562717 0.618078
Si Si2 0.460346 0.937528 0.445887
Si Si3 0.397074 0.431674 0.252941
Si Si4 0.206997 0.068801 0.315069
Si Si5 0.741444 0.069853 0.454199
Si Si6 0.171375 0.566465 0.160741
Si Si7 0.400805 0.436661 0.867568
O O1 0.088056 0.750000 0.587564
O O2 0.116014 0.475824 0.482544
O O3 0.137292 0.498012 0.637770
O O4 0.938788 0.523842 0.763211
O O5 0.455092 0.750000 0.454069
O O6 0.333087 0.006062 0.551757
O O7 0.547744 0.990120 0.280165
O O8 0.500000 0.000000 0.500000
O O9 0.381664 0.250000 0.300807
O O10 0.336270 0.452720 0.218403
O O11 0.338225 0.555867 0.378683
O O12 0.528937 0.480935 0.121700
O O13 0.184698 0.250000 0.309065
O O14 0.189743 0.958618 0.247395
O O15 0.761953 0.250000 0.407761
O O16 0.156265 0.750000 0.156172
O O17 0.273970 0.498934 0.999147
O O18 0.402171 0.250000 0.880671
#
# Coordination Sequence:
#
# PCOD8071823 Si02
#       7
#     4   4   4   4   4   4   4
#     4  10  19  34  54  73  99 136 176 215 251 290
#     4   9  18  33  56  84 107 127 155 195 245 301
#     4   9  17  30  50  74  99 129 167 211 253 293
#     4  10  20  34  51  73 101 134 175 217 254 294
#     4   8  16  31  51  75 102 133 166 200 244 296
#     4  12  24  35  49  71 100 135 175 216 256 297
#     4  10  21  37  53  72 102 136 168 202 250 308
#
# _framework density 18.715177000000001
#
# number of rings (size 3 to 8) (size 9 to 14) (size 15 to 20)
#    0.000    2.286    0.000    4.286    0.000    5.714 
#    0.000    0.000    0.000    0.857    0.000    0.000 
#    0.000    0.000    0.000    0.000    0.000    0.000 
#
# Total GULP energy -346912.928122 kJ/mol
# GULP energy per Si atom -12389.747433 kJ/mol
# Density = 1.867258 g / cm^3
# Si number density = 18.715177 Si / 1000 Ang^3
#
#
#
# Elastic Constant Matrix: (Units=GPa)
#
#
# Indices 1 2 3 4 5 6 
#
# 1 156.4118 20.6759 60.0918 0.0000 -21.9076 0.0000
# 2 20.6759 42.7615 14.0965 0.0000 2.6693 0.0000
# 3 60.0918 14.0965 80.6577 0.0000 -22.6607 0.0000
# 4 0.0000 0.0000 0.0000 25.8953 0.0000 -2.3558
# 5 -21.9076 2.6693 -22.6607 0.0000 16.0021 0.0000
# 6 0.0000 0.0000 0.0000 -2.3558 0.0000 25.8895
#
#
#
# Elastic Compliance Matrix: (Units=1/GPa)
#
#
# Indices 1 2 3 4 5 6 
#
# 1 0.009632 -0.003674 -0.004412 0.000000 0.007551 0.000000
# 2 -0.003674 0.029384 -0.008617 0.000000 -0.022133 0.000000
# 3 -0.004412 -0.008617 0.026402 0.000000 0.032785 0.000000
# 4 0.000000 0.000000 0.000000 0.038939 0.000000 0.003543
# 5 0.007551 -0.022133 0.032785 0.000000 0.122948 0.000000
# 6 0.000000 0.000000 0.000000 0.003543 0.000000 0.038948
#
#
# Mechanical properties :
#
#
# Convention : Reuss Voigt Hill
#
# Bulk Modulus (GPa) = 31.23813 52.17325 41.70569
# Shear Modulus (GPa) = 16.11184 25.88849 21.00016
#
# Velocity S-wave (km/s) = 2.93729 3.72329 3.35340
# Velocity P-wave (km/s) = 5.31330 6.81336 6.10954
#
# Compressibility (1/GPa) = 0.03201216
#
# Stress axis : x y z
#
# Youngs Moduli (GPa) = 103.82222 34.03208 37.87558
#
# Poissons Ratio (x) = 0.12503 0.16712
# Poissons Ratio (y) = 0.38143 0.32636
# Poissons Ratio (z) = 0.45811 0.29324
#
# Static dielectric constant tensor:
#      x y z
#    x 6.680310 0.000000 0.277390 
#    y 0.000000 3.402770 0.000000 
#    z 0.277390 0.000000 3.351770 
# 
# 
# High freq. dielectric constant tensor:
#      x y z
#    x 1.734960 0.000000 -0.033350 
#    y 0.000000 1.728180 0.000000 
#    z -0.033350 0.000000 1.685860 
# 
# From -- ./inp_files/42580.got.cif
#   From: 2010.06.25/outbox.cif.g09.slc.cpg/sg11_22_cif.got.tgz:42580.got - 2010.06.27 23:14:04.
