data_PCOD8071601
_publ_section_title
;
Structure prediction by ZEFSAII (Michael W. Deem and Ramdas Pophale) SiO2 
 PCOD8071601
Probable space group: P 21/M
;
_chemical_formula_sum "Si O2"
_cell_formula_units_Z 32
_cell_length_a 20.428769
_cell_length_b 9.076072
_cell_length_c 25.122344
_cell_angle_alpha 90.000000
_cell_angle_beta 22.273831
_cell_angle_gamma 90.000000
_cell_volume 1765.541517
_symmetry_space_group_name_H-M "P 21/M"
_symmetry_group_IT_number 11
_symmetry_cell_setting 'monoclinic'
loop_
_space_group_symop_operation_xyz
x,y,z
-x,1/2+y,-z
-x,-y,-z
x,1/2-y,z
loop_
_atom_site_type_symbol
_atom_site_label
_atom_site_fract_x
_atom_site_fract_y
_atom_site_fract_z
Si Si1 0.661037 0.922654 0.406148
Si Si2 0.373079 0.080687 0.444424
Si Si3 0.749689 0.078183 0.845836
Si Si4 0.566576 0.080253 0.874641
Si Si5 0.923692 0.078724 0.138015
Si Si6 0.104116 0.924003 0.574017
Si Si7 0.769247 0.418856 0.140409
Si Si8 0.147754 0.578734 0.421248
O O1 0.650332 0.750000 0.401840
O O2 0.657199 0.955300 0.471356
O O3 0.500000 0.000000 0.500000
O O4 0.839254 0.988984 0.249842
O O5 0.326443 0.250000 0.467154
O O6 0.569777 0.046651 0.280253
O O7 0.255798 0.973298 0.498486
O O8 0.776636 0.250000 0.835164
O O9 0.694457 0.040730 0.827100
O O10 0.926452 0.996799 0.726599
O O11 0.602984 0.020516 0.996552
O O12 0.509046 0.250000 0.922063
O O13 0.666184 0.045340 0.745005
O O14 0.928204 0.250000 0.149542
O O15 0.810113 0.047239 0.171172
O O16 0.118826 0.022497 0.982375
O O17 0.083199 0.750000 0.592757
O O18 0.151914 0.977796 0.478601
O O19 0.815705 0.250000 0.092629
O O20 0.104500 0.750000 0.450769
O O21 0.000000 0.500000 0.500000
#
# Coordination Sequence:
#
# PCOD8071601 Si02
#       8
#     4   4   4   4   4   4   4   4
#     4  11  21  36  58  85 113 145 186 234 280 330
#     4  10  22  40  58  79 113 151 188 226 274 336
#     4  10  19  33  55  81 110 147 185 223 276 331
#     4   9  18  33  54  81 111 142 181 231 276 320
#     4  10  19  33  55  86 115 143 184 232 280 328
#     4  11  23  37  56  83 114 147 185 228 278 332
#     4   9  18  35  55  80 112 148 187 228 276 328
#     4  10  20  35  56  83 112 142 182 229 275 325
#
# _framework density 18.124751
#
# number of rings (size 3 to 8) (size 9 to 14) (size 15 to 20)
#    0.000    2.000    2.500    1.500    0.000    3.500 
#    0.000    1.250    0.000    3.000    0.000    0.000 
#    0.000    0.000    0.000    0.000    0.000    0.000 
#
# Total GULP energy -396924.805057 kJ/mol
# GULP energy per Si atom -12403.900158 kJ/mol
# Density = 1.808350 g / cm^3
# Si number density = 18.124751 Si / 1000 Ang^3
#
#
#
# Elastic Constant Matrix: (Units=GPa)
#
#
# Indices 1 2 3 4 5 6 
#
# 1 78.8975 52.7312 58.9259 0.0000 0.0078 0.0000
# 2 52.7312 91.5440 62.3123 0.0000 2.1872 0.0000
# 3 58.9259 62.3123 124.6786 0.0000 1.1882 0.0000
# 4 0.0000 0.0000 0.0000 38.0683 0.0000 -2.4198
# 5 0.0078 2.1872 1.1882 0.0000 26.5270 0.0000
# 6 0.0000 0.0000 0.0000 -2.4198 0.0000 26.7907
#
#
#
# Elastic Compliance Matrix: (Units=1/GPa)
#
#
# Indices 1 2 3 4 5 6 
#
# 1 0.023797 -0.009200 -0.006659 0.000000 0.001050 0.000000
# 2 -0.009200 0.020139 -0.005704 0.000000 -0.001402 0.000000
# 3 -0.006659 -0.005704 0.014020 0.000000 -0.000156 0.000000
# 4 0.000000 0.000000 0.000000 0.026420 0.000000 0.002386
# 5 0.001050 -0.001402 -0.000156 0.000000 0.037820 0.000000
# 6 0.000000 0.000000 0.000000 0.002386 0.000000 0.037542
#
#
# Mechanical properties :
#
#
# Convention : Reuss Voigt Hill
#
# Bulk Modulus (GPa) = 67.42840 71.45102 69.43971
# Shear Modulus (GPa) = 24.06097 26.35391 25.20744
#
# Velocity S-wave (km/s) = 3.64747 3.81731 3.73335
# Velocity P-wave (km/s) = 7.41767 7.67701 7.54846
#
# Compressibility (1/GPa) = 0.01483055
#
# Stress axis : x y z
#
# Youngs Moduli (GPa) = 42.02291 49.65525 71.32740
#
# Poissons Ratio (x) = 0.45682 0.47496
# Poissons Ratio (y) = 0.38660 0.40683
# Poissons Ratio (z) = 0.27983 0.28322
#
# Static dielectric constant tensor:
#      x y z
#    x 3.292100 0.000000 0.241360 
#    y 0.000000 3.312160 0.000000 
#    z 0.241360 0.000000 3.546710 
# 
# 
# High freq. dielectric constant tensor:
#      x y z
#    x 1.674380 0.000000 0.010010 
#    y 0.000000 1.709100 0.000000 
#    z 0.010010 0.000000 1.715230 
# 
# From -- ./inp_files/71989.got.cif
#   From: 2010.06.25/outbox.cif.g09.slc.cpg/sg11_36_cif.got.tgz:71989.got - 2010.06.27 23:14:04.
