data_PCOD8071732
_publ_section_title
;
Structure prediction by ZEFSAII (Michael W. Deem and Ramdas Pophale) SiO2 
 PCOD8071732
Probable space group: P 21/M
;
_chemical_formula_sum "Si O2"
_cell_formula_units_Z 32
_cell_length_a 23.096681
_cell_length_b 13.964839
_cell_length_c 9.598677
_cell_angle_alpha 90.000000
_cell_angle_beta 149.465049
_cell_angle_gamma 90.000000
_cell_volume 1572.951021
_symmetry_space_group_name_H-M "P 21/M"
_symmetry_group_IT_number 11
_symmetry_cell_setting 'monoclinic'
loop_
_space_group_symop_operation_xyz
x,y,z
-x,1/2+y,-z
-x,-y,-z
x,1/2-y,z
loop_
_atom_site_type_symbol
_atom_site_label
_atom_site_fract_x
_atom_site_fract_y
_atom_site_fract_z
Si Si1 0.419438 0.591652 0.327017
Si Si2 0.181662 0.362478 0.800421
Si Si3 0.377521 0.351935 0.395797
Si Si4 0.214747 0.538118 0.708487
Si Si5 0.931210 0.139070 0.383840
Si Si6 0.558127 0.863058 0.171656
Si Si7 0.319502 0.546793 0.639299
Si Si8 0.744224 0.138268 0.773088
O O1 0.500000 0.500000 0.500000
O O2 0.509646 0.670359 0.461923
O O3 0.371071 0.619732 0.377632
O O4 0.322134 0.582052 0.010908
O O5 0.197989 0.250000 0.800425
O O6 0.200479 0.423018 0.698419
O O7 0.060871 0.386591 0.618010
O O8 0.277641 0.407097 0.104989
O O9 0.321379 0.250000 0.316894
O O10 0.414058 0.401396 0.614896
O O11 0.102243 0.585969 0.542379
O O12 0.228582 0.563848 0.574789
O O13 0.913907 0.250000 0.377245
O O14 0.852981 0.107875 0.091102
O O15 0.586085 0.750000 0.203141
O O16 0.636941 0.936659 0.247667
O O17 0.425360 0.879789 0.866376
O O18 0.255018 0.570686 0.361626
O O19 0.750572 0.250000 0.743277
#
# Coordination Sequence:
#
# PCOD8071732 Si02
#       8
#     4   4   4   4   4   4   4   4
#     4  11  19  33  55  84 118 144 185 239 284 342
#     4  10  21  38  62  89 114 148 195 244 295 346
#     4  10  19  33  57  86 114 148 190 239 289 341
#     4  11  22  36  60  87 116 151 190 241 292 338
#     4   9  21  41  64  86 112 147 197 250 292 337
#     4  10  22  37  55  82 125 164 190 230 292 353
#     4  11  23  37  56  87 120 159 195 236 284 349
#     4  10  22  38  59  84 115 158 196 240 291 342
#
# _framework density 20.343927000000001
#
# number of rings (size 3 to 8) (size 9 to 14) (size 15 to 20)
#    0.000    1.750    2.500    1.875    3.500    2.000 
#    0.000    0.625    0.000    0.000    0.000    0.000 
#    0.000    0.000    0.000    0.000    0.000    0.000 
#
# Total GULP energy -396532.599204 kJ/mol
# GULP energy per Si atom -12391.643725 kJ/mol
# Density = 2.029762 g / cm^3
# Si number density = 20.343927 Si / 1000 Ang^3
#
#
#
# Elastic Constant Matrix: (Units=GPa)
#
#
# Indices 1 2 3 4 5 6 
#
# 1 120.8215 32.1583 52.8231 0.0000 -8.2196 0.0000
# 2 32.1583 78.7378 18.3689 0.0000 0.7219 0.0000
# 3 52.8231 18.3689 71.7821 0.0000 6.1039 0.0000
# 4 0.0000 0.0000 0.0000 20.0141 0.0000 0.5622
# 5 -8.2196 0.7219 6.1039 0.0000 31.0516 0.0000
# 6 0.0000 0.0000 0.0000 0.5622 0.0000 25.3208
#
#
#
# Elastic Compliance Matrix: (Units=1/GPa)
#
#
# Indices 1 2 3 4 5 6 
#
# 1 0.013862 -0.003426 -0.009807 0.000000 0.005677 0.000000
# 2 -0.003426 0.014358 -0.001065 0.000000 -0.001031 0.000000
# 3 -0.009807 -0.001065 0.022007 0.000000 -0.006897 0.000000
# 4 0.000000 0.000000 0.000000 0.049996 0.000000 -0.001110
# 5 0.005677 -0.001031 -0.006897 0.000000 0.035087 0.000000
# 6 0.000000 0.000000 0.000000 -0.001110 0.000000 0.039518
#
#
# Mechanical properties :
#
#
# Convention : Reuss Voigt Hill
#
# Bulk Modulus (GPa) = 46.23139 53.11578 49.67358
# Shear Modulus (GPa) = 23.73780 26.47672 25.10726
#
# Velocity S-wave (km/s) = 3.41959 3.61148 3.51684
# Velocity P-wave (km/s) = 6.19400 6.59970 6.40007
#
# Compressibility (1/GPa) = 0.02163033
#
# Stress axis : x y z
#
# Youngs Moduli (GPa) = 72.13761 69.64969 45.43994
#
# Poissons Ratio (x) = 0.23861 0.44564
# Poissons Ratio (y) = 0.24713 0.04841
# Poissons Ratio (z) = 0.70746 0.07420
#
# Static dielectric constant tensor:
#      x y z
#    x 4.041450 0.000000 0.226490 
#    y 0.000000 3.570870 0.000000 
#    z 0.226490 0.000000 3.713150 
# 
# 
# High freq. dielectric constant tensor:
#      x y z
#    x 1.779160 0.000000 0.005400 
#    y 0.000000 1.811210 0.000000 
#    z 0.005400 0.000000 1.779580 
# 
# From -- ./inp_files/27809.got.cif
#   From: 2010.06.25/outbox.cif.g09.slc.cpg/sg11_14_cif.got.tgz:27809.got - 2010.06.27 23:14:04.
