data_PCOD8071366
_publ_section_title
;
Structure prediction by ZEFSAII (Michael W. Deem and Ramdas Pophale) SiO2 
 PCOD8071366
Probable space group: P 21/M
;
_chemical_formula_sum "Si O2"
_cell_formula_units_Z 32
_cell_length_a 12.417235
_cell_length_b 9.714544
_cell_length_c 14.442498
_cell_angle_alpha 90.000000
_cell_angle_beta 90.210169
_cell_angle_gamma 90.000000
_cell_volume 1742.154690
_symmetry_space_group_name_H-M "P 21/M"
_symmetry_group_IT_number 11
_symmetry_cell_setting 'monoclinic'
loop_
_space_group_symop_operation_xyz
x,y,z
-x,1/2+y,-z
-x,-y,-z
x,1/2-y,z
loop_
_atom_site_type_symbol
_atom_site_label
_atom_site_fract_x
_atom_site_fract_y
_atom_site_fract_z
Si Si1 0.120403 0.907680 0.309492
Si Si2 0.691567 0.907213 0.173261
Si Si3 0.119884 0.409342 0.691690
Si Si4 0.530736 0.401577 0.264916
Si Si5 0.169865 0.589456 0.514588
Si Si6 0.299723 0.091236 0.215498
Si Si7 0.605714 0.591092 0.981683
Si Si8 0.591097 0.400762 0.468931
O O1 0.160079 0.750000 0.301160
O O2 0.110938 0.948311 0.418390
O O3 0.000470 0.927020 0.267857
O O4 0.201057 0.001153 0.251434
O O5 0.672763 0.750000 0.201711
O O6 0.798019 0.961365 0.227556
O O7 0.583673 0.988043 0.198705
O O8 0.697148 0.925808 0.062275
O O9 0.141415 0.250000 0.665752
O O10 0.128428 0.497603 0.598495
O O11 0.537759 0.250000 0.217958
O O12 0.404342 0.435576 0.280971
O O13 0.597941 0.401912 0.358725
O O14 0.155820 0.750000 0.541553
O O15 0.293819 0.552349 0.493541
O O16 0.262729 0.250000 0.218678
O O17 0.334452 0.046102 0.112235
O O18 0.567886 0.750000 0.975731
O O19 0.500000 0.500000 0.000000
O O20 0.500000 0.500000 0.500000
O O21 0.561530 0.250000 0.506948
#
# Coordination Sequence:
#
# PCOD8071366 Si02
#       8
#     4   4   4   4   4   4   4   4
#     4  10  22  38  55  78 110 146 185 228 271 317
#     4  10  20  34  55  82 108 138 176 218 267 321
#     4  10  21  37  56  80 110 145 185 227 269 317
#     4  10  19  33  52  76 108 140 172 216 268 320
#     4  10  20  35  55  79 106 141 186 230 269 317
#     4  10  21  36  55  80 110 142 178 223 273 326
#     4  10  20  35  57  84 111 140 176 220 270 327
#     4  10  20  31  46  72 106 140 175 216 263 317
#
# _framework density 18.368058999999999
#
# number of rings (size 3 to 8) (size 9 to 14) (size 15 to 20)
#    0.000    2.000    2.500    1.125    0.000    3.000 
#    0.000    0.625    0.000    0.000    0.000    0.000 
#    0.000    0.000    0.000    0.000    0.000    0.000 
#
# Total GULP energy -396658.447464 kJ/mol
# GULP energy per Si atom -12395.576483 kJ/mol
# Density = 1.832625 g / cm^3
# Si number density = 18.368059 Si / 1000 Ang^3
#
#
#
# Elastic Constant Matrix: (Units=GPa)
#
#
# Indices 1 2 3 4 5 6 
#
# 1 98.6983 52.7859 45.4598 0.0000 4.6608 0.0000
# 2 52.7859 72.3022 36.9760 0.0000 -9.0950 0.0000
# 3 45.4598 36.9760 83.9512 0.0000 4.6530 0.0000
# 4 0.0000 0.0000 0.0000 24.3861 0.0000 -6.4121
# 5 4.6608 -9.0950 4.6530 0.0000 22.5415 0.0000
# 6 0.0000 0.0000 0.0000 -6.4121 0.0000 30.3549
#
#
#
# Elastic Compliance Matrix: (Units=1/GPa)
#
#
# Indices 1 2 3 4 5 6 
#
# 1 0.019538 -0.013105 -0.004341 0.000000 -0.008431 0.000000
# 2 -0.013105 0.028615 -0.006370 0.000000 0.015570 0.000000
# 3 -0.004341 -0.006370 0.017359 0.000000 -0.005256 0.000000
# 4 0.000000 0.000000 0.000000 0.043419 0.000000 0.009172
# 5 -0.008431 0.015570 -0.005256 0.000000 0.053473 0.000000
# 6 0.000000 0.000000 0.000000 0.009172 0.000000 0.034881
#
#
# Mechanical properties :
#
#
# Convention : Reuss Voigt Hill
#
# Bulk Modulus (GPa) = 55.92541 58.37722 57.15131
# Shear Modulus (GPa) = 19.93021 23.43848 21.68435
#
# Velocity S-wave (km/s) = 3.29758 3.57605 3.43964
# Velocity P-wave (km/s) = 6.70909 6.99298 6.85251
#
# Compressibility (1/GPa) = 0.01788096
#
# Stress axis : x y z
#
# Youngs Moduli (GPa) = 51.18194 34.94721 57.60720
#
# Poissons Ratio (x) = 0.45799 0.25005
# Poissons Ratio (y) = 0.67074 0.36694
# Poissons Ratio (z) = 0.22216 0.22260
#
# Static dielectric constant tensor:
#      x y z
#    x 3.471550 0.000000 0.526320 
#    y 0.000000 3.459470 0.000000 
#    z 0.526320 0.000000 3.857180 
# 
# 
# High freq. dielectric constant tensor:
#      x y z
#    x 1.708170 0.000000 0.020130 
#    y 0.000000 1.711840 0.000000 
#    z 0.020130 0.000000 1.706900 
# 
# From -- ./inp_files/38138.got.cif
#   From: 2010.06.25/outbox.cif.g09.slc.cpg/sg11_20_cif.got.tgz:38138.got - 2010.06.27 23:14:04.
