data_PCOD8071445
_publ_section_title
;
Structure prediction by ZEFSAII (Michael W. Deem and Ramdas Pophale) SiO2 
 PCOD8071445
Probable space group: P 21/M
;
_chemical_formula_sum "Si O2"
_cell_formula_units_Z 28
_cell_length_a 9.899292
_cell_length_b 8.763886
_cell_length_c 30.434725
_cell_angle_alpha 90.000000
_cell_angle_beta 35.973081
_cell_angle_gamma 90.000000
_cell_volume 1550.986232
_symmetry_space_group_name_H-M "P 21/M"
_symmetry_group_IT_number 11
_symmetry_cell_setting 'monoclinic'
loop_
_space_group_symop_operation_xyz
x,y,z
-x,1/2+y,-z
-x,-y,-z
x,1/2-y,z
loop_
_atom_site_type_symbol
_atom_site_label
_atom_site_fract_x
_atom_site_fract_y
_atom_site_fract_z
Si Si1 0.251927 0.071938 0.061658
Si Si2 0.845778 0.930761 0.221374
Si Si3 0.258300 0.931103 0.658522
Si Si4 0.949606 0.074718 0.059302
Si Si5 0.452323 0.932412 0.773392
Si Si6 0.039664 0.071900 0.345530
Si Si7 0.377061 0.929033 0.490855
O O1 0.257707 0.250000 0.072019
O O2 0.162786 0.045264 0.035667
O O3 0.087974 0.988481 0.139204
O O4 0.500000 0.000000 0.000000
O O5 0.837150 0.750000 0.221786
O O6 0.829591 0.987778 0.275095
O O7 0.633033 0.998666 0.250044
O O8 0.256219 0.750000 0.664757
O O9 0.091637 0.990424 0.663092
O O10 0.520912 0.986214 0.578924
O O11 0.912709 0.250000 0.059131
O O12 0.716094 0.010828 0.143190
O O13 0.000000 0.000000 0.000000
O O14 0.445115 0.750000 0.770684
O O15 0.706139 0.999266 0.716439
O O16 0.069404 0.250000 0.330318
O O17 0.894983 0.040447 0.428657
O O18 0.428782 0.750000 0.473880
O O19 0.500000 0.000000 0.500000
#
# Coordination Sequence:
#
# PCOD8071445 Si02
#       7
#     4   4   4   4   4   4   4
#     4  10  21  38  57  79 105 137 173 212 256 305
#     4  11  22  36  53  77 106 138 173 212 256 308
#     4  10  19  33  53  78 105 138 175 215 260 309
#     4   9  19  33  52  76 103 133 169 209 255 306
#     4   9  18  36  55  73 100 136 171 210 258 309
#     4   8  16  31  54  78 100 129 172 217 260 307
#     4   9  16  29  49  75 104 135 170 215 264 312
#
# _framework density 18.053028000000001
#
# number of rings (size 3 to 8) (size 9 to 14) (size 15 to 20)
#    0.000    2.571    0.000    4.286    0.000    4.000 
#    0.000    6.429    0.000    0.000    0.000    0.000 
#    0.000    0.000    0.000    0.000    0.000    0.000 
#
# Total GULP energy -347061.291916 kJ/mol
# GULP energy per Si atom -12395.046140 kJ/mol
# Density = 1.801194 g / cm^3
# Si number density = 18.053028 Si / 1000 Ang^3
#
#
#
# Elastic Constant Matrix: (Units=GPa)
#
#
# Indices 1 2 3 4 5 6 
#
# 1 89.5813 35.1160 73.4284 0.0000 -8.7890 0.0000
# 2 35.1160 74.5056 44.0748 0.0000 -0.5367 0.0000
# 3 73.4284 44.0748 120.9815 0.0000 -6.3846 0.0000
# 4 0.0000 0.0000 0.0000 34.5365 0.0000 4.6743
# 5 -8.7890 -0.5367 -6.3846 0.0000 34.1863 0.0000
# 6 0.0000 0.0000 0.0000 4.6743 0.0000 26.2766
#
#
#
# Elastic Compliance Matrix: (Units=1/GPa)
#
#
# Indices 1 2 3 4 5 6 
#
# 1 0.023241 -0.003435 -0.012667 0.000000 0.003556 0.000000
# 2 -0.003435 0.017645 -0.004419 0.000000 -0.001431 0.000000
# 3 -0.012667 -0.004419 0.017561 0.000000 -0.000046 0.000000
# 4 0.000000 0.000000 0.000000 0.029669 0.000000 -0.005278
# 5 0.003556 -0.001431 -0.000046 0.000000 0.030134 0.000000
# 6 0.000000 0.000000 0.000000 -0.005278 0.000000 0.038996
#
#
# Mechanical properties :
#
#
# Convention : Reuss Voigt Hill
#
# Bulk Modulus (GPa) = 57.45362 65.58964 61.52163
# Shear Modulus (GPa) = 24.49901 27.82984 26.16442
#
# Velocity S-wave (km/s) = 3.68782 3.93053 3.81111
# Velocity P-wave (km/s) = 7.07301 7.55045 7.31562
#
# Compressibility (1/GPa) = 0.01740535
#
# Stress axis : x y z
#
# Youngs Moduli (GPa) = 43.02652 56.67487 56.94389
#
# Poissons Ratio (x) = 0.19469 0.72131
# Poissons Ratio (y) = 0.14781 0.25161
# Poissons Ratio (z) = 0.54502 0.25043
#
# Static dielectric constant tensor:
#      x y z
#    x 3.316230 0.000000 -0.202900 
#    y 0.000000 3.828580 0.000000 
#    z -0.202900 0.000000 4.180620 
# 
# 
# High freq. dielectric constant tensor:
#      x y z
#    x 1.679430 0.000000 -0.002270 
#    y 0.000000 1.694210 0.000000 
#    z -0.002270 0.000000 1.714100 
# 
# From -- ./inp_files/54583.got.cif
#   From: 2010.06.25/outbox.cif.g09.slc.cpg/sg11_28_cif.got.tgz:54583.got - 2010.06.27 23:14:04.
