data_PCOD8071827
_publ_section_title
;
Structure prediction by ZEFSAII (Michael W. Deem and Ramdas Pophale) SiO2 
 PCOD8071827
Probable space group: P 21/M
;
_chemical_formula_sum "Si O2"
_cell_formula_units_Z 28
_cell_length_a 9.551286
_cell_length_b 12.986152
_cell_length_c 14.071120
_cell_angle_alpha 90.000000
_cell_angle_beta 58.848636
_cell_angle_gamma 90.000000
_cell_volume 1493.637297
_symmetry_space_group_name_H-M "P 21/M"
_symmetry_group_IT_number 11
_symmetry_cell_setting 'monoclinic'
loop_
_space_group_symop_operation_xyz
x,y,z
-x,1/2+y,-z
-x,-y,-z
x,1/2-y,z
loop_
_atom_site_type_symbol
_atom_site_label
_atom_site_fract_x
_atom_site_fract_y
_atom_site_fract_z
Si Si1 0.683251 0.366435 0.777991
Si Si2 0.207603 0.369397 0.782640
Si Si3 0.527932 0.867057 0.671722
Si Si4 0.188763 0.524436 0.452136
Si Si5 0.390151 0.500423 0.875268
Si Si6 0.834178 0.134923 0.918255
Si Si7 0.323731 0.969634 0.597549
O O1 0.622305 0.250000 0.788485
O O2 0.747325 0.400720 0.652470
O O3 0.534513 0.434308 0.872361
O O4 0.824566 0.376854 0.807383
O O5 0.259378 0.250000 0.749939
O O6 0.311506 0.421329 0.828737
O O7 0.236169 0.430865 0.674671
O O8 0.021229 0.378293 0.881403
O O9 0.578965 0.750000 0.656385
O O10 0.472422 0.902358 0.795198
O O11 0.367461 0.883014 0.660647
O O12 0.695999 0.923945 0.583094
O O13 0.211652 0.574462 0.549986
O O14 0.000000 0.500000 0.500000
O O15 0.265102 0.543761 0.996380
O O16 0.772331 0.250000 0.969561
O O17 0.500000 0.000000 0.500000
#
# Coordination Sequence:
#
# PCOD8071827 Si02
#       7
#     4   4   4   4   4   4   4
#     4  10  21  35  52  76 104 137 177 214 252 307
#     4  10  20  34  54  80 105 131 170 214 256 307
#     4   9  19  34  51  72 100 136 174 209 255 315
#     4  10  20  34  53  78 106 135 171 218 267 308
#     4  10  19  34  54  76 103 133 171 216 255 299
#     4  10  20  34  54  78 104 136 169 208 261 310
#     4   9  19  33  51  76 103 136 171 209 257 308
#
# _framework density 18.746184
#
# number of rings (size 3 to 8) (size 9 to 14) (size 15 to 20)
#    0.000    2.286    0.000    3.429    0.000    3.429 
#    0.000    0.000    0.000    1.714    0.000    0.000 
#    0.000    0.000    0.000    0.000    0.000    0.000 
#
# Total GULP energy -347004.505692 kJ/mol
# GULP energy per Si atom -12393.018060 kJ/mol
# Density = 1.870352 g / cm^3
# Si number density = 18.746184 Si / 1000 Ang^3
#
#
#
# Elastic Constant Matrix: (Units=GPa)
#
#
# Indices 1 2 3 4 5 6 
#
# 1 80.8804 11.9761 13.7140 0.0000 -6.7968 0.0000
# 2 11.9761 90.6259 33.1534 0.0000 -7.8681 0.0000
# 3 13.7140 33.1534 72.7628 0.0000 -2.8820 0.0000
# 4 0.0000 0.0000 0.0000 22.5044 0.0000 -2.1409
# 5 -6.7968 -7.8681 -2.8820 0.0000 26.5554 0.0000
# 6 0.0000 0.0000 0.0000 -2.1409 0.0000 19.1274
#
#
#
# Elastic Compliance Matrix: (Units=1/GPa)
#
#
# Indices 1 2 3 4 5 6 
#
# 1 0.013058 -0.000738 -0.002010 0.000000 0.002905 0.000000
# 2 -0.000738 0.013574 -0.005920 0.000000 0.003191 0.000000
# 3 -0.002010 -0.005920 0.016802 0.000000 -0.000445 0.000000
# 4 0.000000 0.000000 0.000000 0.044914 0.000000 0.005027
# 5 0.002905 0.003191 -0.000445 0.000000 0.039298 0.000000
# 6 0.000000 0.000000 0.000000 0.005027 0.000000 0.052844
#
#
# Mechanical properties :
#
#
# Convention : Reuss Voigt Hill
#
# Bulk Modulus (GPa) = 38.31506 40.21734 39.26620
# Shear Modulus (GPa) = 24.21023 25.99916 25.10469
#
# Velocity S-wave (km/s) = 3.59761 3.72816 3.66346
# Velocity P-wave (km/s) = 6.14331 6.32712 6.23589
#
# Compressibility (1/GPa) = 0.02609940
#
# Stress axis : x y z
#
# Youngs Moduli (GPa) = 76.58050 73.66789 59.51819
#
# Poissons Ratio (x) = 0.05438 0.11961
# Poissons Ratio (y) = 0.05653 0.35232
# Poissons Ratio (z) = 0.15391 0.43608
#
# Static dielectric constant tensor:
#      x y z
#    x 3.919700 0.000000 0.033980 
#    y 0.000000 3.380900 0.000000 
#    z 0.033980 0.000000 3.675240 
# 
# 
# High freq. dielectric constant tensor:
#      x y z
#    x 1.737330 0.000000 0.006440 
#    y 0.000000 1.717130 0.000000 
#    z 0.006440 0.000000 1.722010 
# 
# From -- ./inp_files/21399.got.cif
#   From: 2010.06.25/outbox.cif.g09.slc.cpg/sg11_11_cif.got.tgz:21399.got - 2010.06.27 23:14:04.
