data_PCOD8071844
_publ_section_title
;
Structure prediction by ZEFSAII (Michael W. Deem and Ramdas Pophale) SiO2 
 PCOD8071844
Probable space group: P 21/M
;
_chemical_formula_sum "Si O2"
_cell_formula_units_Z 32
_cell_length_a 30.919884
_cell_length_b 9.091849
_cell_length_c 11.938448
_cell_angle_alpha 90.000000
_cell_angle_beta 29.680623
_cell_angle_gamma 90.000000
_cell_volume 1661.834507
_symmetry_space_group_name_H-M "P 21/M"
_symmetry_group_IT_number 11
_symmetry_cell_setting 'monoclinic'
loop_
_space_group_symop_operation_xyz
x,y,z
-x,1/2+y,-z
-x,-y,-z
x,1/2-y,z
loop_
_atom_site_type_symbol
_atom_site_label
_atom_site_fract_x
_atom_site_fract_y
_atom_site_fract_z
Si Si1 0.408668 0.079750 0.184342
Si Si2 0.887765 0.079438 0.161499
Si Si3 0.632047 0.421686 0.943061
Si Si4 0.275683 0.080580 0.876034
Si Si5 0.215517 0.923395 0.229028
Si Si6 0.243546 0.082844 0.697015
Si Si7 0.912748 0.578633 0.329614
Si Si8 0.473139 0.079833 0.449368
O O1 0.429200 0.250000 0.116743
O O2 0.344616 0.058138 0.434580
O O3 0.356263 0.013701 0.196388
O O4 0.500000 0.000000 0.000000
O O5 0.874117 0.250000 0.220456
O O6 0.819517 0.030787 0.221921
O O7 0.869829 0.989862 0.315039
O O8 0.984287 0.047629 0.898030
O O9 0.640559 0.250000 0.894809
O O10 0.703837 0.469339 0.872992
O O11 0.536751 0.463096 0.204646
O O12 0.267510 0.250000 0.932545
O O13 0.230761 0.053890 0.857570
O O14 0.376076 0.034479 0.634140
O O15 0.230761 0.978274 0.068929
O O16 0.201677 0.750000 0.257533
O O17 0.127926 0.000081 0.470813
O O18 0.216215 0.250000 0.728397
O O19 0.890445 0.750000 0.382108
O O20 0.482967 0.250000 0.453952
O O21 0.500000 0.000000 0.500000
#
# Coordination Sequence:
#
# PCOD8071844 Si02
#       8
#     4   4   4   4   4   4   4   4
#     4  11  23  38  57  82 113 149 190 233 280 334
#     4  10  21  38  62  91 117 146 186 233 283 336
#     4  10  21  36  54  80 115 147 184 236 286 334
#     4  10  21  37  57  79 111 154 195 236 284 341
#     4  11  22  36  57  86 116 146 186 237 287 335
#     4  10  22  40  60  82 113 155 196 233 282 341
#     4  10  21  38  61  88 119 149 182 228 284 345
#     4  10  19  34  54  77 109 148 189 233 278 328
#
# _framework density 19.255827
#
# number of rings (size 3 to 8) (size 9 to 14) (size 15 to 20)
#    0.000    1.750    1.250    3.000    0.000    8.500 
#    0.000    1.875    0.000    0.000    0.000    0.000 
#    0.000    0.000    0.000    0.000    0.000    0.000 
#
# Total GULP energy -396944.099708 kJ/mol
# GULP energy per Si atom -12404.503116 kJ/mol
# Density = 1.921200 g / cm^3
# Si number density = 19.255827 Si / 1000 Ang^3
#
#
#
# Elastic Constant Matrix: (Units=GPa)
#
#
# Indices 1 2 3 4 5 6 
#
# 1 86.5885 42.2393 33.9248 0.0000 6.9055 0.0000
# 2 42.2393 88.8037 50.5994 0.0000 6.9657 0.0000
# 3 33.9248 50.5994 97.6454 0.0000 14.1274 0.0000
# 4 0.0000 0.0000 0.0000 31.0262 0.0000 0.5525
# 5 6.9055 6.9657 14.1274 0.0000 31.1236 0.0000
# 6 0.0000 0.0000 0.0000 0.5525 0.0000 35.1926
#
#
#
# Elastic Compliance Matrix: (Units=1/GPa)
#
#
# Indices 1 2 3 4 5 6 
#
# 1 0.015402 -0.006075 -0.002039 0.000000 -0.001132 0.000000
# 2 -0.006075 0.018376 -0.007505 0.000000 0.000642 0.000000
# 3 -0.002039 -0.007505 0.015551 0.000000 -0.004927 0.000000
# 4 0.000000 0.000000 0.000000 0.032240 0.000000 -0.000506
# 5 -0.001132 0.000642 -0.004927 0.000000 0.034474 0.000000
# 6 0.000000 0.000000 0.000000 -0.000506 0.000000 0.028423
#
#
# Mechanical properties :
#
#
# Convention : Reuss Voigt Hill
#
# Bulk Modulus (GPa) = 55.27485 58.50715 56.89100
# Shear Modulus (GPa) = 27.51280 29.22010 28.36645
#
# Velocity S-wave (km/s) = 3.78405 3.89969 3.84231
# Velocity P-wave (km/s) = 6.91809 7.12228 7.02093
#
# Compressibility (1/GPa) = 0.01809141
#
# Stress axis : x y z
#
# Youngs Moduli (GPa) = 64.92836 54.41854 64.30354
#
# Poissons Ratio (x) = 0.33060 0.13112
# Poissons Ratio (y) = 0.39444 0.48257
# Poissons Ratio (z) = 0.13240 0.40839
#
# Static dielectric constant tensor:
#      x y z
#    x 3.332060 0.000000 0.058030 
#    y 0.000000 3.497000 0.000000 
#    z 0.058030 0.000000 3.626580 
# 
# 
# High freq. dielectric constant tensor:
#      x y z
#    x 1.742320 0.000000 0.005530 
#    y 0.000000 1.752390 0.000000 
#    z 0.005530 0.000000 1.754710 
# 
# From -- ./inp_files/45124.got.cif
#   From: 2010.06.25/outbox.cif.g09.slc.cpg/sg11_23_cif.got.tgz:45124.got - 2010.06.27 23:14:04.
