data_PCOD8071951
_publ_section_title
;
Structure prediction by ZEFSAII (Michael W. Deem and Ramdas Pophale) SiO2 
 PCOD8071951
Probable space group: P 21/M
;
_chemical_formula_sum "Si O2"
_cell_formula_units_Z 32
_cell_length_a 14.766304
_cell_length_b 9.039849
_cell_length_c 25.758045
_cell_angle_alpha 90.000000
_cell_angle_beta 149.976950
_cell_angle_gamma 90.000000
_cell_volume 1720.356132
_symmetry_space_group_name_H-M "P 21/M"
_symmetry_group_IT_number 11
_symmetry_cell_setting 'monoclinic'
loop_
_space_group_symop_operation_xyz
x,y,z
-x,1/2+y,-z
-x,-y,-z
x,1/2-y,z
loop_
_atom_site_type_symbol
_atom_site_label
_atom_site_fract_x
_atom_site_fract_y
_atom_site_fract_z
Si Si1 0.093389 0.576307 0.498079
Si Si2 0.519330 0.573871 0.849868
Si Si3 0.174031 0.076710 0.724967
Si Si4 0.054504 0.079935 0.780395
Si Si5 0.648916 0.079743 0.607228
Si Si6 0.510334 0.075486 0.281331
Si Si7 0.152777 0.577554 0.931161
Si Si8 0.748108 0.577886 0.758051
O O1 0.082184 0.750000 0.502289
O O2 0.302039 0.522627 0.598889
O O3 0.000000 0.500000 0.500000
O O4 0.993316 0.531530 0.395171
O O5 0.520402 0.750000 0.852194
O O6 0.349687 0.515863 0.797821
O O7 0.507490 0.509918 0.785402
O O8 0.702371 0.514343 0.965271
O O9 0.217385 0.250000 0.741373
O O10 0.124432 0.032562 0.758808
O O11 0.102119 0.250000 0.816781
O O12 0.840206 0.054769 0.674265
O O13 0.150421 0.976938 0.870542
O O14 0.597383 0.250000 0.586057
O O15 0.500000 0.000000 0.500000
O O16 0.648294 0.012765 0.664103
O O17 0.509911 0.250000 0.276322
O O18 0.339623 0.023701 0.231254
O O19 0.202580 0.750000 0.956211
O O20 0.961731 0.545585 0.864492
O O21 0.708800 0.750000 0.728311
#
# Coordination Sequence:
#
# PCOD8071951 Si02
#       8
#     4   4   4   4   4   4   4   4
#     4  10  19  34  56  80 112 148 182 222 271 325
#     4  11  22  37  58  82 110 148 187 227 274 330
#     4  10  21  36  57  84 111 144 186 229 274 323
#     4   9  20  38  58  80 108 145 186 226 274 330
#     4  10  20  34  54  81 112 146 185 226 272 327
#     4   9  19  35  57  83 111 147 186 219 269 333
#     4  10  21  38  59  83 110 142 181 233 283 323
#     4   9  19  37  59  80 109 145 184 228 275 326
#
# _framework density 18.6008
#
# number of rings (size 3 to 8) (size 9 to 14) (size 15 to 20)
#    0.000    2.250    1.250    1.125    1.750    2.500 
#    0.000    1.875    0.000    0.000    0.000    0.000 
#    0.000    0.000    0.000    0.000    0.000    0.000 
#
# Total GULP energy -396847.951683 kJ/mol
# GULP energy per Si atom -12401.498490 kJ/mol
# Density = 1.855846 g / cm^3
# Si number density = 18.600800 Si / 1000 Ang^3
#
#
#
# Elastic Constant Matrix: (Units=GPa)
#
#
# Indices 1 2 3 4 5 6 
#
# 1 151.6958 39.2406 58.0454 0.0000 -0.6975 0.0000
# 2 39.2406 56.7280 39.8497 0.0000 4.6253 0.0000
# 3 58.0454 39.8497 118.0976 0.0000 9.5370 0.0000
# 4 0.0000 0.0000 0.0000 27.2320 0.0000 -0.8426
# 5 -0.6975 4.6253 9.5370 0.0000 14.0447 0.0000
# 6 0.0000 0.0000 0.0000 -0.8426 0.0000 27.7316
#
#
#
# Elastic Compliance Matrix: (Units=1/GPa)
#
#
# Indices 1 2 3 4 5 6 
#
# 1 0.008969 -0.004206 -0.003319 0.000000 0.004084 0.000000
# 2 -0.004206 0.025156 -0.006068 0.000000 -0.004373 0.000000
# 3 -0.003319 -0.006068 0.012695 0.000000 -0.006786 0.000000
# 4 0.000000 0.000000 0.000000 0.036756 0.000000 0.001117
# 5 0.004084 -0.004373 -0.006786 0.000000 0.077452 0.000000
# 6 0.000000 0.000000 0.000000 0.001117 0.000000 0.036094
#
#
# Mechanical properties :
#
#
# Convention : Reuss Voigt Hill
#
# Bulk Modulus (GPa) = 50.93179 66.75474 58.84327
# Shear Modulus (GPa) = 21.65886 26.42739 24.04312
#
# Velocity S-wave (km/s) = 3.41604 3.77339 3.59915
# Velocity P-wave (km/s) = 6.55744 7.41287 6.99824
#
# Compressibility (1/GPa) = 0.01963410
#
# Stress axis : x y z
#
# Youngs Moduli (GPa) = 111.49804 39.75117 78.77409
#
# Poissons Ratio (x) = 0.16718 0.26144
# Poissons Ratio (y) = 0.46891 0.47803
# Poissons Ratio (z) = 0.37005 0.24123
#
# Static dielectric constant tensor:
#      x y z
#    x 3.428130 0.000000 -0.190450 
#    y 0.000000 3.347020 0.000000 
#    z -0.190450 0.000000 3.305650 
# 
# 
# High freq. dielectric constant tensor:
#      x y z
#    x 1.728030 0.000000 -0.000100 
#    y 0.000000 1.712310 0.000000 
#    z -0.000100 0.000000 1.728590 
# 
# From -- ./inp_files/51630.got.cif
#   From: 2010.06.25/outbox.cif.g09.slc.cpg/sg11_26_cif.got.tgz:51630.got - 2010.06.27 23:14:04.
