data_PCOD8071544
_publ_section_title
;
Structure prediction by ZEFSAII (Michael W. Deem and Ramdas Pophale) SiO2 
 PCOD8071544
Probable space group: P 21/M
;
_chemical_formula_sum "Si O2"
_cell_formula_units_Z 32
_cell_length_a 11.917592
_cell_length_b 9.253047
_cell_length_c 28.276369
_cell_angle_alpha 90.000000
_cell_angle_beta 32.548209
_cell_angle_gamma 90.000000
_cell_volume 1677.592612
_symmetry_space_group_name_H-M "P 21/M"
_symmetry_group_IT_number 11
_symmetry_cell_setting 'monoclinic'
loop_
_space_group_symop_operation_xyz
x,y,z
-x,1/2+y,-z
-x,-y,-z
x,1/2-y,z
loop_
_atom_site_type_symbol
_atom_site_label
_atom_site_fract_x
_atom_site_fract_y
_atom_site_fract_z
Si Si1 0.114643 0.077650 0.250002
Si Si2 0.709508 0.916405 0.148587
Si Si3 0.035481 0.416970 0.089005
Si Si4 0.460990 0.417261 0.891543
Si Si5 0.027171 0.417260 0.608453
Si Si6 0.391506 0.083030 0.410992
Si Si7 0.140064 0.921528 0.750001
Si Si8 0.303849 0.583595 0.351416
O O1 0.124151 0.250000 0.250003
O O2 0.986781 0.021808 0.250000
O O3 0.346244 0.015895 0.162364
O O4 0.995686 0.015894 0.337641
O O5 0.773768 0.750000 0.121590
O O6 0.623144 0.971284 0.129157
O O7 0.536380 0.942651 0.250001
O O8 0.914819 0.004054 0.089581
O O9 0.973447 0.250000 0.107380
O O10 0.970712 0.480757 0.163080
O O11 0.282442 0.439014 0.994368
O O12 0.531974 0.250000 0.862923
O O13 0.983667 0.250000 0.637076
O O14 0.860238 0.471284 0.629152
O O15 0.259923 0.439009 0.505629
O O16 0.402968 0.250000 0.392618
O O17 0.623036 0.019243 0.336916
O O18 0.273138 0.004052 0.410421
O O19 0.139547 0.750000 0.750001
O O20 0.260125 0.750000 0.378411
#
# Coordination Sequence:
#
# PCOD8071544 Si02
#       8
#     4   4   4   4   4   4   4   4
#     4  11  23  38  57  78 108 147 186 235 278 317
#     4  10  19  33  54  81 117 147 173 223 277 320
#     4  10  20  36  60  83 110 148 184 222 271 332
#     4  10  21  38  58  82 113 147 181 224 277 328
#     4  10  21  38  58  82 113 147 181 224 277 328
#     4  10  20  36  60  83 110 148 184 222 271 332
#     4   9  20  38  55  80 112 141 184 235 276 313
#     4  10  19  33  54  81 117 147 173 223 277 320
#
# _framework density 19.074952
#
# number of rings (size 3 to 8) (size 9 to 14) (size 15 to 20)
#    0.000    2.000    2.500    1.125    0.000    3.000 
#    0.000    2.500    0.000    0.000    0.000    0.000 
#    0.000    0.000    0.000    0.000    0.000    0.000 
#
# Total GULP energy -396903.131548 kJ/mol
# GULP energy per Si atom -12403.222861 kJ/mol
# Density = 1.903154 g / cm^3
# Si number density = 19.074952 Si / 1000 Ang^3
#
#
#
# Elastic Constant Matrix: (Units=GPa)
#
#
# Indices 1 2 3 4 5 6 
#
# 1 139.5136 45.4235 54.4948 0.0000 -3.3629 0.0000
# 2 45.4235 52.4397 32.7631 0.0000 -0.8295 0.0000
# 3 54.4948 32.7631 104.5037 0.0000 1.0702 0.0000
# 4 0.0000 0.0000 0.0000 25.8443 0.0000 0.2310
# 5 -3.3629 -0.8295 1.0702 0.0000 17.1551 0.0000
# 6 0.0000 0.0000 0.0000 0.2310 0.0000 22.3295
#
#
#
# Elastic Compliance Matrix: (Units=1/GPa)
#
#
# Indices 1 2 3 4 5 6 
#
# 1 0.010932 -0.007291 -0.003435 0.000000 0.002005 0.000000
# 2 -0.007291 0.028622 -0.005174 0.000000 0.000277 0.000000
# 3 -0.003435 -0.005174 0.013000 0.000000 -0.001735 0.000000
# 4 0.000000 0.000000 0.000000 0.038697 0.000000 -0.000400
# 5 0.002005 0.000277 -0.001735 0.000000 0.058806 0.000000
# 6 0.000000 0.000000 0.000000 -0.000400 0.000000 0.044788
#
#
# Mechanical properties :
#
#
# Convention : Reuss Voigt Hill
#
# Bulk Modulus (GPa) = 48.18524 62.42444 55.30484
# Shear Modulus (GPa) = 21.40738 23.98417 22.69578
#
# Velocity S-wave (km/s) = 3.35368 3.54978 3.45312
# Velocity P-wave (km/s) = 6.34918 7.04260 6.70486
#
# Compressibility (1/GPa) = 0.02075324
#
# Stress axis : x y z
#
# Youngs Moduli (GPa) = 91.47618 34.93776 76.92148
#
# Poissons Ratio (x) = 0.25474 0.26424
# Poissons Ratio (y) = 0.66698 0.39800
# Poissons Ratio (z) = 0.31424 0.18077
#
# Static dielectric constant tensor:
#      x y z
#    x 3.497620 0.000000 0.008370 
#    y 0.000000 3.247000 0.000000 
#    z 0.008370 0.000000 3.625040 
# 
# 
# High freq. dielectric constant tensor:
#      x y z
#    x 1.736510 0.000000 0.001340 
#    y 0.000000 1.720160 0.000000 
#    z 0.001340 0.000000 1.756970 
# 
# From -- ./inp_files/38179.got.cif
#   From: 2010.06.25/outbox.cif.g09.slc.cpg/sg11_20_cif.got.tgz:38179.got - 2010.06.27 23:14:04.
