data_PCOD8071561
_publ_section_title
;
Structure prediction by ZEFSAII (Michael W. Deem and Ramdas Pophale) SiO2 
 PCOD8071561
Probable space group: P 21/M
;
_chemical_formula_sum "Si O2"
_cell_formula_units_Z 28
_cell_length_a 14.585792
_cell_length_b 8.776799
_cell_length_c 20.395352
_cell_angle_alpha 90.000000
_cell_angle_beta 147.612790
_cell_angle_gamma 90.000000
_cell_volume 1398.521026
_symmetry_space_group_name_H-M "P 21/M"
_symmetry_group_IT_number 11
_symmetry_cell_setting 'monoclinic'
loop_
_space_group_symop_operation_xyz
x,y,z
-x,1/2+y,-z
-x,-y,-z
x,1/2-y,z
loop_
_atom_site_type_symbol
_atom_site_label
_atom_site_fract_x
_atom_site_fract_y
_atom_site_fract_z
Si Si1 0.349282 0.073336 0.760761
Si Si2 0.921710 0.571283 0.301759
Si Si3 0.291310 0.929568 0.067847
Si Si4 0.342694 0.927004 0.366918
Si Si5 0.032200 0.423616 0.818380
Si Si6 0.391705 0.429872 0.260557
Si Si7 0.256597 0.426987 0.560811
O O1 0.370883 0.250000 0.787122
O O2 0.243354 0.006060 0.758354
O O3 0.540932 0.004668 0.869380
O O4 0.243323 0.040537 0.630441
O O5 0.953991 0.750000 0.335502
O O6 0.891224 0.540144 0.206849
O O7 0.083164 0.476210 0.422426
O O8 0.307721 0.750000 0.088634
O O9 0.282444 0.005541 0.133891
O O10 0.122122 0.967518 0.925162
O O11 0.382353 0.750000 0.380823
O O12 0.170962 0.953702 0.305533
O O13 0.500000 0.000000 0.500000
O O14 0.310392 0.004630 0.277575
O O15 0.070964 0.250000 0.862007
O O16 0.376575 0.250000 0.252159
O O17 0.589693 0.477177 0.377375
O O18 0.293465 0.250000 0.569416
#
# Coordination Sequence:
#
# PCOD8071561 Si02
#       7
#     4   4   4   4   4   4   4
#     4   8  17  33  54  81 113 148 186 232 281 331
#     4  10  19  34  55  80 114 153 191 231 279 334
#     4  10  21  39  60  83 112 147 189 235 281 331
#     4  11  23  40  61  88 120 150 186 230 280 336
#     4  10  23  39  56  81 113 149 187 230 278 333
#     4  11  22  38  61  85 111 148 190 233 286 339
#     4  10  19  33  54  84 118 148 186 234 284 337
#
# _framework density 20.021151
#
# number of rings (size 3 to 8) (size 9 to 14) (size 15 to 20)
#    0.000    2.000    0.000    4.714    0.000    4.000 
#    0.000    3.571    0.000    0.000    0.000    0.000 
#    0.000    0.000    0.000    0.000    0.000    0.000 
#
# Total GULP energy -347242.648800 kJ/mol
# GULP energy per Si atom -12401.523171 kJ/mol
# Density = 1.997558 g / cm^3
# Si number density = 20.021151 Si / 1000 Ang^3
#
#
#
# Elastic Constant Matrix: (Units=GPa)
#
#
# Indices 1 2 3 4 5 6 
#
# 1 104.8216 37.0168 20.8312 0.0000 -14.3723 0.0000
# 2 37.0168 99.9834 37.1390 0.0000 -7.1545 0.0000
# 3 20.8312 37.1390 97.8493 0.0000 -10.9747 0.0000
# 4 0.0000 0.0000 0.0000 34.5623 0.0000 -3.3809
# 5 -14.3723 -7.1545 -10.9747 0.0000 20.9836 0.0000
# 6 0.0000 0.0000 0.0000 -3.3809 0.0000 24.7791
#
#
#
# Elastic Compliance Matrix: (Units=1/GPa)
#
#
# Indices 1 2 3 4 5 6 
#
# 1 0.011857 -0.003787 -0.000341 0.000000 0.006652 0.000000
# 2 -0.003787 0.012915 -0.004135 0.000000 -0.000353 0.000000
# 3 -0.000341 -0.004135 0.012405 0.000000 0.004845 0.000000
# 4 0.000000 0.000000 0.000000 0.029325 0.000000 0.004001
# 5 0.006652 -0.000353 0.004845 0.000000 0.054626 0.000000
# 6 0.000000 0.000000 0.000000 0.004001 0.000000 0.040903
#
#
# Mechanical properties :
#
#
# Convention : Reuss Voigt Hill
#
# Bulk Modulus (GPa) = 48.42464 54.73648 51.58056
# Shear Modulus (GPa) = 26.96289 29.90947 28.43618
#
# Velocity S-wave (km/s) = 3.67375 3.86928 3.77278
# Velocity P-wave (km/s) = 6.49881 6.88190 6.69309
#
# Compressibility (1/GPa) = 0.02065065
#
# Stress axis : x y z
#
# Youngs Moduli (GPa) = 84.33659 77.43203 80.61116
#
# Poissons Ratio (x) = 0.29326 0.02747
# Poissons Ratio (y) = 0.31941 0.33334
# Poissons Ratio (z) = 0.02874 0.32019
#
# Static dielectric constant tensor:
#      x y z
#    x 3.858490 0.000000 0.131500 
#    y 0.000000 3.520580 0.000000 
#    z 0.131500 0.000000 3.430240 
# 
# 
# High freq. dielectric constant tensor:
#      x y z
#    x 1.792480 0.000000 -0.000910 
#    y 0.000000 1.771740 0.000000 
#    z -0.000910 0.000000 1.774640 
# 
# From -- ./inp_files/37636.got.cif
#   From: 2010.06.25/outbox.cif.g09.slc.cpg/sg11_19_cif.got.tgz:37636.got - 2010.06.27 23:14:04.
