data_PCOD8071654
_publ_section_title
;
Structure prediction by ZEFSAII (Michael W. Deem and Ramdas Pophale) SiO2 
 PCOD8071654
Probable space group: P 21/M
;
_chemical_formula_sum "Si O2"
_cell_formula_units_Z 24
_cell_length_a 16.485038
_cell_length_b 9.176386
_cell_length_c 23.062226
_cell_angle_alpha 90.000000
_cell_angle_beta 22.965194
_cell_angle_gamma 90.000000
_cell_volume 1361.190169
_symmetry_space_group_name_H-M "P 21/M"
_symmetry_group_IT_number 11
_symmetry_cell_setting 'monoclinic'
loop_
_space_group_symop_operation_xyz
x,y,z
-x,1/2+y,-z
-x,-y,-z
x,1/2-y,z
loop_
_atom_site_type_symbol
_atom_site_label
_atom_site_fract_x
_atom_site_fract_y
_atom_site_fract_z
Si Si1 0.981795 0.419120 0.951623
Si Si2 0.699480 0.080591 0.846127
Si Si3 0.209630 0.923128 0.343903
Si Si4 0.080816 0.579734 0.186485
Si Si5 0.390759 0.920929 0.886678
Si Si6 0.716750 0.921956 0.349639
O O1 0.999758 0.250000 0.953219
O O2 0.169521 0.466152 0.785243
O O3 0.758572 0.453982 0.069590
O O4 0.000000 0.500000 0.000000
O O5 0.647205 0.250000 0.882193
O O6 0.760322 0.029385 0.742477
O O7 0.889673 0.043433 0.765074
O O8 0.500000 0.000000 0.000000
O O9 0.194243 0.750000 0.362281
O O10 0.398159 0.986078 0.258537
O O11 0.000000 0.000000 0.500000
O O12 0.076920 0.750000 0.175259
O O13 0.861366 0.519274 0.307505
O O14 0.275733 0.520759 0.020597
O O15 0.447534 0.750000 0.852626
O O16 0.679486 0.750000 0.377153
O O17 0.500000 0.000000 0.500000
#
# Coordination Sequence:
#
# PCOD8071654 Si02
#       6
#     4   4   4   4   4   4
#     4   9  19  35  56  80 105 137 178 218 260 316
#     4  10  19  33  56  81 102 132 175 217 255 308
#     4  11  23  36  52  78 111 143 175 215 263 314
#     4   8  15  31  55  77 100 133 170 211 258 306
#     4   9  17  34  58  77 100 139 179 216 264 315
#     4   9  18  34  54  77 106 137 171 212 260 311
#
# _framework density 17.631629
#
# number of rings (size 3 to 8) (size 9 to 14) (size 15 to 20)
#    0.000    2.667    1.667    2.500    0.000    2.000 
#    3.000    3.333    0.000    0.000    0.000    0.000 
#    0.000    0.000    0.000    0.000    0.000    0.000 
#
# Total GULP energy -297483.885341 kJ/mol
# GULP energy per Si atom -12395.161889 kJ/mol
# Density = 1.759150 g / cm^3
# Si number density = 17.631629 Si / 1000 Ang^3
#
#
#
# Elastic Constant Matrix: (Units=GPa)
#
#
# Indices 1 2 3 4 5 6 
#
# 1 131.9142 53.0113 75.7060 0.0000 -1.5513 0.0000
# 2 53.0113 57.7296 58.7887 0.0000 -3.3441 0.0000
# 3 75.7060 58.7887 145.1054 0.0000 -18.0455 0.0000
# 4 0.0000 0.0000 0.0000 33.4586 0.0000 -3.2146
# 5 -1.5513 -3.3441 -18.0455 0.0000 28.6978 0.0000
# 6 0.0000 0.0000 0.0000 -3.2146 0.0000 28.7017
#
#
#
# Elastic Compliance Matrix: (Units=1/GPa)
#
#
# Indices 1 2 3 4 5 6 
#
# 1 0.013048 -0.008287 -0.003778 0.000000 -0.002636 0.000000
# 2 -0.008287 0.035278 -0.010321 0.000000 -0.002827 0.000000
# 3 -0.003778 -0.010321 0.013961 0.000000 0.007372 0.000000
# 4 0.000000 0.000000 0.000000 0.030213 0.000000 0.003384
# 5 -0.002636 -0.002827 0.007372 0.000000 0.039010 0.000000
# 6 0.000000 0.000000 0.000000 0.003384 0.000000 0.035220
#
#
# Mechanical properties :
#
#
# Convention : Reuss Voigt Hill
#
# Bulk Modulus (GPa) = 57.09200 78.86234 67.97717
# Shear Modulus (GPa) = 23.00548 27.98785 25.49666
#
# Velocity S-wave (km/s) = 3.61610 3.98850 3.80686
# Velocity P-wave (km/s) = 7.06298 8.12623 7.61319
#
# Compressibility (1/GPa) = 0.01751559
#
# Stress axis : x y z
#
# Youngs Moduli (GPa) = 76.63922 28.34610 71.62940
#
# Poissons Ratio (x) = 0.23491 0.27061
# Poissons Ratio (y) = 0.63512 0.73926
# Poissons Ratio (z) = 0.28954 0.29255
#
# Static dielectric constant tensor:
#      x y z
#    x 4.000690 0.000000 0.139820 
#    y 0.000000 3.014900 0.000000 
#    z 0.139820 0.000000 3.159290 
# 
# 
# High freq. dielectric constant tensor:
#      x y z
#    x 1.692370 0.000000 -0.009640 
#    y 0.000000 1.663960 0.000000 
#    z -0.009640 0.000000 1.671890 
# 
# From -- ./inp_files/28957.got.cif
#   From: 2010.06.25/outbox.cif.g09.slc.cpg/sg11_15_cif.got.tgz:28957.got - 2010.06.27 23:14:04.
