data_PCOD8071603
_publ_section_title
;
Structure prediction by ZEFSAII (Michael W. Deem and Ramdas Pophale) SiO2 
 PCOD8071603
Probable space group: P 21/M
;
_chemical_formula_sum "Si O2"
_cell_formula_units_Z 32
_cell_length_a 29.921489
_cell_length_b 9.061810
_cell_length_c 21.295327
_cell_angle_alpha 90.000000
_cell_angle_beta 162.002672
_cell_angle_gamma 90.000000
_cell_volume 1784.031395
_symmetry_space_group_name_H-M "P 21/M"
_symmetry_group_IT_number 11
_symmetry_cell_setting 'monoclinic'
loop_
_space_group_symop_operation_xyz
x,y,z
-x,1/2+y,-z
-x,-y,-z
x,1/2-y,z
loop_
_atom_site_type_symbol
_atom_site_label
_atom_site_fract_x
_atom_site_fract_y
_atom_site_fract_z
Si Si1 0.048620 0.576126 0.628187
Si Si2 0.726229 0.912812 0.903757
Si Si3 0.334856 0.421815 0.539434
Si Si4 0.847390 0.425778 0.809604
Si Si5 0.352041 0.580923 0.085774
Si Si6 0.951934 0.086253 0.613826
Si Si7 0.843741 0.077745 0.600684
Si Si8 0.160426 0.423521 0.074183
O O1 0.037802 0.750000 0.605362
O O2 0.000000 0.500000 0.500000
O O3 0.942051 0.526318 0.542388
O O4 0.211849 0.520300 0.861263
O O5 0.658020 0.750000 0.812925
O O6 0.734934 0.971833 0.843726
O O7 0.888302 0.907922 0.145347
O O8 0.627769 0.009953 0.818187
O O9 0.295177 0.250000 0.476485
O O10 0.265697 0.521500 0.393177
O O11 0.507217 0.446936 0.768294
O O12 0.280475 0.477573 0.534380
O O13 0.862609 0.250000 0.827638
O O14 0.790168 0.479067 0.800809
O O15 0.000000 0.500000 0.000000
O O16 0.324935 0.750000 0.064122
O O17 0.907252 0.250000 0.530759
O O18 0.848748 0.035600 0.533419
O O19 0.806989 0.250000 0.559819
O O20 0.993987 0.040579 0.836022
O O21 0.178272 0.250000 0.112496
#
# Coordination Sequence:
#
# PCOD8071603 Si02
#       8
#     4   4   4   4   4   4   4   4
#     4  10  19  33  55  82 108 134 164 204 250 298
#     4   8  15  29  51  74  97 129 166 208 255 303
#     4  11  22  35  51  72 101 138 174 211 256 303
#     4  12  23  34  49  72 100 133 174 218 261 304
#     4   9  20  36  52  74 105 136 168 207 251 302
#     4   8  15  29  49  76 105 131 162 204 251 297
#     4   9  17  30  50  74 101 133 169 210 256 301
#     4   9  17  31  50  73 100 128 166 217 264 302
#
# _framework density 17.936904999999999
#
# number of rings (size 3 to 8) (size 9 to 14) (size 15 to 20)
#    0.000    2.500    1.250    3.375    0.000    2.500 
#    0.000    3.125    0.000    0.750    0.000    0.000 
#    0.000    0.000    0.000    0.000    0.000    0.000 
#
# Total GULP energy -396690.177953 kJ/mol
# GULP energy per Si atom -12396.568061 kJ/mol
# Density = 1.789608 g / cm^3
# Si number density = 17.936905 Si / 1000 Ang^3
#
#
#
# Elastic Constant Matrix: (Units=GPa)
#
#
# Indices 1 2 3 4 5 6 
#
# 1 145.9036 64.3251 43.3413 0.0000 4.8280 0.0000
# 2 64.3251 90.9345 34.8214 0.0000 3.0580 0.0000
# 3 43.3413 34.8214 49.9911 0.0000 6.5304 0.0000
# 4 0.0000 0.0000 0.0000 19.5494 0.0000 2.4567
# 5 4.8280 3.0580 6.5304 0.0000 24.2095 0.0000
# 6 0.0000 0.0000 0.0000 2.4567 0.0000 37.8963
#
#
#
# Elastic Compliance Matrix: (Units=1/GPa)
#
#
# Indices 1 2 3 4 5 6 
#
# 1 0.011007 -0.005634 -0.005623 0.000000 0.000033 0.000000
# 2 -0.005634 0.017902 -0.007708 0.000000 0.000942 0.000000
# 3 -0.005623 -0.007708 0.031069 0.000000 -0.006286 0.000000
# 4 0.000000 0.000000 0.000000 0.051573 0.000000 -0.003343
# 5 0.000033 0.000942 -0.006286 0.000000 0.042876 0.000000
# 6 0.000000 0.000000 0.000000 -0.003343 0.000000 0.026605
#
#
# Mechanical properties :
#
#
# Convention : Reuss Voigt Hill
#
# Bulk Modulus (GPa) = 45.35599 63.53387 54.44493
# Shear Modulus (GPa) = 22.09352 25.95379 24.02365
#
# Velocity S-wave (km/s) = 3.51342 3.80801 3.66367
# Velocity P-wave (km/s) = 6.46530 7.40488 6.95098
#
# Compressibility (1/GPa) = 0.02204780
#
# Stress axis : x y z
#
# Youngs Moduli (GPa) = 90.85218 55.85835 32.18677
#
# Poissons Ratio (x) = 0.31471 0.18098
# Poissons Ratio (y) = 0.51187 0.24811
# Poissons Ratio (z) = 0.51083 0.43058
#
# Static dielectric constant tensor:
#      x y z
#    x 3.637450 0.000000 0.140570 
#    y 0.000000 3.428860 0.000000 
#    z 0.140570 0.000000 3.025070 
# 
# 
# High freq. dielectric constant tensor:
#      x y z
#    x 1.706970 0.000000 0.012640 
#    y 0.000000 1.694430 0.000000 
#    z 0.012640 0.000000 1.647710 
# 
# From -- ./inp_files/67155.got.cif
#   From: 2010.06.25/outbox.cif.g09.slc.cpg/sg11_34_cif.got.tgz:67155.got - 2010.06.27 23:14:04.
