data_PCOD8071608
_publ_section_title
;
Structure prediction by ZEFSAII (Michael W. Deem and Ramdas Pophale) SiO2 
 PCOD8071608
Probable space group: P 21/M
;
_chemical_formula_sum "Si O2"
_cell_formula_units_Z 28
_cell_length_a 28.539698
_cell_length_b 8.838443
_cell_length_c 9.550735
_cell_angle_alpha 90.000000
_cell_angle_beta 40.176969
_cell_angle_gamma 90.000000
_cell_volume 1554.257778
_symmetry_space_group_name_H-M "P 21/M"
_symmetry_group_IT_number 11
_symmetry_cell_setting 'monoclinic'
loop_
_space_group_symop_operation_xyz
x,y,z
-x,1/2+y,-z
-x,-y,-z
x,1/2-y,z
loop_
_atom_site_type_symbol
_atom_site_label
_atom_site_fract_x
_atom_site_fract_y
_atom_site_fract_z
Si Si1 0.093524 0.074906 0.905180
Si Si2 0.643205 0.073846 0.504534
Si Si3 0.804040 0.429358 0.130506
Si Si4 0.439223 0.927276 0.043263
Si Si5 0.946389 0.924181 0.314199
Si Si6 0.493630 0.569400 0.360337
Si Si7 0.923411 0.427419 0.636512
O O1 0.082094 0.250000 0.968865
O O2 0.094302 0.048003 0.737933
O O3 0.169530 0.011542 0.788352
O O4 0.029228 0.980394 0.122912
O O5 0.640099 0.250000 0.481655
O O6 0.722795 0.010946 0.281615
O O7 0.632323 0.044186 0.697166
O O8 0.580410 0.006744 0.545596
O O9 0.804305 0.250000 0.153594
O O10 0.857991 0.481997 0.884593
O O11 0.453126 0.750000 0.987450
O O12 0.500000 0.000000 0.000000
O O13 0.439367 0.010332 0.891121
O O14 0.948566 0.750000 0.352743
O O15 0.901537 0.018368 0.531187
O O16 0.500000 0.500000 0.500000
O O17 0.497127 0.750000 0.362292
O O18 0.932486 0.250000 0.622339
O O19 0.000000 0.500000 0.500000
#
# Coordination Sequence:
#
# PCOD8071608 Si02
#       7
#     4   4   4   4   4   4   4
#     4  10  20  33  51  74  98 127 166 214 266 310
#     4   8  17  34  54  76 103 137 176 215 256 309
#     4  10  20  35  54  75 101 136 176 216 262 316
#     4   9  16  30  53  78 104 135 173 214 254 303
#     4  10  20  34  51  71  97 129 168 213 260 313
#     4  10  19  33  55  82 111 141 176 217 258 308
#     4  11  21  32  51  76 102 133 175 221 265 314
#
# _framework density 18.015029999999999
#
# number of rings (size 3 to 8) (size 9 to 14) (size 15 to 20)
#    0.000    2.286    1.429    3.000    0.000    2.286 
#    0.000    5.714    0.000    6.857    0.000    0.000 
#    0.000    0.000    0.000    0.000    0.000    0.000 
#
# Total GULP energy -347022.042638 kJ/mol
# GULP energy per Si atom -12393.644380 kJ/mol
# Density = 1.797403 g / cm^3
# Si number density = 18.015030 Si / 1000 Ang^3
#
#
#
# Elastic Constant Matrix: (Units=GPa)
#
#
# Indices 1 2 3 4 5 6 
#
# 1 99.7686 32.0076 64.7213 0.0000 9.2773 0.0000
# 2 32.0076 58.8686 44.1444 0.0000 6.9500 0.0000
# 3 64.7213 44.1444 127.8241 0.0000 7.7997 0.0000
# 4 0.0000 0.0000 0.0000 26.3155 0.0000 7.8422
# 5 9.2773 6.9500 7.7997 0.0000 31.0350 0.0000
# 6 0.0000 0.0000 0.0000 7.8422 0.0000 29.0443
#
#
#
# Elastic Compliance Matrix: (Units=1/GPa)
#
#
# Indices 1 2 3 4 5 6 
#
# 1 0.015571 -0.003226 -0.006632 0.000000 -0.002266 0.000000
# 2 -0.003226 0.023908 -0.006454 0.000000 -0.002768 0.000000
# 3 -0.006632 -0.006454 0.013407 0.000000 0.000059 0.000000
# 4 0.000000 0.000000 0.000000 0.041326 0.000000 -0.011158
# 5 -0.002266 -0.002768 0.000059 0.000000 0.033504 0.000000
# 6 0.000000 0.000000 0.000000 -0.011158 0.000000 0.037443
#
#
# Mechanical properties :
#
#
# Convention : Reuss Voigt Hill
#
# Bulk Modulus (GPa) = 49.35493 63.13423 56.24458
# Shear Modulus (GPa) = 24.44570 26.98484 25.71527
#
# Velocity S-wave (km/s) = 3.68769 3.87448 3.78224
# Velocity P-wave (km/s) = 6.75190 7.42542 7.09665
#
# Compressibility (1/GPa) = 0.02026140
#
# Stress axis : x y z
#
# Youngs Moduli (GPa) = 64.22272 41.82773 74.58992
#
# Poissons Ratio (x) = 0.13492 0.49467
# Poissons Ratio (y) = 0.20715 0.48144
# Poissons Ratio (z) = 0.42591 0.26998
#
# Static dielectric constant tensor:
#      x y z
#    x 3.421070 0.000000 0.222310 
#    y 0.000000 3.359930 0.000000 
#    z 0.222310 0.000000 3.810890 
# 
# 
# High freq. dielectric constant tensor:
#      x y z
#    x 1.680750 0.000000 0.020360 
#    y 0.000000 1.697510 0.000000 
#    z 0.020360 0.000000 1.693910 
# 
# From -- ./inp_files/28356.got.cif
#   From: 2010.06.25/outbox.cif.g09.slc.cpg/sg11_15_cif.got.tgz:28356.got - 2010.06.27 23:14:04.
