data_PCOD8071264
_publ_section_title
;
Structure prediction by ZEFSAII (Michael W. Deem and Ramdas Pophale) SiO2 
 PCOD8071264
Probable space group: P 21/M
;
_chemical_formula_sum "Si O2"
_cell_formula_units_Z 32
_cell_length_a 11.350236
_cell_length_b 9.090965
_cell_length_c 31.200125
_cell_angle_alpha 90.000000
_cell_angle_beta 148.059034
_cell_angle_gamma 90.000000
_cell_volume 1703.193519
_symmetry_space_group_name_H-M "P 21/M"
_symmetry_group_IT_number 11
_symmetry_cell_setting 'monoclinic'
loop_
_space_group_symop_operation_xyz
x,y,z
-x,1/2+y,-z
-x,-y,-z
x,1/2-y,z
loop_
_atom_site_type_symbol
_atom_site_label
_atom_site_fract_x
_atom_site_fract_y
_atom_site_fract_z
Si Si1 0.001997 0.918562 0.106911
Si Si2 0.124327 0.078385 0.780939
Si Si3 0.419614 0.080417 0.079311
Si Si4 0.351554 0.921779 0.143607
Si Si5 0.667431 0.078891 0.399834
Si Si6 0.157062 0.077134 0.237029
Si Si7 0.856964 0.582446 0.311752
Si Si8 0.966212 0.922184 0.555220
O O1 0.054361 0.750000 0.135482
O O2 0.175987 0.973380 0.124841
O O3 0.021496 0.019874 0.154394
O O4 0.752393 0.935536 0.012673
O O5 0.138090 0.250000 0.796525
O O6 0.068885 0.052944 0.714025
O O7 0.360259 0.007226 0.866104
O O8 0.928703 0.001864 0.746816
O O9 0.480161 0.250000 0.106635
O O10 0.305861 0.014456 0.086715
O O11 0.326517 0.750000 0.124228
O O12 0.597240 0.956519 0.237155
O O13 0.693734 0.250000 0.418127
O O14 0.415428 0.036017 0.311067
O O15 0.816661 0.032209 0.405246
O O16 0.746460 0.992309 0.466399
O O17 0.118445 0.250000 0.229669
O O18 0.901587 0.750000 0.338855
O O19 0.004258 0.479849 0.387535
O O20 0.929629 0.750000 0.545675
#
# Coordination Sequence:
#
# PCOD8071264 Si02
#       8
#     4   4   4   4   4   4   4   4
#     4  10  21  35  53  79 110 143 178 218 268 325
#     4  10  22  40  58  75 102 142 183 223 268 317
#     4  10  20  34  54  80 108 140 179 223 269 314
#     4   9  18  33  53  79 111 145 178 215 265 319
#     4   9  20  37  54  79 114 142 167 208 261 312
#     4  11  23  38  57  79 104 138 180 225 270 313
#     4   9  18  33  54  78 105 139 175 214 262 312
#     4  10  19  32  56  86 111 138 171 207 253 312
#
# _framework density 18.788235
#
# number of rings (size 3 to 8) (size 9 to 14) (size 15 to 20)
#    0.000    2.250    0.000    3.375    0.000    6.000 
#    0.000    0.625    0.000    0.000    0.000    0.000 
#    0.000    0.000    0.000    0.000    0.000    0.000 
#
# Total GULP energy -396948.675556 kJ/mol
# GULP energy per Si atom -12404.646111 kJ/mol
# Density = 1.874547 g / cm^3
# Si number density = 18.788235 Si / 1000 Ang^3
#
#
#
# Elastic Constant Matrix: (Units=GPa)
#
#
# Indices 1 2 3 4 5 6 
#
# 1 72.0113 39.9528 30.9277 0.0000 -5.4815 0.0000
# 2 39.9528 91.8372 51.8335 0.0000 -9.4150 0.0000
# 3 30.9277 51.8335 91.7822 0.0000 -19.5353 0.0000
# 4 0.0000 0.0000 0.0000 32.7570 0.0000 -2.5525
# 5 -5.4815 -9.4150 -19.5353 0.0000 18.0068 0.0000
# 6 0.0000 0.0000 0.0000 -2.5525 0.0000 32.9281
#
#
#
# Elastic Compliance Matrix: (Units=1/GPa)
#
#
# Indices 1 2 3 4 5 6 
#
# 1 0.018696 -0.006701 -0.002665 0.000000 -0.000704 0.000000
# 2 -0.006701 0.018434 -0.008497 0.000000 -0.001620 0.000000
# 3 -0.002665 -0.008497 0.020120 0.000000 0.016574 0.000000
# 4 0.000000 0.000000 0.000000 0.030713 0.000000 0.002381
# 5 -0.000704 -0.001620 0.016574 0.000000 0.072454 0.000000
# 6 0.000000 0.000000 0.000000 0.002381 0.000000 0.030554
#
#
# Mechanical properties :
#
#
# Convention : Reuss Voigt Hill
#
# Bulk Modulus (GPa) = 46.46389 55.67321 51.06855
# Shear Modulus (GPa) = 21.37926 25.59949 23.48938
#
# Velocity S-wave (km/s) = 3.37695 3.69525 3.53968
# Velocity P-wave (km/s) = 6.32369 6.92118 6.62917
#
# Compressibility (1/GPa) = 0.02152209
#
# Stress axis : x y z
#
# Youngs Moduli (GPa) = 53.48803 54.24772 49.70238
#
# Poissons Ratio (x) = 0.36353 0.13247
# Poissons Ratio (y) = 0.35844 0.42233
# Poissons Ratio (z) = 0.14256 0.46095
#
# Static dielectric constant tensor:
#      x y z
#    x 3.389670 0.000000 0.015010 
#    y 0.000000 3.453490 0.000000 
#    z 0.015010 0.000000 3.342340 
# 
# 
# High freq. dielectric constant tensor:
#      x y z
#    x 1.720940 0.000000 -0.003900 
#    y 0.000000 1.735780 0.000000 
#    z -0.003900 0.000000 1.727540 
# 
# From -- ./inp_files/73133.got.cif
#   From: 2010.06.25/outbox.cif.g09.slc.cpg/sg11_37_cif.got.tgz:73133.got - 2010.06.27 23:14:04.
