data_PCOD8071977
_publ_section_title
;
Structure prediction by ZEFSAII (Michael W. Deem and Ramdas Pophale) SiO2 
 PCOD8071977
Probable space group: P 21/M
;
_chemical_formula_sum "Si O2"
_cell_formula_units_Z 32
_cell_length_a 21.067580
_cell_length_b 14.281623
_cell_length_c 14.752088
_cell_angle_alpha 90.000000
_cell_angle_beta 157.298547
_cell_angle_gamma 90.000000
_cell_volume 1712.985225
_symmetry_space_group_name_H-M "P 21/M"
_symmetry_group_IT_number 11
_symmetry_cell_setting 'monoclinic'
loop_
_space_group_symop_operation_xyz
x,y,z
-x,1/2+y,-z
-x,-y,-z
x,1/2-y,z
loop_
_atom_site_type_symbol
_atom_site_label
_atom_site_fract_x
_atom_site_fract_y
_atom_site_fract_z
Si Si1 0.876142 0.425664 0.524344
Si Si2 0.774785 0.357115 0.707596
Si Si3 0.567854 0.002188 0.187909
Si Si4 0.695818 0.488461 0.764518
Si Si5 0.044208 0.355791 0.916720
Si Si6 0.679975 0.358330 0.094066
Si Si7 0.197868 0.987163 0.897556
Si Si8 0.444218 0.358045 0.162495
O O1 0.764731 0.494647 0.440368
O O2 0.768875 0.369991 0.308535
O O3 0.964015 0.355967 0.710576
O O4 0.004862 0.491276 0.642840
O O5 0.810946 0.250000 0.779256
O O6 0.775469 0.414413 0.801016
O O7 0.593917 0.369205 0.428608
O O8 0.913536 0.393522 0.819575
O O9 0.501149 0.098739 0.142573
O O10 0.498609 0.909806 0.147132
O O11 0.500000 0.000000 0.000000
O O12 0.500000 0.500000 0.500000
O O13 0.786773 0.585989 0.861363
O O14 0.739532 0.451897 0.922362
O O15 0.094249 0.250000 0.005639
O O16 0.652584 0.250000 0.037092
O O17 0.785844 0.404510 0.153650
O O18 0.289341 0.084172 0.994657
O O19 0.392808 0.250000 0.081070
#
# Coordination Sequence:
#
# PCOD8071977 Si02
#       8
#     4   4   4   4   4   4   4   4
#     4  10  19  36  59  85 113 144 182 241 287 324
#     4  10  20  36  57  81 109 145 187 233 281 330
#     4   9  19  34  55  82 112 145 185 228 279 337
#     4  11  22  37  56  80 115 153 183 233 287 331
#     4  10  21  36  60  89 110 139 188 237 285 336
#     4  10  21  37  56  81 117 155 187 222 277 343
#     4  10  22  37  56  82 116 150 194 227 281 337
#     4  10  19  34  56  82 112 145 185 235 282 328
#
# _framework density 18.680838000000001
#
# number of rings (size 3 to 8) (size 9 to 14) (size 15 to 20)
#    0.000    2.000    2.500    1.125    0.000    5.500 
#    0.000    0.625    0.000    0.750    0.000    0.000 
#    0.000    0.000    0.000    0.000    0.000    0.000 
#
# Total GULP energy -396652.726075 kJ/mol
# GULP energy per Si atom -12395.397690 kJ/mol
# Density = 1.863832 g / cm^3
# Si number density = 18.680838 Si / 1000 Ang^3
#
#
#
# Elastic Constant Matrix: (Units=GPa)
#
#
# Indices 1 2 3 4 5 6 
#
# 1 122.3648 58.7506 31.7461 0.0000 10.3681 0.0000
# 2 58.7506 122.0650 39.5507 0.0000 5.3445 0.0000
# 3 31.7461 39.5507 75.1113 0.0000 16.9966 0.0000
# 4 0.0000 0.0000 0.0000 19.5922 0.0000 -4.5966
# 5 10.3681 5.3445 16.9966 0.0000 34.9134 0.0000
# 6 0.0000 0.0000 0.0000 -4.5966 0.0000 25.2288
#
#
#
# Elastic Compliance Matrix: (Units=1/GPa)
#
#
# Indices 1 2 3 4 5 6 
#
# 1 0.011015 -0.004633 -0.001839 0.000000 -0.001667 0.000000
# 2 -0.004633 0.011867 -0.004710 0.000000 0.001852 0.000000
# 3 -0.001839 -0.004710 0.018300 0.000000 -0.007642 0.000000
# 4 0.000000 0.000000 0.000000 0.053320 0.000000 0.009715
# 5 -0.001667 0.001852 -0.007642 0.000000 0.032574 0.000000
# 6 0.000000 0.000000 0.000000 0.009715 0.000000 0.041407
#
#
# Mechanical properties :
#
#
# Convention : Reuss Voigt Hill
#
# Bulk Modulus (GPa) = 53.13751 64.40399 58.77075
# Shear Modulus (GPa) = 25.36540 28.57980 26.97260
#
# Velocity S-wave (km/s) = 3.68887 3.91564 3.80394
# Velocity P-wave (km/s) = 6.83011 7.41578 7.12896
#
# Compressibility (1/GPa) = 0.01881910
#
# Stress axis : x y z
#
# Youngs Moduli (GPa) = 90.78631 84.26693 54.64471
#
# Poissons Ratio (x) = 0.39038 0.10049
# Poissons Ratio (y) = 0.42059 0.25736
# Poissons Ratio (z) = 0.16695 0.39688
#
# Static dielectric constant tensor:
#      x y z
#    x 3.770240 0.000000 0.293920 
#    y 0.000000 3.418920 0.000000 
#    z 0.293920 0.000000 3.626690 
# 
# 
# High freq. dielectric constant tensor:
#      x y z
#    x 1.746570 0.000000 0.012660 
#    y 0.000000 1.707630 0.000000 
#    z 0.012660 0.000000 1.717500 
# 
# From -- ./inp_files/18038.got.cif
#   From: 2010.06.25/outbox.cif.g09.slc.cpg/sg11_10_cif.got.tgz:18038.got - 2010.06.27 23:14:04.
