data_PCOD8071831
_publ_section_title
;
Structure prediction by ZEFSAII (Michael W. Deem and Ramdas Pophale) SiO2 
 PCOD8071831
Probable space group: P 21/M
;
_chemical_formula_sum "Si O2"
_cell_formula_units_Z 24
_cell_length_a 21.923653
_cell_length_b 8.667208
_cell_length_c 9.685041
_cell_angle_alpha 90.000000
_cell_angle_beta 44.585438
_cell_angle_gamma 90.000000
_cell_volume 1291.853994
_symmetry_space_group_name_H-M "P 21/M"
_symmetry_group_IT_number 11
_symmetry_cell_setting 'monoclinic'
loop_
_space_group_symop_operation_xyz
x,y,z
-x,1/2+y,-z
-x,-y,-z
x,1/2-y,z
loop_
_atom_site_type_symbol
_atom_site_label
_atom_site_fract_x
_atom_site_fract_y
_atom_site_fract_z
Si Si1 0.526486 0.568804 0.311708
Si Si2 0.094826 0.067084 0.863540
Si Si3 0.724180 0.932712 0.942628
Si Si4 0.238360 0.067934 0.420166
Si Si5 0.366669 0.433012 0.443470
Si Si6 0.775535 0.432195 0.135395
O O1 0.500000 0.500000 0.500000
O O2 0.515486 0.750000 0.336907
O O3 0.463067 0.502760 0.295208
O O4 0.623525 0.520420 0.115851
O O5 0.092275 0.250000 0.884594
O O6 0.149829 0.017423 0.639438
O O7 0.138314 0.995398 0.929388
O O8 0.000000 0.000000 0.000000
O O9 0.737451 0.750000 0.937259
O O10 0.758613 0.997178 0.739839
O O11 0.780560 0.020216 0.966943
O O12 0.244942 0.250000 0.402272
O O13 0.320924 0.008749 0.376312
O O14 0.371054 0.250000 0.445581
O O15 0.310987 0.490773 0.663726
O O16 0.770645 0.250000 0.160432
#
# Coordination Sequence:
#
# PCOD8071831 Si02
#       6
#     4   4   4   4   4   4
#     4  11  21  31  50  77 109 145 190 232 268 316
#     4  10  20  38  63  87 110 138 175 219 268 326
#     4  10  20  36  55  77 108 147 184 224 274 319
#     4   8  18  36  57  79 107 142 179 222 274 324
#     4  10  19  34  54  76 106 146 188 230 272 317
#     4  11  21  34  55  82 110 142 183 223 267 322
#
# _framework density 18.577950999999999
#
# number of rings (size 3 to 8) (size 9 to 14) (size 15 to 20)
#    0.000    2.000    1.667    4.000    0.000    1.333 
#    0.000    5.833    0.000    0.000    0.000    0.000 
#    0.000    0.000    0.000    0.000    0.000    0.000 
#
# Total GULP energy -297616.441628 kJ/mol
# GULP energy per Si atom -12400.685068 kJ/mol
# Density = 1.853567 g / cm^3
# Si number density = 18.577951 Si / 1000 Ang^3
#
#
#
# Elastic Constant Matrix: (Units=GPa)
#
#
# Indices 1 2 3 4 5 6 
#
# 1 138.0021 39.6071 75.7738 0.0000 0.5664 0.0000
# 2 39.6071 69.7389 33.4188 0.0000 -3.9680 0.0000
# 3 75.7738 33.4188 108.6867 0.0000 12.4005 0.0000
# 4 0.0000 0.0000 0.0000 17.0219 0.0000 -4.2362
# 5 0.5664 -3.9680 12.4005 0.0000 35.6663 0.0000
# 6 0.0000 0.0000 0.0000 -4.2362 0.0000 34.9039
#
#
#
# Elastic Compliance Matrix: (Units=1/GPa)
#
#
# Indices 1 2 3 4 5 6 
#
# 1 0.012557 -0.003150 -0.008042 0.000000 0.002246 0.000000
# 2 -0.003150 0.018122 -0.003761 0.000000 0.003374 0.000000
# 3 -0.008042 -0.003761 0.016658 0.000000 -0.006082 0.000000
# 4 0.000000 0.000000 0.000000 0.060578 0.000000 0.007352
# 5 0.002246 0.003374 -0.006082 0.000000 0.030492 0.000000
# 6 0.000000 0.000000 0.000000 0.007352 0.000000 0.029542
#
#
# Mechanical properties :
#
#
# Convention : Reuss Voigt Hill
#
# Bulk Modulus (GPa) = 57.36927 68.22524 62.79726
# Shear Modulus (GPa) = 24.55004 28.69363 26.62183
#
# Velocity S-wave (km/s) = 3.63913 3.93428 3.78958
# Velocity P-wave (km/s) = 6.97173 7.57902 7.28171
#
# Compressibility (1/GPa) = 0.01743093
#
# Stress axis : x y z
#
# Youngs Moduli (GPa) = 79.63823 55.18023 60.03144
#
# Poissons Ratio (x) = 0.17381 0.48278
# Poissons Ratio (y) = 0.25085 0.22579
# Poissons Ratio (z) = 0.64046 0.20754
#
# Static dielectric constant tensor:
#      x y z
#    x 3.633910 0.000000 0.149650 
#    y 0.000000 3.324150 0.000000 
#    z 0.149650 0.000000 3.447700 
# 
# 
# High freq. dielectric constant tensor:
#      x y z
#    x 1.730010 0.000000 0.007140 
#    y 0.000000 1.715530 0.000000 
#    z 0.007140 0.000000 1.703380 
# 
# From -- ./inp_files/25727.got.cif
#   From: 2010.06.25/outbox.cif.g09.slc.cpg/sg11_13_cif.got.tgz:25727.got - 2010.06.27 23:14:04.
