data_PCOD8071026
_publ_section_title
;
Structure prediction by ZEFSAII (Michael W. Deem and Ramdas Pophale) SiO2 
 PCOD8071026
Probable space group: P 21/M
;
_chemical_formula_sum "Si O2"
_cell_formula_units_Z 32
_cell_length_a 23.017421
_cell_length_b 8.580602
_cell_length_c 14.913757
_cell_angle_alpha 90.000000
_cell_angle_beta 140.567409
_cell_angle_gamma 90.000000
_cell_volume 1870.903684
_symmetry_space_group_name_H-M "P 21/M"
_symmetry_group_IT_number 11
_symmetry_cell_setting 'monoclinic'
loop_
_space_group_symop_operation_xyz
x,y,z
-x,1/2+y,-z
-x,-y,-z
x,1/2-y,z
loop_
_atom_site_type_symbol
_atom_site_label
_atom_site_fract_x
_atom_site_fract_y
_atom_site_fract_z
Si Si1 0.112926 0.068087 0.493705
Si Si2 0.067760 0.930561 0.953509
Si Si3 0.618426 0.570347 0.055002
Si Si4 0.919304 0.930702 0.219999
Si Si5 0.198764 0.570002 0.770224
Si Si6 0.586196 0.069663 0.205372
Si Si7 0.873168 0.568695 0.800747
Si Si8 0.254531 0.432165 0.510148
O O1 0.089419 0.250000 0.455141
O O2 0.184196 0.013606 0.503114
O O3 0.154299 0.036171 0.640340
O O4 0.021256 0.970585 0.372409
O O5 0.076033 0.750000 0.938723
O O6 0.964073 0.976955 0.854305
O O7 0.097719 0.030769 0.904124
O O8 0.133622 0.970981 0.115681
O O9 0.644615 0.750000 0.073448
O O10 0.693256 0.466491 0.093254
O O11 0.618847 0.534314 0.161160
O O12 0.518868 0.531624 0.894650
O O13 0.900584 0.750000 0.214890
O O14 0.847317 0.031189 0.190454
O O15 0.183740 0.750000 0.728361
O O16 0.596329 0.250000 0.190969
O O17 0.650577 0.026050 0.366069
O O18 0.875927 0.750000 0.828940
O O19 0.786341 0.526064 0.635884
O O20 0.274543 0.250000 0.542256
#
# Coordination Sequence:
#
# PCOD8071026 Si02
#       8
#     4   4   4   4   4   4   4   4
#     4  11  21  36  52  73 105 140 176 215 251 296
#     4  10  19  34  52  74 102 133 171 215 256 299
#     4  10  20  35  51  72 102 135 170 214 259 302
#     4  12  24  37  53  73 101 140 178 215 255 303
#     4  12  24  37  53  74 100 136 179 219 255 304
#     4  10  20  32  51  76 103 133 171 212 255 308
#     4   9  18  33  51  74 102 134 169 208 257 304
#     4  10  19  32  52  75 106 140 170 209 256 305
#
# _framework density 17.104033000000001
#
# number of rings (size 3 to 8) (size 9 to 14) (size 15 to 20)
#    0.000    1.500    2.500    4.125    0.000    3.000 
#    0.000    0.000    0.000    0.000    0.000    0.875 
#    0.000    0.000    0.000    0.000    0.000    0.000 
#
# Total GULP energy -396949.544097 kJ/mol
# GULP energy per Si atom -12404.673253 kJ/mol
# Density = 1.706510 g / cm^3
# Si number density = 17.104033 Si / 1000 Ang^3
#
#
#
# Elastic Constant Matrix: (Units=GPa)
#
#
# Indices 1 2 3 4 5 6 
#
# 1 68.5096 19.2857 43.6161 0.0000 0.6158 0.0000
# 2 19.2857 54.0207 25.3675 0.0000 3.5248 0.0000
# 3 43.6161 25.3675 111.7179 0.0000 4.2290 0.0000
# 4 0.0000 0.0000 0.0000 29.9038 0.0000 -0.3473
# 5 0.6158 3.5248 4.2290 0.0000 19.6964 0.0000
# 6 0.0000 0.0000 0.0000 -0.3473 0.0000 25.3903
#
#
#
# Elastic Compliance Matrix: (Units=1/GPa)
#
#
# Indices 1 2 3 4 5 6 
#
# 1 0.020187 -0.004009 -0.007031 0.000000 0.001596 0.000000
# 2 -0.004009 0.021663 -0.003238 0.000000 -0.003056 0.000000
# 3 -0.007031 -0.003238 0.012503 0.000000 -0.001885 0.000000
# 4 0.000000 0.000000 0.000000 0.033446 0.000000 0.000458
# 5 0.001596 -0.003056 -0.001885 0.000000 0.051673 0.000000
# 6 0.000000 0.000000 0.000000 0.000458 0.000000 0.039391
#
#
# Mechanical properties :
#
#
# Convention : Reuss Voigt Hill
#
# Bulk Modulus (GPa) = 38.76629 45.64295 42.20462
# Shear Modulus (GPa) = 23.14620 24.73002 23.93811
#
# Velocity S-wave (km/s) = 3.68266 3.80657 3.74513
# Velocity P-wave (km/s) = 6.38724 6.78700 6.59015
#
# Compressibility (1/GPa) = 0.02579561
#
# Stress axis : x y z
#
# Youngs Moduli (GPa) = 49.53625 46.16242 79.98175
#
# Poissons Ratio (x) = 0.18508 0.56238
# Poissons Ratio (y) = 0.19860 0.25898
# Poissons Ratio (z) = 0.34831 0.14947
#
# Static dielectric constant tensor:
#      x y z
#    x 3.033240 0.000000 0.046120 
#    y 0.000000 3.198500 0.000000 
#    z 0.046120 0.000000 3.272660 
# 
# 
# High freq. dielectric constant tensor:
#      x y z
#    x 1.629160 0.000000 0.000090 
#    y 0.000000 1.670670 0.000000 
#    z 0.000090 0.000000 1.656060 
# 
# From -- ./inp_files/54341.got.cif
#   From: 2010.06.25/outbox.cif.g09.slc.cpg/sg11_28_cif.got.tgz:54341.got - 2010.06.27 23:14:04.
