data_PCOD8071585
_publ_section_title
;
Structure prediction by ZEFSAII (Michael W. Deem and Ramdas Pophale) SiO2 
 PCOD8071585
Probable space group: P 21/M
;
_chemical_formula_sum "Si O2"
_cell_formula_units_Z 28
_cell_length_a 12.015335
_cell_length_b 9.048670
_cell_length_c 13.937839
_cell_angle_alpha 90.000000
_cell_angle_beta 71.106066
_cell_angle_gamma 90.000000
_cell_volume 1433.712721
_symmetry_space_group_name_H-M "P 21/M"
_symmetry_group_IT_number 11
_symmetry_cell_setting 'monoclinic'
loop_
_space_group_symop_operation_xyz
x,y,z
-x,1/2+y,-z
-x,-y,-z
x,1/2-y,z
loop_
_atom_site_type_symbol
_atom_site_label
_atom_site_fract_x
_atom_site_fract_y
_atom_site_fract_z
Si Si1 0.564275 0.911271 0.709973
Si Si2 0.381780 0.086159 0.515841
Si Si3 0.745283 0.080322 0.765801
Si Si4 0.180016 0.923767 0.678767
Si Si5 0.375975 0.575996 0.009934
Si Si6 0.306417 0.919466 0.824029
Si Si7 0.036738 0.075996 0.389531
O O1 0.573925 0.750000 0.759519
O O2 0.636714 0.902577 0.592301
O O3 0.426519 0.944890 0.729994
O O4 0.617232 0.041547 0.759285
O O5 0.388955 0.250000 0.559953
O O6 0.500000 0.000000 0.500000
O O7 0.269791 0.000361 0.583122
O O8 0.777627 0.250000 0.736690
O O9 0.728247 0.047662 0.883658
O O10 0.839456 0.978513 0.686122
O O11 0.205751 0.750000 0.668274
O O12 0.202052 0.982024 0.783001
O O13 0.052064 0.962404 0.673104
O O14 0.402988 0.750000 0.993776
O O15 0.500000 0.500000 0.000000
O O16 0.322846 0.508298 0.924971
O O17 0.277477 0.750000 0.851197
O O18 0.042335 0.250000 0.407985
O O19 0.000000 0.000000 0.500000
#
# Coordination Sequence:
#
# PCOD8071585 Si02
#       7
#     4   4   4   4   4   4   4
#     4  10  19  33  55  80 111 152 190 231 286 344
#     4  11  21  32  50  79 113 147 183 227 283 346
#     4  11  23  37  57  87 120 152 193 240 289 346
#     4  10  21  39  59  81 109 148 196 240 287 341
#     4  10  20  35  58  86 117 154 191 238 289 342
#     4   9  17  34  57  81 112 147 185 232 288 340
#     4  11  24  42  65  87 114 153 197 244 288 344
#
# _framework density 19.529714999999999
#
# number of rings (size 3 to 8) (size 9 to 14) (size 15 to 20)
#    0.000    1.714    2.857    2.143    0.000    5.143 
#    0.000    1.429    0.000    0.000    0.000    0.000 
#    0.000    0.000    0.000    0.000    0.000    0.000 
#
# Total GULP energy -346940.900545 kJ/mol
# GULP energy per Si atom -12390.746448 kJ/mol
# Density = 1.948526 g / cm^3
# Si number density = 19.529715 Si / 1000 Ang^3
#
#
#
# Elastic Constant Matrix: (Units=GPa)
#
#
# Indices 1 2 3 4 5 6 
#
# 1 92.5839 37.4099 41.6495 0.0000 20.1150 0.0000
# 2 37.4099 53.2257 26.9058 0.0000 3.5185 0.0000
# 3 41.6495 26.9058 113.6783 0.0000 14.3338 0.0000
# 4 0.0000 0.0000 0.0000 23.4061 0.0000 -0.8544
# 5 20.1150 3.5185 14.3338 0.0000 35.4406 0.0000
# 6 0.0000 0.0000 0.0000 -0.8544 0.0000 26.4521
#
#
#
# Elastic Compliance Matrix: (Units=1/GPa)
#
#
# Indices 1 2 3 4 5 6 
#
# 1 0.018308 -0.010744 -0.003150 0.000000 -0.008051 0.000000
# 2 -0.010744 0.027646 -0.003193 0.000000 0.004644 0.000000
# 3 -0.003150 -0.003193 0.011002 0.000000 -0.002345 0.000000
# 4 0.000000 0.000000 0.000000 0.042774 0.000000 0.001382
# 5 -0.008051 0.004644 -0.002345 0.000000 0.033273 0.000000
# 6 0.000000 0.000000 0.000000 0.001382 0.000000 0.037849
#
#
# Mechanical properties :
#
#
# Convention : Reuss Voigt Hill
#
# Bulk Modulus (GPa) = 43.89028 52.37982 48.13505
# Shear Modulus (GPa) = 23.51624 27.29463 25.40543
#
# Velocity S-wave (km/s) = 3.47382 3.74250 3.61066
# Velocity P-wave (km/s) = 6.21388 6.74936 6.48714
#
# Compressibility (1/GPa) = 0.02278409
#
# Stress axis : x y z
#
# Youngs Moduli (GPa) = 54.62047 36.17163 90.89133
#
# Poissons Ratio (x) = 0.38861 0.28629
# Poissons Ratio (y) = 0.58682 0.29019
# Poissons Ratio (z) = 0.17204 0.11549
#
# Static dielectric constant tensor:
#      x y z
#    x 3.538160 0.000000 0.364330 
#    y 0.000000 3.526200 0.000000 
#    z 0.364330 0.000000 3.790490 
# 
# 
# High freq. dielectric constant tensor:
#      x y z
#    x 1.751300 0.000000 0.015090 
#    y 0.000000 1.747570 0.000000 
#    z 0.015090 0.000000 1.765270 
# 
# From -- ./inp_files/37920.got.cif
#   From: 2010.06.25/outbox.cif.g09.slc.cpg/sg11_19_cif.got.tgz:37920.got - 2010.06.27 23:14:04.
