data_PCOD8071474
_publ_section_title
;
Structure prediction by ZEFSAII (Michael W. Deem and Ramdas Pophale) SiO2 
 PCOD8071474
Probable space group: P 21/M
;
_chemical_formula_sum "Si O2"
_cell_formula_units_Z 32
_cell_length_a 23.402390
_cell_length_b 9.031434
_cell_length_c 28.732013
_cell_angle_alpha 90.000000
_cell_angle_beta 162.801088
_cell_angle_gamma 90.000000
_cell_volume 1795.640882
_symmetry_space_group_name_H-M "P 21/M"
_symmetry_group_IT_number 11
_symmetry_cell_setting 'monoclinic'
loop_
_space_group_symop_operation_xyz
x,y,z
-x,1/2+y,-z
-x,-y,-z
x,1/2-y,z
loop_
_atom_site_type_symbol
_atom_site_label
_atom_site_fract_x
_atom_site_fract_y
_atom_site_fract_z
Si Si1 0.966002 0.080737 0.020709
Si Si2 0.158177 0.920841 0.799164
Si Si3 0.179824 0.076576 0.721291
Si Si4 0.233115 0.925230 0.492822
Si Si5 0.447272 0.575377 0.319872
Si Si6 0.262318 0.580605 0.621143
Si Si7 0.444523 0.081244 0.844697
Si Si8 0.374268 0.425249 0.362308
O O1 0.984114 0.250000 0.021520
O O2 0.143962 0.042105 0.194314
O O3 0.743052 0.045919 0.861514
O O4 0.000000 0.000000 0.000000
O O5 0.096942 0.750000 0.745029
O O6 0.233326 0.984500 0.808721
O O7 0.330341 0.937571 0.969787
O O8 0.982489 0.015283 0.683281
O O9 0.218060 0.250000 0.761327
O O10 0.312533 0.012520 0.783117
O O11 0.957512 0.048350 0.534856
O O12 0.235403 0.750000 0.486256
O O13 0.296738 0.967057 0.594610
O O14 0.371143 0.005925 0.564309
O O15 0.480306 0.750000 0.353461
O O16 0.428388 0.496513 0.354990
O O17 0.314933 0.750000 0.668829
O O18 0.408025 0.491936 0.766739
O O19 0.381749 0.250000 0.791349
O O20 0.500000 0.500000 0.500000
O O21 0.417121 0.250000 0.394458
#
# Coordination Sequence:
#
# PCOD8071474 Si02
#       8
#     4   4   4   4   4   4   4   4
#     4   8  16  30  50  76 105 134 167 204 243 285
#     4  10  20  33  50  74 100 132 171 210 252 304
#     4   9  18  33  50  72 100 130 164 206 254 309
#     4  10  21  38  55  73  98 132 172 212 252 302
#     4  10  19  34  57  81 102 133 174 213 252 299
#     4   9  19  33  50  71  97 129 167 208 253 302
#     4  10  20  32  49  74 102 128 162 208 259 308
#     4  10  19  33  53  81 115 146 172 205 248 293
#
# _framework density 17.820934000000001
#
# number of rings (size 3 to 8) (size 9 to 14) (size 15 to 20)
#    0.000    2.500    0.000    3.000    0.000    5.000 
#    0.000    1.250    0.000    4.500    0.000    0.000 
#    0.000    0.000    0.000    0.000    0.000    0.000 
#
# Total GULP energy -396593.451082 kJ/mol
# GULP energy per Si atom -12393.545346 kJ/mol
# Density = 1.778037 g / cm^3
# Si number density = 17.820934 Si / 1000 Ang^3
#
#
#
# Elastic Constant Matrix: (Units=GPa)
#
#
# Indices 1 2 3 4 5 6 
#
# 1 82.6443 42.5315 59.9572 0.0000 4.0916 0.0000
# 2 42.5315 78.7319 52.2275 0.0000 -5.3807 0.0000
# 3 59.9572 52.2275 104.2200 0.0000 -9.0945 0.0000
# 4 0.0000 0.0000 0.0000 28.6707 0.0000 -3.5565
# 5 4.0916 -5.3807 -9.0945 0.0000 26.1086 0.0000
# 6 0.0000 0.0000 0.0000 -3.5565 0.0000 29.9896
#
#
#
# Elastic Compliance Matrix: (Units=1/GPa)
#
#
# Indices 1 2 3 4 5 6 
#
# 1 0.024036 -0.005851 -0.011685 0.000000 -0.009043 0.000000
# 2 -0.005851 0.020460 -0.006641 0.000000 0.002820 0.000000
# 3 -0.011685 -0.006641 0.020303 0.000000 0.007535 0.000000
# 4 0.000000 0.000000 0.000000 0.035400 0.000000 0.004198
# 5 -0.009043 0.002820 0.007535 0.000000 0.042924 0.000000
# 6 0.000000 0.000000 0.000000 0.004198 0.000000 0.033843
#
#
# Mechanical properties :
#
#
# Convention : Reuss Voigt Hill
#
# Bulk Modulus (GPa) = 60.80772 63.89205 62.34989
# Shear Modulus (GPa) = 21.66366 24.34577 23.00472
#
# Velocity S-wave (km/s) = 3.49037 3.70013 3.59678
# Velocity P-wave (km/s) = 7.10205 7.36103 7.23270
#
# Compressibility (1/GPa) = 0.01644528
#
# Stress axis : x y z
#
# Youngs Moduli (GPa) = 41.60413 48.87514 49.25484
#
# Poissons Ratio (x) = 0.28599 0.57552
# Poissons Ratio (y) = 0.24344 0.32709
# Poissons Ratio (z) = 0.48613 0.32457
#
# Static dielectric constant tensor:
#      x y z
#    x 3.042040 0.000000 0.074860 
#    y 0.000000 3.380400 0.000000 
#    z 0.074860 0.000000 3.641940 
# 
# 
# High freq. dielectric constant tensor:
#      x y z
#    x 1.661230 0.000000 0.000790 
#    y 0.000000 1.698940 0.000000 
#    z 0.000790 0.000000 1.699510 
# 
# From -- ./inp_files/72193.got.cif
#   From: 2010.06.25/outbox.cif.g09.slc.cpg/sg11_37_cif.got.tgz:72193.got - 2010.06.27 23:14:04.
