data_PCOD8071178
_publ_section_title
;
Structure prediction by ZEFSAII (Michael W. Deem and Ramdas Pophale) SiO2 
 PCOD8071178
Probable space group: P 21/M
;
_chemical_formula_sum "Si O2"
_cell_formula_units_Z 32
_cell_length_a 16.507033
_cell_length_b 8.660809
_cell_length_c 12.222109
_cell_angle_alpha 90.000000
_cell_angle_beta 92.777300
_cell_angle_gamma 90.000000
_cell_volume 1745.272383
_symmetry_space_group_name_H-M "P 21/M"
_symmetry_group_IT_number 11
_symmetry_cell_setting 'monoclinic'
loop_
_space_group_symop_operation_xyz
x,y,z
-x,1/2+y,-z
-x,-y,-z
x,1/2-y,z
loop_
_atom_site_type_symbol
_atom_site_label
_atom_site_fract_x
_atom_site_fract_y
_atom_site_fract_z
Si Si1 0.280591 0.069502 0.896554
Si Si2 0.452450 0.569320 0.302233
Si Si3 0.052451 0.570024 0.156227
Si Si4 0.366513 0.432879 0.678700
Si Si5 0.801063 0.568219 0.723603
Si Si6 0.890490 0.429330 0.083067
Si Si7 0.324326 0.569605 0.120993
Si Si8 0.685099 0.067064 0.546022
O O1 0.290162 0.250000 0.919305
O O2 0.323283 0.019016 0.787525
O O3 0.186606 0.026034 0.882996
O O4 0.327459 0.978563 0.995237
O O5 0.462259 0.750000 0.317301
O O6 0.542125 0.496597 0.313484
O O7 0.410825 0.531165 0.182642
O O8 0.395609 0.505282 0.396373
O O9 0.036056 0.750000 0.170836
O O10 0.110479 0.507102 0.255394
O O11 0.967104 0.481661 0.160071
O O12 0.093873 0.533563 0.042722
O O13 0.365757 0.250000 0.661180
O O14 0.316789 0.512652 0.578510
O O15 0.810578 0.750000 0.717370
O O16 0.745919 0.524389 0.823386
O O17 0.764009 0.504898 0.608395
O O18 0.873051 0.250000 0.101311
O O19 0.302959 0.750000 0.131313
O O20 0.691591 0.250000 0.555427
#
# Coordination Sequence:
#
# PCOD8071178 Si02
#       8
#     4   4   4   4   4   4   4   4
#     4  11  22  34  51  75 109 147 180 217 262 319
#     4   8  17  34  55  77 104 135 174 227 275 315
#     4  10  19  32  53  81 111 139 172 215 261 311
#     4  10  21  37  54  75 104 142 184 223 267 317
#     4  11  20  32  54  81 110 140 173 216 266 318
#     4  10  20  33  52  77 109 144 175 214 259 311
#     4  10  19  33  52  76 106 141 178 219 268 316
#     4  10  20  35  56  80 105 136 178 227 273 313
#
# _framework density 18.335248
#
# number of rings (size 3 to 8) (size 9 to 14) (size 15 to 20)
#    0.000    2.000    1.250    4.125    0.000    2.500 
#    0.000    3.125    0.000    0.750    0.000    0.000 
#    0.000    0.000    0.000    0.000    0.000    0.000 
#
# Total GULP energy -396874.376692 kJ/mol
# GULP energy per Si atom -12402.324272 kJ/mol
# Density = 1.829352 g / cm^3
# Si number density = 18.335248 Si / 1000 Ang^3
#
#
#
# Elastic Constant Matrix: (Units=GPa)
#
#
# Indices 1 2 3 4 5 6 
#
# 1 66.3528 10.5105 36.2641 0.0000 23.4203 0.0000
# 2 10.5105 42.2431 19.3199 0.0000 3.2503 0.0000
# 3 36.2641 19.3199 102.6334 0.0000 18.3888 0.0000
# 4 0.0000 0.0000 0.0000 27.8626 0.0000 4.4763
# 5 23.4203 3.2503 18.3888 0.0000 27.9471 0.0000
# 6 0.0000 0.0000 0.0000 4.4763 0.0000 24.7088
#
#
#
# Elastic Compliance Matrix: (Units=1/GPa)
#
#
# Indices 1 2 3 4 5 6 
#
# 1 0.024072 -0.002388 -0.005092 0.000000 -0.016545 0.000000
# 2 -0.002388 0.026141 -0.004411 0.000000 0.001863 0.000000
# 3 -0.005092 -0.004411 0.013056 0.000000 -0.003810 0.000000
# 4 0.000000 0.000000 0.000000 0.036966 0.000000 -0.006697
# 5 -0.016545 0.001863 -0.003810 0.000000 0.051937 0.000000
# 6 0.000000 0.000000 0.000000 -0.006697 0.000000 0.041685
#
#
# Mechanical properties :
#
#
# Convention : Reuss Voigt Hill
#
# Bulk Modulus (GPa) = 25.32453 38.15759 31.74106
# Shear Modulus (GPa) = 21.66392 25.77935 23.72164
#
# Velocity S-wave (km/s) = 3.44109 3.75373 3.60081
# Velocity P-wave (km/s) = 5.44335 6.29632 5.88531
#
# Compressibility (1/GPa) = 0.03948740
#
# Stress axis : x y z
#
# Youngs Moduli (GPa) = 41.54279 38.25472 76.59602
#
# Poissons Ratio (x) = 0.09134 0.39000
# Poissons Ratio (y) = 0.09919 0.33786
# Poissons Ratio (z) = 0.21152 0.16874
#
# Static dielectric constant tensor:
#      x y z
#    x 3.494130 0.000000 0.199270 
#    y 0.000000 3.292710 0.000000 
#    z 0.199270 0.000000 3.270520 
# 
# 
# High freq. dielectric constant tensor:
#      x y z
#    x 1.708980 0.000000 0.024920 
#    y 0.000000 1.711380 0.000000 
#    z 0.024920 0.000000 1.692430 
# 
# From -- ./inp_files/38248.got.cif
#   From: 2010.06.25/outbox.cif.g09.slc.cpg/sg11_20_cif.got.tgz:38248.got - 2010.06.27 23:14:04.
