data_PCOD8071220
_publ_section_title
;
Structure prediction by ZEFSAII (Michael W. Deem and Ramdas Pophale) SiO2 
 PCOD8071220
Probable space group: P 21/M
;
_chemical_formula_sum "Si O2"
_cell_formula_units_Z 32
_cell_length_a 16.375371
_cell_length_b 9.149352
_cell_length_c 11.293591
_cell_angle_alpha 90.000000
_cell_angle_beta 85.069179
_cell_angle_gamma 90.000000
_cell_volume 1685.789418
_symmetry_space_group_name_H-M "P 21/M"
_symmetry_group_IT_number 11
_symmetry_cell_setting 'monoclinic'
loop_
_space_group_symop_operation_xyz
x,y,z
-x,1/2+y,-z
-x,-y,-z
x,1/2-y,z
loop_
_atom_site_type_symbol
_atom_site_label
_atom_site_fract_x
_atom_site_fract_y
_atom_site_fract_z
Si Si1 0.444113 0.419023 0.672323
Si Si2 0.917708 0.916290 0.029933
Si Si3 0.224113 0.916802 0.066701
Si Si4 0.222924 0.581139 0.336049
Si Si5 0.911879 0.923558 0.508510
Si Si6 0.678748 0.420137 0.172876
Si Si7 0.385387 0.919307 0.452023
Si Si8 0.823136 0.917154 0.277393
O O1 0.422775 0.250000 0.687295
O O2 0.408411 0.502405 0.791579
O O3 0.541428 0.446504 0.651408
O O4 0.397817 0.479234 0.562944
O O5 0.932058 0.750000 0.993662
O O6 0.891787 0.936064 0.168791
O O7 0.851151 0.978219 0.948531
O O8 0.000000 0.000000 0.000000
O O9 0.195472 0.750000 0.050131
O O10 0.251788 0.944276 0.197429
O O11 0.297744 0.953671 0.966386
O O12 0.199623 0.750000 0.360320
O O13 0.143741 0.483502 0.376808
O O14 0.300059 0.533025 0.404957
O O15 0.923683 0.750000 0.518985
O O16 0.864892 0.967261 0.394056
O O17 0.000000 0.000000 0.500000
O O18 0.669884 0.250000 0.199182
O O19 0.746033 0.481292 0.256827
O O20 0.385425 0.750000 0.491502
O O21 0.792341 0.750000 0.287738
#
# Coordination Sequence:
#
# PCOD8071220 Si02
#       8
#     4   4   4   4   4   4   4   4
#     4  10  19  32  54  83 115 143 176 224 271 317
#     4  10  20  34  54  78 103 134 174 221 269 317
#     4   9  20  37  55  76 104 142 182 222 271 320
#     4  10  21  39  59  77 107 145 181 224 271 321
#     4  11  24  39  55  79 107 140 178 218 268 324
#     4  10  19  33  55  81 107 139 180 222 266 319
#     4   9  19  35  56  83 110 145 184 218 266 324
#     4   9  20  37  54  74 104 137 173 218 267 316
#
# _framework density 18.982205
#
# number of rings (size 3 to 8) (size 9 to 14) (size 15 to 20)
#    0.000    2.250    0.000    2.250    1.750    5.500 
#    0.000    0.625    0.000    0.000    0.000    0.000 
#    0.000    0.000    0.000    0.000    0.000    0.000 
#
# Total GULP energy -396847.581024 kJ/mol
# GULP energy per Si atom -12401.486907 kJ/mol
# Density = 1.893900 g / cm^3
# Si number density = 18.982205 Si / 1000 Ang^3
#
#
#
# Elastic Constant Matrix: (Units=GPa)
#
#
# Indices 1 2 3 4 5 6 
#
# 1 99.1038 48.8431 34.6131 0.0000 -21.9172 0.0000
# 2 48.8431 92.7172 29.3920 0.0000 -13.1934 0.0000
# 3 34.6131 29.3920 74.8428 0.0000 -6.9144 0.0000
# 4 0.0000 0.0000 0.0000 28.9382 0.0000 -7.2599
# 5 -21.9172 -13.1934 -6.9144 0.0000 25.6415 0.0000
# 6 0.0000 0.0000 0.0000 -7.2599 0.0000 33.2277
#
#
#
# Elastic Compliance Matrix: (Units=1/GPa)
#
#
# Indices 1 2 3 4 5 6 
#
# 1 0.016864 -0.006019 -0.004502 0.000000 0.010103 0.000000
# 2 -0.006019 0.015172 -0.003004 0.000000 0.001852 0.000000
# 3 -0.004502 -0.003004 0.016537 0.000000 -0.000934 0.000000
# 4 0.000000 0.000000 0.000000 0.036560 0.000000 0.007988
# 5 0.010103 0.001852 -0.000934 0.000000 0.048336 0.000000
# 6 0.000000 0.000000 0.000000 0.007988 0.000000 0.031841
#
#
# Mechanical properties :
#
#
# Convention : Reuss Voigt Hill
#
# Bulk Modulus (GPa) = 46.46120 54.70671 50.58396
# Shear Modulus (GPa) = 25.05861 27.81585 26.43723
#
# Velocity S-wave (km/s) = 3.63727 3.83216 3.73599
# Velocity P-wave (km/s) = 6.49377 6.96155 6.73172
#
# Compressibility (1/GPa) = 0.02152334
#
# Stress axis : x y z
#
# Youngs Moduli (GPa) = 59.29956 65.91154 60.47186
#
# Poissons Ratio (x) = 0.39671 0.27224
# Poissons Ratio (y) = 0.35691 0.18163
# Poissons Ratio (z) = 0.26696 0.19797
#
# Static dielectric constant tensor:
#      x y z
#    x 3.420540 0.000000 -0.206890 
#    y 0.000000 3.549690 0.000000 
#    z -0.206890 0.000000 3.602050 
# 
# 
# High freq. dielectric constant tensor:
#      x y z
#    x 1.733750 0.000000 -0.019320 
#    y 0.000000 1.744280 0.000000 
#    z -0.019320 0.000000 1.734260 
# 
# From -- ./inp_files/38131.got.cif
#   From: 2010.06.25/outbox.cif.g09.slc.cpg/sg11_20_cif.got.tgz:38131.got - 2010.06.27 23:14:04.
