data_PCOD8071134
_publ_section_title
;
Structure prediction by ZEFSAII (Michael W. Deem and Ramdas Pophale) SiO2 
 PCOD8071134
Probable space group: P 21/M
;
_chemical_formula_sum "Si O2"
_cell_formula_units_Z 28
_cell_length_a 13.722518
_cell_length_b 9.382607
_cell_length_c 16.295312
_cell_angle_alpha 90.000000
_cell_angle_beta 131.417148
_cell_angle_gamma 90.000000
_cell_volume 1573.370354
_symmetry_space_group_name_H-M "P 21/M"
_symmetry_group_IT_number 11
_symmetry_cell_setting 'monoclinic'
loop_
_space_group_symop_operation_xyz
x,y,z
-x,1/2+y,-z
-x,-y,-z
x,1/2-y,z
loop_
_atom_site_type_symbol
_atom_site_label
_atom_site_fract_x
_atom_site_fract_y
_atom_site_fract_z
Si Si1 0.457481 0.583319 0.669623
Si Si2 0.767305 0.083275 0.569447
Si Si3 0.336263 0.586795 0.318587
Si Si4 0.512586 0.914766 0.884166
Si Si5 0.699902 0.084236 0.097647
Si Si6 0.956465 0.917951 0.229133
Si Si7 0.050597 0.589670 0.102739
O O1 0.485260 0.750000 0.677531
O O2 0.310138 0.548250 0.557362
O O3 0.555514 0.505761 0.664538
O O4 0.473435 0.531751 0.771828
O O5 0.778267 0.250000 0.594742
O O6 0.688680 0.021791 0.604247
O O7 0.916653 0.029713 0.648128
O O8 0.384434 0.750000 0.348756
O O9 0.204919 0.573245 0.193452
O O10 0.556704 0.750000 0.909228
O O11 0.387628 0.938192 0.871079
O O12 0.632884 0.009455 0.981993
O O13 0.720754 0.250000 0.088753
O O14 0.835793 0.009441 0.193999
O O15 0.928075 0.750000 0.225249
O O16 0.982159 0.957697 0.148872
O O17 0.010346 0.750000 0.061156
O O18 0.000000 0.500000 0.000000
#
# Coordination Sequence:
#
# PCOD8071134 Si02
#       7
#     4   4   4   4   4   4   4
#     4  10  19  32  53  76  98 130 171 206 242 293
#     4   8  16  33  53  73 100 135 168 198 240 297
#     4   9  18  32  48  71 103 134 163 200 246 289
#     4   9  20  36  52  74 102 129 163 208 253 300
#     4  10  20  35  54  74  99 130 165 208 255 299
#     4   9  18  34  54  72  97 134 167 199 246 300
#     4   9  19  32  46  68 100 132 163 200 241 289
#
# _framework density 17.796191
#
# number of rings (size 3 to 8) (size 9 to 14) (size 15 to 20)
#    0.000    2.857    0.000    2.571    2.000    2.286 
#    0.000    3.571    0.000    0.000    0.000    0.000 
#    0.000    0.000    0.000    0.000    0.000    0.000 
#
# Total GULP energy -347127.413609 kJ/mol
# GULP energy per Si atom -12397.407629 kJ/mol
# Density = 1.775569 g / cm^3
# Si number density = 17.796191 Si / 1000 Ang^3
#
#
#
# Elastic Constant Matrix: (Units=GPa)
#
#
# Indices 1 2 3 4 5 6 
#
# 1 78.5941 37.6444 50.0697 0.0000 18.9786 0.0000
# 2 37.6444 53.6108 39.9407 0.0000 9.1739 0.0000
# 3 50.0697 39.9407 120.4238 0.0000 3.6211 0.0000
# 4 0.0000 0.0000 0.0000 20.5316 0.0000 3.8729
# 5 18.9786 9.1739 3.6211 0.0000 20.4867 0.0000
# 6 0.0000 0.0000 0.0000 3.8729 0.0000 31.5921
#
#
#
# Elastic Compliance Matrix: (Units=1/GPa)
#
#
# Indices 1 2 3 4 5 6 
#
# 1 0.026753 -0.010201 -0.007170 0.000000 -0.018948 0.000000
# 2 -0.010201 0.030740 -0.005855 0.000000 -0.003280 0.000000
# 3 -0.007170 -0.005855 0.013018 0.000000 0.006963 0.000000
# 4 0.000000 0.000000 0.000000 0.049858 0.000000 -0.006112
# 5 -0.018948 -0.003280 0.006963 0.000000 0.066604 0.000000
# 6 0.000000 0.000000 0.000000 -0.006112 0.000000 0.032403
#
#
# Mechanical properties :
#
#
# Convention : Reuss Voigt Hill
#
# Bulk Modulus (GPa) = 41.56758 56.43759 49.00258
# Shear Modulus (GPa) = 18.25831 22.85367 20.55599
#
# Velocity S-wave (km/s) = 3.20655 3.58745 3.40233
# Velocity P-wave (km/s) = 6.09242 6.99584 6.55970
#
# Compressibility (1/GPa) = 0.02405721
#
# Stress axis : x y z
#
# Youngs Moduli (GPa) = 37.37869 32.53141 76.81754
#
# Poissons Ratio (x) = 0.33186 0.55080
# Poissons Ratio (y) = 0.38131 0.44978
# Poissons Ratio (z) = 0.26801 0.19048
#
# Static dielectric constant tensor:
#      x y z
#    x 3.186080 0.000000 0.102200 
#    y 0.000000 3.159850 0.000000 
#    z 0.102200 0.000000 3.428680 
# 
# 
# High freq. dielectric constant tensor:
#      x y z
#    x 1.679330 0.000000 0.010240 
#    y 0.000000 1.671860 0.000000 
#    z 0.010240 0.000000 1.694250 
# 
# From -- ./inp_files/37860.got.cif
#   From: 2010.06.25/outbox.cif.g09.slc.cpg/sg11_19_cif.got.tgz:37860.got - 2010.06.27 23:14:04.
