data_PCOD8071483
_publ_section_title
;
Structure prediction by ZEFSAII (Michael W. Deem and Ramdas Pophale) SiO2 
 PCOD8071483
Probable space group: P 21/M
;
_chemical_formula_sum "Si O2"
_cell_formula_units_Z 32
_cell_length_a 18.552493
_cell_length_b 15.073227
_cell_length_c 17.229500
_cell_angle_alpha 90.000000
_cell_angle_beta 158.234153
_cell_angle_gamma 90.000000
_cell_volume 1786.642590
_symmetry_space_group_name_H-M "P 21/M"
_symmetry_group_IT_number 11
_symmetry_cell_setting 'monoclinic'
loop_
_space_group_symop_operation_xyz
x,y,z
-x,1/2+y,-z
-x,-y,-z
x,1/2-y,z
loop_
_atom_site_type_symbol
_atom_site_label
_atom_site_fract_x
_atom_site_fract_y
_atom_site_fract_z
Si Si1 0.447407 0.348898 0.752613
Si Si2 0.779925 0.415930 0.982318
Si Si3 0.552592 0.348895 0.357808
Si Si4 0.539222 0.013836 0.128646
Si Si5 0.812763 0.149692 0.472892
Si Si6 0.187224 0.149686 0.347347
Si Si7 0.460741 0.013843 0.550160
Si Si8 0.779936 0.915941 0.077546
O O1 0.430815 0.250000 0.770834
O O2 0.415841 0.417920 0.790092
O O3 0.277364 0.368978 0.521636
O O4 0.654377 0.357211 0.916411
O O5 0.860927 0.499994 0.110928
O O6 0.956148 0.360625 0.122965
O O7 0.648391 0.444458 0.778343
O O8 0.569081 0.250000 0.409130
O O9 0.722678 0.368921 0.466971
O O10 0.584200 0.417933 0.458448
O O11 0.345654 0.357229 0.107677
O O12 0.723127 0.079873 0.322143
O O13 0.351556 0.055525 0.981499
O O14 0.500000 0.000000 0.000000
O O15 0.765930 0.250000 0.398181
O O16 0.043837 0.139368 0.710656
O O17 0.234086 0.250000 0.366357
O O18 0.276823 0.079881 0.375812
O O19 0.500000 0.000000 0.500000
#
# Coordination Sequence:
#
# PCOD8071483 Si02
#       8
#     4   4   4   4   4   4   4   4
#     4   9  18  33  53  75  98 130 172 213 251 292
#     4   9  17  32  54  75  98 129 168 211 252 294
#     4   9  18  33  53  75  98 130 172 213 251 292
#     4  10  21  34  50  75 108 138 163 200 251 306
#     4  10  19  33  54  76  98 129 172 214 249 290
#     4  10  19  33  54  76  98 129 172 214 249 290
#     4  10  21  34  50  75 108 138 163 200 251 306
#     4   9  17  32  54  75  98 129 168 211 252 294
#
# _framework density 17.910689000000001
#
# number of rings (size 3 to 8) (size 9 to 14) (size 15 to 20)
#    0.000    2.500    0.000    4.500    0.000    3.000 
#    0.000    0.000    0.000    6.000    0.000    0.000 
#    0.000    0.000    0.000    0.000    0.000    0.000 
#
# Total GULP energy -396812.933193 kJ/mol
# GULP energy per Si atom -12400.404162 kJ/mol
# Density = 1.786992 g / cm^3
# Si number density = 17.910689 Si / 1000 Ang^3
#
#
#
# Elastic Constant Matrix: (Units=GPa)
#
#
# Indices 1 2 3 4 5 6 
#
# 1 67.3526 36.8318 26.5989 0.0000 -12.3333 0.0000
# 2 36.8318 109.3038 26.6965 0.0000 -6.9093 0.0000
# 3 26.5989 26.6965 65.8294 0.0000 11.3070 0.0000
# 4 0.0000 0.0000 0.0000 23.7549 0.0000 4.0672
# 5 -12.3333 -6.9093 11.3070 0.0000 27.4588 0.0000
# 6 0.0000 0.0000 0.0000 4.0672 0.0000 17.7985
#
#
#
# Elastic Compliance Matrix: (Units=1/GPa)
#
#
# Indices 1 2 3 4 5 6 
#
# 1 0.023942 -0.004730 -0.010114 0.000000 0.013728 0.000000
# 2 -0.004730 0.011653 -0.003178 0.000000 0.002116 0.000000
# 3 -0.010114 -0.003178 0.023119 0.000000 -0.014862 0.000000
# 4 0.000000 0.000000 0.000000 0.043811 0.000000 -0.010011
# 5 0.013728 0.002116 -0.014862 0.000000 0.049237 0.000000
# 6 0.000000 0.000000 0.000000 -0.010011 0.000000 0.058472
#
#
# Mechanical properties :
#
#
# Convention : Reuss Voigt Hill
#
# Bulk Modulus (GPa) = 44.11059 46.97113 45.54086
# Shear Modulus (GPa) = 19.69805 23.95965 21.82885
#
# Velocity S-wave (km/s) = 3.31991 3.66147 3.49486
# Velocity P-wave (km/s) = 6.27513 6.64509 6.46276
#
# Compressibility (1/GPa) = 0.02267029
#
# Stress axis : x y z
#
# Youngs Moduli (GPa) = 41.76847 85.81832 43.25466
#
# Poissons Ratio (x) = 0.40588 0.43746
# Poissons Ratio (y) = 0.19755 0.13747
# Poissons Ratio (z) = 0.42243 0.27274
#
# Static dielectric constant tensor:
#      x y z
#    x 3.010920 0.000000 0.140010 
#    y 0.000000 3.555300 0.000000 
#    z 0.140010 0.000000 3.215600 
# 
# 
# High freq. dielectric constant tensor:
#      x y z
#    x 1.666400 0.000000 0.013830 
#    y 0.000000 1.709510 0.000000 
#    z 0.013830 0.000000 1.686650 
# 
# From -- ./inp_files/61629.got.cif
#   From: 2010.06.25/outbox.cif.g09.slc.cpg/sg11_31_cif.got.tgz:61629.got - 2010.06.27 23:14:04.
