data_PCOD8071728
_publ_section_title
;
Structure prediction by ZEFSAII (Michael W. Deem and Ramdas Pophale) SiO2 
 PCOD8071728
Probable space group: P 21/M
;
_chemical_formula_sum "Si O2"
_cell_formula_units_Z 32
_cell_length_a 11.329627
_cell_length_b 8.972879
_cell_length_c 29.552625
_cell_angle_alpha 90.000000
_cell_angle_beta 33.971749
_cell_angle_gamma 90.000000
_cell_volume 1678.755679
_symmetry_space_group_name_H-M "P 21/M"
_symmetry_group_IT_number 11
_symmetry_cell_setting 'monoclinic'
loop_
_space_group_symop_operation_xyz
x,y,z
-x,1/2+y,-z
-x,-y,-z
x,1/2-y,z
loop_
_atom_site_type_symbol
_atom_site_label
_atom_site_fract_x
_atom_site_fract_y
_atom_site_fract_z
Si Si1 0.085738 0.074221 0.928064
Si Si2 0.287245 0.085494 0.376962
Si Si3 0.558214 0.425863 0.760032
Si Si4 0.201456 0.585607 0.487479
Si Si5 0.705399 0.576767 0.877978
Si Si6 0.725051 0.072255 0.435486
Si Si7 0.774023 0.077165 0.947898
Si Si8 0.115783 0.927508 0.267252
O O1 0.072858 0.250000 0.938446
O O2 0.324490 0.017765 0.846076
O O3 0.948148 0.024121 0.928629
O O4 0.000000 0.000000 0.000000
O O5 0.387686 0.250000 0.342661
O O6 0.037700 0.094020 0.452146
O O7 0.384702 0.985872 0.307093
O O8 0.339336 0.015458 0.409548
O O9 0.567683 0.250000 0.754215
O O10 0.719764 0.484538 0.746816
O O11 0.304083 0.750000 0.454154
O O12 0.205111 0.520874 0.536739
O O13 0.760057 0.750000 0.853672
O O14 0.806238 0.521753 0.893003
O O15 0.803510 0.479960 0.806874
O O16 0.454841 0.548427 0.957536
O O17 0.719128 0.250000 0.431239
O O18 0.500000 0.000000 0.500000
O O19 0.889438 0.002412 0.347870
O O20 0.801508 0.250000 0.925922
O O21 0.093101 0.750000 0.274810
#
# Coordination Sequence:
#
# PCOD8071728 Si02
#       8
#     4   4   4   4   4   4   4   4
#     4  10  21  37  57  84 117 153 187 230 284 337
#     4  10  19  33  57  85 110 143 186 231 278 332
#     4  10  21  36  56  83 115 149 188 234 285 339
#     4   9  19  36  57  81 111 144 180 226 281 336
#     4  10  20  35  59  86 112 149 194 241 285 332
#     4  11  23  41  61  84 114 148 188 234 285 339
#     4   9  19  37  58  82 115 153 193 234 285 342
#     4  11  22  37  59  85 113 148 190 234 284 342
#
# _framework density 19.061737000000001
#
# number of rings (size 3 to 8) (size 9 to 14) (size 15 to 20)
#    0.000    2.000    1.250    2.250    0.000    3.500 
#    2.250    0.000    0.000    0.000    0.000    0.000 
#    0.000    0.000    0.000    0.000    0.000    0.000 
#
# Total GULP energy -396855.980747 kJ/mol
# GULP energy per Si atom -12401.749398 kJ/mol
# Density = 1.901835 g / cm^3
# Si number density = 19.061737 Si / 1000 Ang^3
#
#
#
# Elastic Constant Matrix: (Units=GPa)
#
#
# Indices 1 2 3 4 5 6 
#
# 1 80.3229 39.3461 51.7785 0.0000 3.7329 0.0000
# 2 39.3461 55.6768 39.9603 0.0000 1.6698 0.0000
# 3 51.7785 39.9603 114.7781 0.0000 9.3818 0.0000
# 4 0.0000 0.0000 0.0000 34.4499 0.0000 6.1048
# 5 3.7329 1.6698 9.3818 0.0000 33.6009 0.0000
# 6 0.0000 0.0000 0.0000 6.1048 0.0000 27.8119
#
#
#
# Elastic Compliance Matrix: (Units=1/GPa)
#
#
# Indices 1 2 3 4 5 6 
#
# 1 0.021702 -0.011086 -0.005913 0.000000 -0.000209 0.000000
# 2 -0.011086 0.029651 -0.005426 0.000000 0.001273 0.000000
# 3 -0.005913 -0.005426 0.013502 0.000000 -0.002843 0.000000
# 4 0.000000 0.000000 0.000000 0.030202 0.000000 -0.006630
# 5 -0.000209 0.001273 -0.002843 0.000000 0.030515 0.000000
# 6 0.000000 0.000000 0.000000 -0.006630 0.000000 0.037411
#
#
# Mechanical properties :
#
#
# Convention : Reuss Voigt Hill
#
# Bulk Modulus (GPa) = 49.99062 56.99420 53.49241
# Shear Modulus (GPa) = 23.30973 27.15206 25.23090
#
# Velocity S-wave (km/s) = 3.50073 3.77825 3.64213
# Velocity P-wave (km/s) = 6.52861 6.99988 6.76835
#
# Compressibility (1/GPa) = 0.02000375
#
# Stress axis : x y z
#
# Youngs Moduli (GPa) = 46.07894 33.72515 74.06501
#
# Poissons Ratio (x) = 0.37388 0.43798
# Poissons Ratio (y) = 0.51083 0.40189
# Poissons Ratio (z) = 0.27248 0.18300
#
# Static dielectric constant tensor:
#      x y z
#    x 3.302920 0.000000 0.025580 
#    y 0.000000 3.624050 0.000000 
#    z 0.025580 0.000000 3.638760 
# 
# 
# High freq. dielectric constant tensor:
#      x y z
#    x 1.740850 0.000000 0.012550 
#    y 0.000000 1.744380 0.000000 
#    z 0.012550 0.000000 1.740100 
# 
# From -- ./inp_files/73032.got.cif
#   From: 2010.06.25/outbox.cif.g09.slc.cpg/sg11_37_cif.got.tgz:73032.got - 2010.06.27 23:14:04.
