data_PCOD8071042
_publ_section_title
;
Structure prediction by ZEFSAII (Michael W. Deem and Ramdas Pophale) SiO2 
 PCOD8071042
Probable space group: P 21/M
;
_chemical_formula_sum "Si O2"
_cell_formula_units_Z 32
_cell_length_a 12.396709
_cell_length_b 8.756836
_cell_length_c 18.552349
_cell_angle_alpha 90.000000
_cell_angle_beta 62.486437
_cell_angle_gamma 90.000000
_cell_volume 1786.191094
_symmetry_space_group_name_H-M "P 21/M"
_symmetry_group_IT_number 11
_symmetry_cell_setting 'monoclinic'
loop_
_space_group_symop_operation_xyz
x,y,z
-x,1/2+y,-z
-x,-y,-z
x,1/2-y,z
loop_
_atom_site_type_symbol
_atom_site_label
_atom_site_fract_x
_atom_site_fract_y
_atom_site_fract_z
Si Si1 0.272870 0.569932 0.341254
Si Si2 0.015805 0.567950 0.821309
Si Si3 0.518130 0.430095 0.215040
Si Si4 0.830850 0.924725 0.994994
Si Si5 0.231117 0.432012 0.830043
Si Si6 0.896437 0.425919 0.486867
Si Si7 0.443448 0.074110 0.948022
Si Si8 0.058954 0.070441 0.313160
O O1 0.296503 0.750000 0.324287
O O2 0.396351 0.477806 0.293403
O O3 0.231865 0.526009 0.436728
O O4 0.170703 0.519696 0.314667
O O5 0.026613 0.750000 0.819707
O O6 0.149099 0.494463 0.790126
O O7 0.930095 0.499250 0.911458
O O8 0.958951 0.514206 0.763090
O O9 0.534041 0.250000 0.211889
O O10 0.632434 0.505793 0.220563
O O11 0.507607 0.485746 0.136390
O O12 0.867666 0.750000 0.991781
O O13 0.826539 0.996296 0.076724
O O14 0.700429 0.943036 0.998273
O O15 0.237786 0.250000 0.828219
O O16 0.910529 0.250000 0.497160
O O17 0.000000 0.500000 0.500000
O O18 0.927775 0.463853 0.393569
O O19 0.482412 0.250000 0.928557
O O20 0.500000 0.000000 0.000000
O O21 0.090170 0.250000 0.306941
#
# Coordination Sequence:
#
# PCOD8071042 Si02
#       8
#     4   4   4   4   4   4   4   4
#     4  10  19  32  52  77 106 135 169 212 255 308
#     4  10  19  32  52  76 102 133 169 211 252 301
#     4  11  22  36  54  74  98 133 176 217 259 308
#     4   8  17  32  49  70  98 133 171 208 246 293
#     4  10  20  36  53  71  99 133 173 218 259 302
#     4   8  15  29  48  72 103 137 166 200 250 305
#     4  10  20  34  50  73 106 141 173 209 255 303
#     4   9  18  31  50  78 109 138 168 203 252 312
#
# _framework density 17.915216999999998
#
# number of rings (size 3 to 8) (size 9 to 14) (size 15 to 20)
#    0.000    2.500    0.000    3.375    1.750    1.000 
#    0.000    3.125    0.000    0.750    0.000    0.000 
#    0.000    0.000    0.000    0.000    0.000    0.000 
#
# Total GULP energy -396522.858245 kJ/mol
# GULP energy per Si atom -12391.339320 kJ/mol
# Density = 1.787444 g / cm^3
# Si number density = 17.915217 Si / 1000 Ang^3
#
#
#
# Elastic Constant Matrix: (Units=GPa)
#
#
# Indices 1 2 3 4 5 6 
#
# 1 72.1194 25.6504 39.1806 0.0000 -8.2966 0.0000
# 2 25.6504 63.6692 28.6594 0.0000 -5.2564 0.0000
# 3 39.1806 28.6594 94.6653 0.0000 -20.8535 0.0000
# 4 0.0000 0.0000 0.0000 20.5755 0.0000 -1.8742
# 5 -8.2966 -5.2564 -20.8535 0.0000 21.0476 0.0000
# 6 0.0000 0.0000 0.0000 -1.8742 0.0000 28.7443
#
#
#
# Elastic Compliance Matrix: (Units=1/GPa)
#
#
# Indices 1 2 3 4 5 6 
#
# 1 0.019067 -0.004779 -0.006463 0.000000 -0.000080 0.000000
# 2 -0.004779 0.019405 -0.004150 0.000000 -0.001149 0.000000
# 3 -0.006463 -0.004150 0.017531 0.000000 0.013786 0.000000
# 4 0.000000 0.000000 0.000000 0.048892 0.000000 0.003188
# 5 -0.000080 -0.001149 0.013786 0.000000 0.060851 0.000000
# 6 0.000000 0.000000 0.000000 0.003188 0.000000 0.034997
#
#
# Mechanical properties :
#
#
# Convention : Reuss Voigt Hill
#
# Bulk Modulus (GPa) = 39.65056 46.38163 43.01609
# Shear Modulus (GPa) = 20.83905 23.20438 22.02171
#
# Velocity S-wave (km/s) = 3.41428 3.60284 3.50982
# Velocity P-wave (km/s) = 6.14194 6.57670 6.36303
#
# Compressibility (1/GPa) = 0.02522032
#
# Stress axis : x y z
#
# Youngs Moduli (GPa) = 52.44548 51.53403 57.04039
#
# Poissons Ratio (x) = 0.24630 0.36863
# Poissons Ratio (y) = 0.25066 0.23670
# Poissons Ratio (z) = 0.33893 0.21385
#
# Static dielectric constant tensor:
#      x y z
#    x 3.101780 0.000000 -0.416970 
#    y 0.000000 3.205050 0.000000 
#    z -0.416970 0.000000 1.322550 
# 
# 
# High freq. dielectric constant tensor:
#      x y z
#    x 1.674740 0.000000 -0.009820 
#    y 0.000000 1.689550 0.000000 
#    z -0.009820 0.000000 1.695760 
# 
# From -- ./inp_files/64197.got.cif
#   From: 2010.06.25/outbox.cif.g09.slc.cpg/sg11_33_cif.got.tgz:64197.got - 2010.06.27 23:14:04.
