data_PCOD8071332
_publ_section_title
;
Structure prediction by ZEFSAII (Michael W. Deem and Ramdas Pophale) SiO2 
 PCOD8071332
Probable space group: P 21/M
;
_chemical_formula_sum "Si O2"
_cell_formula_units_Z 24
_cell_length_a 11.262130
_cell_length_b 9.114814
_cell_length_c 24.684661
_cell_angle_alpha 90.000000
_cell_angle_beta 30.543918
_cell_angle_gamma 90.000000
_cell_volume 1287.742513
_symmetry_space_group_name_H-M "P 21/M"
_symmetry_group_IT_number 11
_symmetry_cell_setting 'monoclinic'
loop_
_space_group_symop_operation_xyz
x,y,z
-x,1/2+y,-z
-x,-y,-z
x,1/2-y,z
loop_
_atom_site_type_symbol
_atom_site_label
_atom_site_fract_x
_atom_site_fract_y
_atom_site_fract_z
Si Si1 0.785256 0.420553 0.939710
Si Si2 0.297823 0.084330 0.354159
Si Si3 0.924353 0.918900 0.669129
Si Si4 0.752059 0.414613 0.232889
Si Si5 0.676590 0.420318 0.858874
Si Si6 0.641715 0.081610 0.568462
O O1 0.785792 0.250000 0.953884
O O2 0.776540 0.450368 0.879116
O O3 0.018226 0.493897 0.871579
O O4 0.564395 0.493526 0.055885
O O5 0.198010 0.250000 0.401375
O O6 0.228294 0.026599 0.322271
O O7 0.583038 0.086222 0.246456
O O8 0.207353 0.978358 0.438716
O O9 0.866967 0.750000 0.705709
O O10 0.199183 0.938010 0.547272
O O11 0.869373 0.020828 0.741551
O O12 0.821485 0.250000 0.223524
O O13 0.601287 0.490605 0.341132
O O14 0.629157 0.250000 0.867454
O O15 0.576826 0.250000 0.604046
#
# Coordination Sequence:
#
# PCOD8071332 Si02
#       6
#     4   4   4   4   4   4
#     4  10  20  38  58  75  98 129 171 215 257 305
#     4   8  17  31  49  76 107 139 170 205 248 297
#     4  10  19  33  51  77 110 138 170 209 250 299
#     4   9  18  32  53  77 103 136 172 208 249 303
#     4  10  22  36  55  79 100 129 169 214 258 303
#     4   9  17  29  50  78 106 139 172 205 249 299
#
# _framework density 18.637267000000001
#
# number of rings (size 3 to 8) (size 9 to 14) (size 15 to 20)
#    1.000    1.667    0.000    2.000    0.000    4.000 
#    0.000    1.667    0.000    0.000    0.000    0.000 
#    0.000    0.000    0.000    0.000    0.000    0.000 
#
# Total GULP energy -297453.674815 kJ/mol
# GULP energy per Si atom -12393.903117 kJ/mol
# Density = 1.859485 g / cm^3
# Si number density = 18.637267 Si / 1000 Ang^3
#
#
#
# Elastic Constant Matrix: (Units=GPa)
#
#
# Indices 1 2 3 4 5 6 
#
# 1 10.1185 5.2933 -4.2069 0.0000 1.0884 0.0000
# 2 5.2933 94.4235 19.5571 0.0000 0.4126 0.0000
# 3 -4.2069 19.5571 43.1239 0.0000 -4.8695 0.0000
# 4 0.0000 0.0000 0.0000 39.0944 0.0000 -1.1859
# 5 1.0884 0.4126 -4.8695 0.0000 23.9467 0.0000
# 6 0.0000 0.0000 0.0000 -1.1859 0.0000 25.3869
#
#
#
# Elastic Compliance Matrix: (Units=1/GPa)
#
#
# Indices 1 2 3 4 5 6 
#
# 1 0.109946 -0.009198 0.014688 0.000000 -0.001852 0.000000
# 2 -0.009198 0.012498 -0.006696 0.000000 -0.001159 0.000000
# 3 0.014688 -0.006696 0.028245 0.000000 0.005191 0.000000
# 4 0.000000 0.000000 0.000000 0.025615 0.000000 0.001197
# 5 -0.001852 -0.001159 0.005191 0.000000 0.042919 0.000000
# 6 0.000000 0.000000 0.000000 0.001197 0.000000 0.039446
#
#
# Mechanical properties :
#
#
# Convention : Reuss Voigt Hill
#
# Bulk Modulus (GPa) = 6.74414 20.99477 13.86946
# Shear Modulus (GPa) = 16.10267 26.15374 21.12821
#
# Velocity S-wave (km/s) = 2.94258 3.75013 3.37063
# Velocity P-wave (km/s) = 3.89507 5.48094 4.75459
#
# Compressibility (1/GPa) = 0.14827687
#
# Stress axis : x y z
#
# Youngs Moduli (GPa) = 9.09538 80.01167 35.40472
#
# Poissons Ratio (x) = 0.73591 -0.52001
# Poissons Ratio (y) = 0.08366 0.23708
# Poissons Ratio (z) = -0.13359 0.53577
#
# Static dielectric constant tensor:
#      x y z
#    x 3.083050 0.000000 -0.109730 
#    y 0.000000 3.468880 0.000000 
#    z -0.109730 0.000000 3.238580 
# 
# 
# High freq. dielectric constant tensor:
#      x y z
#    x 1.687690 0.000000 -0.016220 
#    y 0.000000 1.734770 0.000000 
#    z -0.016220 0.000000 1.716650 
# 
# From -- ./inp_files/71196.got.cif
#   From: 2010.06.25/outbox.cif.g09.slc.cpg/sg11_36_cif.got.tgz:71196.got - 2010.06.27 23:14:04.
