data_PCOD8071457
_publ_section_title
;
Structure prediction by ZEFSAII (Michael W. Deem and Ramdas Pophale) SiO2 
 PCOD8071457
Probable space group: P 21/M
;
_chemical_formula_sum "Si O2"
_cell_formula_units_Z 32
_cell_length_a 19.287424
_cell_length_b 8.802073
_cell_length_c 21.894458
_cell_angle_alpha 90.000000
_cell_angle_beta 151.659577
_cell_angle_gamma 90.000000
_cell_volume 1764.497774
_symmetry_space_group_name_H-M "P 21/M"
_symmetry_group_IT_number 11
_symmetry_cell_setting 'monoclinic'
loop_
_space_group_symop_operation_xyz
x,y,z
-x,1/2+y,-z
-x,-y,-z
x,1/2-y,z
loop_
_atom_site_type_symbol
_atom_site_label
_atom_site_fract_x
_atom_site_fract_y
_atom_site_fract_z
Si Si1 0.915338 0.573736 0.379415
Si Si2 0.658294 0.070261 0.621947
Si Si3 0.317870 0.571582 0.492096
Si Si4 0.840377 0.430754 0.879101
Si Si5 0.607919 0.569578 0.782449
Si Si6 0.546000 0.572163 0.226694
Si Si7 0.177562 0.926722 0.503017
Si Si8 0.590451 0.928105 0.124101
O O1 0.901148 0.750000 0.383570
O O2 0.754543 0.502993 0.247282
O O3 0.000000 0.500000 0.500000
O O4 0.010221 0.543299 0.391821
O O5 0.643868 0.250000 0.614931
O O6 0.727324 0.015081 0.610491
O O7 0.757107 0.009865 0.753818
O O8 0.500000 0.000000 0.500000
O O9 0.335207 0.750000 0.503737
O O10 0.475886 0.509392 0.636860
O O11 0.194322 0.522756 0.445101
O O12 0.849827 0.250000 0.889202
O O13 0.756592 0.492408 0.873931
O O14 0.000000 0.500000 0.000000
O O15 0.627330 0.750000 0.796589
O O16 0.572667 0.517399 0.824431
O O17 0.529690 0.750000 0.227192
O O18 0.711818 0.522996 0.369820
O O19 0.518252 0.533980 0.133828
O O20 0.220955 0.750000 0.544832
O O21 0.595889 0.750000 0.117091
O O22 0.500000 0.000000 0.000000
#
# Coordination Sequence:
#
# PCOD8071457 Si02
#       8
#     4   4   4   4   4   4   4   4
#     4  10  19  33  53  79 107 138 180 227 274 323
#     4  10  19  33  54  79 107 139 179 225 274 325
#     4   8  15  29  50  78 107 133 167 220 274 322
#     4  11  23  37  55  81 114 151 189 228 277 329
#     4  10  19  34  57  81 107 141 183 227 276 330
#     4  10  19  33  53  79 112 141 176 226 274 326
#     4   9  17  30  52  79 106 137 175 220 275 329
#     4  10  22  37  53  78 112 149 186 226 273 326
#
# _framework density 18.135473000000001
#
# number of rings (size 3 to 8) (size 9 to 14) (size 15 to 20)
#    0.000    2.250    2.500    1.875    0.000    2.000 
#    0.000    1.250    0.000    3.000    0.000    0.000 
#    0.000    0.000    0.000    0.000    0.000    0.000 
#
# Total GULP energy -396663.253821 kJ/mol
# GULP energy per Si atom -12395.726682 kJ/mol
# Density = 1.809420 g / cm^3
# Si number density = 18.135473 Si / 1000 Ang^3
#
#
#
# Elastic Constant Matrix: (Units=GPa)
#
#
# Indices 1 2 3 4 5 6 
#
# 1 152.7145 42.7460 78.0503 0.0000 3.1912 0.0000
# 2 42.7460 50.6865 33.8064 0.0000 1.0327 0.0000
# 3 78.0503 33.8064 118.7648 0.0000 2.2366 0.0000
# 4 0.0000 0.0000 0.0000 24.1138 0.0000 1.5666
# 5 3.1912 1.0327 2.2366 0.0000 32.2548 0.0000
# 6 0.0000 0.0000 0.0000 1.5666 0.0000 27.2579
#
#
#
# Elastic Compliance Matrix: (Units=1/GPa)
#
#
# Indices 1 2 3 4 5 6 
#
# 1 0.010979 -0.005484 -0.005644 0.000000 -0.000519 0.000000
# 2 -0.005484 0.027094 -0.004108 0.000000 -0.000040 0.000000
# 3 -0.005644 -0.004108 0.013303 0.000000 -0.000233 0.000000
# 4 0.000000 0.000000 0.000000 0.041625 0.000000 -0.002392
# 5 -0.000519 -0.000040 -0.000233 0.000000 0.031072 0.000000
# 6 0.000000 0.000000 0.000000 -0.002392 0.000000 0.036824
#
#
# Mechanical properties :
#
#
# Convention : Reuss Voigt Hill
#
# Bulk Modulus (GPa) = 47.83683 70.15234 58.99458
# Shear Modulus (GPa) = 25.20960 27.89619 26.55290
#
# Velocity S-wave (km/s) = 3.73241 3.92626 3.83056
# Velocity P-wave (km/s) = 6.70890 7.70197 7.22252
#
# Compressibility (1/GPa) = 0.02090440
#
# Stress axis : x y z
#
# Youngs Moduli (GPa) = 91.08599 36.90812 75.17073
#
# Poissons Ratio (x) = 0.20239 0.42429
# Poissons Ratio (y) = 0.49948 0.30880
# Poissons Ratio (z) = 0.51412 0.15162
#
# Static dielectric constant tensor:
#      x y z
#    x 4.107100 0.000000 0.197640 
#    y 0.000000 3.314970 0.000000 
#    z 0.197640 0.000000 3.269400 
# 
# 
# High freq. dielectric constant tensor:
#      x y z
#    x 1.724400 0.000000 0.001720 
#    y 0.000000 1.692360 0.000000 
#    z 0.001720 0.000000 1.670330 
# 
# From -- ./inp_files/66122.got.cif
#   From: 2010.06.25/outbox.cif.g09.slc.cpg/sg11_34_cif.got.tgz:66122.got - 2010.06.27 23:14:04.
