data_PCOD8071023
_publ_section_title
;
Structure prediction by ZEFSAII (Michael W. Deem and Ramdas Pophale) SiO2 
 PCOD8071023
Probable space group: P 21/M
;
_chemical_formula_sum "Si O2"
_cell_formula_units_Z 28
_cell_length_a 21.093575
_cell_length_b 8.970465
_cell_length_c 27.165441
_cell_angle_alpha 90.000000
_cell_angle_beta 162.593899
_cell_angle_gamma 90.000000
_cell_volume 1537.658458
_symmetry_space_group_name_H-M "P 21/M"
_symmetry_group_IT_number 11
_symmetry_cell_setting 'monoclinic'
loop_
_space_group_symop_operation_xyz
x,y,z
-x,1/2+y,-z
-x,-y,-z
x,1/2-y,z
loop_
_atom_site_type_symbol
_atom_site_label
_atom_site_fract_x
_atom_site_fract_y
_atom_site_fract_z
Si Si1 0.861897 0.918639 0.437788
Si Si2 0.778614 0.425699 0.847563
Si Si3 0.386934 0.573616 0.089002
Si Si4 0.156812 0.426472 0.008260
Si Si5 0.330309 0.923018 0.338969
Si Si6 0.624119 0.578184 0.018026
Si Si7 0.212689 0.917406 0.771558
O O1 0.840295 0.750000 0.403308
O O2 0.628432 0.985600 0.272418
O O3 0.977417 0.929733 0.575897
O O4 0.000000 0.000000 0.500000
O O5 0.807617 0.250000 0.876522
O O6 0.625050 0.456578 0.686434
O O7 0.705308 0.499846 0.844780
O O8 0.000000 0.500000 0.000000
O O9 0.364133 0.750000 0.080002
O O10 0.306047 0.526023 0.975292
O O11 0.246758 0.487072 0.024216
O O12 0.182839 0.250000 0.031254
O O13 0.909694 0.474682 0.826858
O O14 0.353545 0.750000 0.367061
O O15 0.500000 0.000000 0.500000
O O16 0.659556 0.750000 0.030218
O O17 0.380830 0.544598 0.852858
O O18 0.773418 0.535561 0.174368
O O19 0.260140 0.750000 0.826249
#
# Coordination Sequence:
#
# PCOD8071023 Si02
#       7
#     4   4   4   4   4   4   4
#     4  10  20  34  53  77 103 133 175 223 270 319
#     4   9  17  32  54  81 110 141 178 215 256 309
#     4  11  22  35  54  79 107 141 179 222 273 324
#     4  10  21  37  55  79 110 144 181 219 264 319
#     4   9  19  34  56  85 112 140 176 216 257 308
#     4  10  19  32  52  75 101 136 175 217 267 321
#     4   9  18  33  51  73 101 132 171 220 270 318
#
# _framework density 18.209505
#
# number of rings (size 3 to 8) (size 9 to 14) (size 15 to 20)
#    0.000    2.286    1.429    2.571    0.000    5.143 
#    0.000    1.429    0.000    1.714    0.000    0.000 
#    0.000    0.000    0.000    0.000    0.000    0.000 
#
# Total GULP energy -347082.972849 kJ/mol
# GULP energy per Si atom -12395.820459 kJ/mol
# Density = 1.816806 g / cm^3
# Si number density = 18.209505 Si / 1000 Ang^3
#
#
#
# Elastic Constant Matrix: (Units=GPa)
#
#
# Indices 1 2 3 4 5 6 
#
# 1 117.2974 46.5140 44.6130 0.0000 -10.3681 0.0000
# 2 46.5140 77.8904 37.9052 0.0000 -7.5171 0.0000
# 3 44.6130 37.9052 78.1067 0.0000 -11.6435 0.0000
# 4 0.0000 0.0000 0.0000 26.4782 0.0000 -4.8427
# 5 -10.3681 -7.5171 -11.6435 0.0000 24.3655 0.0000
# 6 0.0000 0.0000 0.0000 -4.8427 0.0000 37.1007
#
#
#
# Elastic Compliance Matrix: (Units=1/GPa)
#
#
# Indices 1 2 3 4 5 6 
#
# 1 0.012339 -0.005106 -0.004330 0.000000 0.001606 0.000000
# 2 -0.005106 0.018965 -0.006179 0.000000 0.000725 0.000000
# 3 -0.004330 -0.006179 0.019075 0.000000 0.005366 0.000000
# 4 0.000000 0.000000 0.000000 0.038691 0.000000 0.005050
# 5 0.001606 0.000725 0.005366 0.000000 0.044513 0.000000
# 6 0.000000 0.000000 0.000000 0.005050 0.000000 0.027613
#
#
# Mechanical properties :
#
#
# Convention : Reuss Voigt Hill
#
# Bulk Modulus (GPa) = 52.22513 59.03987 55.63250
# Shear Modulus (GPa) = 25.14970 27.20638 26.17804
#
# Velocity S-wave (km/s) = 3.72039 3.86952 3.79569
# Velocity P-wave (km/s) = 6.87004 7.24273 7.05885
#
# Compressibility (1/GPa) = 0.01914787
#
# Stress axis : x y z
#
# Youngs Moduli (GPa) = 81.04248 52.72917 52.42436
#
# Poissons Ratio (x) = 0.26925 0.22702
# Poissons Ratio (y) = 0.41382 0.32393
# Poissons Ratio (z) = 0.35095 0.32581
#
# Static dielectric constant tensor:
#      x y z
#    x 3.414780 0.000000 -0.219360 
#    y 0.000000 3.501420 0.000000 
#    z -0.219360 0.000000 3.340070 
# 
# 
# High freq. dielectric constant tensor:
#      x y z
#    x 1.701650 0.000000 -0.022760 
#    y 0.000000 1.713180 0.000000 
#    z -0.022760 0.000000 1.685150 
# 
# From -- ./inp_files/71933.got.cif
#   From: 2010.06.25/outbox.cif.g09.slc.cpg/sg11_36_cif.got.tgz:71933.got - 2010.06.27 23:14:04.
