data_PCOD8071796
_publ_section_title
;
Structure prediction by ZEFSAII (Michael W. Deem and Ramdas Pophale) SiO2 
 PCOD8071796
Probable space group: P 21/M
;
_chemical_formula_sum "Si O2"
_cell_formula_units_Z 28
_cell_length_a 30.858280
_cell_length_b 9.330753
_cell_length_c 9.524781
_cell_angle_alpha 90.000000
_cell_angle_beta 144.902172
_cell_angle_gamma 90.000000
_cell_volume 1576.855121
_symmetry_space_group_name_H-M "P 21/M"
_symmetry_group_IT_number 11
_symmetry_cell_setting 'monoclinic'
loop_
_space_group_symop_operation_xyz
x,y,z
-x,1/2+y,-z
-x,-y,-z
x,1/2-y,z
loop_
_atom_site_type_symbol
_atom_site_label
_atom_site_fract_x
_atom_site_fract_y
_atom_site_fract_z
Si Si1 0.804249 0.086171 0.778635
Si Si2 0.095321 0.915405 0.373833
Si Si3 0.422715 0.083366 0.782710
Si Si4 0.041191 0.586899 0.918975
Si Si5 0.264850 0.918303 0.862498
Si Si6 0.303078 0.084033 0.701041
Si Si7 0.687576 0.414471 0.700888
O O1 0.792359 0.250000 0.694451
O O2 0.893914 0.053510 0.024753
O O3 0.767349 0.062307 0.833104
O O4 0.767442 0.982427 0.567285
O O5 0.089152 0.750000 0.394921
O O6 0.079005 0.949215 0.168679
O O7 0.178479 0.972651 0.631100
O O8 0.032957 0.992972 0.305609
O O9 0.437409 0.250000 0.789761
O O10 0.378862 0.061939 0.812494
O O11 0.375648 0.017958 0.529250
O O12 0.500000 0.000000 0.000000
O O13 0.014282 0.750000 0.841220
O O14 0.268923 0.750000 0.839733
O O15 0.313699 0.003595 0.877072
O O16 0.300970 0.955664 0.107669
O O17 0.286071 0.250000 0.682875
O O18 0.660832 0.250000 0.612864
#
# Coordination Sequence:
#
# PCOD8071796 Si02
#       7
#     4   4   4   4   4   4   4
#     4   9  16  31  51  72  98 132 175 217 255 304
#     4   9  17  28  43  66  98 133 170 214 257 298
#     4  10  21  38  59  83 108 132 165 204 246 299
#     4   9  16  27  44  67  95 130 173 217 259 299
#     4  10  19  34  52  75 105 138 174 209 253 309
#     4  10  20  32  52  80 104 131 168 210 250 295
#     4   9  19  34  56  79 103 136 170 208 256 304
#
# _framework density 17.756862000000002
#
# number of rings (size 3 to 8) (size 9 to 14) (size 15 to 20)
#    0.000    2.571    1.429    0.857    0.000    3.429 
#    0.000    1.429    0.000    0.000    0.000    0.000 
#    0.000    0.000    0.000    0.000    0.000    0.000 
#
# Total GULP energy -347192.452237 kJ/mol
# GULP energy per Si atom -12399.730437 kJ/mol
# Density = 1.771645 g / cm^3
# Si number density = 17.756862 Si / 1000 Ang^3
#
#
#
# Elastic Constant Matrix: (Units=GPa)
#
#
# Indices 1 2 3 4 5 6 
#
# 1 93.9718 61.5576 55.3098 0.0000 -0.2572 0.0000
# 2 61.5576 94.9168 56.8291 0.0000 2.7300 0.0000
# 3 55.3098 56.8291 85.0238 0.0000 4.3109 0.0000
# 4 0.0000 0.0000 0.0000 24.8215 0.0000 5.0007
# 5 -0.2572 2.7300 4.3109 0.0000 31.5576 0.0000
# 6 0.0000 0.0000 0.0000 5.0007 0.0000 30.8359
#
#
#
# Elastic Compliance Matrix: (Units=1/GPa)
#
#
# Indices 1 2 3 4 5 6 
#
# 1 0.021238 -0.009167 -0.007791 0.000000 0.002030 0.000000
# 2 -0.009167 0.021522 -0.008381 0.000000 -0.000792 0.000000
# 3 -0.007791 -0.008381 0.022555 0.000000 -0.002419 0.000000
# 4 0.000000 0.000000 0.000000 0.041648 0.000000 -0.006754
# 5 0.002030 -0.000792 -0.002419 0.000000 0.032104 0.000000
# 6 0.000000 0.000000 0.000000 -0.006754 0.000000 0.033525
#
#
# Mechanical properties :
#
#
# Convention : Reuss Voigt Hill
#
# Bulk Modulus (GPa) = 68.33230 69.03393 68.68312
# Shear Modulus (GPa) = 21.91542 24.12405 23.01974
#
# Velocity S-wave (km/s) = 3.51692 3.68989 3.60444
# Velocity P-wave (km/s) = 7.42007 7.55747 7.48909
#
# Compressibility (1/GPa) = 0.01463437
#
# Stress axis : x y z
#
# Youngs Moduli (GPa) = 47.08525 46.46455 44.33683
#
# Poissons Ratio (x) = 0.42595 0.34545
# Poissons Ratio (y) = 0.43164 0.37160
# Poissons Ratio (z) = 0.36686 0.38944
#
# Static dielectric constant tensor:
#      x y z
#    x 3.430020 0.000000 0.097190 
#    y 0.000000 3.329670 0.000000 
#    z 0.097190 0.000000 3.033250 
# 
# 
# High freq. dielectric constant tensor:
#      x y z
#    x 1.688130 0.000000 0.009920 
#    y 0.000000 1.687040 0.000000 
#    z 0.009920 0.000000 1.659180 
# 
# From -- ./inp_files/28137.got.cif
#   From: 2010.06.25/outbox.cif.g09.slc.cpg/sg11_15_cif.got.tgz:28137.got - 2010.06.27 23:14:04.
