data_PCOD8071343
_publ_section_title
;
Structure prediction by ZEFSAII (Michael W. Deem and Ramdas Pophale) SiO2 
 PCOD8071343
Probable space group: P 21/M
;
_chemical_formula_sum "Si O2"
_cell_formula_units_Z 28
_cell_length_a 20.451466
_cell_length_b 8.886397
_cell_length_c 18.044386
_cell_angle_alpha 90.000000
_cell_angle_beta 28.079231
_cell_angle_gamma 90.000000
_cell_volume 1543.580079
_symmetry_space_group_name_H-M "P 21/M"
_symmetry_group_IT_number 11
_symmetry_cell_setting 'monoclinic'
loop_
_space_group_symop_operation_xyz
x,y,z
-x,1/2+y,-z
-x,-y,-z
x,1/2-y,z
loop_
_atom_site_type_symbol
_atom_site_label
_atom_site_fract_x
_atom_site_fract_y
_atom_site_fract_z
Si Si1 0.676086 0.916390 0.760748
Si Si2 0.882033 0.571037 0.282963
Si Si3 0.804883 0.425181 0.054662
Si Si4 0.405118 0.929577 0.856642
Si Si5 0.854836 0.426600 0.164526
Si Si6 0.652198 0.084280 0.925592
Si Si7 0.301568 0.928198 0.411745
O O1 0.739722 0.750000 0.685716
O O2 0.725903 0.977985 0.791187
O O3 0.727817 0.025112 0.643684
O O4 0.511135 0.907784 0.925500
O O5 0.868206 0.750000 0.298659
O O6 0.796464 0.508282 0.296594
O O7 0.821206 0.499369 0.417600
O O8 0.041115 0.512759 0.117519
O O9 0.810542 0.250000 0.031826
O O10 0.688388 0.494496 0.117014
O O11 0.760933 0.454923 0.184625
O O12 0.430305 0.750000 0.828896
O O13 0.553157 0.009249 0.703093
O O14 0.326113 0.974822 0.012085
O O15 0.872253 0.250000 0.162412
O O16 0.000000 0.500000 0.000000
O O17 0.717727 0.250000 0.851204
O O18 0.300529 0.750000 0.419363
#
# Coordination Sequence:
#
# PCOD8071343 Si02
#       7
#     4   4   4   4   4   4   4
#     4   9  16  27  44  65  91 124 159 194 233 277
#     4  10  19  33  52  73  96 126 162 199 240 284
#     4   8  16  31  53  75  95 122 158 197 236 282
#     4   9  17  32  51  72  98 127 157 193 239 286
#     4   9  16  29  49  73  97 124 160 199 236 278
#     4   8  14  24  42  67  93 120 152 191 234 278
#     4  11  21  32  47  71 100 127 158 198 240 283
#
# _framework density 18.13965
#
# number of rings (size 3 to 8) (size 9 to 14) (size 15 to 20)
#    0.000    2.857    0.000    4.286    0.000    3.429 
#    0.000    5.000    0.000    0.857    0.000    0.000 
#    0.000    0.000    0.000    0.000    0.000    0.000 
#
# Total GULP energy -346972.136948 kJ/mol
# GULP energy per Si atom -12391.862034 kJ/mol
# Density = 1.809836 g / cm^3
# Si number density = 18.139650 Si / 1000 Ang^3
#
#
#
# Elastic Constant Matrix: (Units=GPa)
#
#
# Indices 1 2 3 4 5 6 
#
# 1 32.3383 9.4822 -2.5115 0.0000 8.0436 0.0000
# 2 9.4822 85.5871 19.1489 0.0000 6.9545 0.0000
# 3 -2.5115 19.1489 47.1750 0.0000 13.5923 0.0000
# 4 0.0000 0.0000 0.0000 25.5876 0.0000 10.5131
# 5 8.0436 6.9545 13.5923 0.0000 20.4058 0.0000
# 6 0.0000 0.0000 0.0000 10.5131 0.0000 23.8053
#
#
#
# Elastic Compliance Matrix: (Units=1/GPa)
#
#
# Indices 1 2 3 4 5 6 
#
# 1 0.037990 -0.004762 0.009656 0.000000 -0.019784 0.000000
# 2 -0.004762 0.013469 -0.006112 0.000000 0.001358 0.000000
# 3 0.009656 -0.006112 0.030553 0.000000 -0.022074 0.000000
# 4 0.000000 0.000000 0.000000 0.047745 0.000000 -0.021086
# 5 -0.019784 0.001358 -0.022074 0.000000 0.071045 0.000000
# 6 0.000000 0.000000 0.000000 -0.021086 0.000000 0.051319
#
#
# Mechanical properties :
#
#
# Convention : Reuss Voigt Hill
#
# Bulk Modulus (GPa) = 12.56665 24.14884 18.35774
# Shear Modulus (GPa) = 17.78839 23.22512 20.50675
#
# Velocity S-wave (km/s) = 3.13491 3.58208 3.36593
# Velocity P-wave (km/s) = 4.47731 5.51816 5.02476
#
# Compressibility (1/GPa) = 0.07957569
#
# Stress axis : x y z
#
# Youngs Moduli (GPa) = 26.32263 74.24651 32.73027
#
# Poissons Ratio (x) = 0.35354 -0.31603
# Poissons Ratio (y) = 0.12534 0.20004
# Poissons Ratio (z) = -0.25416 0.45378
#
# Static dielectric constant tensor:
#      x y z
#    x 3.791010 0.000000 0.372420 
#    y 0.000000 3.443240 0.000000 
#    z 0.372420 0.000000 3.070410 
# 
# 
# High freq. dielectric constant tensor:
#      x y z
#    x 1.701860 0.000000 0.036920 
#    y 0.000000 1.697590 0.000000 
#    z 0.036920 0.000000 1.664120 
# 
# From -- ./inp_files/42342.got.cif
#   From: 2010.06.25/outbox.cif.g09.slc.cpg/sg11_22_cif.got.tgz:42342.got - 2010.06.27 23:14:04.
