data_PCOD8071024
_publ_section_title
;
Structure prediction by ZEFSAII (Michael W. Deem and Ramdas Pophale) SiO2 
 PCOD8071024
Probable space group: P 21/M
;
_chemical_formula_sum "Si O2"
_cell_formula_units_Z 32
_cell_length_a 14.885077
_cell_length_b 8.601226
_cell_length_c 23.033712
_cell_angle_alpha 90.000000
_cell_angle_beta 140.572997
_cell_angle_gamma 90.000000
_cell_volume 1872.896657
_symmetry_space_group_name_H-M "P 21/M"
_symmetry_group_IT_number 11
_symmetry_cell_setting 'monoclinic'
loop_
_space_group_symop_operation_xyz
x,y,z
-x,1/2+y,-z
-x,-y,-z
x,1/2-y,z
loop_
_atom_site_type_symbol
_atom_site_label
_atom_site_fract_x
_atom_site_fract_y
_atom_site_fract_z
Si Si1 0.284741 0.568768 0.366271
Si Si2 0.551120 0.070620 0.116324
Si Si3 0.461976 0.931567 0.565938
Si Si4 0.996403 0.068578 0.247712
Si Si5 0.994869 0.568725 0.614131
Si Si6 0.273628 0.070422 0.702394
Si Si7 0.291740 0.430481 0.911077
Si Si8 0.727028 0.431059 0.420773
O O1 0.251009 0.750000 0.348238
O O2 0.390863 0.524166 0.367016
O O3 0.353791 0.515642 0.461624
O O4 0.139062 0.476296 0.285266
O O5 0.568799 0.250000 0.141793
O O6 0.586077 0.967950 0.190265
O O7 0.661382 0.032728 0.120279
O O8 0.391744 0.032057 0.016093
O O9 0.494443 0.750000 0.576338
O O10 0.393437 0.975552 0.593009
O O11 0.967294 0.250000 0.227400
O O12 0.007319 0.015658 0.320133
O O13 0.868089 0.976802 0.152831
O O14 0.958617 0.750000 0.589559
O O15 0.146917 0.535889 0.662489
O O16 0.881010 0.468683 0.522538
O O17 0.232759 0.250000 0.688630
O O18 0.306195 0.032423 0.652108
O O19 0.303788 0.250000 0.900063
O O20 0.722231 0.250000 0.402580
#
# Coordination Sequence:
#
# PCOD8071024 Si02
#       8
#     4   4   4   4   4   4   4   4
#     4  10  19  32  52  75 102 132 168 211 255 303
#     4  10  20  35  52  74 101 133 170 211 257 303
#     4   9  19  34  51  73  99 132 169 209 257 302
#     4  11  21  32  51  76 106 139 171 208 252 305
#     4  11  22  35  50  72 103 139 178 215 250 297
#     4  12  24  36  52  73 101 138 178 217 254 301
#     4  10  20  33  53  76 102 132 168 211 256 306
#     4  11  22  37  54  72 101 138 177 217 254 302
#
# _framework density 17.085833000000001
#
# number of rings (size 3 to 8) (size 9 to 14) (size 15 to 20)
#    0.000    1.500    2.500    3.750    0.000    4.000 
#    0.000    0.000    0.000    0.000    0.000    0.875 
#    0.000    0.000    0.000    0.000    0.000    0.000 
#
# Total GULP energy -396975.788175 kJ/mol
# GULP energy per Si atom -12405.493380 kJ/mol
# Density = 1.704694 g / cm^3
# Si number density = 17.085833 Si / 1000 Ang^3
#
#
#
# Elastic Constant Matrix: (Units=GPa)
#
#
# Indices 1 2 3 4 5 6 
#
# 1 81.5953 20.3440 43.5522 0.0000 10.4792 0.0000
# 2 20.3440 49.4374 27.7567 0.0000 1.3236 0.0000
# 3 43.5522 27.7567 98.5334 0.0000 10.5543 0.0000
# 4 0.0000 0.0000 0.0000 27.9466 0.0000 2.6267
# 5 10.4792 1.3236 10.5543 0.0000 22.7218 0.0000
# 6 0.0000 0.0000 0.0000 2.6267 0.0000 26.7929
#
#
#
# Elastic Compliance Matrix: (Units=1/GPa)
#
#
# Indices 1 2 3 4 5 6 
#
# 1 0.016941 -0.003478 -0.005991 0.000000 -0.004828 0.000000
# 2 -0.003478 0.024815 -0.005756 0.000000 0.002832 0.000000
# 3 -0.005991 -0.005756 0.014824 0.000000 -0.003787 0.000000
# 4 0.000000 0.000000 0.000000 0.036115 0.000000 -0.003541
# 5 -0.004828 0.002832 -0.003787 0.000000 0.047831 0.000000
# 6 0.000000 0.000000 0.000000 -0.003541 0.000000 0.037671
#
#
# Mechanical properties :
#
#
# Convention : Reuss Voigt Hill
#
# Bulk Modulus (GPa) = 38.27228 45.87466 42.07347
# Shear Modulus (GPa) = 23.00361 24.68647 23.84504
#
# Velocity S-wave (km/s) = 3.67325 3.80524 3.73983
# Velocity P-wave (km/s) = 6.35917 6.79811 6.58230
#
# Compressibility (1/GPa) = 0.02612857
#
# Stress axis : x y z
#
# Youngs Moduli (GPa) = 59.03003 40.29820 67.45791
#
# Poissons Ratio (x) = 0.14017 0.40413
# Poissons Ratio (y) = 0.20533 0.38831
# Poissons Ratio (z) = 0.35364 0.23197
#
# Static dielectric constant tensor:
#      x y z
#    x 3.069600 0.000000 0.064310 
#    y 0.000000 3.200270 0.000000 
#    z 0.064310 0.000000 3.191440 
# 
# 
# High freq. dielectric constant tensor:
#      x y z
#    x 1.637380 0.000000 0.013270 
#    y 0.000000 1.673340 0.000000 
#    z 0.013270 0.000000 1.644750 
# 
# From -- ./inp_files/65259.got.cif
#   From: 2010.06.25/outbox.cif.g09.slc.cpg/sg11_33_cif.got.tgz:65259.got - 2010.06.27 23:14:04.
