data_PCOD8071155
_publ_section_title
;
Structure prediction by ZEFSAII (Michael W. Deem and Ramdas Pophale) SiO2 
 PCOD8071155
Probable space group: P 21/M
;
_chemical_formula_sum "Si O2"
_cell_formula_units_Z 28
_cell_length_a 16.506675
_cell_length_b 9.333263
_cell_length_c 21.019984
_cell_angle_alpha 90.000000
_cell_angle_beta 25.473008
_cell_angle_gamma 90.000000
_cell_volume 1392.773938
_symmetry_space_group_name_H-M "P 21/M"
_symmetry_group_IT_number 11
_symmetry_cell_setting 'monoclinic'
loop_
_space_group_symop_operation_xyz
x,y,z
-x,1/2+y,-z
-x,-y,-z
x,1/2-y,z
loop_
_atom_site_type_symbol
_atom_site_label
_atom_site_fract_x
_atom_site_fract_y
_atom_site_fract_z
Si Si1 0.774245 0.414131 0.293302
Si Si2 0.183352 0.084524 0.047008
Si Si3 0.551270 0.419220 0.705542
Si Si4 0.663678 0.906182 0.833288
Si Si5 0.159379 0.090181 0.421567
Si Si6 0.493513 0.417000 0.601757
Si Si7 0.765811 0.417515 0.864579
O O1 0.727109 0.250000 0.311758
O O2 0.677163 0.457347 0.429486
O O3 0.691344 0.506553 0.294663
O O4 0.997871 0.440494 0.136108
O O5 0.201188 0.250000 0.054893
O O6 0.145640 0.989977 0.136472
O O7 0.366223 0.036094 0.877269
O O8 0.589176 0.250000 0.684760
O O9 0.738336 0.502747 0.594936
O O10 0.523609 0.468044 0.652532
O O11 0.677459 0.750000 0.856650
O O12 0.689257 0.890052 0.740639
O O13 0.821938 0.009158 0.756415
O O14 0.451310 0.964138 0.984401
O O15 0.093455 0.250000 0.491694
O O16 0.000000 0.000000 0.500000
O O17 0.450244 0.250000 0.630939
O O18 0.811598 0.250000 0.832495
#
# Coordination Sequence:
#
# PCOD8071155 Si02
#       7
#     4   4   4   4   4   4   4
#     4   9  19  36  57  81 109 143 181 224 275 332
#     4  10  20  34  54  81 114 148 184 227 280 335
#     4  10  21  37  57  81 111 148 186 227 278 336
#     4   9  19  35  52  73 104 141 180 223 274 324
#     4  11  23  39  57  80 111 147 188 231 278 332
#     4   9  19  37  58  80 109 144 182 224 275 332
#     4  10  19  32  53  79 105 137 181 227 272 323
#
# _framework density 20.103764000000002
#
# number of rings (size 3 to 8) (size 9 to 14) (size 15 to 20)
#    0.000    2.286    1.429    0.857    0.000    4.571 
#    0.000    2.857    0.000    0.000    0.000    0.000 
#    0.000    0.000    0.000    0.000    0.000    0.000 
#
# Total GULP energy -346977.739727 kJ/mol
# GULP energy per Si atom -12392.062133 kJ/mol
# Density = 2.005801 g / cm^3
# Si number density = 20.103764 Si / 1000 Ang^3
#
#
#
# Elastic Constant Matrix: (Units=GPa)
#
#
# Indices 1 2 3 4 5 6 
#
# 1 148.3309 63.1567 25.9018 0.0000 -7.0416 0.0000
# 2 63.1567 89.0235 18.8495 0.0000 -14.9198 0.0000
# 3 25.9018 18.8495 32.6436 0.0000 -18.8048 0.0000
# 4 0.0000 0.0000 0.0000 21.5996 0.0000 -6.9728
# 5 -7.0416 -14.9198 -18.8048 0.0000 27.8259 0.0000
# 6 0.0000 0.0000 0.0000 -6.9728 0.0000 41.7405
#
#
#
# Elastic Compliance Matrix: (Units=1/GPa)
#
#
# Indices 1 2 3 4 5 6 
#
# 1 0.010915 -0.007084 -0.008461 0.000000 -0.006754 0.000000
# 2 -0.007084 0.017556 -0.000208 0.000000 0.007480 0.000000
# 3 -0.008461 -0.000208 0.059227 0.000000 0.037773 0.000000
# 4 0.000000 0.000000 0.000000 0.048936 0.000000 0.008175
# 5 -0.006754 0.007480 0.037773 0.000000 0.063767 0.000000
# 6 0.000000 0.000000 0.000000 0.008175 0.000000 0.025323
#
#
# Mechanical properties :
#
#
# Convention : Reuss Voigt Hill
#
# Bulk Modulus (GPa) = 17.79565 53.97935 35.88750
# Shear Modulus (GPa) = 18.11864 29.03919 23.57891
#
# Velocity S-wave (km/s) = 3.00535 3.80474 3.42842
# Velocity P-wave (km/s) = 4.57318 6.79779 5.79327
#
# Compressibility (1/GPa) = 0.05619351
#
# Stress axis : x y z
#
# Youngs Moduli (GPa) = 91.62027 56.96046 16.88421
#
# Poissons Ratio (x) = 0.40349 0.14285
# Poissons Ratio (y) = 0.64901 0.00350
# Poissons Ratio (z) = 0.77518 0.01182
#
# Static dielectric constant tensor:
#      x y z
#    x 4.047370 0.000000 0.343250 
#    y 0.000000 3.773430 0.000000 
#    z 0.343250 0.000000 3.715870 
# 
# 
# High freq. dielectric constant tensor:
#      x y z
#    x 1.787350 0.000000 0.003270 
#    y 0.000000 1.783950 0.000000 
#    z 0.003270 0.000000 1.773620 
# 
# From -- ./inp_files/48929.got.cif
#   From: 2010.06.25/outbox.cif.g09.slc.cpg/sg11_25_cif.got.tgz:48929.got - 2010.06.27 23:14:04.
