data_PCOD8071811
_publ_section_title
;
Structure prediction by ZEFSAII (Michael W. Deem and Ramdas Pophale) SiO2 
 PCOD8071811
Probable space group: P 21/M
;
_chemical_formula_sum "Si O2"
_cell_formula_units_Z 32
_cell_length_a 14.300556
_cell_length_b 8.878618
_cell_length_c 28.301112
_cell_angle_alpha 90.000000
_cell_angle_beta 150.718725
_cell_angle_gamma 90.000000
_cell_volume 1757.507422
_symmetry_space_group_name_H-M "P 21/M"
_symmetry_group_IT_number 11
_symmetry_cell_setting 'monoclinic'
loop_
_space_group_symop_operation_xyz
x,y,z
-x,1/2+y,-z
-x,-y,-z
x,1/2-y,z
loop_
_atom_site_type_symbol
_atom_site_label
_atom_site_fract_x
_atom_site_fract_y
_atom_site_fract_z
Si Si1 0.725418 0.574376 0.408164
Si Si2 0.281544 0.919572 0.787647
Si Si3 0.201376 0.927562 0.100949
Si Si4 0.143856 0.573011 0.627824
Si Si5 0.648093 0.575115 0.738625
Si Si6 0.297519 0.929260 0.897025
Si Si7 0.036289 0.576078 0.867480
Si Si8 0.700370 0.580249 0.944043
O O1 0.682095 0.750000 0.384788
O O2 0.732986 0.508172 0.358448
O O3 0.557836 0.495761 0.365181
O O4 0.920540 0.540979 0.521794
O O5 0.203754 0.750000 0.751025
O O6 0.198220 0.997589 0.703362
O O7 0.223310 0.990356 0.812867
O O8 0.510563 0.925583 0.891385
O O9 0.185072 0.750000 0.096321
O O10 0.281202 0.989187 0.184432
O O11 0.341120 0.978734 0.120247
O O12 0.000000 0.000000 0.000000
O O13 0.193841 0.750000 0.647119
O O14 0.622001 0.750000 0.738544
O O15 0.805546 0.551583 0.766161
O O16 0.326003 0.750000 0.907653
O O17 0.130174 0.976912 0.859636
O O18 0.500000 0.000000 0.000000
O O19 0.086720 0.750000 0.899377
O O20 0.121462 0.480582 0.947804
O O21 0.750131 0.750000 0.950213
#
# Coordination Sequence:
#
# PCOD8071811 Si02
#       8
#     4   4   4   4   4   4   4   4
#     4  10  20  34  55  82 107 137 176 220 269 320
#     4   9  18  32  53  78 103 134 172 215 268 322
#     4  12  23  34  48  71 103 139 176 214 255 308
#     4   9  18  35  57  80 108 139 173 217 269 326
#     4  11  22  36  52  72 102 144 181 217 265 314
#     4  10  19  34  53  76 103 136 178 222 267 317
#     4  10  21  34  50  71 101 139 179 217 259 311
#     4  11  20  31  50  75 104 139 174 212 260 312
#
# _framework density 18.207605000000001
#
# number of rings (size 3 to 8) (size 9 to 14) (size 15 to 20)
#    0.000    1.750    2.500    3.000    0.000    2.000 
#    0.000    1.250    0.000    0.750    0.000    0.000 
#    0.000    0.000    0.000    0.000    0.000    0.500 
#
# Total GULP energy -396652.093891 kJ/mol
# GULP energy per Si atom -12395.377934 kJ/mol
# Density = 1.816616 g / cm^3
# Si number density = 18.207605 Si / 1000 Ang^3
#
#
#
# Elastic Constant Matrix: (Units=GPa)
#
#
# Indices 1 2 3 4 5 6 
#
# 1 127.0879 36.4316 48.9202 0.0000 4.9905 0.0000
# 2 36.4316 79.4020 30.7713 0.0000 10.2418 0.0000
# 3 48.9202 30.7713 73.0152 0.0000 1.9905 0.0000
# 4 0.0000 0.0000 0.0000 25.5666 0.0000 4.1358
# 5 4.9905 10.2418 1.9905 0.0000 29.6649 0.0000
# 6 0.0000 0.0000 0.0000 4.1358 0.0000 21.0031
#
#
#
# Elastic Compliance Matrix: (Units=1/GPa)
#
#
# Indices 1 2 3 4 5 6 
#
# 1 0.011053 -0.002553 -0.006314 0.000000 -0.000554 0.000000
# 2 -0.002553 0.016351 -0.005047 0.000000 -0.004877 0.000000
# 3 -0.006314 -0.005047 0.020014 0.000000 0.001462 0.000000
# 4 0.000000 0.000000 0.000000 0.040401 0.000000 -0.007955
# 5 -0.000554 -0.004877 0.001462 0.000000 0.035389 0.000000
# 6 0.000000 0.000000 0.000000 -0.007955 0.000000 0.049179
#
#
# Mechanical properties :
#
#
# Convention : Reuss Voigt Hill
#
# Bulk Modulus (GPa) = 51.05195 56.86126 53.95660
# Shear Modulus (GPa) = 24.18458 26.13905 25.16181
#
# Velocity S-wave (km/s) = 3.64849 3.79306 3.72148
# Velocity P-wave (km/s) = 6.77114 7.10494 6.94005
#
# Compressibility (1/GPa) = 0.01958789
#
# Stress axis : x y z
#
# Youngs Moduli (GPa) = 90.47537 61.16019 49.96557
#
# Poissons Ratio (x) = 0.15612 0.31550
# Poissons Ratio (y) = 0.23095 0.25220
# Poissons Ratio (z) = 0.57130 0.30870
#
# Static dielectric constant tensor:
#      x y z
#    x 3.717840 0.000000 0.060120 
#    y 0.000000 3.537490 0.000000 
#    z 0.060120 0.000000 3.378140 
# 
# 
# High freq. dielectric constant tensor:
#      x y z
#    x 1.706480 0.000000 0.010510 
#    y 0.000000 1.698730 0.000000 
#    z 0.010510 0.000000 1.687850 
# 
# From -- ./inp_files/73329.got.cif
#   From: 2010.06.25/outbox.cif.g09.slc.cpg/sg11_37_cif.got.tgz:73329.got - 2010.06.27 23:14:04.
