data_PCOD8071375
_publ_section_title
;
Structure prediction by ZEFSAII (Michael W. Deem and Ramdas Pophale) SiO2 
 PCOD8071375
Probable space group: P 21/M
;
_chemical_formula_sum "Si O2"
_cell_formula_units_Z 24
_cell_length_a 15.586833
_cell_length_b 16.605710
_cell_length_c 13.740671
_cell_angle_alpha 90.000000
_cell_angle_beta 18.992581
_cell_angle_gamma 90.000000
_cell_volume 1157.448929
_symmetry_space_group_name_H-M "P 21/M"
_symmetry_group_IT_number 11
_symmetry_cell_setting 'monoclinic'
loop_
_space_group_symop_operation_xyz
x,y,z
-x,1/2+y,-z
-x,-y,-z
x,1/2-y,z
loop_
_atom_site_type_symbol
_atom_site_label
_atom_site_fract_x
_atom_site_fract_y
_atom_site_fract_z
Si Si1 0.476020 0.343421 0.432950
Si Si2 0.926759 0.407733 0.084974
Si Si3 0.534200 0.345816 0.151210
Si Si4 0.206871 0.654351 0.562839
Si Si5 0.093277 0.153732 0.478095
Si Si6 0.768684 0.654523 0.882714
O O1 0.553050 0.250000 0.355597
O O2 0.693037 0.391834 0.260091
O O3 0.483367 0.376656 0.314932
O O4 0.183184 0.353973 0.788907
O O5 0.818731 0.388356 0.306939
O O6 0.000000 0.500000 0.000000
O O7 0.532817 0.250000 0.150862
O O8 0.306590 0.379977 0.325567
O O9 0.810797 0.379506 0.814965
O O10 0.200605 0.750000 0.584887
O O11 0.975503 0.623408 0.740693
O O12 0.479290 0.625237 0.222771
O O13 0.095662 0.250000 0.474374
O O14 0.158203 0.119124 0.301512
O O15 0.780870 0.750000 0.864372
#
# Coordination Sequence:
#
# PCOD8071375 Si02
#       6
#     4   4   4   4   4   4
#     4  11  22  39  61  86 114 150 192 236 283 339
#     4  12  25  40  58  84 115 152 193 240 292 340
#     4   9  17  28  48  77 109 140 175 221 276 326
#     4  10  19  33  52  77 106 142 184 227 274 331
#     4   9  15  26  44  75 112 138 166 219 279 327
#     4   9  17  28  48  77 109 140 175 221 276 327
#
# _framework density 20.735256
#
# number of rings (size 3 to 8) (size 9 to 14) (size 15 to 20)
#    0.000    2.000    0.000    5.000    0.000    8.000 
#    0.000    0.000    0.000    0.000    0.000   23.333 
#    0.000    0.000    0.000    0.000    0.000    0.000 
#
# Total GULP energy -297674.134282 kJ/mol
# GULP energy per Si atom -12403.088928 kJ/mol
# Density = 2.068806 g / cm^3
# Si number density = 20.735256 Si / 1000 Ang^3
#
#
#
# Elastic Constant Matrix: (Units=GPa)
#
#
# Indices 1 2 3 4 5 6 
#
# 1 115.5715 22.3792 19.7887 0.0000 -9.0270 0.0000
# 2 22.3792 21.3099 10.0551 0.0000 7.5560 0.0000
# 3 19.7887 10.0551 107.9054 0.0000 -7.9704 0.0000
# 4 0.0000 0.0000 0.0000 5.4963 0.0000 -8.1412
# 5 -9.0270 7.5560 -7.9704 0.0000 47.1429 0.0000
# 6 0.0000 0.0000 0.0000 -8.1412 0.0000 6.3525
#
#
#
# Elastic Compliance Matrix: (Units=1/GPa)
#
#
# Indices 1 2 3 4 5 6 
#
# 1 0.011714 -0.013568 -0.000565 0.000000 0.004322 0.000000
# 2 -0.013568 0.068644 -0.004975 0.000000 -0.014441 0.000000
# 3 -0.000565 -0.004975 0.010010 0.000000 0.002382 0.000000
# 4 0.000000 0.000000 0.000000 -0.202547 0.000000 -0.259577
# 5 0.004322 -0.014441 0.002382 0.000000 0.024757 0.000000
# 6 0.000000 0.000000 0.000000 -0.259577 0.000000 -0.175246
#
#
# Mechanical properties :
#
#
# Convention : Reuss Voigt Hill
#
# Bulk Modulus (GPa) = 19.17445 38.80364 28.98905
# Shear Modulus (GPa) = -24.14668 24.63593 0.24462
#
# Velocity S-wave (km/s) = -3.41621 3.45065 0.34385
# Velocity P-wave (km/s) = 2.50865 5.88476 3.76411
#
# Compressibility (1/GPa) = 0.05215274
#
# Stress axis : x y z
#
# Youngs Moduli (GPa) = 85.36571 14.56793 99.89566
#
# Poissons Ratio (x) = 0.19766 0.05641
# Poissons Ratio (y) = 1.15827 0.49698
# Poissons Ratio (z) = 0.04820 0.07248
#
# Static dielectric constant tensor:
#      x y z
#    x 4.010560 0.000000 0.004220 
#    y 0.000000 3.207460 0.000000 
#    z 0.004220 0.000000 4.040470 
# 
# 
# High freq. dielectric constant tensor:
#      x y z
#    x 1.832240 0.000000 0.000150 
#    y 0.000000 1.753950 0.000000 
#    z 0.000150 0.000000 1.831570 
# 
# From -- ./inp_files/40136.got.cif
#   From: 2010.06.25/outbox.cif.g09.slc.cpg/sg11_21_cif.got.tgz:40136.got - 2010.06.27 23:14:04.
