data_PCOD8071843
_publ_section_title
;
Structure prediction by ZEFSAII (Michael W. Deem and Ramdas Pophale) SiO2 
 PCOD8071843
Probable space group: P 21/M
;
_chemical_formula_sum "Si O2"
_cell_formula_units_Z 32
_cell_length_a 11.963659
_cell_length_b 8.894829
_cell_length_c 31.187677
_cell_angle_alpha 90.000000
_cell_angle_beta 150.075974
_cell_angle_gamma 90.000000
_cell_volume 1655.601040
_symmetry_space_group_name_H-M "P 21/M"
_symmetry_group_IT_number 11
_symmetry_cell_setting 'monoclinic'
loop_
_space_group_symop_operation_xyz
x,y,z
-x,1/2+y,-z
-x,-y,-z
x,1/2-y,z
loop_
_atom_site_type_symbol
_atom_site_label
_atom_site_fract_x
_atom_site_fract_y
_atom_site_fract_z
Si Si1 0.685119 0.924941 0.426161
Si Si2 0.845235 0.072166 0.217487
Si Si3 0.056362 0.925012 0.134969
Si Si4 0.119781 0.075501 0.600517
Si Si5 0.219526 0.428051 0.276642
Si Si6 0.177509 0.422670 0.090129
Si Si7 0.455263 0.076075 0.029609
Si Si8 0.313390 0.577321 0.745834
O O1 0.645334 0.750000 0.421465
O O2 0.729840 0.959481 0.391097
O O3 0.468440 0.016111 0.369018
O O4 0.892093 0.980051 0.523639
O O5 0.825331 0.250000 0.210906
O O6 0.627071 0.005158 0.120997
O O7 0.838845 0.019053 0.264898
O O8 0.069825 0.020169 0.267628
O O9 0.119976 0.750000 0.158493
O O10 0.121022 0.998881 0.201246
O O11 0.190445 0.000861 0.140994
O O12 0.796048 0.951518 0.038031
O O13 0.055959 0.250000 0.581321
O O14 0.262889 0.028639 0.689029
O O15 0.216503 0.250000 0.269736
O O16 0.105695 0.250000 0.071323
O O17 0.426895 0.436931 0.153691
O O18 0.000000 0.500000 0.000000
O O19 0.506008 0.250000 0.039698
O O20 0.500000 0.000000 0.000000
O O21 0.258735 0.750000 0.715387
#
# Coordination Sequence:
#
# PCOD8071843 Si02
#       8
#     4   4   4   4   4   4   4   4
#     4  10  21  38  61  87 117 146 178 228 286 341
#     4   9  19  36  56  78 110 150 191 235 281 331
#     4  11  22  35  55  82 115 150 190 238 289 344
#     4  10  21  38  61  89 115 143 182 229 280 337
#     4  11  21  35  57  84 114 147 188 235 283 335
#     4  11  23  38  58  83 115 152 193 239 287 340
#     4  10  19  34  54  77 108 148 192 238 283 330
#     4  10  21  39  60  81 111 154 194 229 280 339
#
# _framework density 19.328326000000001
#
# number of rings (size 3 to 8) (size 9 to 14) (size 15 to 20)
#    0.000    1.750    1.250    3.375    0.000    7.000 
#    0.000    2.500    0.000    0.000    0.000    0.000 
#    0.000    0.000    0.000    0.000    0.000    0.000 
#
# Total GULP energy -396871.814808 kJ/mol
# GULP energy per Si atom -12402.244213 kJ/mol
# Density = 1.928433 g / cm^3
# Si number density = 19.328326 Si / 1000 Ang^3
#
#
#
# Elastic Constant Matrix: (Units=GPa)
#
#
# Indices 1 2 3 4 5 6 
#
# 1 111.6460 41.4730 36.9058 0.0000 3.7619 0.0000
# 2 41.4730 79.4847 31.4250 0.0000 7.4355 0.0000
# 3 36.9058 31.4250 89.1372 0.0000 3.9798 0.0000
# 4 0.0000 0.0000 0.0000 35.4287 0.0000 -0.8447
# 5 3.7619 7.4355 3.9798 0.0000 30.5174 0.0000
# 6 0.0000 0.0000 0.0000 -0.8447 0.0000 26.0228
#
#
#
# Elastic Compliance Matrix: (Units=1/GPa)
#
#
# Indices 1 2 3 4 5 6 
#
# 1 0.011832 -0.004937 -0.003165 0.000000 0.000157 0.000000
# 2 -0.004937 0.016939 -0.003793 0.000000 -0.003024 0.000000
# 3 -0.003165 -0.003793 0.013889 0.000000 -0.000497 0.000000
# 4 0.000000 0.000000 0.000000 0.028248 0.000000 0.000917
# 5 0.000157 -0.003024 -0.000497 0.000000 0.033550 0.000000
# 6 0.000000 0.000000 0.000000 0.000917 0.000000 0.038458
#
#
# Mechanical properties :
#
#
# Convention : Reuss Voigt Hill
#
# Bulk Modulus (GPa) = 52.99499 55.54172 54.26835
# Shear Modulus (GPa) = 28.90255 29.75806 29.33031
#
# Velocity S-wave (km/s) = 3.87117 3.92804 3.89971
# Velocity P-wave (km/s) = 6.88905 7.02645 6.95809
#
# Compressibility (1/GPa) = 0.01886971
#
# Stress axis : x y z
#
# Youngs Moduli (GPa) = 84.51812 59.03416 72.00164
#
# Poissons Ratio (x) = 0.29144 0.22791
# Poissons Ratio (y) = 0.41725 0.27309
# Poissons Ratio (z) = 0.26753 0.22391
#
# Static dielectric constant tensor:
#      x y z
#    x 3.751130 0.000000 0.113990 
#    y 0.000000 4.802470 0.000000 
#    z 0.113990 0.000000 3.502500 
# 
# 
# High freq. dielectric constant tensor:
#      x y z
#    x 1.755050 0.000000 0.005490 
#    y 0.000000 1.747470 0.000000 
#    z 0.005490 0.000000 1.751180 
# 
# From -- ./inp_files/73167.got.cif
#   From: 2010.06.25/outbox.cif.g09.slc.cpg/sg11_37_cif.got.tgz:73167.got - 2010.06.27 23:14:04.
