data_PCOD8071342
_publ_section_title
;
Structure prediction by ZEFSAII (Michael W. Deem and Ramdas Pophale) SiO2 
 PCOD8071342
Probable space group: P 21/M
;
_chemical_formula_sum "Si O2"
_cell_formula_units_Z 28
_cell_length_a 18.811923
_cell_length_b 8.958417
_cell_length_c 14.448719
_cell_angle_alpha 90.000000
_cell_angle_beta 38.002231
_cell_angle_gamma 90.000000
_cell_volume 1499.192615
_symmetry_space_group_name_H-M "P 21/M"
_symmetry_group_IT_number 11
_symmetry_cell_setting 'monoclinic'
loop_
_space_group_symop_operation_xyz
x,y,z
-x,1/2+y,-z
-x,-y,-z
x,1/2-y,z
loop_
_atom_site_type_symbol
_atom_site_label
_atom_site_fract_x
_atom_site_fract_y
_atom_site_fract_z
Si Si1 0.666301 0.426066 0.659169
Si Si2 0.271006 0.923867 0.198646
Si Si3 0.050156 0.923135 0.038345
Si Si4 0.080199 0.417693 0.292848
Si Si5 0.571986 0.426066 0.134296
Si Si6 0.106766 0.422626 0.622840
Si Si7 0.760332 0.918652 0.049791
O O1 0.657341 0.250000 0.654877
O O2 0.679463 0.470863 0.753085
O O3 0.553369 0.502212 0.734215
O O4 0.773913 0.488341 0.490828
O O5 0.242353 0.750000 0.221477
O O6 0.150485 0.009568 0.305456
O O7 0.366829 0.969877 0.024994
O O8 0.072157 0.750000 0.996273
O O9 0.960131 0.947633 0.213233
O O10 0.172866 0.998486 0.936035
O O11 0.000000 0.000000 0.000000
O O12 0.043389 0.250000 0.357298
O O13 0.160605 0.419595 0.121220
O O14 0.965436 0.512009 0.389547
O O15 0.562518 0.250000 0.156572
O O16 0.643028 0.492744 0.147793
O O17 0.131220 0.250000 0.577860
O O18 0.730886 0.750000 0.110709
#
# Coordination Sequence:
#
# PCOD8071342 Si02
#       7
#     4   4   4   4   4   4   4
#     4  11  22  34  49  71 101 138 178 217 256 298
#     4   9  19  33  49  71  99 134 177 221 259 296
#     4  10  20  35  58  85 108 130 160 201 250 305
#     4   9  17  30  50  73  98 131 170 213 257 300
#     4  10  19  33  52  73 101 137 177 217 255 296
#     4  10  21  36  52  73 103 136 168 204 253 309
#     4   9  17  31  52  78 105 132 166 207 250 297
#
# _framework density 18.676718999999999
#
# number of rings (size 3 to 8) (size 9 to 14) (size 15 to 20)
#    0.000    2.286    0.000    3.000    0.000    7.429 
#    0.000    0.000    0.000    0.857    0.000    0.000 
#    0.000    0.000    0.000    0.000    0.000    0.000 
#
# Total GULP energy -347291.402747 kJ/mol
# GULP energy per Si atom -12403.264384 kJ/mol
# Density = 1.863421 g / cm^3
# Si number density = 18.676719 Si / 1000 Ang^3
#
#
#
# Elastic Constant Matrix: (Units=GPa)
#
#
# Indices 1 2 3 4 5 6 
#
# 1 146.8820 77.9568 42.4416 0.0000 -33.0646 0.0000
# 2 77.9568 131.5786 42.0744 0.0000 -17.8922 0.0000
# 3 42.4416 42.0744 52.4177 0.0000 -26.3051 0.0000
# 4 0.0000 0.0000 0.0000 26.7919 0.0000 -7.1413
# 5 -33.0646 -17.8922 -26.3051 0.0000 24.0691 0.0000
# 6 0.0000 0.0000 0.0000 -7.1413 0.0000 38.8757
#
#
#
# Elastic Compliance Matrix: (Units=1/GPa)
#
#
# Indices 1 2 3 4 5 6 
#
# 1 0.013054 -0.006386 0.002598 0.000000 0.016026 0.000000
# 2 -0.006386 0.013449 -0.011095 0.000000 -0.010901 0.000000
# 3 0.002598 -0.011095 0.052114 0.000000 0.052277 0.000000
# 4 0.000000 0.000000 0.000000 0.039246 0.000000 0.007209
# 5 0.016026 -0.010901 0.052277 0.000000 0.112593 0.000000
# 6 0.000000 0.000000 0.000000 0.007209 0.000000 0.027047
#
#
# Mechanical properties :
#
#
# Convention : Reuss Voigt Hill
#
# Bulk Modulus (GPa) = 20.46999 72.86931 46.66965
# Shear Modulus (GPa) = 16.47160 29.17436 22.82298
#
# Velocity S-wave (km/s) = 2.97296 3.95659 3.49951
# Velocity P-wave (km/s) = 4.77164 7.74427 6.43204
#
# Compressibility (1/GPa) = 0.04885201
#
# Stress axis : x y z
#
# Youngs Moduli (GPa) = 76.60329 74.35466 19.18873
#
# Poissons Ratio (x) = 0.47483 -0.04986
# Poissons Ratio (y) = 0.48919 0.21290
# Poissons Ratio (z) = -0.19905 0.82497
#
# Static dielectric constant tensor:
#      x y z
#    x 3.461930 0.000000 -0.167970 
#    y 0.000000 3.591690 0.000000 
#    z -0.167970 0.000000 3.196180 
# 
# 
# High freq. dielectric constant tensor:
#      x y z
#    x 1.722530 0.000000 -0.021040 
#    y 0.000000 1.741040 0.000000 
#    z -0.021040 0.000000 1.694930 
# 
# From -- ./inp_files/53181.got.cif
#   From: 2010.06.25/outbox.cif.g09.slc.cpg/sg11_27_cif.got.tgz:53181.got - 2010.06.27 23:14:04.
