data_PCOD8071137
_publ_section_title
;
Structure prediction by ZEFSAII (Michael W. Deem and Ramdas Pophale) SiO2 
 PCOD8071137
Probable space group: P 21/M
;
_chemical_formula_sum "Si O2"
_cell_formula_units_Z 28
_cell_length_a 11.013454
_cell_length_b 9.760937
_cell_length_c 14.189949
_cell_angle_alpha 90.000000
_cell_angle_beta 62.744376
_cell_angle_gamma 90.000000
_cell_volume 1356.076104
_symmetry_space_group_name_H-M "P 21/M"
_symmetry_group_IT_number 11
_symmetry_cell_setting 'monoclinic'
loop_
_space_group_symop_operation_xyz
x,y,z
-x,1/2+y,-z
-x,-y,-z
x,1/2-y,z
loop_
_atom_site_type_symbol
_atom_site_label
_atom_site_fract_x
_atom_site_fract_y
_atom_site_fract_z
Si Si1 0.048779 0.103547 0.406139
Si Si2 0.694740 0.589865 0.375750
Si Si3 0.389511 0.599827 0.431937
Si Si4 0.934577 0.409014 0.244497
Si Si5 0.679792 0.485342 0.743101
Si Si6 0.822656 0.098144 0.881852
Si Si7 0.448566 0.595255 0.937106
O O1 0.019462 0.250000 0.462128
O O2 0.956203 0.082959 0.347921
O O3 0.207615 0.099118 0.321847
O O4 0.000000 0.000000 0.500000
O O5 0.738889 0.750000 0.370994
O O6 0.551638 0.575111 0.373447
O O7 0.684304 0.520370 0.483194
O O8 0.801099 0.502809 0.273645
O O9 0.357804 0.750000 0.488610
O O10 0.336710 0.607892 0.343389
O O11 0.919100 0.250000 0.215579
O O12 0.063866 0.480322 0.147128
O O13 0.737173 0.405139 0.813937
O O14 0.530498 0.553272 0.813722
O O15 0.889766 0.250000 0.863554
O O16 0.716628 0.078612 0.007480
O O17 0.487623 0.750000 0.949093
O O18 0.500000 0.500000 0.000000
#
# Coordination Sequence:
#
# PCOD8071137 Si02
#       7
#     4   4   4   4   4   4   4
#     4  10  21  32  45  69 101 133 164 202 247 297
#     4  10  21  36  54  75 101 136 176 217 257 301
#     4  10  21  36  53  76 105 136 173 215 258 304
#     4  10  20  34  51  71  99 134 170 209 253 304
#     4  10  19  32  53  77 104 135 170 208 254 305
#     4   9  18  32  52  78 104 132 165 205 255 308
#     4   9  18  32  51  76 106 137 171 211 256 308
#
# _framework density 20.647808999999999
#
# number of rings (size 3 to 8) (size 9 to 14) (size 15 to 20)
#    0.000    2.286    0.000    2.571    0.000   11.429 
#    0.000    0.000    0.000    0.857    0.000    0.000 
#    0.000    0.000    0.000    0.000    0.000    0.000 
#
# Total GULP energy -346902.010895 kJ/mol
# GULP energy per Si atom -12389.357532 kJ/mol
# Density = 2.060081 g / cm^3
# Si number density = 20.647809 Si / 1000 Ang^3
#
#
#
# Elastic Constant Matrix: (Units=GPa)
#
#
# Indices 1 2 3 4 5 6 
#
# 1 58.8804 25.8977 18.4725 0.0000 -22.0019 0.0000
# 2 25.8977 151.5084 30.4843 0.0000 -31.6894 0.0000
# 3 18.4725 30.4843 59.3724 0.0000 -28.3310 0.0000
# 4 0.0000 0.0000 0.0000 25.4236 0.0000 -9.3030
# 5 -22.0019 -31.6894 -28.3310 0.0000 32.0835 0.0000
# 6 0.0000 0.0000 0.0000 -9.3030 0.0000 23.0671
#
#
#
# Elastic Compliance Matrix: (Units=1/GPa)
#
#
# Indices 1 2 3 4 5 6 
#
# 1 0.022927 -0.000809 0.000697 0.000000 0.015539 0.000000
# 2 -0.000809 0.008360 -0.000631 0.000000 0.007145 0.000000
# 3 0.000697 -0.000631 0.029173 0.000000 0.025616 0.000000
# 4 0.000000 0.000000 0.000000 0.046143 0.000000 0.018610
# 5 0.015539 0.007145 0.025616 0.000000 0.071502 0.000000
# 6 0.000000 0.000000 0.000000 0.018610 0.000000 0.050857
#
#
# Mechanical properties :
#
#
# Convention : Reuss Voigt Hill
#
# Bulk Modulus (GPa) = 16.95664 46.60778 31.78221
# Shear Modulus (GPa) = 19.99141 29.10863 24.55002
#
# Velocity S-wave (km/s) = 3.11498 3.75876 3.45191
# Velocity P-wave (km/s) = 4.60083 6.43890 5.59585
#
# Compressibility (1/GPa) = 0.05897394
#
# Stress axis : x y z
#
# Youngs Moduli (GPa) = 43.61609 119.61628 34.27802
#
# Poissons Ratio (x) = 0.09678 -0.02389
# Poissons Ratio (y) = 0.03529 0.02164
# Poissons Ratio (z) = -0.03040 0.07550
#
# Static dielectric constant tensor:
#      x y z
#    x 3.754400 0.000000 -0.497730 
#    y 0.000000 3.939750 0.000000 
#    z -0.497730 0.000000 3.928020 
# 
# 
# High freq. dielectric constant tensor:
#      x y z
#    x 1.786240 0.000000 -0.038590 
#    y 0.000000 1.818330 0.000000 
#    z -0.038590 0.000000 1.790370 
# 
# From -- ./inp_files/49146.got.cif
#   From: 2010.06.25/outbox.cif.g09.slc.cpg/sg11_25_cif.got.tgz:49146.got - 2010.06.27 23:14:04.
