data_PCOD8071090
_publ_section_title
;
Structure prediction by ZEFSAII (Michael W. Deem and Ramdas Pophale) SiO2 
 PCOD8071090
Probable space group: P 21/M
;
_chemical_formula_sum "Si O2"
_cell_formula_units_Z 28
_cell_length_a 10.321036
_cell_length_b 10.071446
_cell_length_c 14.840377
_cell_angle_alpha 90.000000
_cell_angle_beta 116.314925
_cell_angle_gamma 90.000000
_cell_volume 1382.763302
_symmetry_space_group_name_H-M "P 21/M"
_symmetry_group_IT_number 11
_symmetry_cell_setting 'monoclinic'
loop_
_space_group_symop_operation_xyz
x,y,z
-x,1/2+y,-z
-x,-y,-z
x,1/2-y,z
loop_
_atom_site_type_symbol
_atom_site_label
_atom_site_fract_x
_atom_site_fract_y
_atom_site_fract_z
Si Si1 0.635932 0.093332 0.526101
Si Si2 0.840529 0.461462 0.922535
Si Si3 0.685670 0.405977 0.342430
Si Si4 0.565659 0.599698 0.856443
Si Si5 0.888463 0.396617 0.739070
Si Si6 0.639290 0.393783 0.013072
Si Si7 0.136973 0.597239 0.766500
O O1 0.592758 0.250000 0.513973
O O2 0.704058 0.048164 0.450992
O O3 0.752188 0.058778 0.637850
O O4 0.500000 0.000000 0.500000
O O5 0.733150 0.589088 0.876904
O O6 0.843316 0.384607 0.829083
O O7 0.770009 0.374681 0.980266
O O8 0.000000 0.500000 0.000000
O O9 0.668621 0.250000 0.334281
O O10 0.537033 0.462892 0.252695
O O11 0.824624 0.446100 0.324576
O O12 0.524261 0.750000 0.865811
O O13 0.540532 0.517994 0.944107
O O14 0.940935 0.250000 0.723942
O O15 0.014260 0.502939 0.766926
O O16 0.558382 0.250000 0.989073
O O17 0.714129 0.422638 0.132338
O O18 0.083706 0.750000 0.755427
#
# Coordination Sequence:
#
# PCOD8071090 Si02
#       7
#     4   4   4   4   4   4   4
#     4  10  22  40  63  86 111 144 181 228 279 325
#     4  10  19  32  52  79 110 146 175 226 274 326
#     4   9  19  39  59  79 111 146 184 227 275 328
#     4   9  19  33  54  78 105 146 187 225 271 326
#     4  11  22  37  57  83 114 145 182 229 279 323
#     4   9  19  33  49  77 112 146 181 223 272 320
#     4  10  21  37  57  80 110 150 187 222 269 331
#
# _framework density 20.249307999999999
#
# number of rings (size 3 to 8) (size 9 to 14) (size 15 to 20)
#    0.857    1.429    1.429    1.286    0.000    5.143 
#    0.000    1.429    0.000    0.000    0.000    0.000 
#    0.000    0.000    0.000    0.000    0.000    0.000 
#
# Total GULP energy -346945.223362 kJ/mol
# GULP energy per Si atom -12390.900834 kJ/mol
# Density = 2.020322 g / cm^3
# Si number density = 20.249308 Si / 1000 Ang^3
#
#
#
# Elastic Constant Matrix: (Units=GPa)
#
#
# Indices 1 2 3 4 5 6 
#
# 1 50.5584 14.5978 21.7846 0.0000 -8.2876 0.0000
# 2 14.5978 91.1290 25.3013 0.0000 8.9823 0.0000
# 3 21.7846 25.3013 118.8235 0.0000 -10.4112 0.0000
# 4 0.0000 0.0000 0.0000 26.6174 0.0000 4.4646
# 5 -8.2876 8.9823 -10.4112 0.0000 38.7133 0.0000
# 6 0.0000 0.0000 0.0000 4.4646 0.0000 22.8795
#
#
#
# Elastic Compliance Matrix: (Units=1/GPa)
#
#
# Indices 1 2 3 4 5 6 
#
# 1 0.022839 -0.003283 -0.003065 0.000000 0.004827 0.000000
# 2 -0.003283 0.012604 -0.002458 0.000000 -0.004288 0.000000
# 3 -0.003065 -0.002458 0.009723 0.000000 0.002529 0.000000
# 4 0.000000 0.000000 0.000000 0.038841 0.000000 -0.007579
# 5 0.004827 -0.004288 0.002529 0.000000 0.028539 0.000000
# 6 0.000000 0.000000 0.000000 -0.007579 0.000000 0.045186
#
#
# Mechanical properties :
#
#
# Convention : Reuss Voigt Hill
#
# Bulk Modulus (GPa) = 36.29253 42.65314 39.47283
# Shear Modulus (GPa) = 27.09600 30.89721 28.99661
#
# Velocity S-wave (km/s) = 3.66200 3.91044 3.78826
# Velocity P-wave (km/s) = 5.98683 6.44193 6.21854
#
# Compressibility (1/GPa) = 0.02755388
#
# Stress axis : x y z
#
# Youngs Moduli (GPa) = 43.78472 79.33714 102.85216
#
# Poissons Ratio (x) = 0.26049 0.31526
# Poissons Ratio (y) = 0.14376 0.25278
# Poissons Ratio (z) = 0.13421 0.19499
#
# Static dielectric constant tensor:
#      x y z
#    x 3.671760 0.000000 -0.311730 
#    y 0.000000 3.463690 0.000000 
#    z -0.311730 0.000000 4.191350 
# 
# 
# High freq. dielectric constant tensor:
#      x y z
#    x 1.797500 0.000000 -0.017570 
#    y 0.000000 1.771210 0.000000 
#    z -0.017570 0.000000 1.800150 
# 
# From -- ./inp_files/21186.got.cif
#   From: 2010.06.25/outbox.cif.g09.slc.cpg/sg11_11_cif.got.tgz:21186.got - 2010.06.27 23:14:04.
