data_PCOD8071800
_publ_section_title
;
Structure prediction by ZEFSAII (Michael W. Deem and Ramdas Pophale) SiO2 
 PCOD8071800
Probable space group: P 21/M
;
_chemical_formula_sum "Si O2"
_cell_formula_units_Z 32
_cell_length_a 29.592455
_cell_length_b 9.152126
_cell_length_c 21.513277
_cell_angle_alpha 90.000000
_cell_angle_beta 19.259590
_cell_angle_gamma 90.000000
_cell_volume 1921.871201
_symmetry_space_group_name_H-M "P 21/M"
_symmetry_group_IT_number 11
_symmetry_cell_setting 'monoclinic'
loop_
_space_group_symop_operation_xyz
x,y,z
-x,1/2+y,-z
-x,-y,-z
x,1/2-y,z
loop_
_atom_site_type_symbol
_atom_site_label
_atom_site_fract_x
_atom_site_fract_y
_atom_site_fract_z
Si Si1 0.577932 0.581851 0.208299
Si Si2 0.430501 0.414321 0.500774
Si Si3 0.421629 0.919857 0.156580
Si Si4 0.875224 0.422459 0.489639
Si Si5 0.848592 0.578080 0.930187
Si Si6 0.872918 0.076514 0.633748
Si Si7 0.386590 0.081439 0.979746
Si Si8 0.707936 0.414741 0.218281
O O1 0.547573 0.750000 0.263102
O O2 0.462644 0.487633 0.392815
O O3 0.730731 0.541106 0.032988
O O4 0.563219 0.547627 0.154784
O O5 0.378347 0.250000 0.557250
O O6 0.566223 0.415751 0.365628
O O7 0.311424 0.503425 0.690801
O O8 0.427608 0.750000 0.131812
O O9 0.263525 0.972640 0.365110
O O10 0.488094 0.953399 0.136872
O O11 0.500000 0.000000 0.000000
O O12 0.890947 0.250000 0.470024
O O13 0.867446 0.479626 0.570140
O O14 0.008798 0.486391 0.281657
O O15 0.855664 0.750000 0.934365
O O16 0.821973 0.498283 0.029995
O O17 0.887334 0.250000 0.620179
O O18 0.736703 0.026196 0.845267
O O19 0.000000 0.000000 0.500000
O O20 0.338112 0.250000 0.048765
O O21 0.757557 0.250000 0.166694
#
# Coordination Sequence:
#
# PCOD8071800 Si02
#       8
#     4   4   4   4   4   4   4   4
#     4   9  17  29  44  65  95 127 156 191 236 282
#     4   9  16  26  42  65  92 124 158 186 221 275
#     4  10  19  34  53  71  92 121 163 208 247 288
#     4   9  18  32  49  68  92 125 160 198 243 286
#     4   9  16  28  45  63  90 125 158 189 228 283
#     4  11  21  33  49  69  96 127 160 196 240 293
#     4  10  20  33  50  71  95 125 162 202 244 289
#     4   9  16  26  41  64  94 123 152 186 227 274
#
# _framework density 16.650438999999999
#
# number of rings (size 3 to 8) (size 9 to 14) (size 15 to 20)
#    0.000    2.500    1.250    1.875    0.000    5.500 
#    0.000    4.375    0.000    0.000    0.000    0.875 
#    0.000    0.000    0.000    0.000    0.000    0.000 
#
# Total GULP energy -396790.594788 kJ/mol
# GULP energy per Si atom -12399.706087 kJ/mol
# Density = 1.661254 g / cm^3
# Si number density = 16.650439 Si / 1000 Ang^3
#
#
#
# Elastic Constant Matrix: (Units=GPa)
#
#
# Indices 1 2 3 4 5 6 
#
# 1 103.4378 48.0019 73.8629 0.0000 9.3754 0.0000
# 2 48.0019 76.9413 44.1249 0.0000 12.7295 0.0000
# 3 73.8629 44.1249 83.5799 0.0000 20.7171 0.0000
# 4 0.0000 0.0000 0.0000 27.1808 0.0000 7.5440
# 5 9.3754 12.7295 20.7171 0.0000 29.6055 0.0000
# 6 0.0000 0.0000 0.0000 7.5440 0.0000 20.1076
#
#
#
# Elastic Compliance Matrix: (Units=1/GPa)
#
#
# Indices 1 2 3 4 5 6 
#
# 1 0.030159 -0.005445 -0.026607 0.000000 0.011409 0.000000
# 2 -0.005445 0.019669 -0.004723 0.000000 -0.003428 0.000000
# 3 -0.026607 -0.004723 0.042804 0.000000 -0.019496 0.000000
# 4 0.000000 0.000000 0.000000 0.041067 0.000000 -0.015408
# 5 0.011409 -0.003428 -0.019496 0.000000 0.045282 0.000000
# 6 0.000000 0.000000 0.000000 -0.015408 0.000000 0.055513
#
#
# Mechanical properties :
#
#
# Convention : Reuss Voigt Hill
#
# Bulk Modulus (GPa) = 52.39815 66.21538 59.30676
# Shear Modulus (GPa) = 15.90312 21.91009 18.90660
#
# Velocity S-wave (km/s) = 3.09385 3.63145 3.37338
# Velocity P-wave (km/s) = 6.65585 7.57875 7.13225
#
# Compressibility (1/GPa) = 0.01908464
#
# Stress axis : x y z
#
# Youngs Moduli (GPa) = 33.15706 50.84054 23.36246
#
# Poissons Ratio (x) = 0.27682 0.62159
# Poissons Ratio (y) = 0.18053 0.11033
# Poissons Ratio (z) = 0.88219 0.24010
#
# Static dielectric constant tensor:
#      x y z
#    x 3.029480 0.000000 0.427740 
#    y 0.000000 3.129340 0.000000 
#    z 0.427740 0.000000 0.334690 
# 
# 
# High freq. dielectric constant tensor:
#      x y z
#    x 1.619790 0.000000 0.020990 
#    y 0.000000 1.636660 0.000000 
#    z 0.020990 0.000000 1.633260 
# 
# From -- ./inp_files/42424.got.cif
#   From: 2010.06.25/outbox.cif.g09.slc.cpg/sg11_22_cif.got.tgz:42424.got - 2010.06.27 23:14:04.
