data_PCOD8071595
_publ_section_title
;
Structure prediction by ZEFSAII (Michael W. Deem and Ramdas Pophale) SiO2 
 PCOD8071595
Probable space group: P 21/M
;
_chemical_formula_sum "Si O2"
_cell_formula_units_Z 32
_cell_length_a 11.481716
_cell_length_b 8.643160
_cell_length_c 31.952879
_cell_angle_alpha 90.000000
_cell_angle_beta 148.686744
_cell_angle_gamma 90.000000
_cell_volume 1647.995768
_symmetry_space_group_name_H-M "P 21/M"
_symmetry_group_IT_number 11
_symmetry_cell_setting 'monoclinic'
loop_
_space_group_symop_operation_xyz
x,y,z
-x,1/2+y,-z
-x,-y,-z
x,1/2-y,z
loop_
_atom_site_type_symbol
_atom_site_label
_atom_site_fract_x
_atom_site_fract_y
_atom_site_fract_z
Si Si1 0.642212 0.429201 0.889270
Si Si2 0.603405 0.932185 0.426011
Si Si3 0.874358 0.568115 0.815746
Si Si4 0.366183 0.932831 0.652129
Si Si5 0.099614 0.931494 0.263821
Si Si6 0.962056 0.570225 0.051371
Si Si7 0.165663 0.931305 0.742928
Si Si8 0.000546 0.066507 0.396329
O O1 0.572745 0.250000 0.869092
O O2 0.426669 0.535576 0.816429
O O3 0.806326 0.467733 0.901164
O O4 0.761406 0.472657 0.969393
O O5 0.619656 0.750000 0.426559
O O6 0.347401 0.985578 0.354982
O O7 0.757738 0.989525 0.512110
O O8 0.703786 0.002311 0.414433
O O9 0.900800 0.750000 0.830592
O O10 0.616828 0.512956 0.740681
O O11 0.968639 0.520940 0.799311
O O12 0.018762 0.479328 0.894672
O O13 0.352977 0.750000 0.645503
O O14 0.196959 0.000954 0.634831
O O15 0.093330 0.750000 0.252751
O O16 0.921785 0.973883 0.244442
O O17 0.901354 0.750000 0.029217
O O18 0.127574 0.750000 0.738684
O O19 0.031786 0.992458 0.660932
O O20 0.981002 0.250000 0.390789
#
# Coordination Sequence:
#
# PCOD8071595 Si02
#       8
#     4   4   4   4   4   4   4   4
#     4  10  21  37  57  83 115 145 173 211 260 313
#     4   9  18  33  52  74 103 139 177 219 267 316
#     4  10  19  33  55  81 108 142 182 219 262 316
#     4   9  17  30  50  77 108 138 171 215 265 317
#     4  10  21  37  54  74 104 141 182 228 272 314
#     4  10  20  35  58  87 115 142 173 210 257 313
#     4  11  22  37  56  76 103 141 183 224 268 318
#     4   9  18  32  51  76 105 138 175 218 269 320
#
# _framework density 19.417525999999999
#
# number of rings (size 3 to 8) (size 9 to 14) (size 15 to 20)
#    0.000    2.250    0.000    3.000    0.000    4.000 
#    0.000    3.125    0.000    0.000    0.000    0.000 
#    0.000    0.000    0.000    0.000    0.000    0.000 
#
# Total GULP energy -396883.458341 kJ/mol
# GULP energy per Si atom -12402.608073 kJ/mol
# Density = 1.937333 g / cm^3
# Si number density = 19.417526 Si / 1000 Ang^3
#
#
#
# Elastic Constant Matrix: (Units=GPa)
#
#
# Indices 1 2 3 4 5 6 
#
# 1 71.3382 11.9828 30.7534 0.0000 -16.0381 0.0000
# 2 11.9828 34.2027 13.0712 0.0000 -2.7426 0.0000
# 3 30.7534 13.0712 98.6283 0.0000 -25.3688 0.0000
# 4 0.0000 0.0000 0.0000 26.9794 0.0000 -3.1865
# 5 -16.0381 -2.7426 -25.3688 0.0000 26.3384 0.0000
# 6 0.0000 0.0000 0.0000 -3.1865 0.0000 27.8345
#
#
#
# Elastic Compliance Matrix: (Units=1/GPa)
#
#
# Indices 1 2 3 4 5 6 
#
# 1 0.017742 -0.004462 -0.003033 0.000000 0.007418 0.000000
# 2 -0.004462 0.031938 -0.003569 0.000000 -0.002829 0.000000
# 3 -0.003033 -0.003569 0.014606 0.000000 0.011850 0.000000
# 4 0.000000 0.000000 0.000000 0.037573 0.000000 0.004301
# 5 0.007418 -0.002829 0.011850 0.000000 0.053603 0.000000
# 6 0.000000 0.000000 0.000000 0.004301 0.000000 0.036419
#
#
# Mechanical properties :
#
#
# Convention : Reuss Voigt Hill
#
# Bulk Modulus (GPa) = 23.72045 35.08709 29.40377
# Shear Modulus (GPa) = 21.92387 26.12127 24.02257
#
# Velocity S-wave (km/s) = 3.36382 3.67173 3.52114
# Velocity P-wave (km/s) = 5.22777 6.00704 5.63090
#
# Compressibility (1/GPa) = 0.04215772
#
# Stress axis : x y z
#
# Youngs Moduli (GPa) = 56.36227 31.31079 68.46658
#
# Poissons Ratio (x) = 0.13971 0.20765
# Poissons Ratio (y) = 0.25149 0.24436
# Poissons Ratio (z) = 0.17094 0.11175
#
# Static dielectric constant tensor:
#      x y z
#    x 3.459480 0.000000 -0.085750 
#    y 0.000000 3.356210 0.000000 
#    z -0.085750 0.000000 3.704540 
# 
# 
# High freq. dielectric constant tensor:
#      x y z
#    x 1.744610 0.000000 -0.009160 
#    y 0.000000 1.747290 0.000000 
#    z -0.009160 0.000000 1.760070 
# 
# From -- ./inp_files/73193.got.cif
#   From: 2010.06.25/outbox.cif.g09.slc.cpg/sg11_37_cif.got.tgz:73193.got - 2010.06.27 23:14:04.
