data_PCOD8071706
_publ_section_title
;
Structure prediction by ZEFSAII (Michael W. Deem and Ramdas Pophale) SiO2 
 PCOD8071706
Probable space group: P 21/M
;
_chemical_formula_sum "Si O2"
_cell_formula_units_Z 32
_cell_length_a 20.766126
_cell_length_b 8.963235
_cell_length_c 26.663269
_cell_angle_alpha 90.000000
_cell_angle_beta 160.284906
_cell_angle_gamma 90.000000
_cell_volume 1674.193724
_symmetry_space_group_name_H-M "P 21/M"
_symmetry_group_IT_number 11
_symmetry_cell_setting 'monoclinic'
loop_
_space_group_symop_operation_xyz
x,y,z
-x,1/2+y,-z
-x,-y,-z
x,1/2-y,z
loop_
_atom_site_type_symbol
_atom_site_label
_atom_site_fract_x
_atom_site_fract_y
_atom_site_fract_z
Si Si1 0.130646 0.921217 0.839827
Si Si2 0.850156 0.926145 0.042011
Si Si3 0.209511 0.424062 0.268619
Si Si4 0.479084 0.075051 0.931294
Si Si5 0.256950 0.422990 0.496244
Si Si6 0.205700 0.927841 0.654331
Si Si7 0.471881 0.075885 0.554491
Si Si8 0.423376 0.574187 0.714149
O O1 0.113559 0.750000 0.845738
O O2 0.962463 0.957793 0.677535
O O3 0.106955 0.027181 0.869824
O O4 0.328941 0.954574 0.958615
O O5 0.866416 0.750000 0.049865
O O6 0.640910 0.984357 0.872560
O O7 0.002612 0.999152 0.116149
O O8 0.181045 0.250000 0.240087
O O9 0.334161 0.486180 0.313887
O O10 0.312002 0.464030 0.396105
O O11 0.435440 0.250000 0.905010
O O12 0.305000 0.994092 0.776249
O O13 0.500000 0.000000 0.000000
O O14 0.288487 0.250000 0.530424
O O15 0.392741 0.474868 0.550231
O O16 0.306073 0.512180 0.581784
O O17 0.190697 0.750000 0.648016
O O18 0.325762 0.979387 0.693940
O O19 0.000000 0.000000 0.500000
O O20 0.519508 0.250000 0.587533
O O21 0.418872 0.750000 0.707525
#
# Coordination Sequence:
#
# PCOD8071706 Si02
#       8
#     4   4   4   4   4   4   4   4
#     4  10  21  39  61  88 118 151 197 247 294 348
#     4  11  21  37  60  86 116 155 197 243 294 344
#     4  10  19  33  56  85 118 152 193 242 291 350
#     4  11  24  41  64  93 125 160 199 249 302 357
#     4  10  21  38  60  87 119 154 194 244 295 349
#     4  11  24  44  64  88 122 161 204 249 301 361
#     4   9  18  34  54  83 119 150 188 241 294 348
#     4  10  24  42  59  85 120 155 196 244 292 352
#
# _framework density 19.113678
#
# number of rings (size 3 to 8) (size 9 to 14) (size 15 to 20)
#    0.000    1.750    2.500    1.500    1.750    4.000 
#    0.000    0.625    0.000    0.000    0.000    0.000 
#    0.000    0.000    0.000    0.000    0.000    0.000 
#
# Total GULP energy -396942.522698 kJ/mol
# GULP energy per Si atom -12404.453834 kJ/mol
# Density = 1.907017 g / cm^3
# Si number density = 19.113678 Si / 1000 Ang^3
#
#
#
# Elastic Constant Matrix: (Units=GPa)
#
#
# Indices 1 2 3 4 5 6 
#
# 1 74.8416 38.3749 50.8628 0.0000 -1.5495 0.0000
# 2 38.3749 62.1108 48.1741 0.0000 13.8066 0.0000
# 3 50.8628 48.1741 140.4512 0.0000 12.8709 0.0000
# 4 0.0000 0.0000 0.0000 34.0483 0.0000 -1.3990
# 5 -1.5495 13.8066 12.8709 0.0000 33.7050 0.0000
# 6 0.0000 0.0000 0.0000 -1.3990 0.0000 31.6988
#
#
#
# Elastic Compliance Matrix: (Units=1/GPa)
#
#
# Indices 1 2 3 4 5 6 
#
# 1 0.023151 -0.012269 -0.004905 0.000000 0.007963 0.000000
# 2 -0.012269 0.029826 -0.004783 0.000000 -0.010955 0.000000
# 3 -0.004905 -0.004783 0.010754 0.000000 -0.002373 0.000000
# 4 0.000000 0.000000 0.000000 0.029423 0.000000 0.001299
# 5 0.007963 -0.010955 -0.002373 0.000000 0.035429 0.000000
# 6 0.000000 0.000000 0.000000 0.001299 0.000000 0.031604
#
#
# Mechanical properties :
#
#
# Convention : Reuss Voigt Hill
#
# Bulk Modulus (GPa) = 50.46451 61.35856 55.91154
# Shear Modulus (GPa) = 23.72943 29.22321 26.47632
#
# Velocity S-wave (km/s) = 3.52730 3.91438 3.72587
# Velocity P-wave (km/s) = 6.56115 7.25268 6.91557
#
# Compressibility (1/GPa) = 0.01981590
#
# Stress axis : x y z
#
# Youngs Moduli (GPa) = 43.19423 33.52802 92.98583
#
# Poissons Ratio (x) = 0.41137 0.45613
# Poissons Ratio (y) = 0.52997 0.44475
# Poissons Ratio (z) = 0.21188 0.16036
#
# Static dielectric constant tensor:
#      x y z
#    x 3.584390 0.000000 0.253710 
#    y 0.000000 3.586650 0.000000 
#    z 0.253710 0.000000 3.646110 
# 
# 
# High freq. dielectric constant tensor:
#      x y z
#    x 1.743210 0.000000 0.014650 
#    y 0.000000 1.745010 0.000000 
#    z 0.014650 0.000000 1.748410 
# 
# From -- ./inp_files/72227.got.cif
#   From: 2010.06.25/outbox.cif.g09.slc.cpg/sg11_37_cif.got.tgz:72227.got - 2010.06.27 23:14:04.
