data_PCOD8071999
_publ_section_title
;
Structure prediction by ZEFSAII (Michael W. Deem and Ramdas Pophale) SiO2 
 PCOD8071999
Probable space group: P 21/M
;
_chemical_formula_sum "Si O2"
_cell_formula_units_Z 32
_cell_length_a 21.468404
_cell_length_b 13.073977
_cell_length_c 14.539896
_cell_angle_alpha 90.000000
_cell_angle_beta 157.527907
_cell_angle_gamma 90.000000
_cell_volume 1559.902315
_symmetry_space_group_name_H-M "P 21/M"
_symmetry_group_IT_number 11
_symmetry_cell_setting 'monoclinic'
loop_
_space_group_symop_operation_xyz
x,y,z
-x,1/2+y,-z
-x,-y,-z
x,1/2-y,z
loop_
_atom_site_type_symbol
_atom_site_label
_atom_site_fract_x
_atom_site_fract_y
_atom_site_fract_z
Si Si1 0.574992 0.628599 0.458091
Si Si2 0.788498 0.632462 0.100140
Si Si3 0.278661 0.982521 0.567804
Si Si4 0.381355 0.958264 0.030957
Si Si5 0.108980 0.129346 0.219183
Si Si6 0.472836 0.130792 0.403975
Si Si7 0.760872 0.370440 0.671504
Si Si8 0.159596 0.867853 0.581595
O O1 0.586826 0.750000 0.481162
O O2 0.750699 0.588850 0.660238
O O3 0.534999 0.581309 0.504423
O O4 0.429814 0.597082 0.192097
O O5 0.775073 0.750000 0.113933
O O6 0.704035 0.566498 0.064647
O O7 0.973836 0.597325 0.341030
O O8 0.700373 0.615522 0.881940
O O9 0.262160 0.897369 0.466139
O O10 0.240524 0.936221 0.613932
O O11 0.150664 0.074793 0.372911
O O12 0.462402 0.025018 0.820736
O O13 0.255424 0.884810 0.807124
O O14 0.115905 0.250000 0.243623
O O15 0.935746 0.091210 0.945789
O O16 0.514167 0.250000 0.471677
O O17 0.615198 0.079672 0.534591
O O18 0.749770 0.250000 0.664700
O O19 0.168915 0.750000 0.564817
#
# Coordination Sequence:
#
# PCOD8071999 Si02
#       8
#     4   4   4   4   4   4   4   4
#     4   9  19  35  58  86 120 156 194 240 293 347
#     4  10  22  40  60  86 119 151 192 245 291 346
#     4  11  22  38  59  88 117 155 198 244 292 347
#     4  11  22  41  61  86 117 156 199 242 293 349
#     4   9  20  36  55  83 122 161 193 237 293 349
#     4   9  18  34  56  85 116 150 190 235 290 349
#     4  10  19  34  56  85 123 156 192 239 291 351
#     4  11  25  42  63  87 115 153 201 248 292 343
#
# _framework density 20.514105000000001
#
# number of rings (size 3 to 8) (size 9 to 14) (size 15 to 20)
#    0.000    2.000    1.250    1.875    1.750    2.500 
#    0.000    0.625    0.000    0.750    0.000    0.000 
#    0.000    0.000    0.000    0.000    0.000    0.000 
#
# Total GULP energy -396926.969036 kJ/mol
# GULP energy per Si atom -12403.967782 kJ/mol
# Density = 2.046741 g / cm^3
# Si number density = 20.514105 Si / 1000 Ang^3
#
#
#
# Elastic Constant Matrix: (Units=GPa)
#
#
# Indices 1 2 3 4 5 6 
#
# 1 67.4287 14.2434 48.6805 0.0000 -9.2832 0.0000
# 2 14.2434 12.1491 20.6861 0.0000 0.7556 0.0000
# 3 48.6805 20.6861 154.5176 0.0000 -2.3843 0.0000
# 4 0.0000 0.0000 0.0000 30.9337 0.0000 -0.0794
# 5 -9.2832 0.7556 -2.3843 0.0000 22.4112 0.0000
# 6 0.0000 0.0000 0.0000 -0.0794 0.0000 33.5929
#
#
#
# Elastic Compliance Matrix: (Units=1/GPa)
#
#
# Indices 1 2 3 4 5 6 
#
# 1 0.023957 -0.020895 -0.004594 0.000000 0.010139 0.000000
# 2 -0.020895 0.125428 -0.010425 0.000000 -0.013993 0.000000
# 3 -0.004594 -0.010425 0.009306 0.000000 -0.000561 0.000000
# 4 0.000000 0.000000 0.000000 0.032327 0.000000 0.000076
# 5 0.010139 -0.013993 -0.000561 0.000000 0.049233 0.000000
# 6 0.000000 0.000000 0.000000 0.000076 0.000000 0.029768
#
#
# Mechanical properties :
#
#
# Convention : Reuss Voigt Hill
#
# Bulk Modulus (GPa) = 11.51237 44.59059 28.05148
# Shear Modulus (GPa) = 13.48436 27.41993 20.45214
#
# Velocity S-wave (km/s) = 2.56661 3.65997 3.16092
# Velocity P-wave (km/s) = 3.79571 6.29637 5.19864
#
# Compressibility (1/GPa) = 0.08686311
#
# Stress axis : x y z
#
# Youngs Moduli (GPa) = 41.74209 7.97273 107.45855
#
# Poissons Ratio (x) = 0.16659 0.49363
# Poissons Ratio (y) = 0.87221 1.12021
# Poissons Ratio (z) = 0.19175 0.08311
#
# Static dielectric constant tensor:
#      x y z
#    x 3.617260 0.000000 0.150460 
#    y 0.000000 3.808800 0.000000 
#    z 0.150460 0.000000 3.894370 
# 
# 
# High freq. dielectric constant tensor:
#      x y z
#    x 1.784980 0.000000 0.005780 
#    y 0.000000 1.823980 0.000000 
#    z 0.005780 0.000000 1.809130 
# 
# From -- ./inp_files/22180.got.cif
#   From: 2010.06.25/outbox.cif.g09.slc.cpg/sg11_12_cif.got.tgz:22180.got - 2010.06.27 23:14:04.
