data_PCOD8071438
_publ_section_title
;
Structure prediction by ZEFSAII (Michael W. Deem and Ramdas Pophale) SiO2 
 PCOD8071438
Probable space group: P 21/M
;
_chemical_formula_sum "Si O2"
_cell_formula_units_Z 28
_cell_length_a 15.100578
_cell_length_b 8.971061
_cell_length_c 11.079866
_cell_angle_alpha 90.000000
_cell_angle_beta 114.331917
_cell_angle_gamma 90.000000
_cell_volume 1367.644298
_symmetry_space_group_name_H-M "P 21/M"
_symmetry_group_IT_number 11
_symmetry_cell_setting 'monoclinic'
loop_
_space_group_symop_operation_xyz
x,y,z
-x,1/2+y,-z
-x,-y,-z
x,1/2-y,z
loop_
_atom_site_type_symbol
_atom_site_label
_atom_site_fract_x
_atom_site_fract_y
_atom_site_fract_z
Si Si1 0.246663 0.080282 0.805529
Si Si2 0.644735 0.919674 0.908509
Si Si3 0.742073 0.574947 0.727503
Si Si4 0.050962 0.926560 0.645925
Si Si5 0.040006 0.427650 0.145941
Si Si6 0.579173 0.576290 0.465377
Si Si7 0.548858 0.925648 0.180962
O O1 0.226926 0.250000 0.749539
O O2 0.353210 0.021685 0.828626
O O3 0.163634 0.974278 0.706523
O O4 0.256301 0.071672 0.955978
O O5 0.610938 0.750000 0.873485
O O6 0.676954 0.994418 0.799854
O O7 0.551812 0.999552 0.919907
O O8 0.749455 0.750000 0.756464
O O9 0.850218 0.510712 0.781748
O O10 0.687996 0.537151 0.572180
O O11 0.040734 0.750000 0.626062
O O12 0.009922 0.978528 0.754816
O O13 0.000000 0.000000 0.500000
O O14 0.032060 0.250000 0.128807
O O15 0.000000 0.500000 0.000000
O O16 0.500000 0.500000 0.500000
O O17 0.560719 0.750000 0.463266
O O18 0.566354 0.516249 0.325243
O O19 0.535919 0.750000 0.160309
#
# Coordination Sequence:
#
# PCOD8071438 Si02
#       7
#     4   4   4   4   4   4   4
#     4  10  22  39  60  83 113 155 199 241 295 356
#     4  10  19  34  57  84 114 151 188 232 289 353
#     4   9  18  33  56  81 109 147 187 228 287 355
#     4  11  25  43  65  92 123 162 206 257 311 363
#     4  10  22  41  66  92 120 157 202 253 307 365
#     4  10  19  33  53  77 109 147 187 232 282 342
#     4  10  21  34  54  83 114 151 190 235 288 345
#
# _framework density 20.473158999999999
#
# number of rings (size 3 to 8) (size 9 to 14) (size 15 to 20)
#    0.000    2.000    1.429    1.714    2.000    3.429 
#    0.000    1.429    0.000    0.000    0.000    0.000 
#    0.000    0.000    0.000    0.000    0.000    0.000 
#
# Total GULP energy -346950.014437 kJ/mol
# GULP energy per Si atom -12391.071944 kJ/mol
# Density = 2.042656 g / cm^3
# Si number density = 20.473159 Si / 1000 Ang^3
#
#
#
# Elastic Constant Matrix: (Units=GPa)
#
#
# Indices 1 2 3 4 5 6 
#
# 1 110.3838 33.6489 50.0280 0.0000 15.6427 0.0000
# 2 33.6489 44.3556 36.2580 0.0000 4.1739 0.0000
# 3 50.0280 36.2580 119.2839 0.0000 12.3932 0.0000
# 4 0.0000 0.0000 0.0000 28.8189 0.0000 2.7051
# 5 15.6427 4.1739 12.3932 0.0000 38.6484 0.0000
# 6 0.0000 0.0000 0.0000 2.7051 0.0000 29.2080
#
#
#
# Elastic Compliance Matrix: (Units=1/GPa)
#
#
# Indices 1 2 3 4 5 6 
#
# 1 0.013089 -0.007197 -0.002930 0.000000 -0.003581 0.000000
# 2 -0.007197 0.033961 -0.007475 0.000000 0.001642 0.000000
# 3 -0.002930 -0.007475 0.012079 0.000000 -0.001881 0.000000
# 4 0.000000 0.000000 0.000000 0.035004 0.000000 -0.003242
# 5 -0.003581 0.001642 -0.001881 0.000000 0.027749 0.000000
# 6 0.000000 0.000000 0.000000 -0.003242 0.000000 0.034537
#
#
# Mechanical properties :
#
#
# Convention : Reuss Voigt Hill
#
# Bulk Modulus (GPa) = 41.79716 57.09924 49.44820
# Shear Modulus (GPa) = 25.05032 29.60762 27.32897
#
# Velocity S-wave (km/s) = 3.50175 3.80698 3.65755
# Velocity P-wave (km/s) = 6.06709 6.87564 6.48398
#
# Compressibility (1/GPa) = 0.02392507
#
# Stress axis : x y z
#
# Youngs Moduli (GPa) = 76.40285 29.44563 82.78491
#
# Poissons Ratio (x) = 0.21193 0.24252
# Poissons Ratio (y) = 0.54991 0.61881
# Poissons Ratio (z) = 0.22383 0.22010
#
# Static dielectric constant tensor:
#      x y z
#    x 3.854140 0.000000 -0.220760 
#    y 0.000000 3.383140 0.000000 
#    z -0.220760 0.000000 3.356360 
# 
# 
# High freq. dielectric constant tensor:
#      x y z
#    x 1.805810 0.000000 -0.000820 
#    y 0.000000 1.765690 0.000000 
#    z -0.000820 0.000000 1.823580 
# 
# From -- ./inp_files/38393.got.cif
#   From: 2010.06.25/outbox.cif.g09.slc.cpg/sg11_20_cif.got.tgz:38393.got - 2010.06.27 23:14:04.
