data_PCOD8071945
_publ_section_title
;
Structure prediction by ZEFSAII (Michael W. Deem and Ramdas Pophale) SiO2 
 PCOD8071945
Probable space group: P 21/M
;
_chemical_formula_sum "Si O2"
_cell_formula_units_Z 28
_cell_length_a 21.249205
_cell_length_b 8.975314
_cell_length_c 16.521481
_cell_angle_alpha 90.000000
_cell_angle_beta 153.934608
_cell_angle_gamma 90.000000
_cell_volume 1384.516271
_symmetry_space_group_name_H-M "P 21/M"
_symmetry_group_IT_number 11
_symmetry_cell_setting 'monoclinic'
loop_
_space_group_symop_operation_xyz
x,y,z
-x,1/2+y,-z
-x,-y,-z
x,1/2-y,z
loop_
_atom_site_type_symbol
_atom_site_label
_atom_site_fract_x
_atom_site_fract_y
_atom_site_fract_z
Si Si1 0.591671 0.578046 0.497820
Si Si2 0.410389 0.089552 0.832521
Si Si3 0.954669 0.572758 0.165763
Si Si4 0.734622 0.573575 0.492867
Si Si5 0.119013 0.924969 0.755449
Si Si6 0.159613 0.411607 0.660270
Si Si7 0.714022 0.077198 0.791988
O O1 0.624188 0.750000 0.557440
O O2 0.653005 0.535692 0.481219
O O3 0.420157 0.550073 0.302173
O O4 0.669685 0.470400 0.650834
O O5 0.485078 0.250000 0.903860
O O6 0.372577 0.014590 0.701995
O O7 0.260498 0.111900 0.701678
O O8 0.500000 0.000000 0.000000
O O9 0.963886 0.750000 0.180106
O O10 0.875441 0.508789 0.153515
O O11 0.112969 0.508155 0.335249
O O12 0.851486 0.521405 0.973979
O O13 0.762040 0.750000 0.513815
O O14 0.136183 0.750000 0.790985
O O15 0.977685 0.979816 0.544592
O O16 0.230420 0.986484 0.815239
O O17 0.122049 0.250000 0.654711
O O18 0.759059 0.250000 0.843619
#
# Coordination Sequence:
#
# PCOD8071945 Si02
#       7
#     4   4   4   4   4   4   4
#     4   9  20  40  66  91 117 153 199 245 295 356
#     4  10  21  37  56  81 115 153 194 242 294 350
#     4  12  24  37  58  90 124 156 200 248 296 351
#     4  10  21  41  63  85 118 157 198 247 301 355
#     4  10  19  34  56  79 108 146 188 234 289 341
#     4   9  18  34  53  77 109 144 188 236 285 338
#     4  10  21  39  63  91 123 158 195 239 298 358
#
# _framework density 20.223671
#
# number of rings (size 3 to 8) (size 9 to 14) (size 15 to 20)
#    0.000    2.000    1.429    2.143    0.000    4.571 
#    0.000    1.429    0.000    0.000    0.000    0.000 
#    0.000    0.000    0.000    0.000    0.000    0.000 
#
# Total GULP energy -346906.099634 kJ/mol
# GULP energy per Si atom -12389.503558 kJ/mol
# Density = 2.017764 g / cm^3
# Si number density = 20.223671 Si / 1000 Ang^3
#
#
#
# Elastic Constant Matrix: (Units=GPa)
#
#
# Indices 1 2 3 4 5 6 
#
# 1 102.3069 38.0378 31.8678 0.0000 -27.4813 0.0000
# 2 38.0378 106.0484 48.2810 0.0000 -11.7804 0.0000
# 3 31.8678 48.2810 107.9192 0.0000 -17.5763 0.0000
# 4 0.0000 0.0000 0.0000 34.2374 0.0000 -4.7920
# 5 -27.4813 -11.7804 -17.5763 0.0000 14.8479 0.0000
# 6 0.0000 0.0000 0.0000 -4.7920 0.0000 30.5089
#
#
#
# Elastic Compliance Matrix: (Units=1/GPa)
#
#
# Indices 1 2 3 4 5 6 
#
# 1 0.020761 -0.004118 0.001781 0.000000 0.037268 0.000000
# 2 -0.004118 0.012841 -0.005093 0.000000 -0.003462 0.000000
# 3 0.001781 -0.005093 0.013500 0.000000 0.015237 0.000000
# 4 0.000000 0.000000 0.000000 0.029864 0.000000 0.004691
# 5 0.037268 -0.003462 0.015237 0.000000 0.151618 0.000000
# 6 0.000000 0.000000 0.000000 0.004691 0.000000 0.033514
#
#
# Mechanical properties :
#
#
# Convention : Reuss Voigt Hill
#
# Bulk Modulus (GPa) = 31.01363 61.40529 46.20946
# Shear Modulus (GPa) = 17.37894 29.12470 23.25182
#
# Velocity S-wave (km/s) = 2.93462 3.79902 3.39445
# Velocity P-wave (km/s) = 5.18182 7.04787 6.18562
#
# Compressibility (1/GPa) = 0.03224389
#
# Stress axis : x y z
#
# Youngs Moduli (GPa) = 48.16609 77.87823 74.07333
#
# Poissons Ratio (x) = 0.32069 -0.13194
# Poissons Ratio (y) = 0.19834 0.37722
# Poissons Ratio (z) = -0.08579 0.39660
#
# Static dielectric constant tensor:
#      x y z
#    x 0.340900 0.000000 -1.574060 
#    y 0.000000 4.073810 0.000000 
#    z -1.574060 0.000000 2.946780 
# 
# 
# High freq. dielectric constant tensor:
#      x y z
#    x 1.797590 0.000000 -0.009770 
#    y 0.000000 1.787280 0.000000 
#    z -0.009770 0.000000 1.781930 
# 
# From -- ./inp_files/54612.got.cif
#   From: 2010.06.25/outbox.cif.g09.slc.cpg/sg11_28_cif.got.tgz:54612.got - 2010.06.27 23:14:04.
