data_PCOD8071126
_publ_section_title
;
Structure prediction by ZEFSAII (Michael W. Deem and Ramdas Pophale) SiO2 
 PCOD8071126
Probable space group: P 21/M
;
_chemical_formula_sum "Si O2"
_cell_formula_units_Z 32
_cell_length_a 23.002565
_cell_length_b 9.195291
_cell_length_c 12.511972
_cell_angle_alpha 90.000000
_cell_angle_beta 135.652030
_cell_angle_gamma 90.000000
_cell_volume 1849.922494
_symmetry_space_group_name_H-M "P 21/M"
_symmetry_group_IT_number 11
_symmetry_cell_setting 'monoclinic'
loop_
_space_group_symop_operation_xyz
x,y,z
-x,1/2+y,-z
-x,-y,-z
x,1/2-y,z
loop_
_atom_site_type_symbol
_atom_site_label
_atom_site_fract_x
_atom_site_fract_y
_atom_site_fract_z
Si Si1 0.785476 0.416972 0.046988
Si Si2 0.010153 0.916908 0.206101
Si Si3 0.173366 0.080158 0.105112
Si Si4 0.503722 0.081107 0.116106
Si Si5 0.313861 0.582680 0.671304
Si Si6 0.816960 0.079636 0.668899
Si Si7 0.650876 0.422179 0.044987
Si Si8 0.028271 0.917294 0.640806
O O1 0.773236 0.250000 0.996419
O O2 0.717243 0.466492 0.043063
O O3 0.873742 0.440693 0.218620
O O4 0.777240 0.515699 0.931173
O O5 0.010976 0.750000 0.245810
O O6 0.086498 0.950733 0.228401
O O7 0.020611 0.017679 0.322853
O O8 0.924875 0.953854 0.032911
O O9 0.192085 0.250000 0.135914
O O10 0.207938 0.004262 0.256587
O O11 0.480512 0.250000 0.072752
O O12 0.599375 0.063151 0.280538
O O13 0.500000 0.000000 0.000000
O O14 0.435719 0.002031 0.102150
O O15 0.291918 0.750000 0.658983
O O16 0.239858 0.514974 0.502332
O O17 0.318654 0.517585 0.798392
O O18 0.799470 0.250000 0.663547
O O19 0.635024 0.250000 0.028568
O O20 0.003661 0.750000 0.597919
O O21 0.000000 0.000000 0.500000
#
# Coordination Sequence:
#
# PCOD8071126 Si02
#       8
#     4   4   4   4   4   4   4   4
#     4   9  19  34  53  72  93 130 172 203 237 295
#     4   9  19  33  50  70  94 129 169 206 245 288
#     4  10  20  34  49  70 101 129 162 212 254 284
#     4   9  16  29  48  71 101 132 159 193 241 294
#     4   8  16  29  48  74 100 126 158 195 238 289
#     4  10  19  32  53  73  94 130 170 204 239 292
#     4   9  17  31  52  76  99 125 162 203 240 291
#     4  10  20  32  48  69  99 134 164 201 245 292
#
# _framework density 17.298023000000001
#
# number of rings (size 3 to 8) (size 9 to 14) (size 15 to 20)
#    0.000    2.750    0.000    2.250    1.750    2.000 
#    0.000    3.125    0.000    0.750    0.000    0.000 
#    0.000    0.000    0.000    0.000    0.000    0.000 
#
# Total GULP energy -396686.314443 kJ/mol
# GULP energy per Si atom -12396.447326 kJ/mol
# Density = 1.725865 g / cm^3
# Si number density = 17.298023 Si / 1000 Ang^3
#
#
#
# Elastic Constant Matrix: (Units=GPa)
#
#
# Indices 1 2 3 4 5 6 
#
# 1 120.4993 47.9166 48.0952 0.0000 -5.2350 0.0000
# 2 47.9166 69.5456 30.1938 0.0000 -8.5567 0.0000
# 3 48.0952 30.1938 66.0915 0.0000 -7.5252 0.0000
# 4 0.0000 0.0000 0.0000 24.4872 0.0000 -1.8813
# 5 -5.2350 -8.5567 -7.5252 0.0000 21.7928 0.0000
# 6 0.0000 0.0000 0.0000 -1.8813 0.0000 30.2826
#
#
#
# Elastic Compliance Matrix: (Units=1/GPa)
#
#
# Indices 1 2 3 4 5 6 
#
# 1 0.013682 -0.006528 -0.007174 0.000000 -0.001754 0.000000
# 2 -0.006528 0.021463 -0.004449 0.000000 0.005323 0.000000
# 3 -0.007174 -0.004449 0.022888 0.000000 0.004433 0.000000
# 4 0.000000 0.000000 0.000000 0.041034 0.000000 0.002549
# 5 -0.001754 0.005323 0.004433 0.000000 0.049086 0.000000
# 6 0.000000 0.000000 0.000000 0.002549 0.000000 0.033181
#
#
# Mechanical properties :
#
#
# Convention : Reuss Voigt Hill
#
# Bulk Modulus (GPa) = 46.01513 56.50531 51.26022
# Shear Modulus (GPa) = 22.23420 23.97455 23.10438
#
# Velocity S-wave (km/s) = 3.58908 3.72690 3.65864
# Velocity P-wave (km/s) = 6.62076 7.15936 6.89532
#
# Compressibility (1/GPa) = 0.02173198
#
# Stress axis : x y z
#
# Youngs Moduli (GPa) = 73.09051 46.59135 43.69067
#
# Poissons Ratio (x) = 0.30414 0.31342
# Poissons Ratio (y) = 0.47712 0.19438
# Poissons Ratio (z) = 0.52433 0.20729
#
# Static dielectric constant tensor:
#      x y z
#    x 3.886680 0.000000 0.280540 
#    y 0.000000 3.225630 0.000000 
#    z 0.280540 0.000000 3.305500 
# 
# 
# High freq. dielectric constant tensor:
#      x y z
#    x 1.664420 0.000000 0.004110 
#    y 0.000000 1.661530 0.000000 
#    z 0.004110 0.000000 1.648460 
# 
# From -- ./inp_files/42544.got.cif
#   From: 2010.06.25/outbox.cif.g09.slc.cpg/sg11_22_cif.got.tgz:42544.got - 2010.06.27 23:14:04.
