data_PCOD8071092
_publ_section_title
;
Structure prediction by ZEFSAII (Michael W. Deem and Ramdas Pophale) SiO2 
 PCOD8071092
Probable space group: P 21/M
;
_chemical_formula_sum "Si O2"
_cell_formula_units_Z 28
_cell_length_a 14.691717
_cell_length_b 9.279344
_cell_length_c 21.471907
_cell_angle_alpha 90.000000
_cell_angle_beta 30.168589
_cell_angle_gamma 90.000000
_cell_volume 1471.080076
_symmetry_space_group_name_H-M "P 21/M"
_symmetry_group_IT_number 11
_symmetry_cell_setting 'monoclinic'
loop_
_space_group_symop_operation_xyz
x,y,z
-x,1/2+y,-z
-x,-y,-z
x,1/2-y,z
loop_
_atom_site_type_symbol
_atom_site_label
_atom_site_fract_x
_atom_site_fract_y
_atom_site_fract_z
Si Si1 0.923641 0.084203 0.133876
Si Si2 0.642532 0.583478 0.658594
Si Si3 0.719112 0.582732 0.154416
Si Si4 0.425451 0.084999 0.986296
Si Si5 0.243609 0.583546 0.294792
Si Si6 0.933577 0.914812 0.384883
Si Si7 0.981382 0.918904 0.785320
O O1 0.866112 0.250000 0.157556
O O2 0.919542 0.041361 0.208821
O O3 0.779763 0.983010 0.184590
O O4 0.125127 0.059104 0.988662
O O5 0.605570 0.750000 0.696559
O O6 0.456051 0.497956 0.766987
O O7 0.772295 0.514973 0.634615
O O8 0.744524 0.567910 0.532640
O O9 0.672729 0.750000 0.191228
O O10 0.419339 0.250000 0.010568
O O11 0.553422 0.063978 0.851059
O O12 0.226220 0.028228 0.086822
O O13 0.500000 0.000000 0.000000
O O14 0.202270 0.750000 0.336469
O O15 0.099509 0.527599 0.329052
O O16 0.972211 0.750000 0.344175
O O17 0.916568 0.003810 0.331513
O O18 0.990694 0.750000 0.767536
#
# Coordination Sequence:
#
# PCOD8071092 Si02
#       7
#     4   4   4   4   4   4   4
#     4   9  19  37  60  86 114 140 173 223 276 327
#     4  11  23  37  55  80 109 144 188 231 272 321
#     4  10  20  37  61  86 112 141 176 222 276 329
#     4  10  19  32  52  79 111 143 176 218 267 319
#     4  10  20  36  56  78 109 147 185 229 277 321
#     4  10  22  38  54  76 110 149 187 230 271 317
#     4  10  20  34  55  82 112 146 181 220 272 328
#
# _framework density 19.033632999999998
#
# number of rings (size 3 to 8) (size 9 to 14) (size 15 to 20)
#    0.000    2.000    1.429    2.143    0.000    5.714 
#    0.000    2.143    0.000    0.000    0.000    0.000 
#    0.000    0.000    0.000    0.000    0.000    0.000 
#
# Total GULP energy -347304.826599 kJ/mol
# GULP energy per Si atom -12403.743807 kJ/mol
# Density = 1.899031 g / cm^3
# Si number density = 19.033633 Si / 1000 Ang^3
#
#
#
# Elastic Constant Matrix: (Units=GPa)
#
#
# Indices 1 2 3 4 5 6 
#
# 1 114.4736 59.5101 25.7360 0.0000 20.0353 0.0000
# 2 59.5101 86.8843 27.7740 0.0000 10.8712 0.0000
# 3 25.7360 27.7740 43.2657 0.0000 10.6240 0.0000
# 4 0.0000 0.0000 0.0000 28.6232 0.0000 1.9780
# 5 20.0353 10.8712 10.6240 0.0000 28.2734 0.0000
# 6 0.0000 0.0000 0.0000 1.9780 0.0000 36.6568
#
#
#
# Elastic Compliance Matrix: (Units=1/GPa)
#
#
# Indices 1 2 3 4 5 6 
#
# 1 0.014820 -0.008843 -0.001537 0.000000 -0.006524 0.000000
# 2 -0.008843 0.019894 -0.007899 0.000000 0.001586 0.000000
# 3 -0.001537 -0.007899 0.030940 0.000000 -0.007500 0.000000
# 4 0.000000 0.000000 0.000000 0.035067 0.000000 -0.001892
# 5 -0.006524 0.001586 -0.007500 0.000000 0.042201 0.000000
# 6 0.000000 0.000000 0.000000 -0.001892 0.000000 0.027382
#
#
# Mechanical properties :
#
#
# Convention : Reuss Voigt Hill
#
# Bulk Modulus (GPa) = 34.37092 52.29596 43.33344
# Shear Modulus (GPa) = 23.08820 27.48425 25.28623
#
# Velocity S-wave (km/s) = 3.48662 3.80410 3.64882
# Velocity P-wave (km/s) = 5.85713 6.84325 6.36930
#
# Compressibility (1/GPa) = 0.02909436
#
# Stress axis : x y z
#
# Youngs Moduli (GPa) = 67.47481 50.26766 32.32106
#
# Poissons Ratio (x) = 0.44454 0.04967
# Poissons Ratio (y) = 0.59671 0.25532
# Poissons Ratio (z) = 0.10368 0.39709
#
# Static dielectric constant tensor:
#      x y z
#    x 3.501450 0.000000 0.004100 
#    y 0.000000 3.365890 0.000000 
#    z 0.004100 0.000000 3.407830 
# 
# 
# High freq. dielectric constant tensor:
#      x y z
#    x 1.740550 0.000000 0.003040 
#    y 0.000000 1.738100 0.000000 
#    z 0.003040 0.000000 1.731640 
# 
# From -- ./inp_files/37656.got.cif
#   From: 2010.06.25/outbox.cif.g09.slc.cpg/sg11_19_cif.got.tgz:37656.got - 2010.06.27 23:14:04.
