data_PCOD8071594
_publ_section_title
;
Structure prediction by ZEFSAII (Michael W. Deem and Ramdas Pophale) SiO2 
 PCOD8071594
Probable space group: P 21/M
;
_chemical_formula_sum "Si O2"
_cell_formula_units_Z 32
_cell_length_a 21.967303
_cell_length_b 9.056906
_cell_length_c 27.906811
_cell_angle_alpha 90.000000
_cell_angle_beta 161.312801
_cell_angle_gamma 90.000000
_cell_volume 1778.939420
_symmetry_space_group_name_H-M "P 21/M"
_symmetry_group_IT_number 11
_symmetry_cell_setting 'monoclinic'
loop_
_space_group_symop_operation_xyz
x,y,z
-x,1/2+y,-z
-x,-y,-z
x,1/2-y,z
loop_
_atom_site_type_symbol
_atom_site_label
_atom_site_fract_x
_atom_site_fract_y
_atom_site_fract_z
Si Si1 0.541711 0.078958 0.601266
Si Si2 0.761443 0.418406 0.216369
Si Si3 0.822317 0.076914 0.892072
Si Si4 0.566748 0.421659 0.975740
Si Si5 0.187856 0.420894 0.016248
Si Si6 0.494965 0.077952 0.164946
Si Si7 0.226154 0.922242 0.317665
Si Si8 0.892463 0.578638 0.462895
O O1 0.500568 0.250000 0.564680
O O2 0.633732 0.041245 0.720903
O O3 0.686866 0.024633 0.668205
O O4 0.338962 0.998260 0.445419
O O5 0.694678 0.250000 0.176903
O O6 0.636458 0.527948 0.155233
O O7 0.981448 0.439194 0.394771
O O8 0.731910 0.454406 0.137999
O O9 0.865091 0.250000 0.925275
O O10 0.780122 0.018355 0.913231
O O11 0.000000 0.000000 0.000000
O O12 0.554131 0.250000 0.953357
O O13 0.610669 0.512434 0.960452
O O14 0.172821 0.250000 0.020574
O O15 0.361623 0.450458 0.110689
O O16 0.993909 0.469718 0.845138
O O17 0.534575 0.250000 0.185885
O O18 0.691561 0.996638 0.322444
O O19 0.249745 0.750000 0.342582
O O20 0.861916 0.750000 0.427211
O O21 0.000000 0.500000 0.500000
#
# Coordination Sequence:
#
# PCOD8071594 Si02
#       8
#     4   4   4   4   4   4   4   4
#     4   9  18  32  52  81 111 136 174 225 274 322
#     4   9  19  34  54  81 110 139 177 228 280 324
#     4  11  21  35  57  84 114 146 184 231 280 331
#     4  10  19  33  55  81 108 140 180 226 275 331
#     4  10  22  40  57  78 111 150 190 232 278 333
#     4  11  23  38  56  79 113 152 188 230 281 333
#     4   9  17  33  54  77 107 140 179 224 272 324
#     4  11  21  35  57  84 114 146 186 231 280 333
#
# _framework density 17.988244999999999
#
# number of rings (size 3 to 8) (size 9 to 14) (size 15 to 20)
#    0.000    2.000    2.500    1.500    0.000    3.500 
#    0.000    1.250    0.000    6.000    0.000    0.000 
#    0.000    0.000    0.000    0.000    0.000    0.000 
#
# Total GULP energy -396828.877694 kJ/mol
# GULP energy per Si atom -12400.902428 kJ/mol
# Density = 1.794730 g / cm^3
# Si number density = 17.988245 Si / 1000 Ang^3
#
#
#
# Elastic Constant Matrix: (Units=GPa)
#
#
# Indices 1 2 3 4 5 6 
#
# 1 93.4907 60.8178 63.8163 0.0000 -11.7818 0.0000
# 2 60.8178 101.3067 67.4669 0.0000 -8.6720 0.0000
# 3 63.8163 67.4669 143.2624 0.0000 -10.9626 0.0000
# 4 0.0000 0.0000 0.0000 31.3193 0.0000 -3.3721
# 5 -11.7818 -8.6720 -10.9626 0.0000 27.8586 0.0000
# 6 0.0000 0.0000 0.0000 -3.3721 0.0000 28.3855
#
#
#
# Elastic Compliance Matrix: (Units=1/GPa)
#
#
# Indices 1 2 3 4 5 6 
#
# 1 0.019846 -0.008581 -0.004497 0.000000 0.003952 0.000000
# 2 -0.008581 0.018187 -0.004729 0.000000 0.000171 0.000000
# 3 -0.004497 -0.004729 0.011292 0.000000 0.001070 0.000000
# 4 0.000000 0.000000 0.000000 0.032343 0.000000 0.003842
# 5 0.003952 0.000171 0.001070 0.000000 0.038041 0.000000
# 6 0.000000 0.000000 0.000000 0.003842 0.000000 0.035686
#
#
# Mechanical properties :
#
#
# Convention : Reuss Voigt Hill
#
# Bulk Modulus (GPa) = 72.93536 80.25129 76.59332
# Shear Modulus (GPa) = 25.56505 27.24328 26.40416
#
# Velocity S-wave (km/s) = 3.77398 3.89589 3.83542
# Velocity P-wave (km/s) = 7.72171 8.05899 7.89215
#
# Compressibility (1/GPa) = 0.01371077
#
# Stress axis : x y z
#
# Youngs Moduli (GPa) = 50.38761 54.98534 88.55626
#
# Poissons Ratio (x) = 0.47184 0.39822
# Poissons Ratio (y) = 0.43239 0.41879
# Poissons Ratio (z) = 0.22659 0.26003
#
# Static dielectric constant tensor:
#      x y z
#    x 3.208140 0.000000 -0.255660 
#    y 0.000000 3.407990 0.000000 
#    z -0.255660 0.000000 3.577090 
# 
# 
# High freq. dielectric constant tensor:
#      x y z
#    x 1.671860 0.000000 -0.020730 
#    y 0.000000 1.705190 0.000000 
#    z -0.020730 0.000000 1.703490 
# 
# From -- ./inp_files/72163.got.cif
#   From: 2010.06.25/outbox.cif.g09.slc.cpg/sg11_37_cif.got.tgz:72163.got - 2010.06.27 23:14:04.
