data_PCOD8071931
_publ_section_title
;
Structure prediction by ZEFSAII (Michael W. Deem and Ramdas Pophale) SiO2 
 PCOD8071931
Probable space group: P 21/M
;
_chemical_formula_sum "Si O2"
_cell_formula_units_Z 32
_cell_length_a 12.276135
_cell_length_b 8.778379
_cell_length_c 15.312000
_cell_angle_alpha 90.000000
_cell_angle_beta 92.968375
_cell_angle_gamma 90.000000
_cell_volume 1647.877053
_symmetry_space_group_name_H-M "P 21/M"
_symmetry_group_IT_number 11
_symmetry_cell_setting 'monoclinic'
loop_
_space_group_symop_operation_xyz
x,y,z
-x,1/2+y,-z
-x,-y,-z
x,1/2-y,z
loop_
_atom_site_type_symbol
_atom_site_label
_atom_site_fract_x
_atom_site_fract_y
_atom_site_fract_z
Si Si1 0.549608 0.425721 0.087627
Si Si2 0.409008 0.068880 0.239912
Si Si3 0.405836 0.068863 0.436269
Si Si4 0.803953 0.929599 0.862406
Si Si5 0.825053 0.071519 0.522913
Si Si6 0.953858 0.928130 0.375472
Si Si7 0.034145 0.930116 0.806301
Si Si8 0.787844 0.075384 0.046640
O O1 0.517514 0.250000 0.080044
O O2 0.499963 0.493579 0.175699
O O3 0.678415 0.452341 0.097398
O O4 0.500000 0.500000 0.000000
O O5 0.408422 0.250000 0.241048
O O6 0.430200 0.009597 0.338773
O O7 0.292804 0.004949 0.201682
O O8 0.410426 0.250000 0.442860
O O9 0.500000 0.000000 0.500000
O O10 0.285500 0.016406 0.459038
O O11 0.806351 0.750000 0.858490
O O12 0.916445 0.993861 0.829285
O O13 0.786124 0.973720 0.961271
O O14 0.799163 0.250000 0.519983
O O15 0.920373 0.030403 0.596322
O O16 0.868224 0.020125 0.430525
O O17 0.932533 0.750000 0.388199
O O18 0.928006 0.978406 0.276609
O O19 0.035835 0.750000 0.786895
O O20 0.113316 0.974963 0.888273
O O21 0.798909 0.250000 0.017657
#
# Coordination Sequence:
#
# PCOD8071931 Si02
#       8
#     4   4   4   4   4   4   4   4
#     4  10  19  35  56  78 106 141 185 232 280 334
#     4   9  19  35  57  81 107 146 191 233 288 345
#     4  11  23  40  61  87 120 157 199 247 296 355
#     4  10  19  34  56  78 106 147 192 232 277 341
#     4  10  21  39  62  86 116 152 190 239 297 352
#     4  10  21  37  60  89 116 148 192 241 291 349
#     4  10  21  35  52  79 115 152 188 227 285 349
#     4  10  21  34  51  79 112 147 185 233 288 339
#
# _framework density 19.418925000000002
#
# number of rings (size 3 to 8) (size 9 to 14) (size 15 to 20)
#    0.000    2.000    1.250    2.250    0.000    4.500 
#    0.000    5.000    0.000    0.000    0.000    0.000 
#    0.000    0.000    0.000    0.000    0.000    0.000 
#
# Total GULP energy -396825.238547 kJ/mol
# GULP energy per Si atom -12400.788705 kJ/mol
# Density = 1.937473 g / cm^3
# Si number density = 19.418925 Si / 1000 Ang^3
#
#
#
# Elastic Constant Matrix: (Units=GPa)
#
#
# Indices 1 2 3 4 5 6 
#
# 1 87.8919 25.3237 62.6758 0.0000 -13.8992 0.0000
# 2 25.3237 42.2779 27.9711 0.0000 -1.4030 0.0000
# 3 62.6758 27.9711 150.6856 0.0000 -2.2744 0.0000
# 4 0.0000 0.0000 0.0000 30.5949 0.0000 -2.8743
# 5 -13.8992 -1.4030 -2.2744 0.0000 27.1065 0.0000
# 6 0.0000 0.0000 0.0000 -2.8743 0.0000 23.6938
#
#
#
# Elastic Compliance Matrix: (Units=1/GPa)
#
#
# Indices 1 2 3 4 5 6 
#
# 1 0.019643 -0.007009 -0.006731 0.000000 0.009145 0.000000
# 2 -0.007009 0.029491 -0.002593 0.000000 -0.002285 0.000000
# 3 -0.006731 -0.002593 0.009876 0.000000 -0.002757 0.000000
# 4 0.000000 0.000000 0.000000 0.033062 0.000000 0.004011
# 5 0.009145 -0.002285 -0.002757 0.000000 0.041231 0.000000
# 6 0.000000 0.000000 0.000000 0.004011 0.000000 0.042692
#
#
# Mechanical properties :
#
#
# Convention : Reuss Voigt Hill
#
# Bulk Modulus (GPa) = 37.96098 56.97741 47.46919
# Shear Modulus (GPa) = 22.99440 27.27135 25.13287
#
# Velocity S-wave (km/s) = 3.44484 3.75156 3.60147
# Velocity P-wave (km/s) = 5.95092 6.94049 6.46467
#
# Compressibility (1/GPa) = 0.02634284
#
# Stress axis : x y z
#
# Youngs Moduli (GPa) = 50.90767 33.90822 101.25603
#
# Poissons Ratio (x) = 0.23767 0.68159
# Poissons Ratio (y) = 0.35682 0.26261
# Poissons Ratio (z) = 0.34268 0.08794
#
# Static dielectric constant tensor:
#      x y z
#    x 3.864360 0.000000 -0.040890 
#    y 0.000000 3.366270 0.000000 
#    z -0.040890 0.000000 3.674020 
# 
# 
# High freq. dielectric constant tensor:
#      x y z
#    x 1.765830 0.000000 -0.005700 
#    y 0.000000 1.739140 0.000000 
#    z -0.005700 0.000000 1.763730 
# 
# From -- ./inp_files/49304.got.cif
#   From: 2010.06.25/outbox.cif.g09.slc.cpg/sg11_25_cif.got.tgz:49304.got - 2010.06.27 23:14:04.
