data_PCOD8071259
_publ_section_title
;
Structure prediction by ZEFSAII (Michael W. Deem and Ramdas Pophale) SiO2 
 PCOD8071259
Probable space group: P 21/M
;
_chemical_formula_sum "Si O2"
_cell_formula_units_Z 20
_cell_length_a 7.690679
_cell_length_b 8.849667
_cell_length_c 21.396511
_cell_angle_alpha 90.000000
_cell_angle_beta 138.126313
_cell_angle_gamma 90.000000
_cell_volume 972.030224
_symmetry_space_group_name_H-M "P 21/M"
_symmetry_group_IT_number 11
_symmetry_cell_setting 'monoclinic'
loop_
_space_group_symop_operation_xyz
x,y,z
-x,1/2+y,-z
-x,-y,-z
x,1/2-y,z
loop_
_atom_site_type_symbol
_atom_site_label
_atom_site_fract_x
_atom_site_fract_y
_atom_site_fract_z
Si Si1 0.682640 0.427353 0.100184
Si Si2 0.573051 0.577726 0.198602
Si Si3 0.506003 0.923905 0.601647
Si Si4 0.871969 0.077235 0.604072
Si Si5 0.231005 0.925180 0.220474
O O1 0.670072 0.250000 0.088823
O O2 0.575525 0.469196 0.139869
O O3 0.976881 0.480482 0.169375
O O4 0.500000 0.500000 0.000000
O O5 0.570244 0.750000 0.173475
O O6 0.318458 0.543686 0.172491
O O7 0.820188 0.550402 0.309891
O O8 0.532639 0.750000 0.628428
O O9 0.229765 0.957167 0.493516
O O10 0.738809 0.963304 0.616525
O O11 0.533689 0.025462 0.670848
O O12 0.797822 0.250000 0.602285
O O13 0.168536 0.750000 0.214383
#
# Coordination Sequence:
#
# PCOD8071259 Si02
#       5
#     4   4   4   4   4
#     4  12  26  45  69  93 120 156 199 253 313 369
#     4  10  22  41  65  92 124 164 207 252 303 360
#     4  10  19  32  55  89 124 165 211 253 299 353
#     4   9  18  34  57  85 123 166 209 253 299 354
#     4  11  23  40  63  92 127 165 204 250 305 364
#
# _framework density 20.575491
#
# number of rings (size 3 to 8) (size 9 to 14) (size 15 to 20)
#    0.000    1.600    2.000    3.000    0.000    4.000 
#    0.000    0.000    0.000    0.000    0.000    0.000 
#    0.000    0.000    0.000    0.000    0.000    0.000 
#
# Total GULP energy -248025.884701 kJ/mol
# GULP energy per Si atom -12401.294235 kJ/mol
# Density = 2.052866 g / cm^3
# Si number density = 20.575491 Si / 1000 Ang^3
#
#
#
# Elastic Constant Matrix: (Units=GPa)
#
#
# Indices 1 2 3 4 5 6 
#
# 1 84.3021 45.4417 39.2191 0.0000 -21.3172 0.0000
# 2 45.4417 124.6486 55.6924 0.0000 -14.6605 0.0000
# 3 39.2191 55.6924 119.3730 0.0000 -18.9980 0.0000
# 4 0.0000 0.0000 0.0000 37.6955 0.0000 -6.4256
# 5 -21.3172 -14.6605 -18.9980 0.0000 15.9061 0.0000
# 6 0.0000 0.0000 0.0000 -6.4256 0.0000 19.9052
#
#
#
# Elastic Compliance Matrix: (Units=1/GPa)
#
#
# Indices 1 2 3 4 5 6 
#
# 1 0.020218 -0.004286 -0.001185 0.000000 0.021732 0.000000
# 2 -0.004286 0.011319 -0.003860 0.000000 0.000078 0.000000
# 3 -0.001185 -0.003860 0.012036 0.000000 0.009230 0.000000
# 4 0.000000 0.000000 0.000000 0.028073 0.000000 0.009062
# 5 0.021732 0.000078 0.009230 0.000000 0.103090 0.000000
# 6 0.000000 0.000000 0.000000 0.009062 0.000000 0.053164
#
#
# Mechanical properties :
#
#
# Convention : Reuss Voigt Hill
#
# Bulk Modulus (GPa) = 40.14032 67.67001 53.90517
# Shear Modulus (GPa) = 19.61821 27.23274 23.42547
#
# Velocity S-wave (km/s) = 3.09119 3.64201 3.37785
# Velocity P-wave (km/s) = 5.68258 7.11658 6.43962
#
# Compressibility (1/GPa) = 0.02491261
#
# Stress axis : x y z
#
# Youngs Moduli (GPa) = 49.45975 88.34819 83.08221
#
# Poissons Ratio (x) = 0.37862 0.09843
# Poissons Ratio (y) = 0.21196 0.32072
# Poissons Ratio (z) = 0.05860 0.34105
#
# Static dielectric constant tensor:
#      x y z
#    x 3.500370 0.000000 -0.021390 
#    y 0.000000 3.746230 0.000000 
#    z -0.021390 0.000000 3.961210 
# 
# 
# High freq. dielectric constant tensor:
#      x y z
#    x 1.790000 0.000000 -0.003920 
#    y 0.000000 1.807240 0.000000 
#    z -0.003920 0.000000 1.811250 
# 
# From -- ./inp_files/46435.got.cif
#   From: 2010.06.25/outbox.cif.g09.slc.cpg/sg11_24_cif.got.tgz:46435.got - 2010.06.27 23:14:04.
