data_PCOD8071758
_publ_section_title
;
Structure prediction by ZEFSAII (Michael W. Deem and Ramdas Pophale) SiO2 
 PCOD8071758
Probable space group: P 21/M
;
_chemical_formula_sum "Si O2"
_cell_formula_units_Z 32
_cell_length_a 16.468203
_cell_length_b 9.158429
_cell_length_c 11.139526
_cell_angle_alpha 90.000000
_cell_angle_beta 84.225291
_cell_angle_gamma 90.000000
_cell_volume 1671.569144
_symmetry_space_group_name_H-M "P 21/M"
_symmetry_group_IT_number 11
_symmetry_cell_setting 'monoclinic'
loop_
_space_group_symop_operation_xyz
x,y,z
-x,1/2+y,-z
-x,-y,-z
x,1/2-y,z
loop_
_atom_site_type_symbol
_atom_site_label
_atom_site_fract_x
_atom_site_fract_y
_atom_site_fract_z
Si Si1 0.454692 0.420140 0.681818
Si Si2 0.916903 0.915295 0.016657
Si Si3 0.226179 0.920153 0.080476
Si Si4 0.234624 0.417816 0.316493
Si Si5 0.914082 0.921363 0.497535
Si Si6 0.680516 0.420117 0.173021
Si Si7 0.396340 0.083285 0.427729
Si Si8 0.822819 0.915570 0.274192
O O1 0.458721 0.250000 0.710511
O O2 0.405823 0.500165 0.795553
O O3 0.546428 0.481776 0.663089
O O4 0.407666 0.456287 0.565270
O O5 0.929249 0.750000 0.970045
O O6 0.885995 0.920110 0.156473
O O7 0.856097 0.993407 0.934616
O O8 0.000000 0.000000 0.000000
O O9 0.205559 0.750000 0.092381
O O10 0.258949 0.979122 0.202078
O O11 0.293058 0.950907 0.967850
O O12 0.236074 0.250000 0.273441
O O13 0.145823 0.458887 0.382619
O O14 0.302055 0.444132 0.409609
O O15 0.931175 0.750000 0.486355
O O16 0.870077 0.976602 0.382998
O O17 0.000000 0.000000 0.500000
O O18 0.671039 0.250000 0.200922
O O19 0.746014 0.483101 0.257189
O O20 0.422577 0.250000 0.400159
O O21 0.790868 0.750000 0.301217
#
# Coordination Sequence:
#
# PCOD8071758 Si02
#       8
#     4   4   4   4   4   4   4   4
#     4  10  19  33  58  88 117 145 180 225 273 329
#     4  10  20  34  55  80 106 138 179 228 278 327
#     4  10  22  38  55  78 108 145 189 232 276 328
#     4  10  21  38  58  79 110 149 185 226 278 331
#     4  10  22  38  55  80 110 143 181 223 274 330
#     4  10  20  35  56  82 110 142 182 229 277 323
#     4   9  19  36  57  84 116 148 182 224 275 328
#     4   9  19  36  55  76 106 140 178 222 272 328
#
# _framework density 19.143688999999998
#
# number of rings (size 3 to 8) (size 9 to 14) (size 15 to 20)
#    0.000    2.250    0.000    2.250    1.750    6.000 
#    0.000    1.875    0.000    0.000    0.000    0.000 
#    0.000    0.000    0.000    0.000    0.000    0.000 
#
# Total GULP energy -396904.784546 kJ/mol
# GULP energy per Si atom -12403.274517 kJ/mol
# Density = 1.910012 g / cm^3
# Si number density = 19.143689 Si / 1000 Ang^3
#
#
#
# Elastic Constant Matrix: (Units=GPa)
#
#
# Indices 1 2 3 4 5 6 
#
# 1 95.4043 48.6625 25.2608 0.0000 -18.6723 0.0000
# 2 48.6625 99.6681 32.1541 0.0000 -12.5237 0.0000
# 3 25.2608 32.1541 70.0145 0.0000 2.2450 0.0000
# 4 0.0000 0.0000 0.0000 29.5286 0.0000 -1.9245
# 5 -18.6723 -12.5237 2.2450 0.0000 23.4225 0.0000
# 6 0.0000 0.0000 0.0000 -1.9245 0.0000 38.2480
#
#
#
# Elastic Compliance Matrix: (Units=1/GPa)
#
#
# Indices 1 2 3 4 5 6 
#
# 1 0.016280 -0.005442 -0.003708 0.000000 0.010424 0.000000
# 2 -0.005442 0.014801 -0.004964 0.000000 0.004051 0.000000
# 3 -0.003708 -0.004964 0.018136 0.000000 -0.007349 0.000000
# 4 0.000000 0.000000 0.000000 0.033977 0.000000 0.001710
# 5 0.010424 0.004051 -0.007349 0.000000 0.053874 0.000000
# 6 0.000000 0.000000 0.000000 0.001710 0.000000 0.026231
#
#
# Mechanical properties :
#
#
# Convention : Reuss Voigt Hill
#
# Bulk Modulus (GPa) = 47.64708 53.02684 50.33696
# Shear Modulus (GPa) = 25.18599 28.84045 27.01322
#
# Velocity S-wave (km/s) = 3.63110 3.88561 3.76051
# Velocity P-wave (km/s) = 6.52097 6.92027 6.72358
#
# Compressibility (1/GPa) = 0.02098765
#
# Stress axis : x y z
#
# Youngs Moduli (GPa) = 61.42640 67.56387 55.13922
#
# Poissons Ratio (x) = 0.36770 0.20448
# Poissons Ratio (y) = 0.33430 0.27369
# Poissons Ratio (z) = 0.22780 0.33536
#
# Static dielectric constant tensor:
#      x y z
#    x 3.298930 0.000000 -0.181470 
#    y 0.000000 8.564750 0.000000 
#    z -0.181470 0.000000 3.634770 
# 
# 
# High freq. dielectric constant tensor:
#      x y z
#    x 1.742060 0.000000 -0.010570 
#    y 0.000000 1.747540 0.000000 
#    z -0.010570 0.000000 1.738900 
# 
# From -- ./inp_files/38067.got.cif
#   From: 2010.06.25/outbox.cif.g09.slc.cpg/sg11_20_cif.got.tgz:38067.got - 2010.06.27 23:14:04.
