data_PCOD8071373
_publ_section_title
;
Structure prediction by ZEFSAII (Michael W. Deem and Ramdas Pophale) SiO2 
 PCOD8071373
Probable space group: P 21/M
;
_chemical_formula_sum "Si O2"
_cell_formula_units_Z 24
_cell_length_a 9.143588
_cell_length_b 16.712296
_cell_length_c 9.024088
_cell_angle_alpha 90.000000
_cell_angle_beta 114.527128
_cell_angle_gamma 90.000000
_cell_volume 1254.542072
_symmetry_space_group_name_H-M "P 21/M"
_symmetry_group_IT_number 11
_symmetry_cell_setting 'monoclinic'
loop_
_space_group_symop_operation_xyz
x,y,z
-x,1/2+y,-z
-x,-y,-z
x,1/2-y,z
loop_
_atom_site_type_symbol
_atom_site_label
_atom_site_fract_x
_atom_site_fract_y
_atom_site_fract_z
Si Si1 0.522065 0.910080 0.455814
Si Si2 0.979290 0.161108 0.430504
Si Si3 0.827272 0.400917 0.641833
Si Si4 0.872471 0.658251 0.062946
Si Si5 0.160970 0.084810 0.261978
Si Si6 0.684983 0.661110 0.264173
O O1 0.352430 0.865446 0.409626
O O2 0.670532 0.873985 0.614075
O O3 0.566827 0.900970 0.299191
O O4 0.500000 0.000000 0.500000
O O5 0.904708 0.250000 0.382530
O O6 0.006541 0.123025 0.279764
O O7 0.149143 0.165382 0.580337
O O8 0.861913 0.105607 0.480038
O O9 0.837524 0.491546 0.700668
O O10 0.953593 0.348251 0.786600
O O11 0.851295 0.750000 0.002540
O O12 0.728130 0.633457 0.114996
O O13 0.860347 0.598170 0.920878
O O14 0.606536 0.750000 0.229916
#
# Coordination Sequence:
#
# PCOD8071373 Si02
#       6
#     4   4   4   4   4   4
#     4   9  19  34  52  76 102 131 169 208 251 301
#     4   9  17  31  51  75 101 134 172 210 249 300
#     4  10  19  33  52  77 104 135 169 208 256 304
#     4  10  20  35  53  75 101 134 174 213 251 302
#     4  10  19  34  54  77 103 135 172 211 253 300
#     4   8  16  31  51  70  97 137 171 198 247 311
#
# _framework density 19.130486999999999
#
# number of rings (size 3 to 8) (size 9 to 14) (size 15 to 20)
#    0.000    2.667    0.000    3.000    0.000    3.333 
#    0.000    5.000    0.000    2.000    0.000    0.000 
#    0.000    0.000    0.000    0.000    0.000    0.000 
#
# Total GULP energy -297384.399007 kJ/mol
# GULP energy per Si atom -12391.016625 kJ/mol
# Density = 1.908695 g / cm^3
# Si number density = 19.130487 Si / 1000 Ang^3
#
#
#
# Elastic Constant Matrix: (Units=GPa)
#
#
# Indices 1 2 3 4 5 6 
#
# 1 143.2624 39.7493 53.6958 0.0000 -28.4007 0.0000
# 2 39.7493 75.2498 22.0344 0.0000 -23.1147 0.0000
# 3 53.6958 22.0344 77.9107 0.0000 -31.9983 0.0000
# 4 0.0000 0.0000 0.0000 18.6810 0.0000 -11.0279
# 5 -28.4007 -23.1147 -31.9983 0.0000 37.2755 0.0000
# 6 0.0000 0.0000 0.0000 -11.0279 0.0000 30.1469
#
#
#
# Elastic Compliance Matrix: (Units=1/GPa)
#
#
# Indices 1 2 3 4 5 6 
#
# 1 0.010264 -0.003521 -0.005812 0.000000 0.000648 0.000000
# 2 -0.003521 0.017649 0.001279 0.000000 0.009360 0.000000
# 3 -0.005812 0.001279 0.023147 0.000000 0.016235 0.000000
# 4 0.000000 0.000000 0.000000 0.068274 0.000000 0.024975
# 5 0.000648 0.009360 0.016235 0.000000 0.047061 0.000000
# 6 0.000000 0.000000 0.000000 0.024975 0.000000 0.042307
#
#
# Mechanical properties :
#
#
# Convention : Reuss Voigt Hill
#
# Bulk Modulus (GPa) = 28.61010 58.59799 43.60405
# Shear Modulus (GPa) = 21.14518 29.28358 25.21438
#
# Velocity S-wave (km/s) = 3.32823 3.91670 3.63439
# Velocity P-wave (km/s) = 5.45502 7.15201 6.36036
#
# Compressibility (1/GPa) = 0.03495269
#
# Stress axis : x y z
#
# Youngs Moduli (GPa) = 97.42883 56.65885 43.20256
#
# Poissons Ratio (x) = 0.19949 0.25110
# Poissons Ratio (y) = 0.34304 -0.05527
# Poissons Ratio (z) = 0.56627 -0.07248
#
# Static dielectric constant tensor:
#      x y z
#    x 4.144380 0.000000 -0.202720 
#    y 0.000000 3.426270 0.000000 
#    z -0.202720 0.000000 3.393590 
# 
# 
# High freq. dielectric constant tensor:
#      x y z
#    x 1.747180 0.000000 -0.025580 
#    y 0.000000 1.732640 0.000000 
#    z -0.025580 0.000000 1.716680 
# 
# From -- ./inp_files/13134.got.cif
#   From: 2010.06.25/outbox.cif.g09.slc.cpg/sg11_7_cif.got.tgz:13134.got - 2010.06.27 23:14:04.
