data_PCOD8071870
_publ_section_title
;
Structure prediction by ZEFSAII (Michael W. Deem and Ramdas Pophale) SiO2 
 PCOD8071870
Probable space group: P 21/M
;
_chemical_formula_sum "Si O2"
_cell_formula_units_Z 32
_cell_length_a 13.689755
_cell_length_b 8.904999
_cell_length_c 14.081448
_cell_angle_alpha 90.000000
_cell_angle_beta 96.508536
_cell_angle_gamma 90.000000
_cell_volume 1705.566946
_symmetry_space_group_name_H-M "P 21/M"
_symmetry_group_IT_number 11
_symmetry_cell_setting 'monoclinic'
loop_
_space_group_symop_operation_xyz
x,y,z
-x,1/2+y,-z
-x,-y,-z
x,1/2-y,z
loop_
_atom_site_type_symbol
_atom_site_label
_atom_site_fract_x
_atom_site_fract_y
_atom_site_fract_z
Si Si1 0.301947 0.420917 0.292708
Si Si2 0.669789 0.428863 0.173550
Si Si3 0.153673 0.923096 0.147148
Si Si4 0.022289 0.925160 0.297943
Si Si5 0.178765 0.077717 0.449475
Si Si6 0.725856 0.927395 0.988530
Si Si7 0.807518 0.572317 0.336361
Si Si8 0.451706 0.422879 0.163289
O O1 0.270259 0.250000 0.258464
O O2 0.237690 0.545407 0.233449
O O3 0.282587 0.441230 0.403156
O O4 0.414044 0.446321 0.268714
O O5 0.671354 0.250000 0.171541
O O6 0.727657 0.493774 0.090165
O O7 0.720528 0.485932 0.274528
O O8 0.558482 0.497246 0.161252
O O9 0.155549 0.750000 0.116476
O O10 0.052790 0.965626 0.192064
O O11 0.174443 0.023712 0.056166
O O12 0.037086 0.750000 0.317716
O O13 0.909898 0.973578 0.298424
O O14 0.088656 0.004558 0.384079
O O15 0.149331 0.250000 0.457483
O O16 0.192540 0.010113 0.555710
O O17 0.726954 0.750000 0.002490
O O18 0.630223 0.986141 0.919171
O O19 0.788386 0.750000 0.328962
O O20 0.464953 0.250000 0.140729
#
# Coordination Sequence:
#
# PCOD8071870 Si02
#       8
#     4   4   4   4   4   4   4   4
#     4   8  14  28  49  74 100 127 158 198 245 290
#     4  11  22  35  50  71  98 131 168 207 243 285
#     4   9  16  28  48  76 102 124 155 200 244 288
#     4   9  18  32  52  75 102 131 162 202 247 289
#     4   9  17  30  53  78 100 128 166 205 242 288
#     4  10  19  34  55  76  98 127 158 198 249 300
#     4  10  21  36  49  69 102 138 169 201 243 291
#     4   8  16  31  52  75  99 126 160 199 244 291
#
# _framework density 18.762090000000001
#
# number of rings (size 3 to 8) (size 9 to 14) (size 15 to 20)
#    0.000    2.750    0.000    2.625    0.000    1.500 
#    0.000    6.875    0.000    0.000    0.000    0.000 
#    0.000    0.000    0.000    0.000    0.000    0.000 
#
# Total GULP energy -396519.112106 kJ/mol
# GULP energy per Si atom -12391.222253 kJ/mol
# Density = 1.871939 g / cm^3
# Si number density = 18.762090 Si / 1000 Ang^3
#
#
#
# Elastic Constant Matrix: (Units=GPa)
#
#
# Indices 1 2 3 4 5 6 
#
# 1 40.1138 14.6500 31.0061 0.0000 -12.3675 0.0000
# 2 14.6500 43.1354 18.5126 0.0000 -1.6746 0.0000
# 3 31.0061 18.5126 63.4371 0.0000 -14.2064 0.0000
# 4 0.0000 0.0000 0.0000 28.0316 0.0000 0.9651
# 5 -12.3675 -1.6746 -14.2064 0.0000 28.9799 0.0000
# 6 0.0000 0.0000 0.0000 0.9651 0.0000 19.9447
#
#
#
# Elastic Compliance Matrix: (Units=1/GPa)
#
#
# Indices 1 2 3 4 5 6 
#
# 1 0.043822 -0.007154 -0.017115 0.000000 0.009899 0.000000
# 2 -0.007154 0.027837 -0.005561 0.000000 -0.004170 0.000000
# 3 -0.017115 -0.005561 0.027009 0.000000 0.005615 0.000000
# 4 0.000000 0.000000 0.000000 0.035734 0.000000 -0.001729
# 5 0.009899 -0.004170 0.005615 0.000000 0.041243 0.000000
# 6 0.000000 0.000000 0.000000 -0.001729 0.000000 0.050222
#
#
# Mechanical properties :
#
#
# Convention : Reuss Voigt Hill
#
# Bulk Modulus (GPa) = 25.63468 30.55818 28.09643
# Shear Modulus (GPa) = 16.74877 20.89241 18.82059
#
# Velocity S-wave (km/s) = 2.99104 3.34060 3.17064
# Velocity P-wave (km/s) = 5.06173 5.58588 5.33025
#
# Compressibility (1/GPa) = 0.03900965
#
# Stress axis : x y z
#
# Youngs Moduli (GPa) = 22.81933 35.92311 37.02468
#
# Poissons Ratio (x) = 0.25699 0.63366
# Poissons Ratio (y) = 0.16325 0.20589
# Poissons Ratio (z) = 0.39054 0.19977
#
# Static dielectric constant tensor:
#      x y z
#    x 3.596600 0.000000 -0.449080 
#    y 0.000000 3.274010 0.000000 
#    z -0.449080 0.000000 3.553480 
# 
# 
# High freq. dielectric constant tensor:
#      x y z
#    x 1.712920 0.000000 -0.035860 
#    y 0.000000 1.715670 0.000000 
#    z -0.035860 0.000000 1.724670 
# 
# From -- ./inp_files/38265.got.cif
#   From: 2010.06.25/outbox.cif.g09.slc.cpg/sg11_20_cif.got.tgz:38265.got - 2010.06.27 23:14:04.
