data_PCOD8071645
_publ_section_title
;
Structure prediction by ZEFSAII (Michael W. Deem and Ramdas Pophale) SiO2 
 PCOD8071645
Probable space group: P 21/M
;
_chemical_formula_sum "Si O2"
_cell_formula_units_Z 32
_cell_length_a 12.096395
_cell_length_b 9.041457
_cell_length_c 28.848377
_cell_angle_alpha 90.000000
_cell_angle_beta 33.894018
_cell_angle_gamma 90.000000
_cell_volume 1759.478855
_symmetry_space_group_name_H-M "P 21/M"
_symmetry_group_IT_number 11
_symmetry_cell_setting 'monoclinic'
loop_
_space_group_symop_operation_xyz
x,y,z
-x,1/2+y,-z
-x,-y,-z
x,1/2-y,z
loop_
_atom_site_type_symbol
_atom_site_label
_atom_site_fract_x
_atom_site_fract_y
_atom_site_fract_z
Si Si1 0.453131 0.920958 0.228232
Si Si2 0.826622 0.575534 0.531673
Si Si3 0.000415 0.579681 0.374977
Si Si4 0.554759 0.577021 0.295845
Si Si5 0.498808 0.924614 0.879758
Si Si6 0.049200 0.077192 0.267729
Si Si7 0.652527 0.578343 0.980889
Si Si8 0.920658 0.079639 0.211711
O O1 0.480302 0.750000 0.205281
O O2 0.222190 0.962975 0.313675
O O3 0.557278 0.959090 0.240411
O O4 0.555566 0.020526 0.152983
O O5 0.838903 0.750000 0.536343
O O6 0.614383 0.514842 0.619743
O O7 0.000000 0.500000 0.500000
O O8 0.853969 0.538041 0.467808
O O9 0.986046 0.750000 0.367236
O O10 0.936770 0.493997 0.350632
O O11 0.516576 0.750000 0.317777
O O12 0.765022 0.529187 0.242596
O O13 0.468475 0.750000 0.893973
O O14 0.722541 0.975400 0.813964
O O15 0.353991 0.004435 0.966280
O O16 0.044627 0.250000 0.276970
O O17 0.939524 0.031642 0.258796
O O18 0.595312 0.750000 0.003836
O O19 0.871807 0.556134 0.885604
O O20 0.500000 0.500000 0.000000
O O21 0.851160 0.250000 0.231842
#
# Coordination Sequence:
#
# PCOD8071645 Si02
#       8
#     4   4   4   4   4   4   4   4
#     4   9  18  35  54  79 114 146 181 229 281 329
#     4  11  21  36  58  85 116 149 188 235 282 331
#     4   9  18  33  54  82 112 141 181 231 278 327
#     4  11  23  39  58  84 115 149 192 233 279 340
#     4  10  19  33  55  86 114 141 186 233 280 335
#     4   9  18  34  54  80 113 145 182 229 278 332
#     4  11  21  36  58  84 115 148 188 236 283 333
#     4  10  22  40  57  80 115 151 186 228 282 338
#
# _framework density 18.187203
#
# number of rings (size 3 to 8) (size 9 to 14) (size 15 to 20)
#    0.000    2.000    2.500    1.500    0.000    4.000 
#    0.000    1.250    0.000    0.000    0.000    0.000 
#    0.000    0.000    0.000    0.000    0.000    0.000 
#
# Total GULP energy -396881.483116 kJ/mol
# GULP energy per Si atom -12402.546347 kJ/mol
# Density = 1.814581 g / cm^3
# Si number density = 18.187203 Si / 1000 Ang^3
#
#
#
# Elastic Constant Matrix: (Units=GPa)
#
#
# Indices 1 2 3 4 5 6 
#
# 1 124.7804 57.3854 57.7152 0.0000 20.4549 0.0000
# 2 57.3854 86.4732 54.2862 0.0000 16.3164 0.0000
# 3 57.7152 54.2862 83.4348 0.0000 20.1633 0.0000
# 4 0.0000 0.0000 0.0000 32.4287 0.0000 4.0403
# 5 20.4549 16.3164 20.1633 0.0000 30.5116 0.0000
# 6 0.0000 0.0000 0.0000 4.0403 0.0000 35.2479
#
#
#
# Elastic Compliance Matrix: (Units=1/GPa)
#
#
# Indices 1 2 3 4 5 6 
#
# 1 0.013145 -0.004927 -0.005230 0.000000 -0.002722 0.000000
# 2 -0.004927 0.021549 -0.010266 0.000000 -0.001437 0.000000
# 3 -0.005230 -0.010266 0.023930 0.000000 -0.006818 0.000000
# 4 0.000000 0.000000 0.000000 0.031284 0.000000 -0.003586
# 5 -0.002722 -0.001437 -0.006818 0.000000 0.039873 0.000000
# 6 0.000000 0.000000 0.000000 -0.003586 0.000000 0.028781
#
#
# Mechanical properties :
#
#
# Convention : Reuss Voigt Hill
#
# Bulk Modulus (GPa) = 56.24189 70.38467 63.31328
# Shear Modulus (GPa) = 24.35063 27.99109 26.17086
#
# Velocity S-wave (km/s) = 3.66305 3.92733 3.79749
# Velocity P-wave (km/s) = 6.99154 7.70386 7.35632
#
# Compressibility (1/GPa) = 0.01778034
#
# Stress axis : x y z
#
# Youngs Moduli (GPa) = 76.07574 46.40486 41.78848
#
# Poissons Ratio (x) = 0.22862 0.21854
# Poissons Ratio (y) = 0.37479 0.42899
# Poissons Ratio (z) = 0.39785 0.47638
#
# Static dielectric constant tensor:
#      x y z
#    x 3.505860 0.000000 -0.112420 
#    y 0.000000 3.397600 0.000000 
#    z -0.112420 0.000000 4.589650 
# 
# 
# High freq. dielectric constant tensor:
#      x y z
#    x 1.701560 0.000000 0.023980 
#    y 0.000000 1.711000 0.000000 
#    z 0.023980 0.000000 1.693950 
# 
# From -- ./inp_files/38297.got.cif
#   From: 2010.06.25/outbox.cif.g09.slc.cpg/sg11_20_cif.got.tgz:38297.got - 2010.06.27 23:14:04.
