data_PCOD8071175
_publ_section_title
;
Structure prediction by ZEFSAII (Michael W. Deem and Ramdas Pophale) SiO2 
 PCOD8071175
Probable space group: P 21/M
;
_chemical_formula_sum "Si O2"
_cell_formula_units_Z 32
_cell_length_a 23.664491
_cell_length_b 9.094376
_cell_length_c 11.752807
_cell_angle_alpha 90.000000
_cell_angle_beta 135.099900
_cell_angle_gamma 90.000000
_cell_volume 1785.410684
_symmetry_space_group_name_H-M "P 21/M"
_symmetry_group_IT_number 11
_symmetry_cell_setting 'monoclinic'
loop_
_space_group_symop_operation_xyz
x,y,z
-x,1/2+y,-z
-x,-y,-z
x,1/2-y,z
loop_
_atom_site_type_symbol
_atom_site_label
_atom_site_fract_x
_atom_site_fract_y
_atom_site_fract_z
Si Si1 0.180570 0.079580 0.805353
Si Si2 0.930865 0.079734 0.969392
Si Si3 0.506189 0.921211 0.628264
Si Si4 0.037276 0.420061 0.760799
Si Si5 0.220920 0.919469 0.401300
Si Si6 0.356250 0.424716 0.466791
Si Si7 0.856659 0.422804 0.471657
Si Si8 0.680574 0.580248 0.838725
O O1 0.199740 0.250000 0.811907
O O2 0.091294 0.056825 0.726418
O O3 0.188516 0.998367 0.697008
O O4 0.245805 0.009585 0.985915
O O5 0.953193 0.250000 0.008630
O O6 0.922153 0.012980 0.081759
O O7 0.847656 0.053329 0.788288
O O8 0.000000 0.000000 0.000000
O O9 0.483866 0.750000 0.585912
O O10 0.599234 0.940878 0.797556
O O11 0.500000 0.000000 0.500000
O O12 0.442811 0.002423 0.620604
O O13 0.034761 0.250000 0.795460
O O14 0.948220 0.479102 0.609259
O O15 0.248259 0.750000 0.440862
O O16 0.189139 0.968014 0.479190
O O17 0.295189 0.022736 0.476160
O O18 0.365340 0.250000 0.482491
O O19 0.327842 0.484701 0.301563
O O20 0.855610 0.250000 0.450085
O O21 0.700474 0.750000 0.848912
#
# Coordination Sequence:
#
# PCOD8071175 Si02
#       8
#     4   4   4   4   4   4   4   4
#     4  10  20  34  54  76  99 132 177 219 255 300
#     4  11  21  34  53  76 103 135 171 210 257 312
#     4   9  16  29  50  76 109 141 166 201 255 311
#     4  10  20  36  54  74 104 137 170 217 266 307
#     4  10  21  36  51  71 104 140 170 209 260 309
#     4  10  19  32  53  81 107 133 169 209 255 312
#     4  10  21  37  51  68 102 140 175 216 262 305
#     4   8  16  31  50  76 107 134 161 202 256 305
#
# _framework density 17.923048000000001
#
# number of rings (size 3 to 8) (size 9 to 14) (size 15 to 20)
#    0.000    2.250    1.250    3.000    0.000    3.500 
#    0.000    3.750    0.000    0.750    0.000    0.000 
#    0.000    0.000    0.000    0.000    0.000    0.000 
#
# Total GULP energy -396740.849332 kJ/mol
# GULP energy per Si atom -12398.151542 kJ/mol
# Density = 1.788225 g / cm^3
# Si number density = 17.923048 Si / 1000 Ang^3
#
#
#
# Elastic Constant Matrix: (Units=GPa)
#
#
# Indices 1 2 3 4 5 6 
#
# 1 110.2762 44.4789 50.6595 0.0000 12.0796 0.0000
# 2 44.4789 63.1067 22.4350 0.0000 4.6642 0.0000
# 3 50.6595 22.4350 67.8751 0.0000 -1.0894 0.0000
# 4 0.0000 0.0000 0.0000 26.3392 0.0000 -1.0890
# 5 12.0796 4.6642 -1.0894 0.0000 29.6870 0.0000
# 6 0.0000 0.0000 0.0000 -1.0890 0.0000 29.9262
#
#
#
# Elastic Compliance Matrix: (Units=1/GPa)
#
#
# Indices 1 2 3 4 5 6 
#
# 1 0.018195 -0.008478 -0.010882 0.000000 -0.006471 0.000000
# 2 -0.008478 0.022185 -0.001007 0.000000 -0.000073 0.000000
# 3 -0.010882 -0.001007 0.023275 0.000000 0.005440 0.000000
# 4 0.000000 0.000000 0.000000 0.038023 0.000000 0.001384
# 5 -0.006471 -0.000073 0.005440 0.000000 0.036529 0.000000
# 6 0.000000 0.000000 0.000000 0.001384 0.000000 0.033466
#
#
# Mechanical properties :
#
#
# Convention : Reuss Voigt Hill
#
# Bulk Modulus (GPa) = 43.62533 52.93384 48.27958
# Shear Modulus (GPa) = 22.72246 25.43613 24.07930
#
# Velocity S-wave (km/s) = 3.56445 3.77129 3.66933
# Velocity P-wave (km/s) = 6.42912 6.96862 6.70430
#
# Compressibility (1/GPa) = 0.02292246
#
# Stress axis : x y z
#
# Youngs Moduli (GPa) = 54.95886 45.07637 42.96454
#
# Poissons Ratio (x) = 0.38214 0.46755
# Poissons Ratio (y) = 0.46592 0.04325
# Poissons Ratio (z) = 0.59807 0.04537
#
# Static dielectric constant tensor:
#      x y z
#    x 3.236580 0.000000 0.125500 
#    y 0.000000 3.322560 0.000000 
#    z 0.125500 0.000000 3.244470 
# 
# 
# High freq. dielectric constant tensor:
#      x y z
#    x 1.694920 0.000000 0.015020 
#    y 0.000000 1.685710 0.000000 
#    z 0.015020 0.000000 1.674040 
# 
# From -- ./inp_files/42911.got.cif
#   From: 2010.06.25/outbox.cif.g09.slc.cpg/sg11_22_cif.got.tgz:42911.got - 2010.06.27 23:14:04.
