data_PCOD8071795
_publ_section_title
;
Structure prediction by ZEFSAII (Michael W. Deem and Ramdas Pophale) SiO2 
 PCOD8071795
Probable space group: P 21/M
;
_chemical_formula_sum "Si O2"
_cell_formula_units_Z 28
_cell_length_a 12.498048
_cell_length_b 8.765301
_cell_length_c 14.996202
_cell_angle_alpha 90.000000
_cell_angle_beta 74.132006
_cell_angle_gamma 90.000000
_cell_volume 1580.220198
_symmetry_space_group_name_H-M "P 21/M"
_symmetry_group_IT_number 11
_symmetry_cell_setting 'monoclinic'
loop_
_space_group_symop_operation_xyz
x,y,z
-x,1/2+y,-z
-x,-y,-z
x,1/2-y,z
loop_
_atom_site_type_symbol
_atom_site_label
_atom_site_fract_x
_atom_site_fract_y
_atom_site_fract_z
Si Si1 0.259316 0.430827 0.086865
Si Si2 0.395970 0.429942 0.223493
Si Si3 0.017058 0.069555 0.092819
Si Si4 0.653843 0.073073 0.394160
Si Si5 0.575185 0.427252 0.604217
Si Si6 0.374517 0.427983 0.881644
Si Si7 0.190845 0.073363 0.775118
O O1 0.259285 0.250000 0.085745
O O2 0.312780 0.492192 0.166249
O O3 0.133672 0.491704 0.106120
O O4 0.334153 0.487143 0.987079
O O5 0.385143 0.250000 0.238354
O O6 0.360177 0.512259 0.323595
O O7 0.521347 0.471016 0.169433
O O8 0.018459 0.250000 0.082169
O O9 0.921561 0.019398 0.182518
O O10 0.000000 0.000000 0.000000
O O11 0.668032 0.250000 0.368492
O O12 0.652010 0.042430 0.500686
O O13 0.539916 0.017566 0.375894
O O14 0.757422 0.981465 0.330231
O O15 0.545203 0.250000 0.620924
O O16 0.407877 0.250000 0.873970
O O17 0.275671 0.460105 0.835454
O O18 0.160526 0.250000 0.775400
#
# Coordination Sequence:
#
# PCOD8071795 Si02
#       7
#     4   4   4   4   4   4   4
#     4   9  20  37  53  73 106 145 180 220 262 307
#     4  11  21  33  53  79 107 142 182 215 258 319
#     4  11  21  37  57  77 106 142 184 226 266 310
#     4  10  20  34  54  79 105 139 178 214 263 322
#     4  10  20  34  52  77 110 140 170 217 269 314
#     4  10  19  34  52  74 109 145 173 212 267 312
#     4  11  21  34  55  81 111 140 173 222 272 312
#
# _framework density 17.719049999999999
#
# number of rings (size 3 to 8) (size 9 to 14) (size 15 to 20)
#    0.000    1.714    2.857    2.571    0.000    2.286 
#    0.000    3.571    0.000    0.857    0.000    0.000 
#    0.000    0.000    0.000    0.000    0.000    0.000 
#
# Total GULP energy -347280.960693 kJ/mol
# GULP energy per Si atom -12402.891453 kJ/mol
# Density = 1.767872 g / cm^3
# Si number density = 17.719050 Si / 1000 Ang^3
#
#
#
# Elastic Constant Matrix: (Units=GPa)
#
#
# Indices 1 2 3 4 5 6 
#
# 1 69.1735 28.2740 47.4056 0.0000 9.7542 0.0000
# 2 28.2740 47.7914 30.2687 0.0000 6.7962 0.0000
# 3 47.4056 30.2687 131.5400 0.0000 10.0742 0.0000
# 4 0.0000 0.0000 0.0000 31.6805 0.0000 -1.0330
# 5 9.7542 6.7962 10.0742 0.0000 26.3950 0.0000
# 6 0.0000 0.0000 0.0000 -1.0330 0.0000 21.0350
#
#
#
# Elastic Compliance Matrix: (Units=1/GPa)
#
#
# Indices 1 2 3 4 5 6 
#
# 1 0.022730 -0.009250 -0.005771 0.000000 -0.003816 0.000000
# 2 -0.009250 0.028737 -0.003064 0.000000 -0.002812 0.000000
# 3 -0.005771 -0.003064 0.010469 0.000000 -0.001074 0.000000
# 4 0.000000 0.000000 0.000000 0.031616 0.000000 0.001553
# 5 -0.003816 -0.002812 -0.001074 0.000000 0.040430 0.000000
# 6 0.000000 0.000000 0.000000 0.001553 0.000000 0.047616
#
#
# Mechanical properties :
#
#
# Convention : Reuss Voigt Hill
#
# Bulk Modulus (GPa) = 38.80909 51.15573 44.98241
# Shear Modulus (GPa) = 22.08906 25.32587 23.70747
#
# Velocity S-wave (km/s) = 3.53459 3.78471 3.66179
# Velocity P-wave (km/s) = 6.21352 6.93050 6.58178
#
# Compressibility (1/GPa) = 0.02576716
#
# Stress axis : x y z
#
# Youngs Moduli (GPa) = 43.99442 34.79858 95.51685
#
# Poissons Ratio (x) = 0.32188 0.55123
# Poissons Ratio (y) = 0.40694 0.29264
# Poissons Ratio (z) = 0.25389 0.10662
#
# Static dielectric constant tensor:
#      x y z
#    x 3.319300 0.000000 0.063780 
#    y 0.000000 3.285250 0.000000 
#    z 0.063780 0.000000 3.549180 
# 
# 
# High freq. dielectric constant tensor:
#      x y z
#    x 1.661920 0.000000 -0.000550 
#    y 0.000000 1.686030 0.000000 
#    z -0.000550 0.000000 1.694850 
# 
# From -- ./inp_files/42589.got.cif
#   From: 2010.06.25/outbox.cif.g09.slc.cpg/sg11_22_cif.got.tgz:42589.got - 2010.06.27 23:14:04.
