data_PCOD8071039
_publ_section_title
;
Structure prediction by ZEFSAII (Michael W. Deem and Ramdas Pophale) SiO2 
 PCOD8071039
Probable space group: P 21/M
;
_chemical_formula_sum "Si O2"
_cell_formula_units_Z 32
_cell_length_a 28.155287
_cell_length_b 10.286511
_cell_length_c 12.935428
_cell_angle_alpha 90.000000
_cell_angle_beta 27.598738
_cell_angle_gamma 90.000000
_cell_volume 1735.598003
_symmetry_space_group_name_H-M "P 21/M"
_symmetry_group_IT_number 11
_symmetry_cell_setting 'monoclinic'
loop_
_space_group_symop_operation_xyz
x,y,z
-x,1/2+y,-z
-x,-y,-z
x,1/2-y,z
loop_
_atom_site_type_symbol
_atom_site_label
_atom_site_fract_x
_atom_site_fract_y
_atom_site_fract_z
Si Si1 0.591077 0.601818 0.674900
Si Si2 0.215750 0.107417 0.829239
Si Si3 0.959474 0.890068 0.357704
Si Si4 0.629744 0.102745 0.946303
Si Si5 0.290898 0.893142 0.426191
Si Si6 0.083343 0.531596 0.926183
Si Si7 0.812208 0.096817 0.721912
Si Si8 0.846737 0.396422 0.890486
O O1 0.580568 0.750000 0.739810
O O2 0.666464 0.602823 0.432269
O O3 0.636921 0.506827 0.672059
O O4 0.481657 0.536722 0.853607
O O5 0.190008 0.250000 0.925167
O O6 0.137550 0.087979 0.883015
O O7 0.210925 0.997201 0.924929
O O8 0.901235 0.750000 0.474882
O O9 0.033307 0.899955 0.314733
O O10 0.884548 0.012687 0.506707
O O11 0.026282 0.885190 0.123839
O O12 0.598814 0.250000 0.025626
O O13 0.707287 0.086368 0.700370
O O14 0.695199 0.055780 0.919436
O O15 0.336317 0.750000 0.366012
O O16 0.174986 0.893227 0.692133
O O17 0.000000 0.500000 0.000000
O O18 0.832968 0.250000 0.660498
O O19 0.831695 0.058385 0.802118
O O20 0.802525 0.250000 0.992230
#
# Coordination Sequence:
#
# PCOD8071039 Si02
#       8
#     4   4   4   4   4   4   4   4
#     4   9  18  34  53  74 101 133 166 203 249 300
#     4   9  19  33  52  76 100 131 170 206 245 297
#     4  10  20  33  49  73 104 135 164 204 254 298
#     4   9  18  33  53  75 100 130 167 209 251 294
#     4  10  19  32  52  76 101 134 171 206 244 293
#     4  10  20  33  50  75 106 137 169 206 247 295
#     4  10  20  35  54  75  98 130 171 210 249 300
#     4   9  19  35  54  74  99 132 168 206 251 299
#
# _framework density 18.437449000000001
#
# number of rings (size 3 to 8) (size 9 to 14) (size 15 to 20)
#    0.000    2.500    0.000    1.875    0.000    6.500 
#    0.000    4.375    0.000    0.000    0.000    0.000 
#    0.000    0.000    0.000    0.000    0.000    0.000 
#
# Total GULP energy -396420.152975 kJ/mol
# GULP energy per Si atom -12388.129780 kJ/mol
# Density = 1.839548 g / cm^3
# Si number density = 18.437449 Si / 1000 Ang^3
#
#
#
# Elastic Constant Matrix: (Units=GPa)
#
#
# Indices 1 2 3 4 5 6 
#
# 1 111.5730 37.7062 51.9569 0.0000 -14.5185 0.0000
# 2 37.7062 101.0597 39.8239 0.0000 -1.6033 0.0000
# 3 51.9569 39.8239 85.3567 0.0000 -9.7270 0.0000
# 4 0.0000 0.0000 0.0000 20.4962 0.0000 3.7580
# 5 -14.5185 -1.6033 -9.7270 0.0000 21.0767 0.0000
# 6 0.0000 0.0000 0.0000 3.7580 0.0000 15.6295
#
#
#
# Elastic Compliance Matrix: (Units=1/GPa)
#
#
# Indices 1 2 3 4 5 6 
#
# 1 0.013587 -0.002439 -0.006425 0.000000 0.006209 0.000000
# 2 -0.002439 0.012626 -0.004737 0.000000 -0.002906 0.000000
# 3 -0.006425 -0.004737 0.018251 0.000000 0.003637 0.000000
# 4 0.000000 0.000000 0.000000 0.051040 0.000000 -0.012272
# 5 0.006209 -0.002906 0.003637 0.000000 0.053180 0.000000
# 6 0.000000 0.000000 0.000000 -0.012272 0.000000 0.066932
#
#
# Mechanical properties :
#
#
# Convention : Reuss Voigt Hill
#
# Bulk Modulus (GPa) = 57.93264 61.88482 59.90873
# Shear Modulus (GPa) = 20.11497 22.67397 21.39447
#
# Velocity S-wave (km/s) = 3.30659 3.51062 3.41013
# Velocity P-wave (km/s) = 6.78730 7.07603 6.93317
#
# Compressibility (1/GPa) = 0.01726143
#
# Stress axis : x y z
#
# Youngs Moduli (GPa) = 73.60067 79.20279 54.79149
#
# Poissons Ratio (x) = 0.19318 0.35203
# Poissons Ratio (y) = 0.17952 0.25956
# Poissons Ratio (z) = 0.47288 0.37520
#
# Static dielectric constant tensor:
#      x y z
#    x 3.436470 0.000000 -0.117300 
#    y 0.000000 3.495750 0.000000 
#    z -0.117300 0.000000 3.375130 
# 
# 
# High freq. dielectric constant tensor:
#      x y z
#    x 1.708430 0.000000 -0.002720 
#    y 0.000000 1.710790 0.000000 
#    z -0.002720 0.000000 1.705210 
# 
# From -- ./inp_files/44758.got.cif
#   From: 2010.06.25/outbox.cif.g09.slc.cpg/sg11_23_cif.got.tgz:44758.got - 2010.06.27 23:14:04.
