data_PCOD8071762
_publ_section_title
;
Structure prediction by ZEFSAII (Michael W. Deem and Ramdas Pophale) SiO2 
 PCOD8071762
Probable space group: P 21/M
;
_chemical_formula_sum "Si O2"
_cell_formula_units_Z 24
_cell_length_a 10.046720
_cell_length_b 8.940150
_cell_length_c 13.942470
_cell_angle_alpha 90.000000
_cell_angle_beta 89.512849
_cell_angle_gamma 90.000000
_cell_volume 1252.256011
_symmetry_space_group_name_H-M "P 21/M"
_symmetry_group_IT_number 11
_symmetry_cell_setting 'monoclinic'
loop_
_space_group_symop_operation_xyz
x,y,z
-x,1/2+y,-z
-x,-y,-z
x,1/2-y,z
loop_
_atom_site_type_symbol
_atom_site_label
_atom_site_fract_x
_atom_site_fract_y
_atom_site_fract_z
Si Si1 0.149897 0.424479 0.905001
Si Si2 0.224369 0.422313 0.282164
Si Si3 0.483347 0.073394 0.396685
Si Si4 0.035547 0.573931 0.598981
Si Si5 0.724199 0.926980 0.295967
Si Si6 0.154494 0.925344 0.097264
O O1 0.153609 0.250000 0.927197
O O2 0.239961 0.466986 0.813619
O O3 0.998451 0.476576 0.886093
O O4 0.209101 0.509016 0.996876
O O5 0.234521 0.250000 0.253868
O O6 0.336155 0.464067 0.359300
O O7 0.243598 0.514646 0.184249
O O8 0.081651 0.462997 0.326494
O O9 0.508835 0.250000 0.404666
O O10 0.500000 0.000000 0.500000
O O11 0.582995 0.000315 0.319679
O O12 0.057284 0.750000 0.585743
O O13 0.169695 0.498041 0.633450
O O14 0.000000 0.500000 0.500000
O O15 0.720245 0.750000 0.313594
O O16 0.170428 0.750000 0.093361
#
# Coordination Sequence:
#
# PCOD8071762 Si02
#       6
#     4   4   4   4   4   4
#     4   9  19  35  56  85 120 154 188 237 295 348
#     4  10  22  39  58  83 117 153 193 240 293 349
#     4  11  24  42  62  86 117 159 201 243 296 353
#     4  11  22  36  58  86 115 150 193 246 299 350
#     4  11  22  39  60  86 119 155 196 242 293 351
#     4  10  19  33  58  89 117 150 192 239 293 349
#
# _framework density 19.165410000000001
#
# number of rings (size 3 to 8) (size 9 to 14) (size 15 to 20)
#    0.000    1.667    1.667    3.000    0.000    5.333 
#    0.000    0.833    0.000    0.000    0.000    0.000 
#    0.000    0.000    0.000    0.000    0.000    0.000 
#
# Total GULP energy -297704.526043 kJ/mol
# GULP energy per Si atom -12404.355252 kJ/mol
# Density = 1.912179 g / cm^3
# Si number density = 19.165410 Si / 1000 Ang^3
#
#
#
# Elastic Constant Matrix: (Units=GPa)
#
#
# Indices 1 2 3 4 5 6 
#
# 1 42.4831 19.4910 10.4969 0.0000 -4.1368 0.0000
# 2 19.4910 79.1135 55.0943 0.0000 -0.4382 0.0000
# 3 10.4969 55.0943 128.2265 0.0000 5.2850 0.0000
# 4 0.0000 0.0000 0.0000 40.5832 0.0000 0.8360
# 5 -4.1368 -0.4382 5.2850 0.0000 29.6799 0.0000
# 6 0.0000 0.0000 0.0000 0.8360 0.0000 30.2247
#
#
#
# Elastic Compliance Matrix: (Units=1/GPa)
#
#
# Indices 1 2 3 4 5 6 
#
# 1 0.026973 -0.007116 0.000704 0.000000 0.003529 0.000000
# 2 -0.007116 0.019996 -0.008039 0.000000 0.000735 0.000000
# 3 0.000704 -0.008039 0.011279 0.000000 -0.002029 0.000000
# 4 0.000000 0.000000 0.000000 0.024655 0.000000 -0.000682
# 5 0.003529 0.000735 -0.002029 0.000000 0.034557 0.000000
# 6 0.000000 0.000000 0.000000 -0.000682 0.000000 0.033104
#
#
# Mechanical properties :
#
#
# Convention : Reuss Voigt Hill
#
# Bulk Modulus (GPa) = 34.07698 46.66527 40.37113
# Shear Modulus (GPa) = 26.42031 31.08029 28.75030
#
# Velocity S-wave (km/s) = 3.71690 4.03139 3.87733
# Velocity P-wave (km/s) = 6.01993 6.78756 6.41524
#
# Compressibility (1/GPa) = 0.02934533
#
# Stress axis : x y z
#
# Youngs Moduli (GPa) = 37.07372 50.01052 88.66144
#
# Poissons Ratio (x) = 0.35588 -0.06241
# Poissons Ratio (y) = 0.26382 0.71277
# Poissons Ratio (z) = -0.02610 0.40205
#
# Static dielectric constant tensor:
#      x y z
#    x 2.723470 0.000000 0.545410 
#    y 0.000000 3.569300 0.000000 
#    z 0.545410 0.000000 3.086660 
# 
# 
# High freq. dielectric constant tensor:
#      x y z
#    x 1.728370 0.000000 0.000320 
#    y 0.000000 1.754950 0.000000 
#    z 0.000320 0.000000 1.759710 
# 
# From -- ./inp_files/40806.got.cif
#   From: 2010.06.25/outbox.cif.g09.slc.cpg/sg11_21_cif.got.tgz:40806.got - 2010.06.27 23:14:04.
