data_PCOD8071835
_publ_section_title
;
Structure prediction by ZEFSAII (Michael W. Deem and Ramdas Pophale) SiO2 
 PCOD8071835
Probable space group: P 21/M
;
_chemical_formula_sum "Si O2"
_cell_formula_units_Z 28
_cell_length_a 31.543630
_cell_length_b 8.586984
_cell_length_c 31.543630
_cell_angle_alpha 90.000000
_cell_angle_beta 170.544767
_cell_angle_gamma 90.000000
_cell_volume 1403.591071
_symmetry_space_group_name_H-M "P 21/M"
_symmetry_group_IT_number 11
_symmetry_cell_setting 'monoclinic'
loop_
_space_group_symop_operation_xyz
x,y,z
-x,1/2+y,-z
-x,-y,-z
x,1/2-y,z
loop_
_atom_site_type_symbol
_atom_site_label
_atom_site_fract_x
_atom_site_fract_y
_atom_site_fract_z
Si Si1 0.096206 0.935013 0.903790
Si Si2 0.666921 0.065926 0.333062
Si Si3 0.238839 0.933420 0.761161
Si Si4 0.807893 0.564884 0.192123
Si Si5 0.476487 0.435008 0.523518
Si Si6 0.618872 0.435287 0.381125
Si Si7 0.047903 0.934743 0.952094
O O1 0.097403 0.750000 0.902597
O O2 0.072000 0.996251 0.927997
O O3 0.857532 0.000871 0.642625
O O4 0.357371 0.000872 0.142465
O O5 0.666081 0.250000 0.333911
O O6 0.642991 0.000426 0.357004
O O7 0.931078 0.006179 0.572750
O O8 0.427225 0.006180 0.068899
O O9 0.241486 0.750000 0.758517
O O10 0.214357 0.978545 0.785644
O O11 0.000000 0.000000 0.500000
O O12 0.500000 0.000000 0.000000
O O13 0.804293 0.750000 0.195725
O O14 0.500000 0.500000 0.500000
O O15 0.477345 0.250000 0.522661
O O16 0.713258 0.499817 0.785004
O O17 0.215002 0.499815 0.286748
O O18 0.618124 0.250000 0.381879
O O19 0.047738 0.750000 0.952262
#
# Coordination Sequence:
#
# PCOD8071835 Si02
#       7
#     4   4   4   4   4   4   4
#     4  11  22  39  61  86 115 156 201 240 284 347
#     4   9  19  35  58  83 114 155 194 229 286 357
#     4  12  25  42  63  91 123 158 197 244 296 349
#     4  10  19  36  60  85 112 152 199 239 280 343
#     4  10  19  34  54  77 103 138 179 226 278 336
#     4  11  22  39  61  89 121 155 194 243 295 346
#     4   9  19  35  55  75 105 146 185 221 275 344
#
# _framework density 19.948829
#
# number of rings (size 3 to 8) (size 9 to 14) (size 15 to 20)
#    0.000    1.714    0.000    5.143    0.000    5.714 
#    0.000    8.571    0.000    0.000    0.000    0.000 
#    0.000    0.000    0.000    0.000    0.000    0.000 
#
# Total GULP energy -347313.645812 kJ/mol
# GULP energy per Si atom -12404.058779 kJ/mol
# Density = 1.990342 g / cm^3
# Si number density = 19.948829 Si / 1000 Ang^3
#
#
#
# Elastic Constant Matrix: (Units=GPa)
#
#
# Indices 1 2 3 4 5 6 
#
# 1 220.3558 48.5819 124.9527 0.0000 0.2929 0.0000
# 2 48.5819 74.3530 46.7127 0.0000 -0.1645 0.0000
# 3 124.9527 46.7127 233.9877 0.0000 0.9141 0.0000
# 4 0.0000 0.0000 0.0000 23.7951 0.0000 -1.0079
# 5 0.2929 -0.1645 0.9141 0.0000 49.4025 0.0000
# 6 0.0000 0.0000 0.0000 -1.0079 0.0000 35.2236
#
#
#
# Elastic Compliance Matrix: (Units=1/GPa)
#
#
# Indices 1 2 3 4 5 6 
#
# 1 0.006895 -0.002506 -0.003182 0.000000 0.000010 0.000000
# 2 -0.002506 0.016290 -0.001914 0.000000 0.000105 0.000000
# 3 -0.003182 -0.001914 0.006355 0.000000 -0.000105 0.000000
# 4 0.000000 0.000000 0.000000 0.042076 0.000000 0.001204
# 5 0.000010 0.000105 -0.000105 0.000000 0.020244 0.000000
# 6 0.000000 0.000000 0.000000 0.001204 0.000000 0.028424
#
#
# Mechanical properties :
#
#
# Convention : Reuss Voigt Hill
#
# Bulk Modulus (GPa) = 69.75463 107.68789 88.72126
# Shear Modulus (GPa) = 35.64627 42.24753 38.94690
#
# Velocity S-wave (km/s) = 4.23174 4.60694 4.42332
# Velocity P-wave (km/s) = 7.67591 9.07732 8.40587
#
# Compressibility (1/GPa) = 0.01433597
#
# Stress axis : x y z
#
# Youngs Moduli (GPa) = 145.03755 61.38876 157.34888
#
# Poissons Ratio (x) = 0.15385 0.50063
# Poissons Ratio (y) = 0.36348 0.30119
# Poissons Ratio (z) = 0.46146 0.11751
#
# Static dielectric constant tensor:
#      x y z
#    x 3.952070 0.000000 0.005670 
#    y 0.000000 3.391280 0.000000 
#    z 0.005670 0.000000 4.016220 
# 
# 
# High freq. dielectric constant tensor:
#      x y z
#    x 1.800910 0.000000 0.000180 
#    y 0.000000 1.754100 0.000000 
#    z 0.000180 0.000000 1.802990 
# 
# From -- ./inp_files/73840.got.cif
#   From: 2010.06.25/outbox.cif.g09.slc.cpg/sg11_37_cif.got.tgz:73840.got - 2010.06.27 23:14:04.
