data_PCOD8071604
_publ_section_title
;
Structure prediction by ZEFSAII (Michael W. Deem and Ramdas Pophale) SiO2 
 PCOD8071604
Probable space group: P 21/M
;
_chemical_formula_sum "Si O2"
_cell_formula_units_Z 32
_cell_length_a 19.907164
_cell_length_b 9.233169
_cell_length_c 12.213234
_cell_angle_alpha 90.000000
_cell_angle_beta 125.712358
_cell_angle_gamma 90.000000
_cell_volume 1822.737936
_symmetry_space_group_name_H-M "P 21/M"
_symmetry_group_IT_number 11
_symmetry_cell_setting 'monoclinic'
loop_
_space_group_symop_operation_xyz
x,y,z
-x,1/2+y,-z
-x,-y,-z
x,1/2-y,z
loop_
_atom_site_type_symbol
_atom_site_label
_atom_site_fract_x
_atom_site_fract_y
_atom_site_fract_z
Si Si1 0.619442 0.414922 0.592055
Si Si2 0.021627 0.084066 0.680940
Si Si3 0.870469 0.081940 0.380585
Si Si4 0.540075 0.581320 0.137881
Si Si5 0.781043 0.082383 0.628777
Si Si6 0.037454 0.581119 0.138164
Si Si7 0.729801 0.578968 0.362335
Si Si8 0.506000 0.418681 0.672464
O O1 0.593549 0.250000 0.544084
O O2 0.717495 0.436513 0.669997
O O3 0.591169 0.457177 0.689010
O O4 0.572341 0.510230 0.459355
O O5 0.048918 0.250000 0.687794
O O6 0.931986 0.058031 0.541322
O O7 0.015498 0.046611 0.803391
O O8 0.089300 0.978868 0.692453
O O9 0.849534 0.250000 0.342879
O O10 0.786993 0.994118 0.324482
O O11 0.528827 0.750000 0.105703
O O12 0.636066 0.540759 0.242158
O O13 0.489598 0.529329 0.197913
O O14 0.500000 0.500000 0.000000
O O15 0.786779 0.250000 0.595248
O O16 0.869026 0.026363 0.755033
O O17 0.750414 0.986380 0.499673
O O18 0.036578 0.750000 0.110694
O O19 0.000000 0.500000 0.000000
O O20 0.746050 0.750000 0.380728
O O21 0.485906 0.250000 0.652308
#
# Coordination Sequence:
#
# PCOD8071604 Si02
#       8
#     4   4   4   4   4   4   4   4
#     4   9  17  29  53  80 103 134 171 217 264 308
#     4   9  18  34  53  77 110 143 176 222 272 317
#     4  10  19  33  55  82 108 137 177 225 272 321
#     4  10  22  37  53  75 109 147 181 220 265 319
#     4  10  19  34  54  80 108 137 178 225 267 317
#     4  10  21  37  54  76 111 147 180 221 268 321
#     4  11  21  34  54  81 109 140 179 226 271 317
#     4   9  17  32  50  76 109 137 169 213 264 313
#
# _framework density 17.556006
#
# number of rings (size 3 to 8) (size 9 to 14) (size 15 to 20)
#    0.000    2.250    2.500    0.750    0.000    3.000 
#    0.000    1.250    0.000    1.500    0.000    0.000 
#    0.000    0.000    0.000    0.000    0.000    0.000 
#
# Total GULP energy -396776.236586 kJ/mol
# GULP energy per Si atom -12399.257393 kJ/mol
# Density = 1.751605 g / cm^3
# Si number density = 17.556006 Si / 1000 Ang^3
#
#
#
# Elastic Constant Matrix: (Units=GPa)
#
#
# Indices 1 2 3 4 5 6 
#
# 1 133.4207 59.1543 72.9598 0.0000 -7.8746 0.0000
# 2 59.1543 73.0979 55.8177 0.0000 -2.9705 0.0000
# 3 72.9598 55.8177 123.8585 0.0000 -12.4169 0.0000
# 4 0.0000 0.0000 0.0000 30.8626 0.0000 -2.2200
# 5 -7.8746 -2.9705 -12.4169 0.0000 25.1435 0.0000
# 6 0.0000 0.0000 0.0000 -2.2200 0.0000 28.3921
#
#
#
# Elastic Compliance Matrix: (Units=1/GPa)
#
#
# Indices 1 2 3 4 5 6 
#
# 1 0.013179 -0.007283 -0.004370 0.000000 0.001109 0.000000
# 2 -0.007283 0.025009 -0.007273 0.000000 -0.002918 0.000000
# 3 -0.004370 -0.007273 0.014416 0.000000 0.004891 0.000000
# 4 0.000000 0.000000 0.000000 0.032585 0.000000 0.002548
# 5 0.001109 -0.002918 0.004891 0.000000 0.042190 0.000000
# 6 0.000000 0.000000 0.000000 0.002548 0.000000 0.035420
#
#
# Mechanical properties :
#
#
# Convention : Reuss Voigt Hill
#
# Bulk Modulus (GPa) = 67.78658 78.47120 73.12889
# Shear Modulus (GPa) = 24.32269 26.37599 25.34934
#
# Velocity S-wave (km/s) = 3.72618 3.88027 3.80401
# Velocity P-wave (km/s) = 7.56360 8.05419 7.81275
#
# Compressibility (1/GPa) = 0.01475218
#
# Stress axis : x y z
#
# Youngs Moduli (GPa) = 75.87569 39.98505 69.36861
#
# Poissons Ratio (x) = 0.29123 0.30314
# Poissons Ratio (y) = 0.55264 0.50450
# Poissons Ratio (z) = 0.33157 0.29080
#
# Static dielectric constant tensor:
#      x y z
#    x 3.640860 0.000000 -0.051990 
#    y 0.000000 3.274130 0.000000 
#    z -0.051990 0.000000 2.997340 
# 
# 
# High freq. dielectric constant tensor:
#      x y z
#    x 1.698570 0.000000 -0.008970 
#    y 0.000000 1.680090 0.000000 
#    z -0.008970 0.000000 1.645510 
# 
# From -- ./inp_files/42931.got.cif
#   From: 2010.06.25/outbox.cif.g09.slc.cpg/sg11_22_cif.got.tgz:42931.got - 2010.06.27 23:14:04.
