data_PCOD8071204
_publ_section_title
;
Structure prediction by ZEFSAII (Michael W. Deem and Ramdas Pophale) SiO2 
 PCOD8071204
Probable space group: P 21/M
;
_chemical_formula_sum "Si O2"
_cell_formula_units_Z 24
_cell_length_a 8.861804
_cell_length_b 13.818277
_cell_length_c 15.354438
_cell_angle_alpha 90.000000
_cell_angle_beta 137.901383
_cell_angle_gamma 90.000000
_cell_volume 1260.519612
_symmetry_space_group_name_H-M "P 21/M"
_symmetry_group_IT_number 11
_symmetry_cell_setting 'monoclinic'
loop_
_space_group_symop_operation_xyz
x,y,z
-x,1/2+y,-z
-x,-y,-z
x,1/2-y,z
loop_
_atom_site_type_symbol
_atom_site_label
_atom_site_fract_x
_atom_site_fract_y
_atom_site_fract_z
Si Si1 0.101860 0.519240 0.359203
Si Si2 0.294639 0.356218 0.750081
Si Si3 0.607971 0.357361 0.388326
Si Si4 0.969156 0.605522 0.523666
Si Si5 0.197655 0.864176 0.061398
Si Si6 0.826561 0.523864 0.808506
O O1 0.280244 0.591689 0.479986
O O2 0.099117 0.411821 0.404545
O O3 0.174993 0.503024 0.292846
O O4 0.853950 0.567270 0.259703
O O5 0.261253 0.250000 0.777889
O O6 0.226700 0.346274 0.618124
O O7 0.553439 0.387310 0.866961
O O8 0.523925 0.250000 0.379310
O O9 0.404242 0.422002 0.265409
O O10 0.790481 0.342768 0.388221
O O11 0.000000 0.500000 0.500000
O O12 0.162215 0.750000 0.064334
O O13 0.149810 0.923647 0.129137
O O14 0.029141 0.902379 0.915147
#
# Coordination Sequence:
#
# PCOD8071204 Si02
#       6
#     4   4   4   4   4   4
#     4  10  19  32  54  81 107 135 174 226 272 307
#     4   9  17  33  54  75 101 136 179 216 255 312
#     4  10  19  34  55  81 114 146 174 209 264 325
#     4   8  15  30  52  75 102 135 172 212 260 311
#     4  10  22  39  56  73 102 146 186 220 263 317
#     4  11  22  36  55  79 110 141 177 222 268 318
#
# _framework density 19.039767000000001
#
# number of rings (size 3 to 8) (size 9 to 14) (size 15 to 20)
#    0.000    2.667    0.000    6.000    0.000    2.000 
#    0.000    5.000    0.000    4.000    0.000    0.000 
#    0.000    0.000    0.000    0.000    0.000    0.000 
#
# Total GULP energy -297389.278558 kJ/mol
# GULP energy per Si atom -12391.219940 kJ/mol
# Density = 1.899643 g / cm^3
# Si number density = 19.039767 Si / 1000 Ang^3
#
#
#
# Elastic Constant Matrix: (Units=GPa)
#
#
# Indices 1 2 3 4 5 6 
#
# 1 33.7357 22.7019 15.0055 0.0000 3.0835 0.0000
# 2 22.7019 103.7197 32.6854 0.0000 7.1142 0.0000
# 3 15.0055 32.6854 72.4701 0.0000 20.8967 0.0000
# 4 0.0000 0.0000 0.0000 55.0855 0.0000 21.7425
# 5 3.0835 7.1142 20.8967 0.0000 37.4828 0.0000
# 6 0.0000 0.0000 0.0000 21.7425 0.0000 25.8311
#
#
#
# Elastic Compliance Matrix: (Units=1/GPa)
#
#
# Indices 1 2 3 4 5 6 
#
# 1 0.036032 -0.006428 -0.004836 0.000000 0.000952 0.000000
# 2 -0.006428 0.012407 -0.004454 0.000000 0.000657 0.000000
# 3 -0.004836 -0.004454 0.019602 0.000000 -0.009685 0.000000
# 4 0.000000 0.000000 0.000000 0.027185 0.000000 -0.022882
# 5 0.000952 0.000657 -0.009685 0.000000 0.031875 0.000000
# 6 0.000000 0.000000 0.000000 -0.022882 0.000000 0.057974
#
#
# Mechanical properties :
#
#
# Convention : Reuss Voigt Hill
#
# Bulk Modulus (GPa) = 27.31956 38.96793 33.14374
# Shear Modulus (GPa) = 21.86152 32.98205 27.42178
#
# Velocity S-wave (km/s) = 3.39219 4.16657 3.79916
# Velocity P-wave (km/s) = 5.45183 6.60743 6.05725
#
# Compressibility (1/GPa) = 0.03660382
#
# Stress axis : x y z
#
# Youngs Moduli (GPa) = 27.75332 80.60032 51.01594
#
# Poissons Ratio (x) = 0.51808 0.24672
# Poissons Ratio (y) = 0.17839 0.22724
# Poissons Ratio (z) = 0.13422 0.35902
#
# Static dielectric constant tensor:
#      x y z
#    x 4.004960 0.000000 -0.088660 
#    y 0.000000 4.209640 0.000000 
#    z -0.088660 0.000000 3.651920 
# 
# 
# High freq. dielectric constant tensor:
#      x y z
#    x 1.718690 0.000000 0.023070 
#    y 0.000000 1.747890 0.000000 
#    z 0.023070 0.000000 1.730550 
# 
# From -- ./inp_files/47713.got.cif
#   From: 2010.06.25/outbox.cif.g09.slc.cpg/sg11_24_cif.got.tgz:47713.got - 2010.06.27 23:14:04.
