data_PCOD8071971
_publ_section_title
;
Structure prediction by ZEFSAII (Michael W. Deem and Ramdas Pophale) SiO2 
 PCOD8071971
Probable space group: P 21/M
;
_chemical_formula_sum "Si O2"
_cell_formula_units_Z 28
_cell_length_a 12.226038
_cell_length_b 8.872558
_cell_length_c 26.978828
_cell_angle_alpha 90.000000
_cell_angle_beta 148.939732
_cell_angle_gamma 90.000000
_cell_volume 1509.928495
_symmetry_space_group_name_H-M "P 21/M"
_symmetry_group_IT_number 11
_symmetry_cell_setting 'monoclinic'
loop_
_space_group_symop_operation_xyz
x,y,z
-x,1/2+y,-z
-x,-y,-z
x,1/2-y,z
loop_
_atom_site_type_symbol
_atom_site_label
_atom_site_fract_x
_atom_site_fract_y
_atom_site_fract_z
Si Si1 0.538075 0.426135 0.145485
Si Si2 0.661873 0.429267 0.024191
Si Si3 0.480619 0.929229 0.659687
Si Si4 0.974268 0.574934 0.684250
Si Si5 0.891670 0.928596 0.760532
Si Si6 0.098002 0.572997 0.443157
Si Si7 0.622177 0.928469 0.278487
O O1 0.484648 0.250000 0.126068
O O2 0.501961 0.496260 0.185659
O O3 0.775602 0.457536 0.219344
O O4 0.379576 0.509947 0.046880
O O5 0.638670 0.250000 0.016933
O O6 0.897506 0.484023 0.129804
O O7 0.500000 0.500000 0.000000
O O8 0.479952 0.750000 0.666919
O O9 0.686126 0.986755 0.709784
O O10 0.273825 0.985969 0.549719
O O11 0.487810 0.009863 0.715161
O O12 0.926239 0.750000 0.659602
O O13 0.885803 0.509608 0.701803
O O14 0.855747 0.493001 0.593215
O O15 0.893487 0.750000 0.758446
O O16 0.112503 0.750000 0.443422
O O17 0.868678 0.520911 0.374041
O O18 0.598492 0.750000 0.265933
#
# Coordination Sequence:
#
# PCOD8071971 Si02
#       7
#     4   4   4   4   4   4   4
#     4  10  19  34  56  82 107 136 177 218 264 314
#     4  11  20  34  56  82 109 138 174 216 264 313
#     4  10  20  36  55  74 104 145 181 215 259 313
#     4   9  17  32  52  76 106 139 172 212 263 316
#     4   9  19  35  53  76 108 142 175 213 262 316
#     4   9  19  33  52  79 106 136 176 221 263 305
#     4  10  20  35  54  79 109 137 175 224 266 305
#
# _framework density 18.543925999999999
#
# number of rings (size 3 to 8) (size 9 to 14) (size 15 to 20)
#    0.000    2.286    1.429    1.714    0.000    2.286 
#    0.000    2.857    0.000    0.000    0.000    0.000 
#    0.000    0.000    0.000    0.000    0.000    0.000 
#
# Total GULP energy -347257.334568 kJ/mol
# GULP energy per Si atom -12402.047663 kJ/mol
# Density = 1.850172 g / cm^3
# Si number density = 18.543926 Si / 1000 Ang^3
#
#
#
# Elastic Constant Matrix: (Units=GPa)
#
#
# Indices 1 2 3 4 5 6 
#
# 1 146.5436 32.7920 47.5147 0.0000 -21.6920 0.0000
# 2 32.7920 46.6171 22.3960 0.0000 -7.1798 0.0000
# 3 47.5147 22.3960 66.0455 0.0000 -19.2493 0.0000
# 4 0.0000 0.0000 0.0000 25.6118 0.0000 -9.8528
# 5 -21.6920 -7.1798 -19.2493 0.0000 30.7222 0.0000
# 6 0.0000 0.0000 0.0000 -9.8528 0.0000 31.4695
#
#
#
# Elastic Compliance Matrix: (Units=1/GPa)
#
#
# Indices 1 2 3 4 5 6 
#
# 1 0.009713 -0.004103 -0.004744 0.000000 0.002927 0.000000
# 2 -0.004103 0.027370 -0.006496 0.000000 -0.000571 0.000000
# 3 -0.004744 -0.006496 0.023658 0.000000 0.009956 0.000000
# 4 0.000000 0.000000 0.000000 0.044391 0.000000 0.013898
# 5 0.002927 -0.000571 0.009956 0.000000 0.040721 0.000000
# 6 0.000000 0.000000 0.000000 0.013898 0.000000 0.036128
#
#
# Mechanical properties :
#
#
# Convention : Reuss Voigt Hill
#
# Bulk Modulus (GPa) = 33.26982 51.62350 42.44666
# Shear Modulus (GPa) = 22.45314 27.99428 25.22371
#
# Velocity S-wave (km/s) = 3.48344 3.88960 3.69211
# Velocity P-wave (km/s) = 5.84459 6.93332 6.41210
#
# Compressibility (1/GPa) = 0.03005727
#
# Stress axis : x y z
#
# Youngs Moduli (GPa) = 102.95097 36.53586 42.26890
#
# Poissons Ratio (x) = 0.14990 0.20050
# Poissons Ratio (y) = 0.42240 0.27457
# Poissons Ratio (z) = 0.48835 0.23733
#
# Static dielectric constant tensor:
#      x y z
#    x 3.489820 0.000000 -0.120030 
#    y 0.000000 3.247190 0.000000 
#    z -0.120030 0.000000 3.573610 
# 
# 
# High freq. dielectric constant tensor:
#      x y z
#    x 1.720230 0.000000 -0.018410 
#    y 0.000000 1.707250 0.000000 
#    z -0.018410 0.000000 1.715920 
# 
# From -- ./inp_files/37679.got.cif
#   From: 2010.06.25/outbox.cif.g09.slc.cpg/sg11_19_cif.got.tgz:37679.got - 2010.06.27 23:14:04.
