data_PCOD8071341
_publ_section_title
;
Structure prediction by ZEFSAII (Michael W. Deem and Ramdas Pophale) SiO2 
 PCOD8071341
Probable space group: P 21/M
;
_chemical_formula_sum "Si O2"
_cell_formula_units_Z 28
_cell_length_a 20.505381
_cell_length_b 8.977130
_cell_length_c 17.913025
_cell_angle_alpha 90.000000
_cell_angle_beta 27.480365
_cell_angle_gamma 90.000000
_cell_volume 1521.576767
_symmetry_space_group_name_H-M "P 21/M"
_symmetry_group_IT_number 11
_symmetry_cell_setting 'monoclinic'
loop_
_space_group_symop_operation_xyz
x,y,z
-x,1/2+y,-z
-x,-y,-z
x,1/2-y,z
loop_
_atom_site_type_symbol
_atom_site_label
_atom_site_fract_x
_atom_site_fract_y
_atom_site_fract_z
Si Si1 0.361889 0.923448 0.301700
Si Si2 0.681415 0.927044 0.962276
Si Si3 0.650682 0.424024 0.848920
Si Si4 0.654982 0.576390 0.426859
Si Si5 0.364194 0.423729 0.725240
Si Si6 0.852261 0.926552 0.931142
Si Si7 0.831427 0.427940 0.369822
O O1 0.373853 0.750000 0.305895
O O2 0.284868 0.951317 0.299571
O O3 0.266288 0.993745 0.464190
O O4 0.522149 0.986624 0.140552
O O5 0.684418 0.750000 0.950435
O O6 0.782186 0.985130 0.925856
O O7 0.739148 0.998938 0.825960
O O8 0.634989 0.250000 0.881521
O O9 0.500000 0.500000 0.000000
O O10 0.660173 0.750000 0.439985
O O11 0.503829 0.513598 0.605709
O O12 0.682024 0.543539 0.312357
O O13 0.778319 0.492235 0.345469
O O14 0.397654 0.250000 0.703975
O O15 0.238805 0.481450 0.905632
O O16 0.854487 0.750000 0.927502
O O17 0.010519 0.989174 0.777268
O O18 0.829194 0.250000 0.368814
#
# Coordination Sequence:
#
# PCOD8071341 Si02
#       7
#     4   4   4   4   4   4   4
#     4   8  15  28  48  69  91 123 160 196 233 281
#     4   9  16  29  48  70  94 121 159 203 240 276
#     4   9  16  28  46  69  94 121 156 197 242 285
#     4  10  20  33  51  76 101 125 158 202 247 286
#     4   9  18  35  55  73  96 127 163 200 239 288
#     4   9  18  32  52  74  96 129 169 200 232 286
#     4  10  19  33  52  72  97 132 168 197 234 287
#
# _framework density 18.401962000000001
#
# number of rings (size 3 to 8) (size 9 to 14) (size 15 to 20)
#    0.000    2.857    0.000    2.571    0.000    3.429 
#    0.000    9.286    0.000    0.000    0.000    0.000 
#    0.000    0.000    0.000    0.000    0.000    0.000 
#
# Total GULP energy -347072.493443 kJ/mol
# GULP energy per Si atom -12395.446194 kJ/mol
# Density = 1.836008 g / cm^3
# Si number density = 18.401962 Si / 1000 Ang^3
#
#
#
# Elastic Constant Matrix: (Units=GPa)
#
#
# Indices 1 2 3 4 5 6 
#
# 1 159.8407 37.4315 73.5722 0.0000 -4.9201 0.0000
# 2 37.4315 41.1026 23.7551 0.0000 0.9113 0.0000
# 3 73.5722 23.7551 72.9008 0.0000 -10.3146 0.0000
# 4 0.0000 0.0000 0.0000 14.2046 0.0000 2.7844
# 5 -4.9201 0.9113 -10.3146 0.0000 22.8708 0.0000
# 6 0.0000 0.0000 0.0000 2.7844 0.0000 32.0022
#
#
#
# Elastic Compliance Matrix: (Units=1/GPa)
#
#
# Indices 1 2 3 4 5 6 
#
# 1 0.012581 -0.004784 -0.011460 0.000000 -0.002271 0.000000
# 2 -0.004784 0.032580 -0.006534 0.000000 -0.005274 0.000000
# 3 -0.011460 -0.006534 0.028947 0.000000 0.010850 0.000000
# 4 0.000000 0.000000 0.000000 0.071621 0.000000 -0.006232
# 5 -0.002271 -0.005274 0.010850 0.000000 0.048339 0.000000
# 6 0.000000 0.000000 0.000000 -0.006232 0.000000 0.031790
#
#
# Mechanical properties :
#
#
# Convention : Reuss Voigt Hill
#
# Bulk Modulus (GPa) = 35.02413 60.37353 47.69883
# Shear Modulus (GPa) = 17.79796 23.08787 20.44291
#
# Velocity S-wave (km/s) = 3.11332 3.54593 3.33665
# Velocity P-wave (km/s) = 5.65666 7.04587 6.38914
#
# Compressibility (1/GPa) = 0.02855174
#
# Stress axis : x y z
#
# Youngs Moduli (GPa) = 79.48252 30.69397 34.54626
#
# Poissons Ratio (x) = 0.14685 0.39589
# Poissons Ratio (y) = 0.38027 0.22573
# Poissons Ratio (z) = 0.91084 0.20056
#
# Static dielectric constant tensor:
#      x y z
#    x 3.683470 0.000000 0.211160 
#    y 0.000000 3.146880 0.000000 
#    z 0.211160 0.000000 3.494210 
# 
# 
# High freq. dielectric constant tensor:
#      x y z
#    x 1.726750 0.000000 0.016820 
#    y 0.000000 1.681850 0.000000 
#    z 0.016820 0.000000 1.695410 
# 
# From -- ./inp_files/28981.got.cif
#   From: 2010.06.25/outbox.cif.g09.slc.cpg/sg11_15_cif.got.tgz:28981.got - 2010.06.27 23:14:04.
