data_PCOD8071201
_publ_section_title
;
Structure prediction by ZEFSAII (Michael W. Deem and Ramdas Pophale) SiO2 
 PCOD8071201
Probable space group: P 21/M
;
_chemical_formula_sum "Si O2"
_cell_formula_units_Z 24
_cell_length_a 9.106865
_cell_length_b 15.867467
_cell_length_c 14.590258
_cell_angle_alpha 90.000000
_cell_angle_beta 32.427026
_cell_angle_gamma 90.000000
_cell_volume 1130.541557
_symmetry_space_group_name_H-M "P 21/M"
_symmetry_group_IT_number 11
_symmetry_cell_setting 'monoclinic'
loop_
_space_group_symop_operation_xyz
x,y,z
-x,1/2+y,-z
-x,-y,-z
x,1/2-y,z
loop_
_atom_site_type_symbol
_atom_site_label
_atom_site_fract_x
_atom_site_fract_y
_atom_site_fract_z
Si Si1 0.153715 0.911098 0.197844
Si Si2 0.321618 0.750000 0.804846
Si Si3 0.312154 0.250000 0.824481
Si Si4 0.208687 0.250000 0.313407
Si Si5 0.189689 0.750000 0.306732
Si Si6 0.367736 0.928247 0.789549
Si Si7 0.305235 0.075449 0.205711
Si Si8 0.178355 0.087922 0.803307
O O1 0.149292 0.833043 0.268243
O O2 0.903914 0.902115 0.258857
O O3 0.111647 0.999238 0.274556
O O4 0.441512 0.913967 0.995429
O O5 0.464082 0.750000 0.832199
O O6 0.421022 0.838834 0.707239
O O7 0.996875 0.750000 0.978213
O O8 0.507864 0.250000 0.809197
O O9 0.364908 0.167195 0.734816
O O10 0.143958 0.165284 0.289450
O O11 0.036948 0.250000 0.496219
O O12 0.605396 0.946820 0.737585
O O13 0.356869 0.003019 0.721766
O O14 0.084784 0.917624 0.993113
#
# Coordination Sequence:
#
# PCOD8071201 Si02
#       8
#     4   2   2   2   2   4   4   4
#     4  10  20  34  57  87 113 145 190 244 284 325
#     4   8  16  31  54  75  98 138 190 226 254 313
#     4  10  19  32  54  80 105 144 191 230 264 332
#     4  10  21  38  58  82 117 156 185 226 286 352
#     4  12  24  35  56  87 118 148 188 236 290 339
#     4   8  14  27  50  79 102 133 178 224 270 323
#     4   9  18  35  58  82 111 146 192 237 279 331
#     4   9  16  29  50  76 107 135 175 229 278 317
#
# _framework density 21.228764999999999
#
# number of rings (size 3 to 8) (size 9 to 14) (size 15 to 20)
#    0.000    2.667    0.000    3.000    0.000    6.000 
#    0.000    0.833    0.000   17.000    0.000    0.000 
#    0.000    0.000    0.000    0.000    0.000    0.000 
#
# Total GULP energy -297405.152677 kJ/mol
# GULP energy per Si atom -12391.881362 kJ/mol
# Density = 2.118045 g / cm^3
# Si number density = 21.228765 Si / 1000 Ang^3
#
#
#
# Elastic Constant Matrix: (Units=GPa)
#
#
# Indices 1 2 3 4 5 6 
#
# 1 116.0452 88.1026 22.4062 0.0000 15.5305 0.0000
# 2 88.1026 243.4396 16.3368 0.0000 21.6245 0.0000
# 3 22.4062 16.3368 29.2630 0.0000 6.2384 0.0000
# 4 0.0000 0.0000 0.0000 0.9302 0.0000 23.8129
# 5 15.5305 21.6245 6.2384 0.0000 11.5810 0.0000
# 6 0.0000 0.0000 0.0000 23.8129 0.0000 30.0457
#
#
#
# Elastic Compliance Matrix: (Units=1/GPa)
#
#
# Indices 1 2 3 4 5 6 
#
# 1 0.013930 -0.003896 -0.006845 0.000000 -0.007718 0.000000
# 2 -0.003896 0.006035 0.001020 0.000000 -0.006593 0.000000
# 3 -0.006845 0.001020 0.042132 0.000000 -0.015419 0.000000
# 4 0.000000 0.000000 0.000000 -0.055732 0.000000 0.044171
# 5 -0.007718 -0.006593 -0.015419 0.000000 0.117315 0.000000
# 6 0.000000 0.000000 0.000000 0.044171 0.000000 -0.001725
#
#
# Mechanical properties :
#
#
# Convention : Reuss Voigt Hill
#
# Bulk Modulus (GPa) = 23.44500 71.38212 47.41356
# Shear Modulus (GPa) = 32.13007 25.97151 29.05079
#
# Velocity S-wave (km/s) = 3.89461 3.50152 3.70329
# Velocity P-wave (km/s) = 5.59392 7.07430 6.37721
#
# Compressibility (1/GPa) = 0.04265302
#
# Stress axis : x y z
#
# Youngs Moduli (GPa) = 71.78646 165.69473 23.73483
#
# Poissons Ratio (x) = 0.64563 0.16248
# Poissons Ratio (y) = 0.27972 -0.02420
# Poissons Ratio (z) = 0.49141 -0.16896
#
# Static dielectric constant tensor:
#      x y z
#    x 3.828540 0.000000 -0.061850 
#    y 0.000000 4.592190 0.000000 
#    z -0.061850 0.000000 3.225050 
# 
# 
# High freq. dielectric constant tensor:
#      x y z
#    x 1.816820 0.000000 -0.008030 
#    y 0.000000 1.866710 0.000000 
#    z -0.008030 0.000000 1.775800 
# 
# From -- ./inp_files/18569.got.cif
#   From: 2010.06.25/outbox.cif.g09.slc.cpg/sg11_10_cif.got.tgz:18569.got - 2010.06.27 23:14:04.
