data_PCOD8071309
_publ_section_title
;
Structure prediction by ZEFSAII (Michael W. Deem and Ramdas Pophale) SiO2 
 PCOD8071309
Probable space group: P 21/M
;
_chemical_formula_sum "Si O2"
_cell_formula_units_Z 32
_cell_length_a 9.820075
_cell_length_b 11.190904
_cell_length_c 31.397195
_cell_angle_alpha 90.000000
_cell_angle_beta 149.274238
_cell_angle_gamma 90.000000
_cell_volume 1762.916691
_symmetry_space_group_name_H-M "P 21/M"
_symmetry_group_IT_number 11
_symmetry_cell_setting 'monoclinic'
loop_
_space_group_symop_operation_xyz
x,y,z
-x,1/2+y,-z
-x,-y,-z
x,1/2-y,z
loop_
_atom_site_type_symbol
_atom_site_label
_atom_site_fract_x
_atom_site_fract_y
_atom_site_fract_z
Si Si1 0.739331 0.611817 0.214199
Si Si2 0.682474 0.118686 0.437308
Si Si3 0.169855 0.112268 0.935586
Si Si4 0.817606 0.509616 0.391788
Si Si5 0.499159 0.887564 0.057697
Si Si6 0.451139 0.888351 0.221166
Si Si7 0.219245 0.121060 0.450637
Si Si8 0.284665 0.508889 0.383832
O O1 0.792920 0.750000 0.236090
O O2 0.593756 0.587549 0.130804
O O3 0.558938 0.561228 0.204744
O O4 0.026211 0.549698 0.288759
O O5 0.670130 0.250000 0.414268
O O6 0.950596 0.107679 0.537937
O O7 0.674148 0.021791 0.397411
O O8 0.420565 0.101643 0.395933
O O9 0.236020 0.250000 0.970158
O O10 0.253719 0.105608 0.908608
O O11 0.859961 0.085731 0.857718
O O12 0.304768 0.000182 0.996380
O O13 0.595580 0.551447 0.299518
O O14 0.965800 0.392704 0.413358
O O15 0.375842 0.750000 0.021530
O O16 0.514691 0.750000 0.240968
O O17 0.210130 0.250000 0.426621
O O18 0.488915 0.110741 0.551233
O O19 0.197061 0.022697 0.408062
#
# Coordination Sequence:
#
# PCOD8071309 Si02
#       8
#     4   4   4   4   4   4   4   4
#     4  10  20  35  56  82 110 139 179 227 267 316
#     4  10  21  35  51  73 106 145 184 227 272 317
#     4   9  19  37  61  85 111 143 179 222 274 331
#     4  10  20  35  53  75 104 141 183 224 270 319
#     4   9  19  37  61  85 112 142 177 224 274 330
#     4  10  20  35  57  82 108 140 179 225 269 319
#     4  10  19  33  51  71 104 144 183 221 264 318
#     4  10  20  33  51  77 103 141 183 223 266 313
#
# _framework density 18.151737000000001
#
# number of rings (size 3 to 8) (size 9 to 14) (size 15 to 20)
#    0.000    2.250    1.250    1.500    1.750    0.500 
#    0.000    3.750    0.000    0.000    0.000    0.000 
#    0.000    0.000    0.000    0.000    0.000    0.000 
#
# Total GULP energy -396517.916867 kJ/mol
# GULP energy per Si atom -12391.184902 kJ/mol
# Density = 1.811042 g / cm^3
# Si number density = 18.151737 Si / 1000 Ang^3
#
#
#
# Elastic Constant Matrix: (Units=GPa)
#
#
# Indices 1 2 3 4 5 6 
#
# 1 93.9285 32.5086 53.2889 0.0000 -2.5085 0.0000
# 2 32.5086 90.2972 59.0938 0.0000 -0.0319 0.0000
# 3 53.2889 59.0938 112.9280 0.0000 -1.8758 0.0000
# 4 0.0000 0.0000 0.0000 7.9129 0.0000 -7.6147
# 5 -2.5085 -0.0319 -1.8758 0.0000 28.9820 0.0000
# 6 0.0000 0.0000 0.0000 -7.6147 0.0000 15.9339
#
#
#
# Elastic Compliance Matrix: (Units=1/GPa)
#
#
# Indices 1 2 3 4 5 6 
#
# 1 0.014636 -0.001153 -0.006289 0.000000 0.000859 0.000000
# 2 -0.001153 0.016942 -0.008332 0.000000 -0.000620 0.000000
# 3 -0.006289 -0.008332 0.016191 0.000000 0.000494 0.000000
# 4 0.000000 0.000000 0.000000 0.233980 0.000000 0.111818
# 5 0.000859 -0.000620 0.000494 0.000000 0.034610 0.000000
# 6 0.000000 0.000000 0.000000 0.111818 0.000000 0.116197
#
#
# Mechanical properties :
#
#
# Convention : Reuss Voigt Hill
#
# Bulk Modulus (GPa) = 61.64624 65.21513 63.43068
# Shear Modulus (GPa) = 10.64938 20.71658 15.68298
#
# Velocity S-wave (km/s) = 2.42479 3.38198 2.94257
# Velocity P-wave (km/s) = 6.47108 7.15934 6.82389
#
# Compressibility (1/GPa) = 0.01622159
#
# Stress axis : x y z
#
# Youngs Moduli (GPa) = 68.32279 59.02464 61.76329
#
# Poissons Ratio (x) = 0.06808 0.38842
# Poissons Ratio (y) = 0.07880 0.51459
# Poissons Ratio (z) = 0.42967 0.49177
#
# Static dielectric constant tensor:
#      x y z
#    x 3.465190 0.000000 0.047040 
#    y 0.000000 3.320660 0.000000 
#    z 0.047040 0.000000 3.107450 
# 
# 
# High freq. dielectric constant tensor:
#      x y z
#    x 1.720060 0.000000 0.002890 
#    y 0.000000 1.695100 0.000000 
#    z 0.002890 0.000000 1.680850 
# 
# From -- ./inp_files/29284.got.cif
#   From: 2010.06.25/outbox.cif.g09.slc.cpg/sg11_15_cif.got.tgz:29284.got - 2010.06.27 23:14:04.
