data_PCOD8071104
_publ_section_title
;
Structure prediction by ZEFSAII (Michael W. Deem and Ramdas Pophale) SiO2 
 PCOD8071104
Probable space group: P 21/M
;
_chemical_formula_sum "Si O2"
_cell_formula_units_Z 28
_cell_length_a 10.384225
_cell_length_b 10.490988
_cell_length_c 16.627456
_cell_angle_alpha 90.000000
_cell_angle_beta 54.035312
_cell_angle_gamma 90.000000
_cell_volume 1466.115794
_symmetry_space_group_name_H-M "P 21/M"
_symmetry_group_IT_number 11
_symmetry_cell_setting 'monoclinic'
loop_
_space_group_symop_operation_xyz
x,y,z
-x,1/2+y,-z
-x,-y,-z
x,1/2-y,z
loop_
_atom_site_type_symbol
_atom_site_label
_atom_site_fract_x
_atom_site_fract_y
_atom_site_fract_z
Si Si1 0.628503 0.098552 0.230521
Si Si2 0.754796 0.454974 0.874531
Si Si3 0.610499 0.395031 0.629569
Si Si4 0.129385 0.611213 0.334517
Si Si5 0.883561 0.394181 0.407014
Si Si6 0.469850 0.611230 0.906594
Si Si7 0.058507 0.605673 0.795841
O O1 0.591443 0.250000 0.259197
O O2 0.602823 0.051225 0.148113
O O3 0.811588 0.068813 0.184920
O O4 0.522259 0.005364 0.325023
O O5 0.825582 0.372556 0.775923
O O6 0.627565 0.547017 0.880556
O O7 0.898249 0.526327 0.866688
O O8 0.666049 0.375782 0.975618
O O9 0.539345 0.250000 0.656824
O O10 0.714589 0.418098 0.671068
O O11 0.715006 0.414238 0.511247
O O12 0.058247 0.750000 0.386729
O O13 0.007717 0.496794 0.396635
O O14 0.947300 0.250000 0.400646
O O15 0.861220 0.417291 0.320613
O O16 0.527946 0.750000 0.860846
O O17 0.003940 0.750000 0.826234
#
# Coordination Sequence:
#
# PCOD8071104 Si02
#       7
#     4   4   4   4   4   4   4
#     4  10  21  37  55  78 109 143 182 221 261 314
#     4  10  19  34  55  78 106 139 174 218 268 320
#     4  10  20  35  52  77 110 142 178 222 268 315
#     4  10  19  32  52  80 110 137 171 223 272 314
#     4   9  19  34  54  77 106 143 180 217 266 321
#     4  10  20  34  54  80 105 137 179 221 264 315
#     4   9  19  36  55  77 107 142 179 220 265 316
#
# _framework density 19.098082999999999
#
# number of rings (size 3 to 8) (size 9 to 14) (size 15 to 20)
#    0.000    2.286    1.429    1.286    0.000    2.857 
#    0.000    4.286    0.000    0.000    0.000    0.000 
#    0.000    0.000    0.000    0.000    0.000    0.000 
#
# Total GULP energy -346986.533311 kJ/mol
# GULP energy per Si atom -12392.376190 kJ/mol
# Density = 1.905461 g / cm^3
# Si number density = 19.098083 Si / 1000 Ang^3
#
#
#
# Elastic Constant Matrix: (Units=GPa)
#
#
# Indices 1 2 3 4 5 6 
#
# 1 111.0676 49.3370 20.6491 0.0000 -8.7186 0.0000
# 2 49.3370 90.4168 20.1548 0.0000 -14.0740 0.0000
# 3 20.6491 20.1548 54.6642 0.0000 -2.4748 0.0000
# 4 0.0000 0.0000 0.0000 -15.2544 0.0000 8.7616
# 5 -8.7186 -14.0740 -2.4748 0.0000 17.4708 0.0000
# 6 0.0000 0.0000 0.0000 8.7616 0.0000 18.5868
#
#
#
# Elastic Compliance Matrix: (Units=1/GPa)
#
#
# Indices 1 2 3 4 5 6 
#
# 1 0.012165 -0.005969 -0.002352 0.000000 0.000929 0.000000
# 2 -0.005969 0.016626 -0.003426 0.000000 0.009930 0.000000
# 3 -0.002352 -0.003426 0.020398 0.000000 -0.001044 0.000000
# 4 0.000000 0.000000 0.000000 -0.051588 0.000000 0.024318
# 5 0.000929 0.009930 -0.001044 0.000000 0.065553 0.000000
# 6 0.000000 0.000000 0.000000 0.024318 0.000000 0.042339
#
#
# Mechanical properties :
#
#
# Convention : Reuss Voigt Hill
#
# Bulk Modulus (GPa) = 38.91845 48.49224 43.70535
# Shear Modulus (GPa) = 36.34949 15.22782 25.78866
#
# Velocity S-wave (km/s) = 4.36742 2.82680 3.67867
# Velocity P-wave (km/s) = 6.77163 6.00838 6.40139
#
# Compressibility (1/GPa) = 0.02569475
#
# Stress axis : x y z
#
# Youngs Moduli (GPa) = 82.20062 60.14572 49.02452
#
# Poissons Ratio (x) = 0.35902 0.11533
# Poissons Ratio (y) = 0.49067 0.16795
# Poissons Ratio (z) = 0.19338 0.20605
#
# Static dielectric constant tensor:
#      x y z
#    x 3.378640 0.000000 0.132170 
#    y 0.000000 3.482020 0.000000 
#    z 0.132170 0.000000 3.474160 
# 
# 
# High freq. dielectric constant tensor:
#      x y z
#    x 1.731310 0.000000 0.010570 
#    y 0.000000 1.743840 0.000000 
#    z 0.010570 0.000000 1.738680 
# 
# From -- ./inp_files/47124.got.cif
#   From: 2010.06.25/outbox.cif.g09.slc.cpg/sg11_24_cif.got.tgz:47124.got - 2010.06.27 23:14:04.
