data_PCOD8071368
_publ_section_title
;
Structure prediction by ZEFSAII (Michael W. Deem and Ramdas Pophale) SiO2 
 PCOD8071368
Probable space group: P 21/M
;
_chemical_formula_sum "Si O2"
_cell_formula_units_Z 32
_cell_length_a 12.519237
_cell_length_b 9.333284
_cell_length_c 14.527030
_cell_angle_alpha 90.000000
_cell_angle_beta 88.248177
_cell_angle_gamma 90.000000
_cell_volume 1696.626113
_symmetry_space_group_name_H-M "P 21/M"
_symmetry_group_IT_number 11
_symmetry_cell_setting 'monoclinic'
loop_
_space_group_symop_operation_xyz
x,y,z
-x,1/2+y,-z
-x,-y,-z
x,1/2-y,z
loop_
_atom_site_type_symbol
_atom_site_label
_atom_site_fract_x
_atom_site_fract_y
_atom_site_fract_z
Si Si1 0.124683 0.918319 0.294917
Si Si2 0.680185 0.919645 0.220730
Si Si3 0.112408 0.416350 0.681376
Si Si4 0.485257 0.408686 0.270715
Si Si5 0.168661 0.419661 0.481874
Si Si6 0.287175 0.084316 0.163556
Si Si7 0.608255 0.582768 0.021859
Si Si8 0.405381 0.406427 0.468540
O O1 0.151225 0.750000 0.302918
O O2 0.001588 0.943861 0.267142
O O3 0.135612 0.990227 0.394152
O O4 0.198429 0.986089 0.214036
O O5 0.676851 0.750000 0.228488
O O6 0.792681 0.982011 0.257534
O O7 0.583438 0.983370 0.284042
O O8 0.659362 0.971125 0.116680
O O9 0.138218 0.250000 0.670786
O O10 0.106724 0.473501 0.575381
O O11 0.532554 0.250000 0.251056
O O12 0.407576 0.457949 0.190800
O O13 0.405129 0.407170 0.358548
O O14 0.154800 0.250000 0.460836
O O15 0.290447 0.459895 0.504111
O O16 0.261404 0.250000 0.188306
O O17 0.295018 0.056855 0.053886
O O18 0.577976 0.750000 0.026655
O O19 0.500000 0.500000 0.000000
O O20 0.500000 0.500000 0.500000
O O21 0.426599 0.250000 0.508871
#
# Coordination Sequence:
#
# PCOD8071368 Si02
#       8
#     4   4   4   4   4   4   4   4
#     4  11  22  36  56  82 108 142 190 237 266 306
#     4  10  20  36  58  83 109 142 180 220 271 331
#     4   9  20  37  56  79 111 145 181 228 278 320
#     4  10  19  33  52  76 110 143 173 216 270 322
#     4  10  19  36  57  76 106 148 182 219 278 332
#     4  10  20  37  56  78 111 146 176 217 274 328
#     4  10  20  34  58  86 111 141 178 219 269 328
#     4  10  20  32  48  73 105 143 178 214 264 319
#
# _framework density 18.860962000000001
#
# number of rings (size 3 to 8) (size 9 to 14) (size 15 to 20)
#    0.000    2.000    2.500    1.500    0.000    3.000 
#    0.000    3.125    0.000    0.000    0.000    0.000 
#    0.000    0.000    0.000    0.000    0.000    0.000 
#
# Total GULP energy -396604.475618 kJ/mol
# GULP energy per Si atom -12393.889863 kJ/mol
# Density = 1.881803 g / cm^3
# Si number density = 18.860962 Si / 1000 Ang^3
#
#
#
# Elastic Constant Matrix: (Units=GPa)
#
#
# Indices 1 2 3 4 5 6 
#
# 1 101.3851 45.4460 36.2142 0.0000 -10.6338 0.0000
# 2 45.4460 54.7154 27.2119 0.0000 -2.3838 0.0000
# 3 36.2142 27.2119 76.7844 0.0000 -8.6264 0.0000
# 4 0.0000 0.0000 0.0000 22.4895 0.0000 -0.8971
# 5 -10.6338 -2.3838 -8.6264 0.0000 22.7711 0.0000
# 6 0.0000 0.0000 0.0000 -0.8971 0.0000 25.6646
#
#
#
# Elastic Compliance Matrix: (Units=1/GPa)
#
#
# Indices 1 2 3 4 5 6 
#
# 1 0.017116 -0.012467 -0.003032 0.000000 0.005539 0.000000
# 2 -0.012467 0.031278 -0.005735 0.000000 -0.004720 0.000000
# 3 -0.003032 -0.005735 0.016982 0.000000 0.004417 0.000000
# 4 0.000000 0.000000 0.000000 0.044527 0.000000 0.001556
# 5 0.005539 -0.004720 0.004417 0.000000 0.047681 0.000000
# 6 0.000000 0.000000 0.000000 0.001556 0.000000 0.039019
#
#
# Mechanical properties :
#
#
# Convention : Reuss Voigt Hill
#
# Bulk Modulus (GPa) = 43.65307 50.06991 46.86149
# Shear Modulus (GPa) = 20.26698 22.45255 21.35976
#
# Velocity S-wave (km/s) = 3.28158 3.45400 3.36889
# Velocity P-wave (km/s) = 6.12807 6.52007 6.32711
#
# Compressibility (1/GPa) = 0.02290789
#
# Stress axis : x y z
#
# Youngs Moduli (GPa) = 58.42620 31.97140 58.88532
#
# Poissons Ratio (x) = 0.39858 0.17853
# Poissons Ratio (y) = 0.72839 0.33772
# Poissons Ratio (z) = 0.17714 0.18336
#
# Static dielectric constant tensor:
#      x y z
#    x 3.466280 0.000000 -0.105060 
#    y 0.000000 3.333650 0.000000 
#    z -0.105060 0.000000 3.770890 
# 
# 
# High freq. dielectric constant tensor:
#      x y z
#    x 1.729310 0.000000 -0.005710 
#    y 0.000000 1.714000 0.000000 
#    z -0.005710 0.000000 1.736950 
# 
# From -- ./inp_files/38118.got.cif
#   From: 2010.06.25/outbox.cif.g09.slc.cpg/sg11_20_cif.got.tgz:38118.got - 2010.06.27 23:14:04.
