data_PCOD8071117
_publ_section_title
;
Structure prediction by ZEFSAII (Michael W. Deem and Ramdas Pophale) SiO2 
 PCOD8071117
Probable space group: P 21/M
;
_chemical_formula_sum "Si O2"
_cell_formula_units_Z 24
_cell_length_a 9.749086
_cell_length_b 13.785257
_cell_length_c 11.549727
_cell_angle_alpha 90.000000
_cell_angle_beta 121.834952
_cell_angle_gamma 90.000000
_cell_volume 1318.712754
_symmetry_space_group_name_H-M "P 21/M"
_symmetry_group_IT_number 11
_symmetry_cell_setting 'monoclinic'
loop_
_space_group_symop_operation_xyz
x,y,z
-x,1/2+y,-z
-x,-y,-z
x,1/2-y,z
loop_
_atom_site_type_symbol
_atom_site_label
_atom_site_fract_x
_atom_site_fract_y
_atom_site_fract_z
Si Si1 0.349333 0.139167 0.297828
Si Si2 0.093229 0.515583 0.236097
Si Si3 0.232052 0.859668 0.123586
Si Si4 0.358147 0.640286 0.419369
Si Si5 0.266735 0.525990 0.907973
Si Si6 0.527583 0.862752 0.905052
O O1 0.305906 0.250000 0.302537
O O2 0.183311 0.082288 0.237875
O O3 0.479815 0.100069 0.449338
O O4 0.425311 0.123210 0.206365
O O5 0.078301 0.584595 0.114073
O O6 0.201554 0.573100 0.380795
O O7 0.919598 0.488592 0.209221
O O8 0.181465 0.750000 0.069624
O O9 0.374657 0.862385 0.285352
O O10 0.291981 0.914940 0.037763
O O11 0.325073 0.750000 0.448785
O O12 0.350711 0.589450 0.844814
O O13 0.347698 0.420109 0.956427
O O14 0.527433 0.750000 0.941495
#
# Coordination Sequence:
#
# PCOD8071117 Si02
#       6
#     4   4   4   4   4   4
#     4  10  19  33  52  76 102 135 173 206 252 304
#     4  10  19  32  52  81  99 132 168 216 254 292
#     4   9  18  31  52  77 104 132 163 211 254 293
#     4   8  17  31  51  77 102 131 168 210 254 299
#     4  11  21  35  50  78 106 131 175 207 256 306
#     4  10  22  36  52  70 103 142 167 207 257 309
#
# _framework density 18.199566000000001
#
# number of rings (size 3 to 8) (size 9 to 14) (size 15 to 20)
#    1.000    1.333    1.667    1.500    0.000    2.667 
#    0.000    0.833    0.000    0.000    0.000    9.333 
#    0.000    0.000    0.000    0.000    0.000    0.000 
#
# Total GULP energy -297359.302525 kJ/mol
# GULP energy per Si atom -12389.970939 kJ/mol
# Density = 1.815814 g / cm^3
# Si number density = 18.199566 Si / 1000 Ang^3
#
#
#
# Elastic Constant Matrix: (Units=GPa)
#
#
# Indices 1 2 3 4 5 6 
#
# 1 105.0751 44.6403 12.3937 0.0000 23.5327 0.0000
# 2 44.6403 115.6009 18.6768 0.0000 15.6865 0.0000
# 3 12.3937 18.6768 32.3080 0.0000 13.9396 0.0000
# 4 0.0000 0.0000 0.0000 19.9630 0.0000 -5.0988
# 5 23.5327 15.6865 13.9396 0.0000 17.4123 0.0000
# 6 0.0000 0.0000 0.0000 -5.0988 0.0000 17.3356
#
#
#
# Elastic Compliance Matrix: (Units=1/GPa)
#
#
# Indices 1 2 3 4 5 6 
#
# 1 0.015412 -0.003912 0.005829 0.000000 -0.021972 0.000000
# 2 -0.003912 0.011023 -0.004382 0.000000 -0.001136 0.000000
# 3 0.005829 -0.004382 0.050329 0.000000 -0.044223 0.000000
# 4 0.000000 0.000000 0.000000 0.054161 0.000000 0.015930
# 5 -0.021972 -0.001136 -0.044223 0.000000 0.123553 0.000000
# 6 0.000000 0.000000 0.000000 0.015930 0.000000 0.062370
#
#
# Mechanical properties :
#
#
# Convention : Reuss Voigt Hill
#
# Bulk Modulus (GPa) = 13.92055 44.93395 29.42725
# Shear Modulus (GPa) = 14.46247 22.76039 18.61143
#
# Velocity S-wave (km/s) = 2.82203 3.54022 3.20133
# Velocity P-wave (km/s) = 4.27597 6.43848 5.46525
#
# Compressibility (1/GPa) = 0.07183624
#
# Stress axis : x y z
#
# Youngs Moduli (GPa) = 64.88343 90.71867 19.86919
#
# Poissons Ratio (x) = 0.35488 -0.11582
# Poissons Ratio (y) = 0.25381 0.08706
# Poissons Ratio (z) = -0.37822 0.39748
#
# Static dielectric constant tensor:
#      x y z
#    x 3.079520 0.000000 0.038410 
#    y 0.000000 3.659320 0.000000 
#    z 0.038410 0.000000 3.136940 
# 
# 
# High freq. dielectric constant tensor:
#      x y z
#    x 1.673070 0.000000 0.008770 
#    y 0.000000 1.730960 0.000000 
#    z 0.008770 0.000000 1.680700 
# 
# From -- ./inp_files/31564.got.cif
#   From: 2010.06.25/outbox.cif.g09.slc.cpg/sg11_16_cif.got.tgz:31564.got - 2010.06.27 23:14:04.
