data_PCOD8071064
_publ_section_title
;
Structure prediction by ZEFSAII (Michael W. Deem and Ramdas Pophale) SiO2 
 PCOD8071064
Probable space group: P 21/M
;
_chemical_formula_sum "Si O2"
_cell_formula_units_Z 32
_cell_length_a 20.378645
_cell_length_b 9.067414
_cell_length_c 12.013711
_cell_angle_alpha 90.000000
_cell_angle_beta 127.381755
_cell_angle_gamma 90.000000
_cell_volume 1763.960506
_symmetry_space_group_name_H-M "P 21/M"
_symmetry_group_IT_number 11
_symmetry_cell_setting 'monoclinic'
loop_
_space_group_symop_operation_xyz
x,y,z
-x,1/2+y,-z
-x,-y,-z
x,1/2-y,z
loop_
_atom_site_type_symbol
_atom_site_label
_atom_site_fract_x
_atom_site_fract_y
_atom_site_fract_z
Si Si1 0.307646 0.421986 0.284612
Si Si2 0.939722 0.078220 0.290777
Si Si3 0.557691 0.919487 0.757088
Si Si4 0.367747 0.921572 0.558468
Si Si5 0.663177 0.079684 0.034948
Si Si6 0.886641 0.578551 0.454571
Si Si7 0.199575 0.918663 0.007463
Si Si8 0.703536 0.923972 0.304000
O O1 0.299177 0.250000 0.300638
O O2 0.388301 0.461065 0.295218
O O3 0.312304 0.506189 0.405779
O O4 0.225834 0.476102 0.135553
O O5 0.928779 0.250000 0.303020
O O6 0.893539 0.038133 0.127397
O O7 0.036756 0.033441 0.385493
O O8 0.893723 0.000478 0.344420
O O9 0.573309 0.750000 0.807342
O O10 0.463340 0.949156 0.628287
O O11 0.582634 0.022269 0.886244
O O12 0.346193 0.750000 0.543912
O O13 0.348905 0.997110 0.655750
O O14 0.650042 0.250000 0.053671
O O15 0.742767 0.056196 0.040083
O O16 0.672826 0.983196 0.154585
O O17 0.889414 0.750000 0.429960
O O18 0.800206 0.536192 0.423000
O O19 0.205266 0.750000 0.054528
O O20 0.687967 0.750000 0.293034
#
# Coordination Sequence:
#
# PCOD8071064 Si02
#       8
#     4   4   4   4   4   4   4   4
#     4  10  20  35  56  79 103 129 165 214 262 304
#     4   9  16  29  50  77 107 135 168 207 251 301
#     4   9  20  37  56  78 102 130 166 214 263 308
#     4  11  23  38  55  74  99 135 177 213 255 308
#     4  10  19  32  52  78 105 137 172 208 255 306
#     4   9  18  30  48  75 106 139 169 206 252 300
#     4   9  17  30  51  78 107 135 166 207 253 302
#     4  11  22  35  51  73 107 143 175 210 253 305
#
# _framework density 18.140995
#
# number of rings (size 3 to 8) (size 9 to 14) (size 15 to 20)
#    0.000    2.250    1.250    1.875    0.000    3.500 
#    0.000    0.000    0.000    0.750    0.000    0.000 
#    0.000    0.000    0.000    0.000    0.000    0.000 
#
# Total GULP energy -396806.676970 kJ/mol
# GULP energy per Si atom -12400.208655 kJ/mol
# Density = 1.809971 g / cm^3
# Si number density = 18.140995 Si / 1000 Ang^3
#
#
#
# Elastic Constant Matrix: (Units=GPa)
#
#
# Indices 1 2 3 4 5 6 
#
# 1 20.7342 19.3591 14.5750 0.0000 -3.5101 0.0000
# 2 19.3591 77.5436 42.8594 0.0000 -5.5318 0.0000
# 3 14.5750 42.8594 102.2616 0.0000 -3.4709 0.0000
# 4 0.0000 0.0000 0.0000 34.0104 0.0000 -4.8027
# 5 -3.5101 -5.5318 -3.4709 0.0000 21.0387 0.0000
# 6 0.0000 0.0000 0.0000 -4.8027 0.0000 22.5132
#
#
#
# Elastic Compliance Matrix: (Units=1/GPa)
#
#
# Indices 1 2 3 4 5 6 
#
# 1 0.064539 -0.013902 -0.003148 0.000000 0.006593 0.000000
# 2 -0.013902 0.020005 -0.006339 0.000000 0.001895 0.000000
# 3 -0.003148 -0.006339 0.012882 0.000000 -0.000067 0.000000
# 4 0.000000 0.000000 0.000000 0.030316 0.000000 0.006467
# 5 0.006593 0.001895 -0.000067 0.000000 0.049119 0.000000
# 6 0.000000 0.000000 0.000000 0.006467 0.000000 0.045798
#
#
# Mechanical properties :
#
#
# Convention : Reuss Voigt Hill
#
# Bulk Modulus (GPa) = 19.74409 39.34737 29.54573
# Shear Modulus (GPa) = 17.46301 23.76219 20.61260
#
# Velocity S-wave (km/s) = 3.10599 3.62313 3.37448
# Velocity P-wave (km/s) = 4.87547 6.26415 5.61292
#
# Compressibility (1/GPa) = 0.05064808
#
# Stress axis : x y z
#
# Youngs Moduli (GPa) = 15.49459 49.98652 77.62775
#
# Poissons Ratio (x) = 0.69491 0.24438
# Poissons Ratio (y) = 0.21541 0.49207
# Poissons Ratio (z) = 0.04878 0.31686
#
# Static dielectric constant tensor:
#      x y z
#    x 3.173830 0.000000 0.262100 
#    y 0.000000 3.416650 0.000000 
#    z 0.262100 0.000000 3.496850 
# 
# 
# High freq. dielectric constant tensor:
#      x y z
#    x 1.668590 0.000000 0.013970 
#    y 0.000000 1.710450 0.000000 
#    z 0.013970 0.000000 1.711870 
# 
# From -- ./inp_files/40705.got.cif
#   From: 2010.06.25/outbox.cif.g09.slc.cpg/sg11_21_cif.got.tgz:40705.got - 2010.06.27 23:14:04.
