data_PCOD8071993
_publ_section_title
;
Structure prediction by ZEFSAII (Michael W. Deem and Ramdas Pophale) SiO2 
 PCOD8071993
Probable space group: P 21/M
;
_chemical_formula_sum "Si O2"
_cell_formula_units_Z 24
_cell_length_a 14.905187
_cell_length_b 8.624717
_cell_length_c 14.926243
_cell_angle_alpha 90.000000
_cell_angle_beta 39.116371
_cell_angle_gamma 90.000000
_cell_volume 1210.574748
_symmetry_space_group_name_H-M "P 21/M"
_symmetry_group_IT_number 11
_symmetry_cell_setting 'monoclinic'
loop_
_space_group_symop_operation_xyz
x,y,z
-x,1/2+y,-z
-x,-y,-z
x,1/2-y,z
loop_
_atom_site_type_symbol
_atom_site_label
_atom_site_fract_x
_atom_site_fract_y
_atom_site_fract_z
Si Si1 0.063856 0.565953 0.042532
Si Si2 0.138266 0.932993 0.441383
Si Si3 0.623246 0.434229 0.159118
Si Si4 0.562212 0.934373 0.860707
Si Si5 0.127302 0.069915 0.645165
Si Si6 0.560869 0.571519 0.540407
O O1 0.057805 0.750000 0.038749
O O2 0.984339 0.511298 0.194448
O O3 0.221621 0.499734 0.937259
O O4 0.000000 0.500000 0.000000
O O5 0.142316 0.750000 0.424680
O O6 0.282433 0.001512 0.286450
O O7 0.121714 0.971445 0.559063
O O8 0.000000 0.000000 0.500000
O O9 0.629327 0.250000 0.155142
O O10 0.559089 0.489836 0.114738
O O11 0.516073 0.504698 0.315117
O O12 0.576695 0.750000 0.853418
O O13 0.500000 0.000000 0.000000
O O14 0.105761 0.250000 0.635954
O O15 0.273754 0.040120 0.582103
O O16 0.500000 0.500000 0.500000
O O17 0.522277 0.750000 0.569014
#
# Coordination Sequence:
#
# PCOD8071993 Si02
#       6
#     4   4   4   4   4   4
#     4  10  21  37  59  88 123 165 206 251 308 368
#     4  12  26  44  67  95 126 165 210 264 324 387
#     4   9  19  37  59  83 120 162 198 244 306 366
#     4  11  23  43  67  96 129 165 210 260 317 383
#     4  10  21  39  61  87 124 163 204 257 313 372
#     4  10  19  34  56  83 116 157 200 251 307 362
#
# _framework density 19.825294
#
# number of rings (size 3 to 8) (size 9 to 14) (size 15 to 20)
#    0.000    1.667    1.667    3.000    2.333    1.333 
#    0.000    1.667    0.000    0.000    0.000    0.000 
#    0.000    0.000    0.000    0.000    0.000    0.000 
#
# Total GULP energy -297502.009709 kJ/mol
# GULP energy per Si atom -12395.917071 kJ/mol
# Density = 1.978017 g / cm^3
# Si number density = 19.825294 Si / 1000 Ang^3
#
#
#
# Elastic Constant Matrix: (Units=GPa)
#
#
# Indices 1 2 3 4 5 6 
#
# 1 138.6097 49.9124 49.5333 0.0000 11.0257 0.0000
# 2 49.9124 72.0028 34.1896 0.0000 -3.0593 0.0000
# 3 49.5333 34.1896 117.9975 0.0000 -0.9548 0.0000
# 4 0.0000 0.0000 0.0000 27.3308 0.0000 6.3107
# 5 11.0257 -3.0593 -0.9548 0.0000 36.5818 0.0000
# 6 0.0000 0.0000 0.0000 6.3107 0.0000 34.7865
#
#
#
# Elastic Compliance Matrix: (Units=1/GPa)
#
#
# Indices 1 2 3 4 5 6 
#
# 1 0.010776 -0.006343 -0.002717 0.000000 -0.003849 0.000000
# 2 -0.006343 0.019893 -0.003073 0.000000 0.003495 0.000000
# 3 -0.002717 -0.003073 0.010512 0.000000 0.000836 0.000000
# 4 0.000000 0.000000 0.000000 0.038188 0.000000 -0.006928
# 5 -0.003849 0.003495 0.000836 0.000000 0.028810 0.000000
# 6 0.000000 0.000000 0.000000 -0.006928 0.000000 0.030004
#
#
# Mechanical properties :
#
#
# Convention : Reuss Voigt Hill
#
# Bulk Modulus (GPa) = 59.11763 66.20899 62.66331
# Shear Modulus (GPa) = 29.74641 32.73814 31.24227
#
# Velocity S-wave (km/s) = 3.87774 4.06807 3.97404
# Velocity P-wave (km/s) = 7.06634 7.45213 7.26180
#
# Compressibility (1/GPa) = 0.01691543
#
# Stress axis : x y z
#
# Youngs Moduli (GPa) = 92.80165 50.26850 95.12672
#
# Poissons Ratio (x) = 0.31887 0.25842
# Poissons Ratio (y) = 0.58867 0.29232
# Poissons Ratio (z) = 0.25211 0.15447
#
# Static dielectric constant tensor:
#      x y z
#    x 3.791390 0.000000 -0.114890 
#    y 0.000000 3.407930 0.000000 
#    z -0.114890 0.000000 3.874810 
# 
# 
# High freq. dielectric constant tensor:
#      x y z
#    x 1.791520 0.000000 -0.000120 
#    y 0.000000 1.751400 0.000000 
#    z -0.000120 0.000000 1.793580 
# 
# From -- ./inp_files/51511.got.cif
#   From: 2010.06.25/outbox.cif.g09.slc.cpg/sg11_26_cif.got.tgz:51511.got - 2010.06.27 23:14:04.
