data_PCOD8071957
_publ_section_title
;
Structure prediction by ZEFSAII (Michael W. Deem and Ramdas Pophale) SiO2 
 PCOD8071957
Probable space group: P 21/M
;
_chemical_formula_sum "Si O2"
_cell_formula_units_Z 32
_cell_length_a 24.969584
_cell_length_b 9.343157
_cell_length_c 20.014761
_cell_angle_alpha 90.000000
_cell_angle_beta 22.610030
_cell_angle_gamma 90.000000
_cell_volume 1795.159562
_symmetry_space_group_name_H-M "P 21/M"
_symmetry_group_IT_number 11
_symmetry_cell_setting 'monoclinic'
loop_
_space_group_symop_operation_xyz
x,y,z
-x,1/2+y,-z
-x,-y,-z
x,1/2-y,z
loop_
_atom_site_type_symbol
_atom_site_label
_atom_site_fract_x
_atom_site_fract_y
_atom_site_fract_z
Si Si1 0.633259 0.085183 0.139805
Si Si2 0.366370 0.585495 0.488753
Si Si3 0.865315 0.419750 0.348941
Si Si4 0.394622 0.584415 0.977715
Si Si5 0.282693 0.412284 0.371376
Si Si6 0.635914 0.584579 0.864652
Si Si7 0.855396 0.084006 0.993834
Si Si8 0.361201 0.914377 0.645788
O O1 0.587809 0.250000 0.195577
O O2 0.660921 0.040432 0.031286
O O3 0.508753 0.998514 0.315911
O O4 0.773844 0.056441 0.018663
O O5 0.400244 0.750000 0.434963
O O6 0.248492 0.529673 0.574147
O O7 0.310541 0.562883 0.628202
O O8 0.878992 0.250000 0.337638
O O9 0.821517 0.480642 0.471544
O O10 0.010751 0.484658 0.158792
O O11 0.366836 0.750000 0.026414
O O12 0.558730 0.549193 0.792066
O O13 0.309144 0.488929 0.130272
O O14 0.249185 0.250000 0.432373
O O15 0.257043 0.428621 0.320868
O O16 0.599348 0.750000 0.920440
O O17 0.500000 0.500000 0.000000
O O18 0.898700 0.250000 0.950583
O O19 0.761448 0.033477 0.164327
O O20 0.396119 0.750000 0.621155
O O21 0.500000 0.000000 0.500000
#
# Coordination Sequence:
#
# PCOD8071957 Si02
#       8
#     4   4   4   4   4   4   4   4
#     4  10  19  34  56  81 106 139 182 220 263 320
#     4  10  21  35  54  82 110 137 175 224 270 314
#     4  11  23  36  52  78 111 144 178 220 269 317
#     4   9  17  29  49  78 108 135 172 221 265 313
#     4   9  17  31  51  74 104 141 177 216 261 314
#     4   9  17  28  45  73 107 140 174 215 264 313
#     4  10  22  38  56  78 106 143 182 219 265 322
#     4  10  20  36  58  81 107 138 176 221 269 319
#
# _framework density 17.825714000000001
#
# number of rings (size 3 to 8) (size 9 to 14) (size 15 to 20)
#    0.000    2.250    2.500    1.500    0.000    5.000 
#    0.000    0.000    0.000    0.750    0.000    0.000 
#    0.000    0.000    0.000    0.000    0.000    0.000 
#
# Total GULP energy -396782.259302 kJ/mol
# GULP energy per Si atom -12399.445603 kJ/mol
# Density = 1.778514 g / cm^3
# Si number density = 17.825714 Si / 1000 Ang^3
#
#
#
# Elastic Constant Matrix: (Units=GPa)
#
#
# Indices 1 2 3 4 5 6 
#
# 1 78.6643 27.7347 26.8120 0.0000 22.0426 0.0000
# 2 27.7347 70.3931 40.6137 0.0000 9.3080 0.0000
# 3 26.8120 40.6137 75.6022 0.0000 10.3761 0.0000
# 4 0.0000 0.0000 0.0000 32.9250 0.0000 4.4880
# 5 22.0426 9.3080 10.3761 0.0000 27.0977 0.0000
# 6 0.0000 0.0000 0.0000 4.4880 0.0000 24.7264
#
#
#
# Elastic Compliance Matrix: (Units=1/GPa)
#
#
# Indices 1 2 3 4 5 6 
#
# 1 0.018637 -0.004137 -0.002641 0.000000 -0.012729 0.000000
# 2 -0.004137 0.021737 -0.010183 0.000000 -0.000203 0.000000
# 3 -0.002641 -0.010183 0.019905 0.000000 -0.001976 0.000000
# 4 0.000000 0.000000 0.000000 0.031143 0.000000 -0.005653
# 5 -0.012729 -0.000203 -0.001976 0.000000 0.048084 0.000000
# 6 0.000000 0.000000 0.000000 -0.005653 0.000000 0.041469
#
#
# Mechanical properties :
#
#
# Convention : Reuss Voigt Hill
#
# Bulk Modulus (GPa) = 37.93564 46.10892 42.02228
# Shear Modulus (GPa) = 22.35325 25.58308 23.96817
#
# Velocity S-wave (km/s) = 3.54501 3.79249 3.67083
# Velocity P-wave (km/s) = 6.17120 6.71565 6.44917
#
# Compressibility (1/GPa) = 0.02636044
#
# Stress axis : x y z
#
# Youngs Moduli (GPa) = 53.65561 46.00361 50.23888
#
# Poissons Ratio (x) = 0.19029 0.13266
# Poissons Ratio (y) = 0.22195 0.51156
# Poissons Ratio (z) = 0.14168 0.46843
#
# Static dielectric constant tensor:
#      x y z
#    x 3.753780 0.000000 0.386850 
#    y 0.000000 3.395460 0.000000 
#    z 0.386850 0.000000 3.116930 
# 
# 
# High freq. dielectric constant tensor:
#      x y z
#    x 1.696230 0.000000 0.026170 
#    y 0.000000 1.691910 0.000000 
#    z 0.026170 0.000000 1.662770 
# 
# From -- ./inp_files/66929.got.cif
#   From: 2010.06.25/outbox.cif.g09.slc.cpg/sg11_34_cif.got.tgz:66929.got - 2010.06.27 23:14:04.
