data_PCOD8071288
_publ_section_title
;
Structure prediction by ZEFSAII (Michael W. Deem and Ramdas Pophale) SiO2 
 PCOD8071288
Probable space group: P 21/M
;
_chemical_formula_sum "Si O2"
_cell_formula_units_Z 32
_cell_length_a 15.435017
_cell_length_b 9.061020
_cell_length_c 21.066928
_cell_angle_alpha 90.000000
_cell_angle_beta 42.138696
_cell_angle_gamma 90.000000
_cell_volume 1976.792363
_symmetry_space_group_name_H-M "P 21/M"
_symmetry_group_IT_number 11
_symmetry_cell_setting 'monoclinic'
loop_
_space_group_symop_operation_xyz
x,y,z
-x,1/2+y,-z
-x,-y,-z
x,1/2-y,z
loop_
_atom_site_type_symbol
_atom_site_label
_atom_site_fract_x
_atom_site_fract_y
_atom_site_fract_z
Si Si1 0.061678 0.921895 0.610170
Si Si2 0.909050 0.419254 0.598297
Si Si3 0.114632 0.923717 0.725314
Si Si4 0.706184 0.081291 0.609350
Si Si5 0.551723 0.076181 0.280721
Si Si6 0.597009 0.422963 0.400202
Si Si7 0.199178 0.423182 0.900955
Si Si8 0.006037 0.923002 0.094404
O O1 0.033723 0.750000 0.618505
O O2 0.082466 0.969316 0.671141
O O3 0.188461 0.965346 0.500821
O O4 0.933743 0.006150 0.653524
O O5 0.950495 0.250000 0.580052
O O6 0.763799 0.434419 0.649635
O O7 0.000000 0.500000 0.500000
O O8 0.098206 0.750000 0.746357
O O9 0.259251 0.976130 0.661781
O O10 0.017145 0.011620 0.823361
O O11 0.661902 0.250000 0.621006
O O12 0.586962 0.971095 0.669965
O O13 0.571277 0.250000 0.261491
O O14 0.562449 0.028276 0.347989
O O15 0.659716 0.992348 0.181728
O O16 0.500000 0.500000 0.500000
O O17 0.582871 0.250000 0.417929
O O18 0.210334 0.250000 0.907410
O O19 0.118126 0.458790 0.881581
O O20 0.131590 0.497848 0.997974
O O21 0.033435 0.750000 0.083699
#
# Coordination Sequence:
#
# PCOD8071288 Si02
#       8
#     4   4   4   4   4   4   4   4
#     4   9  18  31  49  71  97 131 166 201 241 286
#     4   9  17  30  48  68  94 126 161 204 247 287
#     4  10  19  33  49  68  98 132 162 197 242 289
#     4   9  18  32  48  68  97 131 164 198 243 290
#     4  11  21  32  48  71  96 126 164 204 239 280
#     4  10  21  33  45  63  94 132 166 196 230 275
#     4  10  20  34  52  70  93 126 159 200 249 291
#     4  10  20  33  51  73  94 121 161 206 244 284
#
# _framework density 16.187840999999999
#
# number of rings (size 3 to 8) (size 9 to 14) (size 15 to 20)
#    0.000    2.250    1.250    3.000    0.000    6.500 
#    0.000    0.000    0.000    0.000    0.000    0.875 
#    0.000    0.000    0.000    0.000    0.000    0.000 
#
# Total GULP energy -396818.991996 kJ/mol
# GULP energy per Si atom -12400.593500 kJ/mol
# Density = 1.615100 g / cm^3
# Si number density = 16.187841 Si / 1000 Ang^3
#
#
#
# Elastic Constant Matrix: (Units=GPa)
#
#
# Indices 1 2 3 4 5 6 
#
# 1 108.1920 48.1722 51.4438 0.0000 -1.0037 0.0000
# 2 48.1722 73.0738 49.0315 0.0000 -0.7672 0.0000
# 3 51.4438 49.0315 105.1570 0.0000 2.1431 0.0000
# 4 0.0000 0.0000 0.0000 30.9962 0.0000 -0.5817
# 5 -1.0037 -0.7672 2.1431 0.0000 8.8220 0.0000
# 6 0.0000 0.0000 0.0000 -0.5817 0.0000 28.6284
#
#
#
# Elastic Compliance Matrix: (Units=1/GPa)
#
#
# Indices 1 2 3 4 5 6 
#
# 1 0.014043 -0.006696 -0.003787 0.000000 0.001935 0.000000
# 2 -0.006696 0.023250 -0.007629 0.000000 0.003113 0.000000
# 3 -0.003787 -0.007629 0.015016 0.000000 -0.004742 0.000000
# 4 0.000000 0.000000 0.000000 0.032274 0.000000 0.000656
# 5 0.001935 0.003113 -0.004742 0.000000 0.114996 0.000000
# 6 0.000000 0.000000 0.000000 0.000656 0.000000 0.034944
#
#
# Mechanical properties :
#
#
# Convention : Reuss Voigt Hill
#
# Bulk Modulus (GPa) = 62.16759 64.85754 63.51257
# Shear Modulus (GPa) = 18.10877 22.87433 20.49155
#
# Velocity S-wave (km/s) = 3.34827 3.76314 3.56175
# Velocity P-wave (km/s) = 7.30994 7.68337 7.49898
#
# Compressibility (1/GPa) = 0.01608555
#
# Stress axis : x y z
#
# Youngs Moduli (GPa) = 71.21017 43.01001 66.59553
#
# Poissons Ratio (x) = 0.28799 0.25221
# Poissons Ratio (y) = 0.47682 0.50804
# Poissons Ratio (z) = 0.26969 0.32811
#
# Static dielectric constant tensor:
#      x y z
#    x 3.150110 0.000000 0.022050 
#    y 0.000000 3.127790 0.000000 
#    z 0.022050 0.000000 2.900330 
# 
# 
# High freq. dielectric constant tensor:
#      x y z
#    x 1.614060 0.000000 0.002080 
#    y 0.000000 1.632110 0.000000 
#    z 0.002080 0.000000 1.600410 
# 
# From -- ./inp_files/54245.got.cif
#   From: 2010.06.25/outbox.cif.g09.slc.cpg/sg11_28_cif.got.tgz:54245.got - 2010.06.27 23:14:04.
