data_PCOD8071644
_publ_section_title
;
Structure prediction by ZEFSAII (Michael W. Deem and Ramdas Pophale) SiO2 
 PCOD8071644
Probable space group: P 21/M
;
_chemical_formula_sum "Si O2"
_cell_formula_units_Z 32
_cell_length_a 8.874196
_cell_length_b 19.011073
_cell_length_c 10.365925
_cell_angle_alpha 90.000000
_cell_angle_beta 92.609033
_cell_angle_gamma 90.000000
_cell_volume 1747.001539
_symmetry_space_group_name_H-M "P 21/M"
_symmetry_group_IT_number 11
_symmetry_cell_setting 'monoclinic'
loop_
_space_group_symop_operation_xyz
x,y,z
-x,1/2+y,-z
-x,-y,-z
x,1/2-y,z
loop_
_atom_site_type_symbol
_atom_site_label
_atom_site_fract_x
_atom_site_fract_y
_atom_site_fract_z
Si Si1 0.432939 0.170789 0.288200
Si Si2 0.958964 0.039662 0.865878
Si Si3 0.923371 0.036534 0.374858
Si Si4 0.418462 0.387350 0.013377
Si Si5 0.568640 0.463292 0.380765
Si Si6 0.383257 0.528649 0.142882
Si Si7 0.919241 0.669931 0.726601
Si Si8 0.897956 0.829977 0.025202
O O1 0.484084 0.250000 0.319948
O O2 0.522554 0.118654 0.384524
O O3 0.256822 0.159776 0.309465
O O4 0.477344 0.152626 0.142469
O O5 0.785477 0.039619 0.813147
O O6 0.001911 0.121346 0.879856
O O7 0.052365 0.006478 0.754182
O O8 0.000000 0.000000 0.000000
O O9 0.746945 0.035257 0.392412
O O10 0.985005 0.116209 0.357189
O O11 0.000000 0.000000 0.500000
O O12 0.555095 0.397794 0.916277
O O13 0.278569 0.343619 0.951469
O O14 0.363535 0.467122 0.036610
O O15 0.500000 0.500000 0.500000
O O16 0.499577 0.502739 0.255111
O O17 0.970066 0.750000 0.697153
O O18 0.939939 0.653028 0.878489
O O19 0.935450 0.750000 0.061522
#
# Coordination Sequence:
#
# PCOD8071644 Si02
#       8
#     4   4   4   4   4   4   4   4
#     4   9  18  33  56  83 116 150 187 233 287 346
#     4  12  21  36  60  87 117 151 195 242 290 338
#     4  12  24  39  61  87 115 157 199 245 293 349
#     4   9  16  30  52  81 113 147 182 230 282 339
#     4  11  23  38  58  82 117 152 197 241 285 343
#     4  10  20  32  55  83 113 144 192 236 284 331
#     4   9  18  35  58  87 118 152 190 238 293 350
#     4  10  19  33  55  85 122 157 191 236 298 354
#
# _framework density 18.317097
#
# number of rings (size 3 to 8) (size 9 to 14) (size 15 to 20)
#    0.000    1.750    2.500    4.875    3.500    0.500 
#    0.000    3.125    0.000    7.500    0.000    0.000 
#    0.000    0.000    0.000    0.000    0.000    0.000 
#
# Total GULP energy -396708.554160 kJ/mol
# GULP energy per Si atom -12397.142318 kJ/mol
# Density = 1.827541 g / cm^3
# Si number density = 18.317097 Si / 1000 Ang^3
#
#
#
# Elastic Constant Matrix: (Units=GPa)
#
#
# Indices 1 2 3 4 5 6 
#
# 1 121.5447 65.4699 45.6756 0.0000 -3.6983 0.0000
# 2 65.4699 139.9228 57.0728 0.0000 -1.7606 0.0000
# 3 45.6756 57.0728 77.1191 0.0000 -3.5877 0.0000
# 4 0.0000 0.0000 0.0000 27.2641 0.0000 -1.1316
# 5 -3.6983 -1.7606 -3.5877 0.0000 29.0228 0.0000
# 6 0.0000 0.0000 0.0000 -1.1316 0.0000 34.7437
#
#
#
# Elastic Compliance Matrix: (Units=1/GPa)
#
#
# Indices 1 2 3 4 5 6 
#
# 1 0.011890 -0.003861 -0.004149 0.000000 0.000768 0.000000
# 2 -0.003861 0.011494 -0.006246 0.000000 -0.000567 0.000000
# 3 -0.004149 -0.006246 0.020120 0.000000 0.001580 0.000000
# 4 0.000000 0.000000 0.000000 0.036728 0.000000 0.001196
# 5 0.000768 -0.000567 0.001580 0.000000 0.034714 0.000000
# 6 0.000000 0.000000 0.000000 0.001196 0.000000 0.028821
#
#
# Mechanical properties :
#
#
# Convention : Reuss Voigt Hill
#
# Bulk Modulus (GPa) = 66.70133 75.00258 70.85196
# Shear Modulus (GPa) = 28.20475 29.56402 28.88438
#
# Velocity S-wave (km/s) = 3.92829 4.02184 3.97534
# Velocity P-wave (km/s) = 7.55441 7.91218 7.73536
#
# Compressibility (1/GPa) = 0.01499221
#
# Stress axis : x y z
#
# Youngs Moduli (GPa) = 84.10615 87.00274 49.70274
#
# Poissons Ratio (x) = 0.33595 0.20620
# Poissons Ratio (y) = 0.32477 0.31042
# Poissons Ratio (z) = 0.34892 0.54338
#
# Static dielectric constant tensor:
#      x y z
#    x 3.687090 0.000000 0.058570 
#    y 0.000000 3.564040 0.000000 
#    z 0.058570 0.000000 3.260860 
# 
# 
# High freq. dielectric constant tensor:
#      x y z
#    x 1.712790 0.000000 -0.001050 
#    y 0.000000 1.712480 0.000000 
#    z -0.001050 0.000000 1.681070 
# 
# From -- ./inp_files/14343.got.cif
#   From: 2010.06.25/outbox.cif.g09.slc.cpg/sg11_8_cif.got.tgz:14343.got - 2010.06.27 23:14:04.
