data_PCOD8071521
_publ_section_title
;
Structure prediction by ZEFSAII (Michael W. Deem and Ramdas Pophale) SiO2 
 PCOD8071521
Probable space group: P 21/M
;
_chemical_formula_sum "Si O2"
_cell_formula_units_Z 32
_cell_length_a 17.269823
_cell_length_b 19.140065
_cell_length_c 9.307531
_cell_angle_alpha 90.000000
_cell_angle_beta 143.942360
_cell_angle_gamma 90.000000
_cell_volume 1810.861278
_symmetry_space_group_name_H-M "P 21/M"
_symmetry_group_IT_number 11
_symmetry_cell_setting 'monoclinic'
loop_
_space_group_symop_operation_xyz
x,y,z
-x,1/2+y,-z
-x,-y,-z
x,1/2-y,z
loop_
_atom_site_type_symbol
_atom_site_label
_atom_site_fract_x
_atom_site_fract_y
_atom_site_fract_z
Si Si1 0.504811 0.172345 0.672741
Si Si2 0.243850 0.327770 0.781692
Si Si3 0.640041 0.464421 0.873973
Si Si4 0.504795 0.327655 0.341687
Si Si5 0.243864 0.172229 0.449892
Si Si6 0.875966 0.969932 0.731987
Si Si7 0.640036 0.464421 0.546146
Si Si8 0.124029 0.469931 0.604077
O O1 0.553687 0.250000 0.789109
O O2 0.622617 0.118277 0.880497
O O3 0.463168 0.168335 0.444763
O O4 0.374678 0.150807 0.562503
O O5 0.193176 0.250000 0.751103
O O6 0.282993 0.328712 0.674498
O O7 0.132736 0.386225 0.646200
O O8 0.374653 0.349194 0.061529
O O9 0.688465 0.476812 0.782698
O O10 0.499996 0.499994 0.689584
O O11 0.744775 0.493340 0.142533
O O12 0.553666 0.250000 0.371933
O O13 0.622597 0.381723 0.487332
O O14 0.193193 0.250000 0.328458
O O15 0.132754 0.113774 0.252032
O O16 0.890621 0.986150 0.585932
O O17 0.744780 0.006669 0.591805
O O18 0.000000 0.000000 0.000000
O O19 0.000000 0.500000 0.500000
#
# Coordination Sequence:
#
# PCOD8071521 Si02
#       8
#     4   4   4   4   4   4   4   4
#     4   9  17  30  51  79 108 139 174 213 259 310
#     4   9  18  33  53  77 103 133 172 217 263 312
#     4  10  19  33  54  80 109 138 172 216 262 310
#     4   9  17  30  51  79 108 139 174 213 259 310
#     4   9  18  33  53  77 103 133 172 217 263 312
#     4  11  23  37  55  78 107 142 179 219 265 316
#     4  10  19  33  54  80 109 138 172 216 262 310
#     4  11  23  37  55  78 107 142 179 219 265 316
#
# _framework density 17.671149
#
# number of rings (size 3 to 8) (size 9 to 14) (size 15 to 20)
#    0.000    2.250    2.500    0.750    0.000    2.500 
#    0.000    1.250    0.000    7.500    0.000    0.000 
#    0.000    0.000    0.000    0.000    0.000    0.000 
#
# Total GULP energy -396696.640898 kJ/mol
# GULP energy per Si atom -12396.770028 kJ/mol
# Density = 1.763093 g / cm^3
# Si number density = 17.671149 Si / 1000 Ang^3
#
#
#
# Elastic Constant Matrix: (Units=GPa)
#
#
# Indices 1 2 3 4 5 6 
#
# 1 97.4542 56.9437 39.7221 0.0000 5.2693 0.0000
# 2 56.9437 124.0003 57.4116 0.0000 0.5953 0.0000
# 3 39.7221 57.4116 96.9820 0.0000 -5.8340 0.0000
# 4 0.0000 0.0000 0.0000 23.8938 0.0000 -0.8380
# 5 5.2693 0.5953 -5.8340 0.0000 17.0816 0.0000
# 6 0.0000 0.0000 0.0000 -0.8380 0.0000 24.5649
#
#
#
# Elastic Compliance Matrix: (Units=1/GPa)
#
#
# Indices 1 2 3 4 5 6 
#
# 1 0.015042 -0.005335 -0.003340 0.000000 -0.005595 0.000000
# 2 -0.005335 0.013124 -0.005628 0.000000 -0.000734 0.000000
# 3 -0.003340 -0.005628 0.015401 0.000000 0.006486 0.000000
# 4 0.000000 0.000000 0.000000 0.041902 0.000000 0.001429
# 5 -0.005595 -0.000734 0.006486 0.000000 0.062509 0.000000
# 6 0.000000 0.000000 0.000000 0.001429 0.000000 0.040757
#
#
# Mechanical properties :
#
#
# Convention : Reuss Voigt Hill
#
# Bulk Modulus (GPa) = 66.83571 69.62126 68.22849
# Shear Modulus (GPa) = 22.48941 24.06532 23.27737
#
# Velocity S-wave (km/s) = 3.57131 3.69432 3.63333
# Velocity P-wave (km/s) = 7.41011 7.59481 7.50303
#
# Compressibility (1/GPa) = 0.01496206
#
# Stress axis : x y z
#
# Youngs Moduli (GPa) = 66.48058 76.19868 64.93105
#
# Poissons Ratio (x) = 0.40649 0.21684
# Poissons Ratio (y) = 0.35465 0.36544
# Poissons Ratio (z) = 0.22201 0.42886
#
# Static dielectric constant tensor:
#      x y z
#    x 3.242080 0.000000 -0.116220 
#    y 0.000000 3.968290 0.000000 
#    z -0.116220 0.000000 3.149260 
# 
# 
# High freq. dielectric constant tensor:
#      x y z
#    x 1.673150 0.000000 -0.019690 
#    y 0.000000 1.707230 0.000000 
#    z -0.019690 0.000000 1.657420 
# 
# From -- ./inp_files/23100.got.cif
#   From: 2010.06.25/outbox.cif.g09.slc.cpg/sg11_12_cif.got.tgz:23100.got - 2010.06.27 23:14:04.
