data_PCOD8071753
_publ_section_title
;
Structure prediction by ZEFSAII (Michael W. Deem and Ramdas Pophale) SiO2 
 PCOD8071753
Probable space group: P 21/M
;
_chemical_formula_sum "Si O2"
_cell_formula_units_Z 32
_cell_length_a 11.587088
_cell_length_b 15.895739
_cell_length_c 17.206318
_cell_angle_alpha 90.000000
_cell_angle_beta 147.996555
_cell_angle_gamma 90.000000
_cell_volume 1679.555918
_symmetry_space_group_name_H-M "P 21/M"
_symmetry_group_IT_number 11
_symmetry_cell_setting 'monoclinic'
loop_
_space_group_symop_operation_xyz
x,y,z
-x,1/2+y,-z
-x,-y,-z
x,1/2-y,z
loop_
_atom_site_type_symbol
_atom_site_label
_atom_site_fract_x
_atom_site_fract_y
_atom_site_fract_z
Si Si1 0.070197 0.153124 0.123091
Si Si2 0.575446 0.419261 0.592167
Si Si3 0.147503 0.843538 0.374301
Si Si4 0.886402 0.848113 0.676169
Si Si5 0.500505 0.841013 0.702603
Si Si6 0.230944 0.548222 0.130998
Si Si7 0.983372 0.007165 0.360958
Si Si8 0.338404 0.512669 0.690439
O O1 0.134193 0.250000 0.162186
O O2 0.056853 0.121325 0.204074
O O3 0.275011 0.109841 0.192744
O O4 0.845658 0.138239 0.948635
O O5 0.500000 0.500000 0.500000
O O6 0.777580 0.370367 0.668875
O O7 0.370709 0.357621 0.486443
O O8 0.661584 0.448493 0.724039
O O9 0.032508 0.750000 0.307312
O O10 0.369439 0.835349 0.548165
O O11 0.998608 0.917844 0.324678
O O12 0.951828 0.750000 0.698493
O O13 0.022063 0.912267 0.698994
O O14 0.549663 0.750000 0.766551
O O15 0.358737 0.887678 0.686602
O O16 0.416209 0.521429 0.175188
O O17 0.000000 0.500000 0.000000
O O18 0.756688 0.999490 0.278125
O O19 0.180563 0.025104 0.533645
#
# Coordination Sequence:
#
# PCOD8071753 Si02
#       8
#     4   4   4   4   4   4   4   4
#     4  10  21  36  56  85 121 155 191 240 301 360
#     4  12  20  35  61  90 121 151 195 256 296 344
#     4  10  19  33  58  86 112 150 195 241 291 341
#     4  11  21  37  62  90 117 155 202 248 297 348
#     4   9  16  31  55  81 113 150 191 237 288 345
#     4  12  23  36  59  89 119 154 192 240 311 360
#     4  10  21  37  59  84 119 154 200 249 287 345
#     4  10  20  37  55  85 117 155 197 241 295 351
#
# _framework density 19.052655999999999
#
# number of rings (size 3 to 8) (size 9 to 14) (size 15 to 20)
#    0.000    1.500    5.000    1.875    0.000    1.500 
#    0.000    3.125    0.000    0.000    0.000    0.000 
#    0.000    0.000    0.000    0.000    0.000    0.000 
#
# Total GULP energy -396503.714615 kJ/mol
# GULP energy per Si atom -12390.741082 kJ/mol
# Density = 1.900929 g / cm^3
# Si number density = 19.052656 Si / 1000 Ang^3
#
#
#
# Elastic Constant Matrix: (Units=GPa)
#
#
# Indices 1 2 3 4 5 6 
#
# 1 143.8610 59.9194 38.5030 0.0000 14.7894 0.0000
# 2 59.9194 105.8323 25.8529 0.0000 2.2296 0.0000
# 3 38.5030 25.8529 79.7946 0.0000 -2.4297 0.0000
# 4 0.0000 0.0000 0.0000 21.4509 0.0000 -0.2738
# 5 14.7894 2.2296 -2.4297 0.0000 28.2060 0.0000
# 6 0.0000 0.0000 0.0000 -0.2738 0.0000 18.8567
#
#
#
# Elastic Compliance Matrix: (Units=1/GPa)
#
#
# Indices 1 2 3 4 5 6 
#
# 1 0.010560 -0.004972 -0.003651 0.000000 -0.005459 0.000000
# 2 -0.004972 0.012636 -0.001650 0.000000 0.001466 0.000000
# 3 -0.003651 -0.001650 0.014930 0.000000 0.003331 0.000000
# 4 0.000000 0.000000 0.000000 0.046627 0.000000 0.000677
# 5 -0.005459 0.001466 0.003331 0.000000 0.038487 0.000000
# 6 0.000000 0.000000 0.000000 0.000677 0.000000 0.053041
#
#
# Mechanical properties :
#
#
# Convention : Reuss Voigt Hill
#
# Bulk Modulus (GPa) = 56.88299 64.22651 60.55475
# Shear Modulus (GPa) = 24.66847 27.38356 26.02601
#
# Velocity S-wave (km/s) = 3.60217 3.79523 3.69996
# Velocity P-wave (km/s) = 6.87178 7.27930 7.07847
#
# Compressibility (1/GPa) = 0.01757995
#
# Stress axis : x y z
#
# Youngs Moduli (GPa) = 94.69327 79.13743 66.97952
#
# Poissons Ratio (x) = 0.39348 0.24454
# Poissons Ratio (y) = 0.47083 0.11053
# Poissons Ratio (z) = 0.34572 0.13059
#
# Static dielectric constant tensor:
#      x y z
#    x 3.504760 0.000000 -0.019650 
#    y 0.000000 3.918990 0.000000 
#    z -0.019650 0.000000 3.580920 
# 
# 
# High freq. dielectric constant tensor:
#      x y z
#    x 1.733430 0.000000 -0.000740 
#    y 0.000000 1.751660 0.000000 
#    z -0.000740 0.000000 1.709180 
# 
# From -- ./inp_files/59646.got.cif
#   From: 2010.06.25/outbox.cif.g09.slc.cpg/sg11_30_cif.got.tgz:59646.got - 2010.06.27 23:14:04.
