data_PCOD8071001
_publ_section_title
;
Structure prediction by ZEFSAII (Michael W. Deem and Ramdas Pophale) SiO2 
 PCOD8071001
Probable space group: P 21/M
;
_chemical_formula_sum "Si O2"
_cell_formula_units_Z 32
_cell_length_a 14.684689
_cell_length_b 9.276244
_cell_length_c 21.453078
_cell_angle_alpha 90.000000
_cell_angle_beta 34.414749
_cell_angle_gamma 90.000000
_cell_volume 1651.630296
_symmetry_space_group_name_H-M "P 21/M"
_symmetry_group_IT_number 11
_symmetry_cell_setting 'monoclinic'
loop_
_space_group_symop_operation_xyz
x,y,z
-x,1/2+y,-z
-x,-y,-z
x,1/2-y,z
loop_
_atom_site_type_symbol
_atom_site_label
_atom_site_fract_x
_atom_site_fract_y
_atom_site_fract_z
Si Si1 0.375962 0.917435 0.729795
Si Si2 0.393376 0.584729 0.960937
Si Si3 0.123842 0.082465 0.176548
Si Si4 0.074822 0.916732 0.828997
Si Si5 0.319802 0.919339 0.256121
Si Si6 0.181352 0.586756 0.958474
Si Si7 0.331792 0.583437 0.392813
Si Si8 0.974400 0.918378 0.628366
O O1 0.418007 0.750000 0.713566
O O2 0.266298 0.947693 0.730082
O O3 0.273722 0.974231 0.846437
O O4 0.543847 0.001760 0.632090
O O5 0.429223 0.750000 0.959786
O O6 0.561214 0.500293 0.858806
O O7 0.300886 0.573715 0.948714
O O8 0.286557 0.509516 0.074915
O O9 0.168112 0.250000 0.143108
O O10 0.052938 0.048355 0.283755
O O11 0.985493 0.034235 0.205208
O O12 0.039004 0.750000 0.859725
O O13 0.978259 0.995296 0.938631
O O14 0.318567 0.750000 0.241652
O O15 0.371517 0.948157 0.298175
O O16 0.142910 0.984821 0.346974
O O17 0.126200 0.750000 0.978217
O O18 0.348589 0.750000 0.399535
O O19 0.153041 0.530322 0.510084
O O20 0.946837 0.750000 0.628318
#
# Coordination Sequence:
#
# PCOD8071001 Si02
#       8
#     4   4   4   4   4   4   4   4
#     4  10  19  32  51  78 110 142 176 215 266 318
#     4  10  19  33  55  82 113 144 174 216 267 320
#     4   9  19  37  57  78 109 145 182 221 261 312
#     4   9  18  31  51  78 107 141 178 216 260 311
#     4  11  22  36  57  84 109 134 175 225 274 326
#     4   9  17  29  47  75 109 142 173 210 262 317
#     4  10  22  38  56  80 108 140 179 223 270 320
#     4  10  22  40  59  77 103 143 184 223 270 318
#
# _framework density 19.374797000000001
#
# number of rings (size 3 to 8) (size 9 to 14) (size 15 to 20)
#    0.000    2.250    1.250    1.500    0.000    3.500 
#    0.000    0.625    0.000    0.000    0.000    0.000 
#    0.000    0.000    0.000    0.000    0.000    0.000 
#
# Total GULP energy -396833.673036 kJ/mol
# GULP energy per Si atom -12401.052282 kJ/mol
# Density = 1.933070 g / cm^3
# Si number density = 19.374797 Si / 1000 Ang^3
#
#
#
# Elastic Constant Matrix: (Units=GPa)
#
#
# Indices 1 2 3 4 5 6 
#
# 1 39.6008 26.3546 30.5278 0.0000 -16.2718 0.0000
# 2 26.3546 76.4152 52.8551 0.0000 -14.2356 0.0000
# 3 30.5278 52.8551 93.8163 0.0000 -21.8133 0.0000
# 4 0.0000 0.0000 0.0000 33.0803 0.0000 -8.3366
# 5 -16.2718 -14.2356 -21.8133 0.0000 33.1086 0.0000
# 6 0.0000 0.0000 0.0000 -8.3366 0.0000 24.3198
#
#
#
# Elastic Compliance Matrix: (Units=1/GPa)
#
#
# Indices 1 2 3 4 5 6 
#
# 1 0.039833 -0.007297 -0.005938 0.000000 0.012527 0.000000
# 2 -0.007297 0.022841 -0.010680 0.000000 -0.000802 0.000000
# 3 -0.005938 -0.010680 0.019913 0.000000 0.005609 0.000000
# 4 0.000000 0.000000 0.000000 0.033088 0.000000 0.011342
# 5 0.012527 -0.000802 0.005609 0.000000 0.039711 0.000000
# 6 0.000000 0.000000 0.000000 0.011342 0.000000 0.045007
#
#
# Mechanical properties :
#
#
# Convention : Reuss Voigt Hill
#
# Bulk Modulus (GPa) = 28.77205 47.70082 38.23643
# Shear Modulus (GPa) = 19.24496 24.77474 22.00985
#
# Velocity S-wave (km/s) = 3.15508 3.57978 3.37412
# Velocity P-wave (km/s) = 5.30615 6.46219 5.91249
#
# Compressibility (1/GPa) = 0.03475595
#
# Stress axis : x y z
#
# Youngs Moduli (GPa) = 25.10480 43.78065 50.21922
#
# Poissons Ratio (x) = 0.31947 0.29820
# Poissons Ratio (y) = 0.18319 0.53637
# Poissons Ratio (z) = 0.14907 0.46760
#
# Static dielectric constant tensor:
#      x y z
#    x 3.577220 0.000000 -0.115090 
#    y 0.000000 3.509620 0.000000 
#    z -0.115090 0.000000 3.434640 
# 
# 
# High freq. dielectric constant tensor:
#      x y z
#    x 1.754480 0.000000 -0.012480 
#    y 0.000000 1.748920 0.000000 
#    z -0.012480 0.000000 1.741990 
# 
# From -- ./inp_files/55725.got.cif
#   From: 2010.06.25/outbox.cif.g09.slc.cpg/sg11_28_cif.got.tgz:55725.got - 2010.06.27 23:14:04.
