data_PCOD8071304
_publ_section_title
;
Structure prediction by ZEFSAII (Michael W. Deem and Ramdas Pophale) SiO2 
 PCOD8071304
Probable space group: P 21/M
;
_chemical_formula_sum "Si O2"
_cell_formula_units_Z 32
_cell_length_a 21.442795
_cell_length_b 19.870720
_cell_length_c 8.803031
_cell_angle_alpha 90.000000
_cell_angle_beta 27.542882
_cell_angle_gamma 90.000000
_cell_volume 1734.429511
_symmetry_space_group_name_H-M "P 21/M"
_symmetry_group_IT_number 11
_symmetry_cell_setting 'monoclinic'
loop_
_space_group_symop_operation_xyz
x,y,z
-x,1/2+y,-z
-x,-y,-z
x,1/2-y,z
loop_
_atom_site_type_symbol
_atom_site_label
_atom_site_fract_x
_atom_site_fract_y
_atom_site_fract_z
Si Si1 0.755555 0.961786 0.673933
Si Si2 0.888340 0.675175 0.409470
Si Si3 0.898066 0.122368 0.857182
Si Si4 0.466665 0.535853 0.226647
Si Si5 0.074137 0.931241 0.537838
Si Si6 0.130625 0.675381 0.659134
Si Si7 0.340155 0.825222 0.470721
Si Si8 0.181699 0.004190 0.807464
O O1 0.773420 0.881236 0.645163
O O2 0.798398 0.988277 0.415179
O O3 0.847557 0.998755 0.600047
O O4 0.596905 0.976148 0.052818
O O5 0.822900 0.750000 0.548649
O O6 0.970720 0.667411 0.390421
O O7 0.990734 0.665980 0.049079
O O8 0.907237 0.086684 0.676484
O O9 0.762570 0.167210 0.164242
O O10 0.894742 0.066045 0.998412
O O11 0.452825 0.616728 0.234143
O O12 0.325959 0.501443 0.586605
O O13 0.500000 0.500000 0.000000
O O14 0.142337 0.874776 0.493405
O O15 0.913738 0.937064 0.919981
O O16 0.137030 0.750000 0.575782
O O17 0.257728 0.663800 0.493671
O O18 0.404467 0.750000 0.337850
#
# Coordination Sequence:
#
# PCOD8071304 Si02
#       8
#     4   4   4   4   4   4   4   4
#     4  11  20  33  55  81 104 137 178 229 263 309
#     4  10  19  33  50  73 106 136 170 220 272 312
#     4  10  20  32  51  79 108 138 175 216 266 321
#     4   9  19  33  53  80 109 135 180 224 270 307
#     4  12  20  31  57  81 110 137 179 218 269 319
#     4   9  18  31  51  79 103 132 175 222 268 311
#     4   9  18  36  56  75 108 149 180 216 269 326
#     4  10  19  34  52  76 109 141 169 216 268 323
#
# _framework density 18.449870000000001
#
# number of rings (size 3 to 8) (size 9 to 14) (size 15 to 20)
#    0.000    2.000    2.500    4.875    0.000    1.500 
#    0.000    2.500    0.000    0.000    0.000    0.000 
#    0.000    0.000    0.000    0.000    0.000    0.000 
#
# Total GULP energy -396533.969325 kJ/mol
# GULP energy per Si atom -12391.686541 kJ/mol
# Density = 1.840788 g / cm^3
# Si number density = 18.449870 Si / 1000 Ang^3
#
#
#
# Elastic Constant Matrix: (Units=GPa)
#
#
# Indices 1 2 3 4 5 6 
#
# 1 64.9124 39.1843 34.0628 0.0000 -0.3090 0.0000
# 2 39.1843 100.9603 33.6669 0.0000 3.1307 0.0000
# 3 34.0628 33.6669 66.0493 0.0000 -14.8507 0.0000
# 4 0.0000 0.0000 0.0000 24.7217 0.0000 -0.9932
# 5 -0.3090 3.1307 -14.8507 0.0000 25.2842 0.0000
# 6 0.0000 0.0000 0.0000 -0.9932 0.0000 22.9326
#
#
#
# Elastic Compliance Matrix: (Units=1/GPa)
#
#
# Indices 1 2 3 4 5 6 
#
# 1 0.024599 -0.005709 -0.011003 0.000000 -0.005455 0.000000
# 2 -0.005709 0.014051 -0.005328 0.000000 -0.004939 0.000000
# 3 -0.011003 -0.005328 0.027247 0.000000 0.016529 0.000000
# 4 0.000000 0.000000 0.000000 0.040521 0.000000 0.001755
# 5 -0.005455 -0.004939 0.016529 0.000000 0.049803 0.000000
# 6 0.000000 0.000000 0.000000 0.001755 0.000000 0.043682
#
#
# Mechanical properties :
#
#
# Convention : Reuss Voigt Hill
#
# Bulk Modulus (GPa) = 45.83649 49.52777 47.68213
# Shear Modulus (GPa) = 19.90006 22.92156 21.41081
#
# Velocity S-wave (km/s) = 3.28777 3.52855 3.41029
# Velocity P-wave (km/s) = 6.26979 6.59573 6.43483
#
# Compressibility (1/GPa) = 0.02181668
#
# Stress axis : x y z
#
# Youngs Moduli (GPa) = 40.65126 71.17118 36.70167
#
# Poissons Ratio (x) = 0.40633 0.40382
# Poissons Ratio (y) = 0.23209 0.19555
# Poissons Ratio (z) = 0.44728 0.37921
#
# Static dielectric constant tensor:
#      x y z
#    x 3.180320 0.000000 -0.293380 
#    y 0.000000 3.650620 0.000000 
#    z -0.293380 0.000000 3.554770 
# 
# 
# High freq. dielectric constant tensor:
#      x y z
#    x 1.688700 0.000000 -0.014410 
#    y 0.000000 1.725970 0.000000 
#    z -0.014410 0.000000 1.690850 
# 
# From -- ./inp_files/19198.got.cif
#   From: 2010.06.25/outbox.cif.g09.slc.cpg/sg11_10_cif.got.tgz:19198.got - 2010.06.27 23:14:04.
