data_PCOD8071249
_publ_section_title
;
Structure prediction by ZEFSAII (Michael W. Deem and Ramdas Pophale) SiO2 
 PCOD8071249
Probable space group: P 21/M
;
_chemical_formula_sum "Si O2"
_cell_formula_units_Z 28
_cell_length_a 14.504722
_cell_length_b 9.446790
_cell_length_c 10.996216
_cell_angle_alpha 90.000000
_cell_angle_beta 65.572456
_cell_angle_gamma 90.000000
_cell_volume 1371.859737
_symmetry_space_group_name_H-M "P 21/M"
_symmetry_group_IT_number 11
_symmetry_cell_setting 'monoclinic'
loop_
_space_group_symop_operation_xyz
x,y,z
-x,1/2+y,-z
-x,-y,-z
x,1/2-y,z
loop_
_atom_site_type_symbol
_atom_site_label
_atom_site_fract_x
_atom_site_fract_y
_atom_site_fract_z
Si Si1 0.656702 0.467414 0.465786
Si Si2 0.288109 0.920692 0.940799
Si Si3 0.802316 0.584635 0.798696
Si Si4 0.178410 0.902630 0.440813
Si Si5 0.967395 0.088429 0.274181
Si Si6 0.186417 0.088328 0.788036
Si Si7 0.529867 0.098031 0.311677
O O1 0.736748 0.380621 0.500834
O O2 0.720412 0.589286 0.359883
O O3 0.571221 0.512439 0.608321
O O4 0.599578 0.378605 0.393558
O O5 0.274450 0.750000 0.950730
O O6 0.400740 0.966109 0.833798
O O7 0.207872 0.992105 0.893656
O O8 0.275066 0.991015 0.079851
O O9 0.772347 0.750000 0.816522
O O10 0.794646 0.528738 0.665051
O O11 0.913677 0.558527 0.790857
O O12 0.169962 0.750000 0.377499
O O13 0.073090 0.936801 0.566451
O O14 0.943985 0.250000 0.245833
O O15 0.915749 0.976402 0.212580
O O16 0.166386 0.250000 0.839295
O O17 0.491559 0.250000 0.289484
#
# Coordination Sequence:
#
# PCOD8071249 Si02
#       7
#     4   4   4   4   4   4   4
#     4   9  18  32  54  84 112 138 169 214 267 317
#     4  10  21  37  55  76 107 146 182 217 263 317
#     4  11  23  38  55  76 105 142 183 224 264 309
#     4  10  20  36  57  81 109 140 175 215 264 321
#     4   9  20  37  56  79 107 139 175 218 268 319
#     4  10  19  32  55  85 112 137 172 220 268 315
#     4   9  17  32  55  81 108 138 173 214 262 315
#
# _framework density 20.410250000000001
#
# number of rings (size 3 to 8) (size 9 to 14) (size 15 to 20)
#    0.000    2.286    0.000    2.571    0.000    8.000 
#    0.000    2.857    0.000    0.000    0.000    0.000 
#    0.000    0.000    0.000    0.000    0.000    0.000 
#
# Total GULP energy -346960.599806 kJ/mol
# GULP energy per Si atom -12391.449993 kJ/mol
# Density = 2.036380 g / cm^3
# Si number density = 20.410250 Si / 1000 Ang^3
#
#
#
# Elastic Constant Matrix: (Units=GPa)
#
#
# Indices 1 2 3 4 5 6 
#
# 1 26.0287 4.5197 -0.8678 0.0000 -9.2776 0.0000
# 2 4.5197 106.0609 30.6791 0.0000 0.8003 0.0000
# 3 -0.8678 30.6791 91.1963 0.0000 -13.6141 0.0000
# 4 0.0000 0.0000 0.0000 27.1525 0.0000 6.8228
# 5 -9.2776 0.8003 -13.6141 0.0000 25.2543 0.0000
# 6 0.0000 0.0000 0.0000 6.8228 0.0000 6.5243
#
#
#
# Elastic Compliance Matrix: (Units=1/GPa)
#
#
# Indices 1 2 3 4 5 6 
#
# 1 0.046099 -0.003411 0.004492 0.000000 0.019465 0.000000
# 2 -0.003411 0.010835 -0.004258 0.000000 -0.003892 0.000000
# 3 0.004492 -0.004258 0.013819 0.000000 0.009235 0.000000
# 4 0.000000 0.000000 0.000000 0.049956 0.000000 -0.052241
# 5 0.019465 -0.003892 0.009235 0.000000 0.051850 0.000000
# 6 0.000000 0.000000 0.000000 -0.052241 0.000000 0.207904
#
#
# Mechanical properties :
#
#
# Convention : Reuss Voigt Hill
#
# Bulk Modulus (GPa) = 15.52822 32.43867 23.98345
# Shear Modulus (GPa) = 12.24639 24.38322 18.31480
#
# Velocity S-wave (km/s) = 2.45217 3.46013 2.99880
# Velocity P-wave (km/s) = 3.95501 5.64722 4.87510
#
# Compressibility (1/GPa) = 0.06439888
#
# Stress axis : x y z
#
# Youngs Moduli (GPa) = 21.69239 92.29310 72.36274
#
# Poissons Ratio (x) = 0.31478 -0.32504
# Poissons Ratio (y) = 0.07398 0.30815
# Poissons Ratio (z) = -0.09744 0.39303
#
# Static dielectric constant tensor:
#      x y z
#    x 3.440260 0.000000 -0.183030 
#    y 0.000000 3.539420 0.000000 
#    z -0.183030 0.000000 3.733770 
# 
# 
# High freq. dielectric constant tensor:
#      x y z
#    x 1.776790 0.000000 -0.014000 
#    y 0.000000 1.793510 0.000000 
#    z -0.014000 0.000000 1.797010 
# 
# From -- ./inp_files/37882.got.cif
#   From: 2010.06.25/outbox.cif.g09.slc.cpg/sg11_19_cif.got.tgz:37882.got - 2010.06.27 23:14:04.
