data_PCOD8071562
_publ_section_title
;
Structure prediction by ZEFSAII (Michael W. Deem and Ramdas Pophale) SiO2 
 PCOD8071562
Probable space group: P 21/M
;
_chemical_formula_sum "Si O2"
_cell_formula_units_Z 28
_cell_length_a 13.395840
_cell_length_b 8.713517
_cell_length_c 14.106365
_cell_angle_alpha 90.000000
_cell_angle_beta 58.956928
_cell_angle_gamma 90.000000
_cell_volume 1410.742696
_symmetry_space_group_name_H-M "P 21/M"
_symmetry_group_IT_number 11
_symmetry_cell_setting 'monoclinic'
loop_
_space_group_symop_operation_xyz
x,y,z
-x,1/2+y,-z
-x,-y,-z
x,1/2-y,z
loop_
_atom_site_type_symbol
_atom_site_label
_atom_site_fract_x
_atom_site_fract_y
_atom_site_fract_z
Si Si1 0.435165 0.574721 0.884502
Si Si2 0.990001 0.069288 0.108848
Si Si3 0.308790 0.932326 0.453452
Si Si4 0.221748 0.069064 0.673739
Si Si5 0.443504 0.571419 0.659575
Si Si6 0.208389 0.570149 0.101803
Si Si7 0.324324 0.927649 0.234909
O O1 0.447813 0.750000 0.908063
O O2 0.414294 0.552233 0.783904
O O3 0.553780 0.496201 0.860665
O O4 0.322672 0.505712 0.992437
O O5 0.982490 0.250000 0.102219
O O6 0.873882 0.010188 0.214735
O O7 0.098525 0.024620 0.120872
O O8 0.000000 0.000000 0.000000
O O9 0.301724 0.750000 0.466365
O O10 0.284623 0.990873 0.357463
O O11 0.212457 0.009303 0.569428
O O12 0.434701 0.992005 0.424976
O O13 0.203522 0.250000 0.686239
O O14 0.347491 0.020845 0.649378
O O15 0.445991 0.750000 0.628362
O O16 0.188458 0.750000 0.089947
O O17 0.224262 0.539345 0.206568
O O18 0.349591 0.750000 0.233659
#
# Coordination Sequence:
#
# PCOD8071562 Si02
#       7
#     4   4   4   4   4   4   4
#     4   9  18  31  53  83 117 151 185 227 280 337
#     4  12  26  44  64  87 113 146 185 230 279 335
#     4  10  20  36  56  83 117 153 192 237 285 339
#     4  12  24  39  59  83 111 149 192 238 287 339
#     4  10  19  33  54  84 118 153 190 234 287 345
#     4  10  20  37  58  84 116 152 191 235 282 331
#     4   9  19  34  56  84 117 152 189 233 282 332
#
# _framework density 19.847702000000002
#
# number of rings (size 3 to 8) (size 9 to 14) (size 15 to 20)
#    0.000    1.714    0.000    5.143    0.000    3.429 
#    0.000    0.714    0.000    0.000    0.000    0.000 
#    0.000    0.000    0.000    0.000    0.000    0.000 
#
# Total GULP energy -347244.671473 kJ/mol
# GULP energy per Si atom -12401.595410 kJ/mol
# Density = 1.980253 g / cm^3
# Si number density = 19.847702 Si / 1000 Ang^3
#
#
#
# Elastic Constant Matrix: (Units=GPa)
#
#
# Indices 1 2 3 4 5 6 
#
# 1 90.5770 40.9833 48.3044 0.0000 10.7143 0.0000
# 2 40.9833 106.9242 45.7273 0.0000 3.3272 0.0000
# 3 48.3044 45.7273 139.2784 0.0000 -0.1497 0.0000
# 4 0.0000 0.0000 0.0000 32.0179 0.0000 -3.4461
# 5 10.7143 3.3272 -0.1497 0.0000 12.6909 0.0000
# 6 0.0000 0.0000 0.0000 -3.4461 0.0000 32.4568
#
#
#
# Elastic Compliance Matrix: (Units=1/GPa)
#
#
# Indices 1 2 3 4 5 6 
#
# 1 0.016879 -0.004128 -0.004513 0.000000 -0.013221 0.000000
# 2 -0.004128 0.011997 -0.002507 0.000000 0.000310 0.000000
# 3 -0.004513 -0.002507 0.009573 0.000000 0.004580 0.000000
# 4 0.000000 0.000000 0.000000 0.031594 0.000000 0.003354
# 5 -0.013221 0.000310 0.004580 0.000000 0.089931 0.000000
# 6 0.000000 0.000000 0.000000 0.003354 0.000000 0.031166
#
#
# Mechanical properties :
#
#
# Convention : Reuss Voigt Hill
#
# Bulk Modulus (GPa) = 61.90662 67.42330 64.66496
# Shear Modulus (GPa) = 22.84989 28.88409 25.86699
#
# Velocity S-wave (km/s) = 3.39671 3.81896 3.61400
# Velocity P-wave (km/s) = 6.82950 7.31369 7.07573
#
# Compressibility (1/GPa) = 0.01615336
#
# Stress axis : x y z
#
# Youngs Moduli (GPa) = 59.24623 83.35334 104.46152
#
# Poissons Ratio (x) = 0.34410 0.47141
# Poissons Ratio (y) = 0.24458 0.26186
# Poissons Ratio (z) = 0.26736 0.20895
#
# Static dielectric constant tensor:
#      x y z
#    x 3.539420 0.000000 0.178050 
#    y 0.000000 3.607130 0.000000 
#    z 0.178050 0.000000 4.036770 
# 
# 
# High freq. dielectric constant tensor:
#      x y z
#    x 1.761390 0.000000 0.016480 
#    y 0.000000 1.774800 0.000000 
#    z 0.016480 0.000000 1.789640 
# 
# From -- ./inp_files/37840.got.cif
#   From: 2010.06.25/outbox.cif.g09.slc.cpg/sg11_19_cif.got.tgz:37840.got - 2010.06.27 23:14:04.
