data_PCOD8071029
_publ_section_title
;
Structure prediction by ZEFSAII (Michael W. Deem and Ramdas Pophale) SiO2 
 PCOD8071029
Probable space group: P 21/M
;
_chemical_formula_sum "Si O2"
_cell_formula_units_Z 32
_cell_length_a 14.946246
_cell_length_b 8.624759
_cell_length_c 14.940874
_cell_angle_alpha 90.000000
_cell_angle_beta 78.658129
_cell_angle_gamma 90.000000
_cell_volume 1888.382382
_symmetry_space_group_name_H-M "P 21/M"
_symmetry_group_IT_number 11
_symmetry_cell_setting 'monoclinic'
loop_
_space_group_symop_operation_xyz
x,y,z
-x,1/2+y,-z
-x,-y,-z
x,1/2-y,z
loop_
_atom_site_type_symbol
_atom_site_label
_atom_site_fract_x
_atom_site_fract_y
_atom_site_fract_z
Si Si1 0.197545 0.571720 0.918258
Si Si2 0.051331 0.071682 0.609511
Si Si3 0.867298 0.571570 0.588578
Si Si4 0.758562 0.429032 0.756571
Si Si5 0.932404 0.927957 0.193119
Si Si6 0.390992 0.571201 0.945931
Si Si7 0.122221 0.430148 0.111905
Si Si8 0.591463 0.928699 0.869349
O O1 0.175252 0.750000 0.902412
O O2 0.155586 0.467244 0.848554
O O3 0.306421 0.541199 0.896530
O O4 0.156599 0.530691 0.022391
O O5 0.019291 0.250000 0.604090
O O6 0.126038 0.030708 0.518511
O O7 0.095007 0.042598 0.698110
O O8 0.963655 0.963104 0.616827
O O9 0.842733 0.750000 0.608916
O O10 0.787855 0.469181 0.649326
O O11 0.775725 0.250000 0.773445
O O12 0.820263 0.528705 0.811643
O O13 0.651956 0.469944 0.789499
O O14 0.960866 0.750000 0.172211
O O15 0.016084 0.035548 0.148119
O O16 0.393657 0.750000 0.977939
O O17 0.484834 0.529108 0.875996
O O18 0.378880 0.463996 0.034887
O O19 0.134549 0.250000 0.087120
O O20 0.611080 0.750000 0.845445
#
# Coordination Sequence:
#
# PCOD8071029 Si02
#       8
#     4   4   4   4   4   4   4   4
#     4  11  22  36  52  72 101 137 172 209 248 293
#     4   9  19  34  51  72 100 131 165 208 252 292
#     4  10  19  32  52  75  98 129 168 206 248 300
#     4  12  22  33  49  74 105 137 165 203 255 303
#     4  11  22  36  52  72 101 137 172 209 248 293
#     4   9  19  34  51  72 100 131 165 208 252 292
#     4  12  23  35  50  72  99 135 177 213 244 291
#     4  10  19  32  52  75  98 129 168 206 248 300
#
# _framework density 16.945720999999999
#
# number of rings (size 3 to 8) (size 9 to 14) (size 15 to 20)
#    0.000    1.500    2.500    4.125    0.000    2.000 
#    0.000    0.000    0.000    0.000    0.000    0.875 
#    0.000    0.000    0.000    0.000    0.000    0.000 
#
# Total GULP energy -396887.313200 kJ/mol
# GULP energy per Si atom -12402.728538 kJ/mol
# Density = 1.690715 g / cm^3
# Si number density = 16.945721 Si / 1000 Ang^3
#
#
#
# Elastic Constant Matrix: (Units=GPa)
#
#
# Indices 1 2 3 4 5 6 
#
# 1 90.4092 20.4541 47.0724 0.0000 -11.2482 0.0000
# 2 20.4541 51.8786 18.0368 0.0000 -7.6703 0.0000
# 3 47.0724 18.0368 89.0917 0.0000 -11.6380 0.0000
# 4 0.0000 0.0000 0.0000 23.6607 0.0000 -2.4287
# 5 -11.2482 -7.6703 -11.6380 0.0000 23.6830 0.0000
# 6 0.0000 0.0000 0.0000 -2.4287 0.0000 23.7045
#
#
#
# Elastic Compliance Matrix: (Units=1/GPa)
#
#
# Indices 1 2 3 4 5 6 
#
# 1 0.016036 -0.003313 -0.007424 0.000000 0.002895 0.000000
# 2 -0.003313 0.021983 -0.002111 0.000000 0.004509 0.000000
# 3 -0.007424 -0.002111 0.016055 0.000000 0.003680 0.000000
# 4 0.000000 0.000000 0.000000 0.042713 0.000000 0.004376
# 5 0.002895 0.004509 0.003680 0.000000 0.046868 0.000000
# 6 0.000000 0.000000 0.000000 0.004376 0.000000 0.042634
#
#
# Mechanical properties :
#
#
# Convention : Reuss Voigt Hill
#
# Bulk Modulus (GPa) = 35.23917 44.72290 39.98103
# Shear Modulus (GPa) = 22.57906 23.93071 23.25488
#
# Velocity S-wave (km/s) = 3.65421 3.76200 3.70850
# Velocity P-wave (km/s) = 6.21650 6.73196 6.47936
#
# Compressibility (1/GPa) = 0.02837751
#
# Stress axis : x y z
#
# Youngs Moduli (GPa) = 62.36031 45.49051 62.28663
#
# Poissons Ratio (x) = 0.15073 0.46240
# Poissons Ratio (y) = 0.20662 0.13147
# Poissons Ratio (z) = 0.46294 0.09602
#
# Static dielectric constant tensor:
#      x y z
#    x 3.150800 0.000000 -0.168580 
#    y 0.000000 3.242270 0.000000 
#    z -0.168580 0.000000 3.206820 
# 
# 
# High freq. dielectric constant tensor:
#      x y z
#    x 1.631910 0.000000 -0.016000 
#    y 0.000000 1.667550 0.000000 
#    z -0.016000 0.000000 1.637190 
# 
# From -- ./inp_files/51270.got.cif
#   From: 2010.06.25/outbox.cif.g09.slc.cpg/sg11_26_cif.got.tgz:51270.got - 2010.06.27 23:14:04.
