data_PCOD8071774
_publ_section_title
;
Structure prediction by ZEFSAII (Michael W. Deem and Ramdas Pophale) SiO2 
 PCOD8071774
Probable space group: P 21/M
;
_chemical_formula_sum "Si O2"
_cell_formula_units_Z 32
_cell_length_a 18.588406
_cell_length_b 14.553386
_cell_length_c 11.922148
_cell_angle_alpha 90.000000
_cell_angle_beta 27.407648
_cell_angle_gamma 90.000000
_cell_volume 1484.632409
_symmetry_space_group_name_H-M "P 21/M"
_symmetry_group_IT_number 11
_symmetry_cell_setting 'monoclinic'
loop_
_space_group_symop_operation_xyz
x,y,z
-x,1/2+y,-z
-x,-y,-z
x,1/2-y,z
loop_
_atom_site_type_symbol
_atom_site_label
_atom_site_fract_x
_atom_site_fract_y
_atom_site_fract_z
Si Si1 0.880530 0.854861 0.134538
Si Si2 0.770682 0.148372 0.313723
Si Si3 0.846102 0.920479 0.420912
Si Si4 0.199718 0.987583 0.908191
Si Si5 0.910133 0.144016 0.553698
Si Si6 0.680264 0.106548 0.677297
Si Si7 0.211672 0.018719 0.131813
Si Si8 0.655283 0.852603 0.875641
O O1 0.868034 0.750000 0.113070
O O2 0.808826 0.867111 0.357626
O O3 0.792664 0.914712 0.164054
O O4 0.058841 0.890924 0.888924
O O5 0.784776 0.250000 0.242839
O O6 0.708018 0.084092 0.299774
O O7 0.671973 0.151040 0.564147
O O8 0.720291 0.000856 0.607008
O O9 0.804877 0.856943 0.584881
O O10 0.024502 0.953135 0.180482
O O11 0.288553 0.998174 0.903820
O O12 0.941162 0.250000 0.551742
O O13 0.806598 0.152738 0.584420
O O14 0.067770 0.088499 0.308841
O O15 0.825912 0.081407 0.764006
O O16 0.506493 0.124368 0.966216
O O17 0.333082 0.071920 0.042109
O O18 0.652679 0.750000 0.929723
#
# Coordination Sequence:
#
# PCOD8071774 Si02
#       8
#     4   4   4   4   4   4   4   4
#     4  10  19  33  59  91 118 151 195 251 301 343
#     4  10  19  33  59  89 115 150 198 250 299 345
#     4  11  19  38  62  86 122 153 195 252 301 351
#     4  11  20  37  58  87 121 154 198 245 292 354
#     4  11  22  39  62  87 118 158 205 251 294 354
#     4  12  21  41  65  88 121 155 202 253 301 352
#     4  11  23  39  58  87 122 163 199 241 302 355
#     4  12  26  40  59  91 126 161 198 246 305 363
#
# _framework density 21.554158000000001
#
# number of rings (size 3 to 8) (size 9 to 14) (size 15 to 20)
#    0.000    1.000    5.000    3.750    0.000    3.000 
#    0.000    0.625    0.000    0.000    0.000    0.000 
#    0.000    0.000    0.000    0.000    0.000    0.000 
#
# Total GULP energy -396662.768218 kJ/mol
# GULP energy per Si atom -12395.711507 kJ/mol
# Density = 2.150510 g / cm^3
# Si number density = 21.554158 Si / 1000 Ang^3
#
#
#
# Elastic Constant Matrix: (Units=GPa)
#
#
# Indices 1 2 3 4 5 6 
#
# 1 100.8836 33.8642 22.2080 0.0000 22.8155 0.0000
# 2 33.8642 118.8816 12.2542 0.0000 8.1469 0.0000
# 3 22.2080 12.2542 45.1324 0.0000 6.5641 0.0000
# 4 0.0000 0.0000 0.0000 21.5292 0.0000 4.7044
# 5 22.8155 8.1469 6.5641 0.0000 35.3033 0.0000
# 6 0.0000 0.0000 0.0000 4.7044 0.0000 17.2389
#
#
#
# Elastic Compliance Matrix: (Units=1/GPa)
#
#
# Indices 1 2 3 4 5 6 
#
# 1 0.013575 -0.002873 -0.004851 0.000000 -0.007208 0.000000
# 2 -0.002873 0.009351 -0.001112 0.000000 -0.000095 0.000000
# 3 -0.004851 -0.001112 0.025030 0.000000 -0.001262 0.000000
# 4 0.000000 0.000000 0.000000 0.049394 0.000000 -0.013479
# 5 -0.007208 -0.000095 -0.001262 0.000000 0.033241 0.000000
# 6 0.000000 0.000000 0.000000 -0.013479 0.000000 0.061687
#
#
# Mechanical properties :
#
#
# Convention : Reuss Voigt Hill
#
# Bulk Modulus (GPa) = 33.02075 44.61672 38.81874
# Shear Modulus (GPa) = 22.72280 27.91902 25.32091
#
# Velocity S-wave (km/s) = 3.25040 3.60293 3.43119
# Velocity P-wave (km/s) = 5.42586 6.16870 5.80916
#
# Compressibility (1/GPa) = 0.03028399
#
# Stress axis : x y z
#
# Youngs Moduli (GPa) = 73.66564 106.93875 39.95279
#
# Poissons Ratio (x) = 0.30722 0.19382
# Poissons Ratio (y) = 0.21163 0.04441
# Poissons Ratio (z) = 0.35737 0.11887
#
# Static dielectric constant tensor:
#      x y z
#    x 3.878120 0.000000 0.324090 
#    y 0.000000 3.964320 0.000000 
#    z 0.324090 0.000000 3.748700 
# 
# 
# High freq. dielectric constant tensor:
#      x y z
#    x 1.831260 0.000000 0.024590 
#    y 0.000000 1.859840 0.000000 
#    z 0.024590 0.000000 1.816860 
# 
# From -- ./inp_files/41659.got.cif
#   From: 2010.06.25/outbox.cif.g09.slc.cpg/sg11_21_cif.got.tgz:41659.got - 2010.06.27 23:14:04.
