data_PCOD8071809
_publ_section_title
;
Structure prediction by ZEFSAII (Michael W. Deem and Ramdas Pophale) SiO2 
 PCOD8071809
Probable space group: P 21/M
;
_chemical_formula_sum "Si O2"
_cell_formula_units_Z 28
_cell_length_a 12.423248
_cell_length_b 9.060173
_cell_length_c 14.854975
_cell_angle_alpha 90.000000
_cell_angle_beta 105.667901
_cell_angle_gamma 90.000000
_cell_volume 1609.900873
_symmetry_space_group_name_H-M "P 21/M"
_symmetry_group_IT_number 11
_symmetry_cell_setting 'monoclinic'
loop_
_space_group_symop_operation_xyz
x,y,z
-x,1/2+y,-z
-x,-y,-z
x,1/2-y,z
loop_
_atom_site_type_symbol
_atom_site_label
_atom_site_fract_x
_atom_site_fract_y
_atom_site_fract_z
Si Si1 0.622544 0.578961 0.384618
Si Si2 0.243197 0.420349 0.409859
Si Si3 0.601636 0.921562 0.720996
Si Si4 0.423062 0.578034 0.108183
Si Si5 0.353797 0.578249 0.896109
Si Si6 0.022025 0.577189 0.410849
Si Si7 0.205322 0.079890 0.733461
O O1 0.588109 0.750000 0.372284
O O2 0.669878 0.535282 0.492754
O O3 0.514307 0.481771 0.343271
O O4 0.717519 0.540125 0.333966
O O5 0.207913 0.250000 0.413854
O O6 0.300052 0.451373 0.327261
O O7 0.133974 0.520366 0.389508
O O8 0.586149 0.750000 0.737363
O O9 0.638199 0.002496 0.821397
O O10 0.437979 0.750000 0.130973
O O11 0.546267 0.510647 0.127726
O O12 0.350631 0.547769 0.002355
O O13 0.371263 0.750000 0.879747
O O14 0.238938 0.519994 0.826831
O O15 0.030713 0.750000 0.431726
O O16 0.000000 0.500000 0.500000
O O17 0.921501 0.540936 0.319945
O O18 0.218498 0.250000 0.763879
#
# Coordination Sequence:
#
# PCOD8071809 Si02
#       7
#     4   4   4   4   4   4   4
#     4  10  19  34  53  75 110 146 174 212 264 314
#     4  10  22  39  54  75 109 144 181 223 262 307
#     4  11  22  34  53  80 109 142 180 219 260 313
#     4  10  20  34  52  76 109 141 171 215 266 317
#     4  10  20  33  53  80 105 136 177 217 263 316
#     4  11  22  37  57  79 105 141 182 221 264 311
#     4  10  20  34  54  79 109 140 171 217 269 309
#
# _framework density 17.392375000000001
#
# number of rings (size 3 to 8) (size 9 to 14) (size 15 to 20)
#    0.000    1.714    2.857    2.143    0.000    4.571 
#    0.000    0.000    0.000    0.857    0.000    0.000 
#    0.000    0.000    0.000    0.000    0.000    0.000 
#
# Total GULP energy -347314.754038 kJ/mol
# GULP energy per Si atom -12404.098358 kJ/mol
# Density = 1.735279 g / cm^3
# Si number density = 17.392375 Si / 1000 Ang^3
#
#
#
# Elastic Constant Matrix: (Units=GPa)
#
#
# Indices 1 2 3 4 5 6 
#
# 1 88.3077 60.1588 53.6653 0.0000 -1.7530 0.0000
# 2 60.1588 106.9604 72.2982 0.0000 2.2245 0.0000
# 3 53.6653 72.2982 133.4677 0.0000 -3.0917 0.0000
# 4 0.0000 0.0000 0.0000 32.9436 0.0000 1.6773
# 5 -1.7530 2.2245 -3.0917 0.0000 18.1036 0.0000
# 6 0.0000 0.0000 0.0000 1.6773 0.0000 30.1049
#
#
#
# Elastic Compliance Matrix: (Units=1/GPa)
#
#
# Indices 1 2 3 4 5 6 
#
# 1 0.019165 -0.008931 -0.002811 0.000000 0.002473 0.000000
# 2 -0.008931 0.019097 -0.006855 0.000000 -0.004382 0.000000
# 3 -0.002811 -0.006855 0.012399 0.000000 0.002688 0.000000
# 4 0.000000 0.000000 0.000000 0.030441 0.000000 -0.001696
# 5 0.002473 -0.004382 0.002688 0.000000 0.056474 0.000000
# 6 0.000000 0.000000 0.000000 -0.001696 0.000000 0.033312
#
#
# Mechanical properties :
#
#
# Convention : Reuss Voigt Hill
#
# Bulk Modulus (GPa) = 74.25741 77.88673 76.07207
# Shear Modulus (GPa) = 23.52147 25.73798 24.62972
#
# Velocity S-wave (km/s) = 3.68149 3.85105 3.76722
# Velocity P-wave (km/s) = 7.80123 8.04073 7.92189
#
# Compressibility (1/GPa) = 0.01346667
#
# Stress axis : x y z
#
# Youngs Moduli (GPa) = 52.17731 52.36397 80.65476
#
# Poissons Ratio (x) = 0.46764 0.22674
# Poissons Ratio (y) = 0.46598 0.55292
# Poissons Ratio (z) = 0.14668 0.35897
#
# Static dielectric constant tensor:
#      x y z
#    x 3.095960 0.000000 -0.003270 
#    y 0.000000 3.323790 0.000000 
#    z -0.003270 0.000000 3.415540 
# 
# 
# High freq. dielectric constant tensor:
#      x y z
#    x 1.647310 0.000000 0.000870 
#    y 0.000000 1.682500 0.000000 
#    z 0.000870 0.000000 1.679730 
# 
# From -- ./inp_files/37496.got.cif
#   From: 2010.06.25/outbox.cif.g09.slc.cpg/sg11_19_cif.got.tgz:37496.got - 2010.06.27 23:14:04.
