data_PCOD8071600
_publ_section_title
;
Structure prediction by ZEFSAII (Michael W. Deem and Ramdas Pophale) SiO2 
 PCOD8071600
Probable space group: P 21/M
;
_chemical_formula_sum "Si O2"
_cell_formula_units_Z 32
_cell_length_a 12.961614
_cell_length_b 9.268324
_cell_length_c 30.271177
_cell_angle_alpha 90.000000
_cell_angle_beta 152.424431
_cell_angle_gamma 90.000000
_cell_volume 1683.425007
_symmetry_space_group_name_H-M "P 21/M"
_symmetry_group_IT_number 11
_symmetry_cell_setting 'monoclinic'
loop_
_space_group_symop_operation_xyz
x,y,z
-x,1/2+y,-z
-x,-y,-z
x,1/2-y,z
loop_
_atom_site_type_symbol
_atom_site_label
_atom_site_fract_x
_atom_site_fract_y
_atom_site_fract_z
Si Si1 0.936636 0.418655 0.779847
Si Si2 0.990347 0.918498 0.093895
Si Si3 0.703715 0.083998 0.556634
Si Si4 0.595488 0.419434 0.897413
Si Si5 0.770411 0.420844 0.404618
Si Si6 0.545973 0.417228 0.776299
Si Si7 0.146389 0.419496 0.769818
Si Si8 0.494050 0.913828 0.609255
O O1 0.888024 0.250000 0.763328
O O2 0.705593 0.489758 0.677976
O O3 0.022166 0.472243 0.859981
O O4 0.119142 0.456834 0.811522
O O5 0.936742 0.750000 0.069292
O O6 0.232423 0.955524 0.166706
O O7 0.812030 0.004895 0.998408
O O8 0.683410 0.250000 0.563961
O O9 0.693582 0.068121 0.499796
O O10 0.937451 0.017726 0.662607
O O11 0.500000 0.000000 0.500000
O O12 0.620681 0.250000 0.915346
O O13 0.581707 0.456080 0.840730
O O14 0.377736 0.484674 0.839526
O O15 0.808395 0.250000 0.414480
O O16 0.655988 0.483795 0.317303
O O17 0.611568 0.462348 0.384925
O O18 0.000000 0.500000 0.500000
O O19 0.480330 0.250000 0.745276
O O20 0.154353 0.250000 0.764523
O O21 0.578752 0.750000 0.643896
#
# Coordination Sequence:
#
# PCOD8071600 Si02
#       8
#     4   4   4   4   4   4   4   4
#     4  10  19  35  59  82 111 150 187 230 282 335
#     4  10  21  37  58  84 111 143 189 243 292 335
#     4  10  19  33  55  81 110 146 184 224 269 327
#     4  10  22  38  59  83 111 151 192 232 285 344
#     4  11  24  39  58  86 119 153 187 231 282 335
#     4  10  21  39  62  85 113 150 190 234 284 341
#     4   9  19  35  55  81 113 150 188 225 276 339
#     4  10  21  35  55  84 113 145 187 233 276 327
#
# _framework density 19.008866000000001
#
# number of rings (size 3 to 8) (size 9 to 14) (size 15 to 20)
#    0.000    2.000    2.500    0.750    1.750    2.500 
#    0.000    1.250    0.000    0.000    0.000    0.000 
#    0.000    0.000    0.000    0.000    0.000    0.000 
#
# Total GULP energy -396849.264482 kJ/mol
# GULP energy per Si atom -12401.539515 kJ/mol
# Density = 1.896560 g / cm^3
# Si number density = 19.008866 Si / 1000 Ang^3
#
#
#
# Elastic Constant Matrix: (Units=GPa)
#
#
# Indices 1 2 3 4 5 6 
#
# 1 111.7112 34.9393 50.0991 0.0000 -15.4524 0.0000
# 2 34.9393 51.0160 50.0095 0.0000 -3.6180 0.0000
# 3 50.0991 50.0095 128.3980 0.0000 -12.9952 0.0000
# 4 0.0000 0.0000 0.0000 35.4222 0.0000 -0.9789
# 5 -15.4524 -3.6180 -12.9952 0.0000 24.8327 0.0000
# 6 0.0000 0.0000 0.0000 -0.9789 0.0000 14.6484
#
#
#
# Elastic Compliance Matrix: (Units=1/GPa)
#
#
# Indices 1 2 3 4 5 6 
#
# 1 0.012598 -0.006435 -0.001807 0.000000 0.005957 0.000000
# 2 -0.006435 0.035084 -0.011659 0.000000 -0.004994 0.000000
# 3 -0.001807 -0.011659 0.013462 0.000000 0.004222 0.000000
# 4 0.000000 0.000000 0.000000 0.028283 0.000000 0.001890
# 5 0.005957 -0.004994 0.004222 0.000000 0.045458 0.000000
# 6 0.000000 0.000000 0.000000 0.001890 0.000000 0.068393
#
#
# Mechanical properties :
#
#
# Convention : Reuss Voigt Hill
#
# Bulk Modulus (GPa) = 46.85535 62.35790 54.60663
# Shear Modulus (GPa) = 19.98448 25.38581 22.68514
#
# Velocity S-wave (km/s) = 3.24593 3.65838 3.45831
# Velocity P-wave (km/s) = 6.22501 7.12185 6.68848
#
# Compressibility (1/GPa) = 0.02134228
#
# Stress axis : x y z
#
# Youngs Moduli (GPa) = 79.37531 28.50295 74.28501
#
# Poissons Ratio (x) = 0.18341 0.13420
# Poissons Ratio (y) = 0.51078 0.86612
# Poissons Ratio (z) = 0.14339 0.33233
#
# Static dielectric constant tensor:
#      x y z
#    x 3.804660 0.000000 -0.073610 
#    y 0.000000 3.314080 0.000000 
#    z -0.073610 0.000000 3.513880 
# 
# 
# High freq. dielectric constant tensor:
#      x y z
#    x 1.751790 0.000000 -0.008830 
#    y 0.000000 1.718700 0.000000 
#    z -0.008830 0.000000 1.741550 
# 
# From -- ./inp_files/45341.got.cif
#   From: 2010.06.25/outbox.cif.g09.slc.cpg/sg11_23_cif.got.tgz:45341.got - 2010.06.27 23:14:04.
