data_PCOD8071059
_publ_section_title
;
Structure prediction by ZEFSAII (Michael W. Deem and Ramdas Pophale) SiO2 
 PCOD8071059
Probable space group: P 21/M
;
_chemical_formula_sum "Si O2"
_cell_formula_units_Z 28
_cell_length_a 11.809486
_cell_length_b 9.224512
_cell_length_c 15.663602
_cell_angle_alpha 90.000000
_cell_angle_beta 57.234672
_cell_angle_gamma 90.000000
_cell_volume 1434.853042
_symmetry_space_group_name_H-M "P 21/M"
_symmetry_group_IT_number 11
_symmetry_cell_setting 'monoclinic'
loop_
_space_group_symop_operation_xyz
x,y,z
-x,1/2+y,-z
-x,-y,-z
x,1/2-y,z
loop_
_atom_site_type_symbol
_atom_site_label
_atom_site_fract_x
_atom_site_fract_y
_atom_site_fract_z
Si Si1 0.872918 0.579121 0.512735
Si Si2 0.865084 0.085165 0.043302
Si Si3 0.672791 0.421537 0.271088
Si Si4 0.152413 0.916388 0.143135
Si Si5 0.404316 0.078723 0.298014
Si Si6 0.142357 0.418699 0.678722
Si Si7 0.599234 0.921839 0.893979
O O1 0.890738 0.750000 0.519407
O O2 0.739805 0.516426 0.613761
O O3 0.862133 0.539350 0.418086
O O4 0.000000 0.500000 0.500000
O O5 0.901477 0.250000 0.047852
O O6 0.754887 0.027689 0.154232
O O7 0.806807 0.066870 0.972188
O O8 0.000000 0.000000 0.000000
O O9 0.678817 0.250000 0.281964
O O10 0.520355 0.476041 0.315636
O O11 0.733283 0.496505 0.329997
O O12 0.171784 0.750000 0.166075
O O13 0.998319 0.965556 0.220280
O O14 0.248347 0.022686 0.156625
O O15 0.396801 0.250000 0.307313
O O16 0.441166 0.035047 0.185989
O O17 0.169756 0.250000 0.681706
O O18 0.592239 0.750000 0.912173
O O19 0.500000 0.000000 0.000000
#
# Coordination Sequence:
#
# PCOD8071059 Si02
#       7
#     4   4   4   4   4   4   4
#     4  10  21  39  62  85 111 145 186 231 281 334
#     4  10  19  32  52  77 110 149 186 227 274 329
#     4  10  20  35  56  80 109 150 194 228 270 339
#     4  10  20  35  54  79 115 149 182 231 283 329
#     4   9  20  39  59  80 112 151 185 226 281 334
#     4  10  21  36  56  84 115 145 181 234 286 323
#     4  11  22  37  58  82 111 146 187 231 278 335
#
# _framework density 19.514194
#
# number of rings (size 3 to 8) (size 9 to 14) (size 15 to 20)
#    0.000    2.000    1.429    2.143    0.000    4.571 
#    0.000    4.286    0.000    0.000    0.000    0.000 
#    0.000    0.000    0.000    0.000    0.000    0.000 
#
# Total GULP energy -347228.010209 kJ/mol
# GULP energy per Si atom -12401.000365 kJ/mol
# Density = 1.946978 g / cm^3
# Si number density = 19.514194 Si / 1000 Ang^3
#
#
#
# Elastic Constant Matrix: (Units=GPa)
#
#
# Indices 1 2 3 4 5 6 
#
# 1 174.5501 57.0430 67.7880 0.0000 -2.6156 0.0000
# 2 57.0430 53.8290 36.5569 0.0000 4.1281 0.0000
# 3 67.7880 36.5569 120.3151 0.0000 -2.0443 0.0000
# 4 0.0000 0.0000 0.0000 23.0365 0.0000 -0.3141
# 5 -2.6156 4.1281 -2.0443 0.0000 30.2806 0.0000
# 6 0.0000 0.0000 0.0000 -0.3141 0.0000 36.7121
#
#
#
# Elastic Compliance Matrix: (Units=1/GPa)
#
#
# Indices 1 2 3 4 5 6 
#
# 1 0.009593 -0.008382 -0.002828 0.000000 0.001780 0.000000
# 2 -0.008382 0.031147 -0.004831 0.000000 -0.005296 0.000000
# 3 -0.002828 -0.004831 0.011393 0.000000 0.001184 0.000000
# 4 0.000000 0.000000 0.000000 0.043414 0.000000 0.000371
# 5 0.001780 -0.005296 0.001184 0.000000 0.033980 0.000000
# 6 0.000000 0.000000 0.000000 0.000371 0.000000 0.027242
#
#
# Mechanical properties :
#
#
# Convention : Reuss Voigt Hill
#
# Bulk Modulus (GPa) = 49.87332 74.60777 62.24054
# Shear Modulus (GPa) = 25.57078 30.49292 28.03185
#
# Velocity S-wave (km/s) = 3.62383 3.95726 3.79421
# Velocity P-wave (km/s) = 6.56677 7.69386 7.15255
#
# Compressibility (1/GPa) = 0.02005080
#
# Stress axis : x y z
#
# Youngs Moduli (GPa) = 104.24073 32.10582 87.77421
#
# Poissons Ratio (x) = 0.26911 0.24822
# Poissons Ratio (y) = 0.87374 0.42406
# Poissons Ratio (z) = 0.29479 0.15511
#
# Static dielectric constant tensor:
#      x y z
#    x 3.668280 0.000000 0.044380 
#    y 0.000000 3.343190 0.000000 
#    z 0.044380 0.000000 3.779890 
# 
# 
# High freq. dielectric constant tensor:
#      x y z
#    x 1.770700 0.000000 -0.000590 
#    y 0.000000 1.736210 0.000000 
#    z -0.000590 0.000000 1.767500 
# 
# From -- ./inp_files/37474.got.cif
#   From: 2010.06.25/outbox.cif.g09.slc.cpg/sg11_19_cif.got.tgz:37474.got - 2010.06.27 23:14:04.
