data_PCOD8071318
_publ_section_title
;
Structure prediction by ZEFSAII (Michael W. Deem and Ramdas Pophale) SiO2 
 PCOD8071318
Probable space group: P 21/M
;
_chemical_formula_sum "Si O2"
_cell_formula_units_Z 24
_cell_length_a 14.339869
_cell_length_b 20.360141
_cell_length_c 12.548794
_cell_angle_alpha 90.000000
_cell_angle_beta 21.459665
_cell_angle_gamma 90.000000
_cell_volume 1340.375357
_symmetry_space_group_name_H-M "P 21/M"
_symmetry_group_IT_number 11
_symmetry_cell_setting 'monoclinic'
loop_
_space_group_symop_operation_xyz
x,y,z
-x,1/2+y,-z
-x,-y,-z
x,1/2-y,z
loop_
_atom_site_type_symbol
_atom_site_label
_atom_site_fract_x
_atom_site_fract_y
_atom_site_fract_z
Si Si1 0.780045 0.874149 0.965498
Si Si2 0.762215 0.915831 0.749343
Si Si3 0.771722 0.324530 0.380832
Si Si4 0.378077 0.991297 0.800025
Si Si5 0.300171 0.562727 0.106616
Si Si6 0.792753 0.445866 0.235582
O O1 0.757652 0.873951 0.861925
O O2 0.036043 0.834615 0.723998
O O3 0.524180 0.839419 0.280029
O O4 0.822303 0.948753 0.966848
O O5 0.027588 0.900638 0.405538
O O6 0.733677 0.992430 0.803453
O O7 0.521430 0.895863 0.931335
O O8 0.791653 0.250000 0.319794
O O9 0.876604 0.371366 0.173050
O O10 0.639330 0.030715 0.503588
O O11 0.349976 0.945271 0.726084
O O12 0.386709 0.943490 0.891842
O O13 0.000000 0.500000 0.000000
#
# Coordination Sequence:
#
# PCOD8071318 Si02
#       6
#     4   4   4   4   4   4
#     4  10  19  34  52  73 106 137 168 207 267 320
#     4   9  17  28  45  70 101 132 160 198 249 302
#     4  11  22  35  53  77 103 134 178 222 262 319
#     4   9  19  30  49  76 106 142 171 212 265 322
#     4   9  17  27  44  72 104 131 161 202 247 298
#     4  10  19  33  51  73 107 145 177 217 274 317
#
# _framework density 17.905432000000001
#
# number of rings (size 3 to 8) (size 9 to 14) (size 15 to 20)
#    0.000    2.333    1.667    1.500    2.333    4.000 
#    0.000    0.000    0.000    0.000    0.000    7.000 
#    0.000    0.000    0.000    0.000    0.000    0.000 
#
# Total GULP energy -297344.748639 kJ/mol
# GULP energy per Si atom -12389.364527 kJ/mol
# Density = 1.786468 g / cm^3
# Si number density = 17.905432 Si / 1000 Ang^3
#
#
#
# Elastic Constant Matrix: (Units=GPa)
#
#
# Indices 1 2 3 4 5 6 
#
# 1 95.6236 44.3973 53.5826 0.0000 -0.2313 0.0000
# 2 44.3973 88.8476 23.3908 0.0000 4.5436 0.0000
# 3 53.5826 23.3908 86.0249 0.0000 -0.8533 0.0000
# 4 0.0000 0.0000 0.0000 15.1802 0.0000 -2.1251
# 5 -0.2313 4.5436 -0.8533 0.0000 39.3905 0.0000
# 6 0.0000 0.0000 0.0000 -2.1251 0.0000 16.5916
#
#
#
# Elastic Compliance Matrix: (Units=1/GPa)
#
#
# Indices 1 2 3 4 5 6 
#
# 1 0.019451 -0.007075 -0.010185 0.000000 0.000710 0.000000
# 2 -0.007075 0.014782 0.000370 0.000000 -0.001739 0.000000
# 3 -0.010185 0.000370 0.017871 0.000000 0.000285 0.000000
# 4 0.000000 0.000000 0.000000 0.067078 0.000000 0.008592
# 5 0.000710 -0.001739 0.000285 0.000000 0.025598 0.000000
# 6 0.000000 0.000000 0.000000 0.008592 0.000000 0.061372
#
#
# Mechanical properties :
#
#
# Convention : Reuss Voigt Hill
#
# Bulk Modulus (GPa) = 54.57117 57.02638 55.79877
# Shear Modulus (GPa) = 20.32196 24.17413 22.24805
#
# Velocity S-wave (km/s) = 3.37257 3.67836 3.52878
# Velocity P-wave (km/s) = 6.76086 7.06811 6.91619
#
# Compressibility (1/GPa) = 0.01832470
#
# Stress axis : x y z
#
# Youngs Moduli (GPa) = 51.41053 67.65003 55.95756
#
# Poissons Ratio (x) = 0.47861 0.56993
# Poissons Ratio (y) = 0.36372 -0.02071
# Poissons Ratio (z) = 0.52361 -0.02504
#
# Static dielectric constant tensor:
#      x y z
#    x -2.207910 0.000000 -2.751690 
#    y 0.000000 1.529650 0.000000 
#    z -2.751690 0.000000 2.303540 
# 
# 
# High freq. dielectric constant tensor:
#      x y z
#    x 1.696130 0.000000 -0.010650 
#    y 0.000000 1.635100 0.000000 
#    z -0.010650 0.000000 1.697700 
# 
# From -- ./inp_files/4759.got.cif
#   From: 2010.06.25/outbox.cif.g09.slc.cpg/sg11_3_cif.got.tgz:4759.got - 2010.06.27 23:14:04.
