data_PCOD8071709
_publ_section_title
;
Structure prediction by ZEFSAII (Michael W. Deem and Ramdas Pophale) SiO2 
 PCOD8071709
Probable space group: P 21/M
;
_chemical_formula_sum "Si O2"
_cell_formula_units_Z 28
_cell_length_a 10.260153
_cell_length_b 8.748530
_cell_length_c 30.210382
_cell_angle_alpha 90.000000
_cell_angle_beta 33.295117
_cell_angle_gamma 90.000000
_cell_volume 1488.604003
_symmetry_space_group_name_H-M "P 21/M"
_symmetry_group_IT_number 11
_symmetry_cell_setting 'monoclinic'
loop_
_space_group_symop_operation_xyz
x,y,z
-x,1/2+y,-z
-x,-y,-z
x,1/2-y,z
loop_
_atom_site_type_symbol
_atom_site_label
_atom_site_fract_x
_atom_site_fract_y
_atom_site_fract_z
Si Si1 0.599345 0.568990 0.754979
Si Si2 0.638210 0.574059 0.582593
Si Si3 0.159091 0.071467 0.739534
Si Si4 0.636106 0.072394 0.002265
Si Si5 0.122278 0.568747 0.845930
Si Si6 0.278647 0.071666 0.181764
Si Si7 0.056068 0.427081 0.417787
O O1 0.584377 0.750000 0.756111
O O2 0.352896 0.502418 0.805729
O O3 0.636454 0.513304 0.794382
O O4 0.820845 0.513553 0.662145
O O5 0.569067 0.750000 0.595681
O O6 0.402891 0.472610 0.646037
O O7 0.818105 0.524391 0.492733
O O8 0.756380 0.544039 0.596444
O O9 0.153978 0.250000 0.751720
O O10 0.127712 0.977828 0.793351
O O11 0.946901 0.028718 0.766995
O O12 0.664964 0.250000 0.984033
O O13 0.494028 0.040495 0.087390
O O14 0.500000 0.000000 0.000000
O O15 0.893629 0.998787 0.935325
O O16 0.109330 0.750000 0.851780
O O17 0.207327 0.250000 0.202585
O O18 0.983955 0.250000 0.435927
#
# Coordination Sequence:
#
# PCOD8071709 Si02
#       7
#     4   4   4   4   4   4   4
#     4   9  19  38  61  85 114 152 191 232 287 343
#     4  10  19  33  56  86 116 147 188 233 284 336
#     4  12  23  36  57  86 116 149 194 239 282 336
#     4  11  22  36  57  86 117 150 194 239 284 335
#     4  11  21  37  61  86 114 150 191 237 287 340
#     4  10  22  40  61  82 113 154 192 234 288 343
#     4   9  17  33  56  84 116 147 185 233 283 335
#
# _framework density 18.809569
#
# number of rings (size 3 to 8) (size 9 to 14) (size 15 to 20)
#    0.000    1.714    2.857    2.571    0.000    1.714 
#    0.000    2.857    0.000    0.000    0.000    0.000 
#    0.000    0.000    0.000    0.000    0.000    0.000 
#
# Total GULP energy -347307.474685 kJ/mol
# GULP energy per Si atom -12403.838382 kJ/mol
# Density = 1.876676 g / cm^3
# Si number density = 18.809569 Si / 1000 Ang^3
#
#
#
# Elastic Constant Matrix: (Units=GPa)
#
#
# Indices 1 2 3 4 5 6 
#
# 1 106.8377 27.8904 62.1950 0.0000 8.4262 0.0000
# 2 27.8904 70.3134 45.5430 0.0000 -2.5099 0.0000
# 3 62.1950 45.5430 145.7274 0.0000 1.1378 0.0000
# 4 0.0000 0.0000 0.0000 33.9163 0.0000 -6.1033
# 5 8.4262 -2.5099 1.1378 0.0000 31.7546 0.0000
# 6 0.0000 0.0000 0.0000 -6.1033 0.0000 17.1127
#
#
#
# Elastic Compliance Matrix: (Units=1/GPa)
#
#
# Indices 1 2 3 4 5 6 
#
# 1 0.013021 -0.002139 -0.004862 0.000000 -0.003450 0.000000
# 2 -0.002139 0.018266 -0.004813 0.000000 0.002184 0.000000
# 3 -0.004862 -0.004813 0.010437 0.000000 0.000536 0.000000
# 4 0.000000 0.000000 0.000000 0.031506 0.000000 0.011237
# 5 -0.003450 0.002184 0.000536 0.000000 0.032560 0.000000
# 6 0.000000 0.000000 0.000000 0.011237 0.000000 0.062444
#
#
# Mechanical properties :
#
#
# Convention : Reuss Voigt Hill
#
# Bulk Modulus (GPa) = 55.25846 66.01504 60.63675
# Shear Modulus (GPa) = 25.26625 29.04006 27.15316
#
# Velocity S-wave (km/s) = 3.66904 3.93351 3.80357
# Velocity P-wave (km/s) = 6.88409 7.47012 7.18308
#
# Compressibility (1/GPa) = 0.01809678
#
# Stress axis : x y z
#
# Youngs Moduli (GPa) = 76.80099 54.74783 95.81387
#
# Poissons Ratio (x) = 0.11710 0.46582
# Poissons Ratio (y) = 0.16427 0.46111
# Poissons Ratio (z) = 0.37338 0.26348
#
# Static dielectric constant tensor:
#      x y z
#    x 3.425470 0.000000 0.008980 
#    y 0.000000 3.359350 0.000000 
#    z 0.008980 0.000000 3.828610 
# 
# 
# High freq. dielectric constant tensor:
#      x y z
#    x 1.712910 0.000000 -0.005420 
#    y 0.000000 1.722010 0.000000 
#    z -0.005420 0.000000 1.747930 
# 
# From -- ./inp_files/72712.got.cif
#   From: 2010.06.25/outbox.cif.g09.slc.cpg/sg11_37_cif.got.tgz:72712.got - 2010.06.27 23:14:04.
