data_PCOD8071154
_publ_section_title
;
Structure prediction by ZEFSAII (Michael W. Deem and Ramdas Pophale) SiO2 
 PCOD8071154
Probable space group: P 21/M
;
_chemical_formula_sum "Si O2"
_cell_formula_units_Z 28
_cell_length_a 28.438491
_cell_length_b 9.175204
_cell_length_c 9.570945
_cell_angle_alpha 90.000000
_cell_angle_beta 39.157430
_cell_angle_gamma 90.000000
_cell_volume 1576.951631
_symmetry_space_group_name_H-M "P 21/M"
_symmetry_group_IT_number 11
_symmetry_cell_setting 'monoclinic'
loop_
_space_group_symop_operation_xyz
x,y,z
-x,1/2+y,-z
-x,-y,-z
x,1/2-y,z
loop_
_atom_site_type_symbol
_atom_site_label
_atom_site_fract_x
_atom_site_fract_y
_atom_site_fract_z
Si Si1 0.102622 0.920250 0.867501
Si Si2 0.302121 0.083433 0.745520
Si Si3 0.056357 0.083655 0.700724
Si Si4 0.736937 0.419109 0.430436
Si Si5 0.801202 0.917956 0.776070
Si Si6 0.577300 0.921225 0.298701
Si Si7 0.312561 0.920918 0.147347
O O1 0.115083 0.750000 0.814879
O O2 0.178574 0.984401 0.758402
O O3 0.088377 0.985449 0.749034
O O4 0.030408 0.954407 0.132426
O O5 0.300836 0.250000 0.702427
O O6 0.372520 0.048966 0.680931
O O7 0.308453 0.991958 0.590152
O O8 0.226608 0.040999 0.004538
O O9 0.060870 0.250000 0.742617
O O10 0.109177 0.060705 0.443036
O O11 0.740007 0.250000 0.389364
O O12 0.693231 0.450328 0.674253
O O13 0.777517 0.750000 0.799994
O O14 0.762428 0.020391 0.751375
O O15 0.565584 0.750000 0.299267
O O16 0.500000 0.000000 0.500000
O O17 0.616036 0.992050 0.073915
O O18 0.321067 0.750000 0.094646
#
# Coordination Sequence:
#
# PCOD8071154 Si02
#       7
#     4   4   4   4   4   4   4
#     4   9  17  29  44  69 102 133 170 219 264 303
#     4   9  20  35  52  74 104 135 168 208 251 303
#     4   9  16  27  47  70  96 132 174 220 267 306
#     4  10  20  33  49  74 107 139 174 212 256 305
#     4   9  17  31  49  73  99 132 178 222 261 306
#     4  10  21  39  61  85 107 131 165 205 248 301
#     4  10  19  32  53  79 105 136 171 211 251 298
#
# _framework density 17.755776999999998
#
# number of rings (size 3 to 8) (size 9 to 14) (size 15 to 20)
#    0.000    2.571    1.429    1.714    0.000    4.571 
#    0.000    1.429    0.000    0.000    0.000    0.000 
#    0.000    0.000    0.000    0.000    0.000    0.000 
#
# Total GULP energy -347055.522212 kJ/mol
# GULP energy per Si atom -12394.840079 kJ/mol
# Density = 1.771536 g / cm^3
# Si number density = 17.755777 Si / 1000 Ang^3
#
#
#
# Elastic Constant Matrix: (Units=GPa)
#
#
# Indices 1 2 3 4 5 6 
#
# 1 74.2170 44.1731 58.4119 0.0000 3.4196 0.0000
# 2 44.1731 74.6213 57.1087 0.0000 3.1351 0.0000
# 3 58.4119 57.1087 130.0451 0.0000 -13.1467 0.0000
# 4 0.0000 0.0000 0.0000 28.0803 0.0000 1.6306
# 5 3.4196 3.1351 -13.1467 0.0000 30.6507 0.0000
# 6 0.0000 0.0000 0.0000 1.6306 0.0000 26.4945
#
#
#
# Elastic Compliance Matrix: (Units=1/GPa)
#
#
# Indices 1 2 3 4 5 6 
#
# 1 0.025151 -0.008425 -0.008147 0.000000 -0.005439 0.000000
# 2 -0.008425 0.024173 -0.007303 0.000000 -0.004665 0.000000
# 3 -0.008147 -0.007303 0.015391 0.000000 0.008257 0.000000
# 4 0.000000 0.000000 0.000000 0.035740 0.000000 -0.002200
# 5 -0.005439 -0.004665 0.008257 0.000000 0.037251 0.000000
# 6 0.000000 0.000000 0.000000 -0.002200 0.000000 0.037879
#
#
# Mechanical properties :
#
#
# Convention : Reuss Voigt Hill
#
# Bulk Modulus (GPa) = 58.94402 66.47452 62.70927
# Shear Modulus (GPa) = 21.83492 24.99108 23.41300
#
# Velocity S-wave (km/s) = 3.51056 3.75572 3.63521
# Velocity P-wave (km/s) = 7.04991 7.50512 7.28107
#
# Compressibility (1/GPa) = 0.01696525
#
# Stress axis : x y z
#
# Youngs Moduli (GPa) = 39.75960 41.36776 64.97365
#
# Poissons Ratio (x) = 0.34853 0.52934
# Poissons Ratio (y) = 0.33498 0.47450
# Poissons Ratio (z) = 0.32392 0.30211
#
# Static dielectric constant tensor:
#      x y z
#    x 3.015450 0.000000 -0.189410 
#    y 0.000000 3.262400 0.000000 
#    z -0.189410 0.000000 3.498680 
# 
# 
# High freq. dielectric constant tensor:
#      x y z
#    x 1.651610 0.000000 -0.012290 
#    y 0.000000 1.690010 0.000000 
#    z -0.012290 0.000000 1.697050 
# 
# From -- ./inp_files/28449.got.cif
#   From: 2010.06.25/outbox.cif.g09.slc.cpg/sg11_15_cif.got.tgz:28449.got - 2010.06.27 23:14:04.
