data_PCOD8071942
_publ_section_title
;
Structure prediction by ZEFSAII (Michael W. Deem and Ramdas Pophale) SiO2 
 PCOD8071942
Probable space group: P 21/M
;
_chemical_formula_sum "Si O2"
_cell_formula_units_Z 32
_cell_length_a 12.544252
_cell_length_b 8.624542
_cell_length_c 31.553019
_cell_angle_alpha 90.000000
_cell_angle_beta 151.276155
_cell_angle_gamma 90.000000
_cell_volume 1640.571284
_symmetry_space_group_name_H-M "P 21/M"
_symmetry_group_IT_number 11
_symmetry_cell_setting 'monoclinic'
loop_
_space_group_symop_operation_xyz
x,y,z
-x,1/2+y,-z
-x,-y,-z
x,1/2-y,z
loop_
_atom_site_type_symbol
_atom_site_label
_atom_site_fract_x
_atom_site_fract_y
_atom_site_fract_z
Si Si1 0.954494 0.070072 0.939109
Si Si2 0.325119 0.569528 0.013261
Si Si3 0.213951 0.571889 0.817846
Si Si4 0.922470 0.566607 0.145595
Si Si5 0.656237 0.067433 0.762840
Si Si6 0.766082 0.935192 0.434129
Si Si7 0.791542 0.928128 0.622217
Si Si8 0.600912 0.567259 0.468083
O O1 0.918879 0.250000 0.933128
O O2 0.738509 0.002781 0.837828
O O3 0.000000 0.000000 0.000000
O O4 0.172287 0.039754 0.988108
O O5 0.268765 0.750000 0.000021
O O6 0.576204 0.539010 0.114754
O O7 0.283068 0.514786 0.950524
O O8 0.288478 0.750000 0.849756
O O9 0.066838 0.512967 0.805411
O O10 0.053893 0.552079 0.721511
O O11 0.879057 0.750000 0.133541
O O12 0.155819 0.524559 0.205607
O O13 0.637495 0.250000 0.759897
O O14 0.420370 0.001933 0.664328
O O15 0.775586 0.750000 0.437436
O O16 0.700074 0.998730 0.458187
O O17 0.000000 0.000000 0.500000
O O18 0.717771 0.750000 0.599168
O O19 0.747829 0.991818 0.559355
O O20 0.650660 0.015512 0.609575
O O21 0.602575 0.750000 0.464187
#
# Coordination Sequence:
#
# PCOD8071942 Si02
#       8
#     4   4   4   4   4   4   4   4
#     4  10  20  38  60  81 107 142 184 230 276 327
#     4  11  22  36  53  77 109 143 181 222 269 328
#     4  11  21  33  49  76 113 147 178 219 270 324
#     4  10  19  34  56  79 105 141 182 225 273 325
#     4   8  17  34  56  79 105 138 178 223 272 326
#     4  10  20  36  56  80 111 144 181 228 279 329
#     4   9  19  34  54  80 109 142 181 227 275 330
#     4   9  18  35  57  78 106 142 182 226 278 335
#
# _framework density 19.505400999999999
#
# number of rings (size 3 to 8) (size 9 to 14) (size 15 to 20)
#    0.000    2.250    0.000    4.125    0.000    2.500 
#    2.250    3.750    0.000    0.000    0.000    0.000 
#    0.000    0.000    0.000    0.000    0.000    0.000 
#
# Total GULP energy -396589.548922 kJ/mol
# GULP energy per Si atom -12393.423404 kJ/mol
# Density = 1.946101 g / cm^3
# Si number density = 19.505401 Si / 1000 Ang^3
#
#
#
# Elastic Constant Matrix: (Units=GPa)
#
#
# Indices 1 2 3 4 5 6 
#
# 1 94.5322 10.9727 63.2685 0.0000 -13.3990 0.0000
# 2 10.9727 39.9710 22.6711 0.0000 -5.1422 0.0000
# 3 63.2685 22.6711 155.4356 0.0000 -3.5146 0.0000
# 4 0.0000 0.0000 0.0000 26.3063 0.0000 2.4959
# 5 -13.3990 -5.1422 -3.5146 0.0000 28.8007 0.0000
# 6 0.0000 0.0000 0.0000 2.4959 0.0000 30.6532
#
#
#
# Elastic Compliance Matrix: (Units=1/GPa)
#
#
# Indices 1 2 3 4 5 6 
#
# 1 0.015676 0.000081 -0.006245 0.000000 0.006545 0.000000
# 2 0.000081 0.027842 -0.003991 0.000000 0.004521 0.000000
# 3 -0.006245 -0.003991 0.009502 0.000000 -0.002458 0.000000
# 4 0.000000 0.000000 0.000000 0.038310 0.000000 -0.003119
# 5 0.006545 0.004521 -0.002458 0.000000 0.038274 0.000000
# 6 0.000000 0.000000 0.000000 -0.003119 0.000000 0.032877
#
#
# Mechanical properties :
#
#
# Convention : Reuss Voigt Hill
#
# Bulk Modulus (GPa) = 30.57283 53.75148 42.16216
# Shear Modulus (GPa) = 25.81394 30.02049 27.91721
#
# Velocity S-wave (km/s) = 3.64184 3.92737 3.78730
# Velocity P-wave (km/s) = 5.77858 6.94138 6.38650
#
# Compressibility (1/GPa) = 0.03270878
#
# Stress axis : x y z
#
# Youngs Moduli (GPa) = 63.79114 35.91751 105.24218
#
# Poissons Ratio (x) = -0.00289 0.65719
# Poissons Ratio (y) = -0.00514 0.42006
# Poissons Ratio (z) = 0.39835 0.14336
#
# Static dielectric constant tensor:
#      x y z
#    x 3.553740 0.000000 -0.322610 
#    y 0.000000 3.401010 0.000000 
#    z -0.322610 0.000000 3.976080 
# 
# 
# High freq. dielectric constant tensor:
#      x y z
#    x 1.742050 0.000000 -0.011710 
#    y 0.000000 1.745300 0.000000 
#    z -0.011710 0.000000 1.773910 
# 
# From -- ./inp_files/73179.got.cif
#   From: 2010.06.25/outbox.cif.g09.slc.cpg/sg11_37_cif.got.tgz:73179.got - 2010.06.27 23:14:04.
