data_PCOD8071539
_publ_section_title
;
Structure prediction by ZEFSAII (Michael W. Deem and Ramdas Pophale) SiO2 
 PCOD8071539
Probable space group: P 21/M
;
_chemical_formula_sum "Si O2"
_cell_formula_units_Z 32
_cell_length_a 14.903955
_cell_length_b 15.436465
_cell_length_c 22.400912
_cell_angle_alpha 90.000000
_cell_angle_beta 162.043541
_cell_angle_gamma 90.000000
_cell_volume 1588.840818
_symmetry_space_group_name_H-M "P 21/M"
_symmetry_group_IT_number 11
_symmetry_cell_setting 'monoclinic'
loop_
_space_group_symop_operation_xyz
x,y,z
-x,1/2+y,-z
-x,-y,-z
x,1/2-y,z
loop_
_atom_site_type_symbol
_atom_site_label
_atom_site_fract_x
_atom_site_fract_y
_atom_site_fract_z
Si Si1 0.974488 0.482518 0.886779
Si Si2 0.559424 0.347191 0.016703
Si Si3 0.636695 0.408889 0.190016
Si Si4 0.012414 0.153467 0.814597
Si Si5 0.382697 0.913499 0.070382
Si Si6 0.264720 0.347963 0.601669
Si Si7 0.891190 0.151255 0.604969
Si Si8 0.534075 0.511483 0.708663
O O1 0.887357 0.403683 0.788875
O O2 0.688132 0.506838 0.742004
O O3 0.083158 0.561993 0.914523
O O4 0.237404 0.456044 0.097304
O O5 0.642244 0.250000 0.089342
O O6 0.717759 0.368809 0.054642
O O7 0.217824 0.355463 0.787722
O O8 0.668084 0.412126 0.137429
O O9 0.581501 0.503131 0.182111
O O10 0.928908 0.369603 0.402762
O O11 0.363358 0.348520 0.033353
O O12 0.911447 0.250000 0.764773
O O13 0.880648 0.122802 0.667782
O O14 0.569511 0.850106 0.230184
O O15 0.295823 0.250000 0.595454
O O16 0.399714 0.417979 0.640934
O O17 0.775637 0.250000 0.524254
O O18 0.709062 0.085422 0.449063
#
# Coordination Sequence:
#
# PCOD8071539 Si02
#       8
#     4   4   4   4   4   4   4   4
#     4   9  21  37  54  74 102 141 186 224 265 318
#     4  10  19  33  54  81 111 138 171 214 266 329
#     4  10  19  34  54  79 109 142 174 212 265 326
#     4   9  18  34  55  80 108 136 173 220 269 322
#     4  10  20  35  54  77 105 140 179 221 267 316
#     4  11  22  35  53  79 111 143 178 222 271 321
#     4   9  19  35  56  82 109 139 175 220 271 320
#     4  10  21  39  55  75 106 142 185 228 268 316
#
# _framework density 20.140470000000001
#
# number of rings (size 3 to 8) (size 9 to 14) (size 15 to 20)
#    0.000    2.250    0.000    3.750    0.000    5.500 
#    0.000    6.875    0.000    1.500    0.000    0.000 
#    0.000    0.000    0.000    0.000    0.000    0.000 
#
# Total GULP energy -396778.999505 kJ/mol
# GULP energy per Si atom -12399.343735 kJ/mol
# Density = 2.009463 g / cm^3
# Si number density = 20.140470 Si / 1000 Ang^3
#
#
#
# Elastic Constant Matrix: (Units=GPa)
#
#
# Indices 1 2 3 4 5 6 
#
# 1 93.5555 17.4877 -3.9585 0.0000 -5.7079 0.0000
# 2 17.4877 92.9105 14.6698 0.0000 -1.3384 0.0000
# 3 -3.9585 14.6698 28.9763 0.0000 0.8797 0.0000
# 4 0.0000 0.0000 0.0000 21.6417 0.0000 -13.0432
# 5 -5.7079 -1.3384 0.8797 0.0000 17.6693 0.0000
# 6 0.0000 0.0000 0.0000 -13.0432 0.0000 27.7662
#
#
#
# Elastic Compliance Matrix: (Units=1/GPa)
#
#
# Indices 1 2 3 4 5 6 
#
# 1 0.011488 -0.002549 0.002757 0.000000 0.003381 0.000000
# 2 -0.002549 0.012288 -0.006583 0.000000 0.000435 0.000000
# 3 0.002757 -0.006583 0.038266 0.000000 -0.001513 0.000000
# 4 0.000000 0.000000 0.000000 0.064455 0.000000 0.030278
# 5 0.003381 0.000435 -0.001513 0.000000 0.057796 0.000000
# 6 0.000000 0.000000 0.000000 0.030278 0.000000 0.050238
#
#
# Mechanical properties :
#
#
# Convention : Reuss Voigt Hill
#
# Bulk Modulus (GPa) = 20.28640 30.20446 25.24543
# Shear Modulus (GPa) = 18.96010 25.89834 22.42922
#
# Velocity S-wave (km/s) = 3.07154 3.58981 3.34074
# Velocity P-wave (km/s) = 4.76167 5.67555 5.23857
#
# Compressibility (1/GPa) = 0.04929410
#
# Stress axis : x y z
#
# Youngs Moduli (GPa) = 87.04554 81.37729 26.13270
#
# Poissons Ratio (x) = 0.20743 -0.07205
# Poissons Ratio (y) = 0.22188 0.17202
# Poissons Ratio (z) = -0.24001 0.53568
#
# Static dielectric constant tensor:
#      x y z
#    x 3.715880 0.000000 -0.122750 
#    y 0.000000 3.627810 0.000000 
#    z -0.122750 0.000000 3.438830 
# 
# 
# High freq. dielectric constant tensor:
#      x y z
#    x 1.785550 0.000000 -0.015150 
#    y 0.000000 1.782470 0.000000 
#    z -0.015150 0.000000 1.767490 
# 
# From -- ./inp_files/22186.got.cif
#   From: 2010.06.25/outbox.cif.g09.slc.cpg/sg11_12_cif.got.tgz:22186.got - 2010.06.27 23:14:04.
