data_PCOD8071513
_publ_section_title
;
Structure prediction by ZEFSAII (Michael W. Deem and Ramdas Pophale) SiO2 
 PCOD8071513
Probable space group: P 21/M
;
_chemical_formula_sum "Si O2"
_cell_formula_units_Z 32
_cell_length_a 15.458505
_cell_length_b 9.104577
_cell_length_c 23.113223
_cell_angle_alpha 90.000000
_cell_angle_beta 147.991261
_cell_angle_gamma 90.000000
_cell_volume 1724.262846
_symmetry_space_group_name_H-M "P 21/M"
_symmetry_group_IT_number 11
_symmetry_cell_setting 'monoclinic'
loop_
_space_group_symop_operation_xyz
x,y,z
-x,1/2+y,-z
-x,-y,-z
x,1/2-y,z
loop_
_atom_site_type_symbol
_atom_site_label
_atom_site_fract_x
_atom_site_fract_y
_atom_site_fract_z
Si Si1 0.836112 0.587940 0.912042
Si Si2 0.589621 0.925482 0.868524
Si Si3 0.838760 0.589703 0.784229
Si Si4 0.957504 0.419058 0.562234
Si Si5 0.980865 0.422686 0.707308
Si Si6 0.743347 0.579682 0.352965
Si Si7 0.332996 0.917568 0.403441
Si Si8 0.829547 0.079937 0.084624
O O1 0.879881 0.750000 0.960025
O O2 0.698985 0.520909 0.876069
O O3 0.768424 0.593330 0.808760
O O4 0.000000 0.500000 0.000000
O O5 0.576878 0.750000 0.866516
O O6 0.411963 0.991563 0.757851
O O7 0.669527 0.992042 0.972273
O O8 0.800743 0.750000 0.733831
O O9 0.749222 0.454731 0.703975
O O10 0.033650 0.562491 0.888279
O O11 0.900113 0.250000 0.529319
O O12 0.998534 0.470758 0.650684
O O13 0.121301 0.442258 0.619201
O O14 0.810279 0.514209 0.451497
O O15 0.015566 0.250000 0.736469
O O16 0.107514 0.512760 0.818892
O O17 0.794367 0.462330 0.618629
O O18 0.699260 0.750000 0.337399
O O19 0.378403 0.750000 0.432567
O O20 0.500000 0.000000 0.500000
O O21 0.783322 0.250000 0.068591
#
# Coordination Sequence:
#
# PCOD8071513 Si02
#       8
#     4   4   4   4   4   4   4   4
#     4  10  20  33  51  75 104 141 180 218 260 309
#     4  11  22  35  54  80 113 149 185 223 271 330
#     4   9  18  33  50  70 100 137 175 216 260 306
#     4   9  19  39  63  83 107 140 180 225 278 333
#     4   9  19  36  58  80 104 140 183 222 268 327
#     4  10  21  37  59  85 111 140 176 226 280 328
#     4  10  20  33  50  73 103 138 174 216 260 309
#     4  10  19  33  54  79 109 142 179 224 269 316
#
# _framework density 18.558654000000001
#
# number of rings (size 3 to 8) (size 9 to 14) (size 15 to 20)
#    0.000    2.250    1.250    1.500    0.000    4.000 
#    0.000    5.625    0.000    0.000    0.000    0.000 
#    0.000    0.000    0.000    0.000    0.000    0.000 
#
# Total GULP energy -396672.510325 kJ/mol
# GULP energy per Si atom -12396.015948 kJ/mol
# Density = 1.851641 g / cm^3
# Si number density = 18.558654 Si / 1000 Ang^3
#
#
#
# Elastic Constant Matrix: (Units=GPa)
#
#
# Indices 1 2 3 4 5 6 
#
# 1 77.1741 41.4416 47.0871 0.0000 -19.6734 0.0000
# 2 41.4416 91.4906 67.9851 0.0000 -3.8359 0.0000
# 3 47.0871 67.9851 127.0631 0.0000 -5.9740 0.0000
# 4 0.0000 0.0000 0.0000 41.1547 0.0000 -0.8798
# 5 -19.6734 -3.8359 -5.9740 0.0000 24.4549 0.0000
# 6 0.0000 0.0000 0.0000 -0.8798 0.0000 23.8536
#
#
#
# Elastic Compliance Matrix: (Units=1/GPa)
#
#
# Indices 1 2 3 4 5 6 
#
# 1 0.023479 -0.006727 -0.004313 0.000000 0.016779 0.000000
# 2 -0.006727 0.020077 -0.008453 0.000000 -0.004327 0.000000
# 3 -0.004313 -0.008453 0.013925 0.000000 -0.001394 0.000000
# 4 0.000000 0.000000 0.000000 0.024318 0.000000 0.000897
# 5 0.016779 -0.004327 -0.001394 0.000000 0.053371 0.000000
# 6 0.000000 0.000000 0.000000 0.000897 0.000000 0.041955
#
#
# Mechanical properties :
#
#
# Convention : Reuss Voigt Hill
#
# Bulk Modulus (GPa) = 54.06418 67.63950 60.85184
# Shear Modulus (GPa) = 22.49468 27.17358 24.83413
#
# Velocity S-wave (km/s) = 3.48528 3.83064 3.66203
# Velocity P-wave (km/s) = 6.73728 7.48936 7.12325
#
# Compressibility (1/GPa) = 0.01849654
#
# Stress axis : x y z
#
# Youngs Moduli (GPa) = 42.59176 49.80918 71.81132
#
# Poissons Ratio (x) = 0.33505 0.30970
# Poissons Ratio (y) = 0.28650 0.60700
# Poissons Ratio (z) = 0.18369 0.42102
#
# Static dielectric constant tensor:
#      x y z
#    x 3.530260 0.000000 -0.140660 
#    y 0.000000 3.482790 0.000000 
#    z -0.140660 0.000000 3.035680 
# 
# 
# High freq. dielectric constant tensor:
#      x y z
#    x 1.708560 0.000000 -0.006470 
#    y 0.000000 1.728260 0.000000 
#    z -0.006470 0.000000 1.714900 
# 
# From -- ./inp_files/69074.got.cif
#   From: 2010.06.25/outbox.cif.g09.slc.cpg/sg11_35_cif.got.tgz:69074.got - 2010.06.27 23:14:04.
