data_PCOD8071122
_publ_section_title
;
Structure prediction by ZEFSAII (Michael W. Deem and Ramdas Pophale) SiO2 
 PCOD8071122
Probable space group: P 21/M
;
_chemical_formula_sum "Si O2"
_cell_formula_units_Z 28
_cell_length_a 6.396297
_cell_length_b 13.406182
_cell_length_c 17.953248
_cell_angle_alpha 90.000000
_cell_angle_beta 65.618126
_cell_angle_gamma 90.000000
_cell_volume 1402.189158
_symmetry_space_group_name_H-M "P 21/M"
_symmetry_group_IT_number 11
_symmetry_cell_setting 'monoclinic'
loop_
_space_group_symop_operation_xyz
x,y,z
-x,1/2+y,-z
-x,-y,-z
x,1/2-y,z
loop_
_atom_site_type_symbol
_atom_site_label
_atom_site_fract_x
_atom_site_fract_y
_atom_site_fract_z
Si Si1 0.274137 0.141399 0.856224
Si Si2 0.425207 0.027436 0.119672
Si Si3 0.731397 0.368138 0.431831
Si Si4 0.857342 0.971519 0.699572
Si Si5 0.602122 0.483502 0.585217
Si Si6 0.808822 0.867305 0.298132
Si Si7 0.837735 0.434783 0.973434
O O1 0.387624 0.250000 0.843865
O O2 0.432962 0.072346 0.882898
O O3 0.271905 0.101897 0.772255
O O4 0.006702 0.152642 0.921291
O O5 0.234401 0.001519 0.086951
O O6 0.309073 0.073194 0.211156
O O7 0.613724 0.102324 0.053706
O O8 0.709595 0.250000 0.448086
O O9 0.778491 0.429553 0.501914
O O10 0.494927 0.410784 0.431215
O O11 0.945343 0.390209 0.345486
O O12 0.716577 0.995622 0.646686
O O13 0.956835 0.076007 0.715313
O O14 0.392720 0.404767 0.618543
O O15 0.852568 0.750000 0.301349
O O16 0.000000 0.500000 0.000000
#
# Coordination Sequence:
#
# PCOD8071122 Si02
#       7
#     4   4   4   4   4   4   4
#     4  10  19  32  52  82 115 145 183 233 282 333
#     4  10  19  34  55  80 110 148 189 226 280 337
#     4  10  23  40  59  84 115 150 192 239 286 342
#     4  11  21  36  60  87 115 152 193 238 283 346
#     4  10  21  40  60  82 115 154 192 234 290 343
#     4  10  20  32  53  87 120 149 185 234 287 339
#     4   9  19  34  54  77 106 151 185 226 275 334
#
# _framework density 19.968774
#
# number of rings (size 3 to 8) (size 9 to 14) (size 15 to 20)
#    0.000    2.000    2.857    0.857    0.000    2.857 
#    0.000    0.714    0.000    8.571    0.000    0.000 
#    0.000    0.000    0.000    0.000    0.000    0.000 
#
# Total GULP energy -346994.473777 kJ/mol
# GULP energy per Si atom -12392.659778 kJ/mol
# Density = 1.992332 g / cm^3
# Si number density = 19.968774 Si / 1000 Ang^3
#
#
#
# Elastic Constant Matrix: (Units=GPa)
#
#
# Indices 1 2 3 4 5 6 
#
# 1 78.2417 23.1461 30.9795 0.0000 14.3546 0.0000
# 2 23.1461 75.5100 23.0877 0.0000 2.5592 0.0000
# 3 30.9795 23.0877 126.7996 0.0000 -5.7492 0.0000
# 4 0.0000 0.0000 0.0000 16.7771 0.0000 -0.4185
# 5 14.3546 2.5592 -5.7492 0.0000 45.0052 0.0000
# 6 0.0000 0.0000 0.0000 -0.4185 0.0000 18.6977
#
#
#
# Elastic Compliance Matrix: (Units=1/GPa)
#
#
# Indices 1 2 3 4 5 6 
#
# 1 0.016284 -0.003723 -0.003547 0.000000 -0.005435 0.000000
# 2 -0.003723 0.014932 -0.001804 0.000000 0.000108 0.000000
# 3 -0.003547 -0.001804 0.009191 0.000000 0.002408 0.000000
# 4 0.000000 0.000000 0.000000 0.059638 0.000000 0.001335
# 5 -0.005435 0.000108 0.002408 0.000000 0.024255 0.000000
# 6 0.000000 0.000000 0.000000 0.001335 0.000000 0.053512
#
#
# Mechanical properties :
#
#
# Convention : Reuss Voigt Hill
#
# Bulk Modulus (GPa) = 44.92651 48.33089 46.62870
# Shear Modulus (GPa) = 24.58446 29.65188 27.11817
#
# Velocity S-wave (km/s) = 3.51257 3.85764 3.68914
# Velocity P-wave (km/s) = 6.24485 6.64060 6.44576
#
# Compressibility (1/GPa) = 0.02225857
#
# Stress axis : x y z
#
# Youngs Moduli (GPa) = 61.41071 66.96807 108.80430
#
# Poissons Ratio (x) = 0.24930 0.38593
# Poissons Ratio (y) = 0.22862 0.19634
# Poissons Ratio (z) = 0.21783 0.12084
#
# Static dielectric constant tensor:
#      x y z
#    x 3.745140 0.000000 -0.251070 
#    y 0.000000 3.246330 0.000000 
#    z -0.251070 0.000000 4.192000 
# 
# 
# High freq. dielectric constant tensor:
#      x y z
#    x 1.785990 0.000000 -0.002990 
#    y 0.000000 1.733930 0.000000 
#    z -0.002990 0.000000 1.803890 
# 
# From -- ./inp_files/56921.got.cif
#   From: 2010.06.25/outbox.cif.g09.slc.cpg/sg11_29_cif.got.tgz:56921.got - 2010.06.27 23:14:04.
