data_PCOD8071382
_publ_section_title
;
Structure prediction by ZEFSAII (Michael W. Deem and Ramdas Pophale) SiO2 
 PCOD8071382
Probable space group: P 21/M
;
_chemical_formula_sum "Si O2"
_cell_formula_units_Z 28
_cell_length_a 31.595076
_cell_length_b 8.517601
_cell_length_c 31.594978
_cell_angle_alpha 90.000000
_cell_angle_beta 170.549096
_cell_angle_gamma 90.000000
_cell_volume 1396.157074
_symmetry_space_group_name_H-M "P 21/M"
_symmetry_group_IT_number 11
_symmetry_cell_setting 'monoclinic'
loop_
_space_group_symop_operation_xyz
x,y,z
-x,1/2+y,-z
-x,-y,-z
x,1/2-y,z
loop_
_atom_site_type_symbol
_atom_site_label
_atom_site_fract_x
_atom_site_fract_y
_atom_site_fract_z
Si Si1 0.619067 0.437586 0.380957
Si Si2 0.666416 0.063924 0.332790
Si Si3 0.046610 0.436700 0.953472
Si Si4 0.523638 0.564086 0.476440
Si Si5 0.238800 0.934199 0.761203
Si Si6 0.191495 0.063432 0.807568
Si Si7 0.905032 0.563321 0.094915
O O1 0.619191 0.250000 0.380721
O O2 0.642970 0.504763 0.356994
O O3 0.856509 0.502807 0.642717
O O4 0.357351 0.502822 0.143570
O O5 0.665548 0.250000 0.334343
O O6 0.930023 0.004708 0.571756
O O7 0.426760 0.004878 0.068643
O O8 0.045131 0.250000 0.955088
O O9 0.070798 0.496033 0.929191
O O10 0.785019 0.502661 0.714141
O O11 0.285935 0.502724 0.215046
O O12 0.500000 0.500000 0.500000
O O13 0.523197 0.750000 0.476961
O O14 0.241444 0.750000 0.758424
O O15 0.214475 0.979385 0.785771
O O16 0.000000 0.000000 0.500000
O O17 0.500000 0.000000 0.000000
O O18 0.194803 0.250000 0.804145
O O19 0.904405 0.750000 0.095520
#
# Coordination Sequence:
#
# PCOD8071382 Si02
#       7
#     4   4   4   4   4   4   4
#     4   9  15  26  44  75 113 147 182 229 283 331
#     4   9  17  28  48  77 112 147 184 231 283 331
#     4  11  22  39  61  89 121 156 195 242 294 347
#     4  12  25  42  62  87 117 154 195 242 294 352
#     4  12  25  42  63  88 117 154 195 242 294 352
#     4  10  19  33  52  79 112 148 187 234 286 339
#     4   9  17  28  48  77 112 146 183 232 284 330
#
# _framework density 20.055050000000001
#
# number of rings (size 3 to 8) (size 9 to 14) (size 15 to 20)
#    0.000    1.714    0.000    6.000    0.000    6.857 
#    0.000    0.000    0.000    0.000    0.000   20.000 
#    0.000    0.000    0.000    0.000    0.000    0.000 
#
# Total GULP energy -347278.083631 kJ/mol
# GULP energy per Si atom -12402.788701 kJ/mol
# Density = 2.000940 g / cm^3
# Si number density = 20.055050 Si / 1000 Ang^3
#
#
#
# Elastic Constant Matrix: (Units=GPa)
#
#
# Indices 1 2 3 4 5 6 
#
# 1 223.8857 51.3088 127.9950 0.0000 0.5388 0.0000
# 2 51.3088 85.0989 47.2231 0.0000 -0.3782 0.0000
# 3 127.9950 47.2231 236.6122 0.0000 1.0155 0.0000
# 4 0.0000 0.0000 0.0000 22.6356 0.0000 -0.1269
# 5 0.5388 -0.3782 1.0155 0.0000 49.8339 0.0000
# 6 0.0000 0.0000 0.0000 -0.1269 0.0000 24.4294
#
#
#
# Elastic Compliance Matrix: (Units=1/GPa)
#
#
# Indices 1 2 3 4 5 6 
#
# 1 0.006855 -0.002334 -0.003242 0.000000 -0.000026 0.000000
# 2 -0.002334 0.014010 -0.001534 0.000000 0.000163 0.000000
# 3 -0.003242 -0.001534 0.006287 0.000000 -0.000105 0.000000
# 4 0.000000 0.000000 0.000000 0.044179 0.000000 0.000229
# 5 -0.000026 0.000163 -0.000105 0.000000 0.020070 0.000000
# 6 0.000000 0.000000 0.000000 0.000229 0.000000 0.040935
#
#
# Mechanical properties :
#
#
# Convention : Reuss Voigt Hill
#
# Bulk Modulus (GPa) = 77.33275 110.96118 94.14696
# Shear Modulus (GPa) = 33.14119 40.65110 36.89615
#
# Velocity S-wave (km/s) = 4.06952 4.50708 4.29388
# Velocity P-wave (km/s) = 7.79264 9.08479 8.46341
#
# Compressibility (1/GPa) = 0.01293113
#
# Stress axis : x y z
#
# Youngs Moduli (GPa) = 145.87493 71.37525 159.05999
#
# Poissons Ratio (x) = 0.16660 0.51573
# Poissons Ratio (y) = 0.34048 0.24404
# Poissons Ratio (z) = 0.47298 0.10951
#
# Static dielectric constant tensor:
#      x y z
#    x 3.975210 0.000000 0.003230 
#    y 0.000000 3.292310 0.000000 
#    z 0.003230 0.000000 4.019390 
# 
# 
# High freq. dielectric constant tensor:
#      x y z
#    x 1.806470 0.000000 0.000100 
#    y 0.000000 1.741510 0.000000 
#    z 0.000100 0.000000 1.807520 
# 
# From -- ./inp_files/73844.got.cif
#   From: 2010.06.25/outbox.cif.g09.slc.cpg/sg11_37_cif.got.tgz:73844.got - 2010.06.27 23:14:04.
