data_PCOD8071989
_publ_section_title
;
Structure prediction by ZEFSAII (Michael W. Deem and Ramdas Pophale) SiO2 
 PCOD8071989
Probable space group: P 21/M
;
_chemical_formula_sum "Si O2"
_cell_formula_units_Z 32
_cell_length_a 33.526147
_cell_length_b 9.354296
_cell_length_c 12.721354
_cell_angle_alpha 90.000000
_cell_angle_beta 24.922841
_cell_angle_gamma 90.000000
_cell_volume 1681.202068
_symmetry_space_group_name_H-M "P 21/M"
_symmetry_group_IT_number 11
_symmetry_cell_setting 'monoclinic'
loop_
_space_group_symop_operation_xyz
x,y,z
-x,1/2+y,-z
-x,-y,-z
x,1/2-y,z
loop_
_atom_site_type_symbol
_atom_site_label
_atom_site_fract_x
_atom_site_fract_y
_atom_site_fract_z
Si Si1 0.626751 0.081616 0.874724
Si Si2 0.922827 0.584984 0.447563
Si Si3 0.885495 0.585433 0.990359
Si Si4 0.406724 0.418217 0.689173
Si Si5 0.736083 0.583106 0.785604
Si Si6 0.414323 0.416306 0.438642
Si Si7 0.907436 0.912085 0.711355
Si Si8 0.682886 0.580441 0.537734
O O1 0.645090 0.250000 0.818769
O O2 0.705641 0.013813 0.761298
O O3 0.630251 0.006741 0.753603
O O4 0.525196 0.047271 0.167050
O O5 0.951205 0.750000 0.371925
O O6 0.846661 0.545554 0.540417
O O7 0.866191 0.553764 0.693910
O O8 0.021070 0.500672 0.199317
O O9 0.913582 0.750000 0.936747
O O10 0.847527 0.555089 0.960382
O O11 0.795349 0.547127 0.277481
O O12 0.500000 0.500000 0.500000
O O13 0.429909 0.250000 0.632574
O O14 0.377139 0.469779 0.641709
O O15 0.322706 0.455917 0.969487
O O16 0.722715 0.750000 0.789195
O O17 0.395134 0.250000 0.476607
O O18 0.357818 0.482650 0.475068
O O19 0.939889 0.750000 0.636514
O O20 0.000000 0.000000 0.500000
O O21 0.663111 0.750000 0.597703
#
# Coordination Sequence:
#
# PCOD8071989 Si02
#       8
#     4   4   4   4   4   4   4   4
#     4  11  22  38  57  79 109 144 184 231 277 321
#     4   9  18  32  52  78 109 143 179 219 264 320
#     4   9  18  32  52  78 107 140 179 222 268 319
#     4  10  19  34  56  83 115 146 179 220 269 324
#     4  10  21  35  56  83 111 148 186 220 265 327
#     4   9  19  35  57  83 111 143 178 220 272 328
#     4   8  14  26  45  70 100 133 166 205 255 308
#     4  10  21  37  58  81 107 143 186 228 270 324
#
# _framework density 19.033999000000001
#
# number of rings (size 3 to 8) (size 9 to 14) (size 15 to 20)
#    0.000    2.500    1.250    0.750    1.750    1.000 
#    0.000    1.875    0.000    0.000    0.000    0.000 
#    0.000    0.000    0.000    0.000    0.000    0.000 
#
# Total GULP energy -396447.395118 kJ/mol
# GULP energy per Si atom -12388.981097 kJ/mol
# Density = 1.899068 g / cm^3
# Si number density = 19.033999 Si / 1000 Ang^3
#
#
#
# Elastic Constant Matrix: (Units=GPa)
#
#
# Indices 1 2 3 4 5 6 
#
# 1 115.3609 32.4991 28.8959 0.0000 -2.8810 0.0000
# 2 32.4991 47.3689 20.9523 0.0000 -3.8420 0.0000
# 3 28.8959 20.9523 26.8483 0.0000 2.3599 0.0000
# 4 0.0000 0.0000 0.0000 25.2883 0.0000 0.1164
# 5 -2.8810 -3.8420 2.3599 0.0000 29.1706 0.0000
# 6 0.0000 0.0000 0.0000 0.1164 0.0000 27.0918
#
#
#
# Elastic Compliance Matrix: (Units=1/GPa)
#
#
# Indices 1 2 3 4 5 6 
#
# 1 0.012406 -0.003686 -0.010616 0.000000 0.001599 0.000000
# 2 -0.003686 0.034537 -0.023521 0.000000 0.006088 0.000000
# 3 -0.010616 -0.023521 0.067874 0.000000 -0.009637 0.000000
# 4 0.000000 0.000000 0.000000 0.039545 0.000000 -0.000170
# 5 0.001599 0.006088 -0.009637 0.000000 0.036020 0.000000
# 6 0.000000 0.000000 0.000000 -0.000170 0.000000 0.036912
#
#
# Mechanical properties :
#
#
# Convention : Reuss Voigt Hill
#
# Bulk Modulus (GPa) = 25.52825 39.36363 32.44594
# Shear Modulus (GPa) = 15.82288 23.45887 19.64087
#
# Velocity S-wave (km/s) = 2.88635 3.51447 3.21578
# Velocity P-wave (km/s) = 4.95470 6.09871 5.55622
#
# Compressibility (1/GPa) = 0.03917229
#
# Stress axis : x y z
#
# Youngs Moduli (GPa) = 80.60647 28.95413 14.73309
#
# Poissons Ratio (x) = 0.10673 0.15641
# Poissons Ratio (y) = 0.29713 0.34653
# Poissons Ratio (z) = 0.85571 0.68102
#
# Static dielectric constant tensor:
#      x y z
#    x 3.477520 0.000000 0.040020 
#    y 0.000000 3.302940 0.000000 
#    z 0.040020 0.000000 3.328690 
# 
# 
# High freq. dielectric constant tensor:
#      x y z
#    x 1.745760 0.000000 0.003390 
#    y 0.000000 1.718390 0.000000 
#    z 0.003390 0.000000 1.732520 
# 
# From -- ./inp_files/45172.got.cif
#   From: 2010.06.25/outbox.cif.g09.slc.cpg/sg11_23_cif.got.tgz:45172.got - 2010.06.27 23:14:04.
