data_PCOD8071060
_publ_section_title
;
Structure prediction by ZEFSAII (Michael W. Deem and Ramdas Pophale) SiO2 
 PCOD8071060
Probable space group: P 21/M
;
_chemical_formula_sum "Si O2"
_cell_formula_units_Z 32
_cell_length_a 20.740392
_cell_length_b 9.019633
_cell_length_c 13.689082
_cell_angle_alpha 90.000000
_cell_angle_beta 137.844703
_cell_angle_gamma 90.000000
_cell_volume 1718.679227
_symmetry_space_group_name_H-M "P 21/M"
_symmetry_group_IT_number 11
_symmetry_cell_setting 'monoclinic'
loop_
_space_group_symop_operation_xyz
x,y,z
-x,1/2+y,-z
-x,-y,-z
x,1/2-y,z
loop_
_atom_site_type_symbol
_atom_site_label
_atom_site_fract_x
_atom_site_fract_y
_atom_site_fract_z
Si Si1 0.162714 0.923991 0.831535
Si Si2 0.546629 0.925174 0.349949
Si Si3 0.838368 0.578351 0.670389
Si Si4 0.702763 0.918567 0.684047
Si Si5 0.663285 0.421871 0.835780
Si Si6 0.021076 0.573684 0.295871
Si Si7 0.680026 0.423995 0.365156
Si Si8 0.176014 0.575619 0.627915
O O1 0.135953 0.750000 0.804264
O O2 0.166900 0.990200 0.726337
O O3 0.266119 0.953633 0.995147
O O4 0.085852 0.018079 0.805323
O O5 0.547655 0.750000 0.336947
O O6 0.617781 0.975272 0.516937
O O7 0.441061 0.988753 0.254993
O O8 0.581612 0.994246 0.285509
O O9 0.833689 0.750000 0.630992
O O10 0.807429 0.567066 0.749438
O O11 0.942291 0.506781 0.762965
O O12 0.763540 0.477058 0.529746
O O13 0.681214 0.750000 0.688484
O O14 0.706560 0.011201 0.786354
O O15 0.650950 0.250000 0.801265
O O16 0.022726 0.750000 0.283627
O O17 0.088956 0.518324 0.461642
O O18 0.664425 0.250000 0.359682
O O19 0.718844 0.464502 0.299682
O O20 0.166565 0.750000 0.624774
#
# Coordination Sequence:
#
# PCOD8071060 Si02
#       8
#     4   4   4   4   4   4   4   4
#     4  10  20  35  51  69  98 136 167 200 245 292
#     4   9  18  33  50  73 101 130 163 201 245 295
#     4   9  17  31  51  76 102 128 157 197 248 298
#     4   9  18  32  52  74  98 126 159 201 249 292
#     4  10  21  34  50  71  98 132 170 204 241 290
#     4  10  19  32  52  78 101 126 162 205 243 286
#     4   9  16  28  49  77 101 125 160 204 245 285
#     4   8  16  31  51  74 100 127 161 200 243 290
#
# _framework density 18.618948
#
# number of rings (size 3 to 8) (size 9 to 14) (size 15 to 20)
#    0.000    2.750    0.000    3.375    0.000    3.500 
#    0.000    4.375    0.000    0.000    0.000    0.000 
#    0.000    0.000    0.000    0.000    0.000    0.000 
#
# Total GULP energy -396594.096326 kJ/mol
# GULP energy per Si atom -12393.565510 kJ/mol
# Density = 1.857657 g / cm^3
# Si number density = 18.618948 Si / 1000 Ang^3
#
#
#
# Elastic Constant Matrix: (Units=GPa)
#
#
# Indices 1 2 3 4 5 6 
#
# 1 125.0183 36.0956 20.3570 0.0000 -5.1409 0.0000
# 2 36.0956 39.8765 18.1780 0.0000 -0.6141 0.0000
# 3 20.3570 18.1780 33.3557 0.0000 2.2792 0.0000
# 4 0.0000 0.0000 0.0000 16.5644 0.0000 -0.2763
# 5 -5.1409 -0.6141 2.2792 0.0000 7.9166 0.0000
# 6 0.0000 0.0000 0.0000 -0.2763 0.0000 34.8742
#
#
#
# Elastic Compliance Matrix: (Units=1/GPa)
#
#
# Indices 1 2 3 4 5 6 
#
# 1 0.011301 -0.008971 -0.002511 0.000000 0.007366 0.000000
# 2 -0.008971 0.040990 -0.017018 0.000000 0.002253 0.000000
# 3 -0.002511 -0.017018 0.041811 0.000000 -0.014988 0.000000
# 4 0.000000 0.000000 0.000000 0.060379 0.000000 0.000478
# 5 0.007366 0.002253 -0.014988 0.000000 0.135590 0.000000
# 6 0.000000 0.000000 0.000000 0.000478 0.000000 0.028678
#
#
# Mechanical properties :
#
#
# Convention : Reuss Voigt Hill
#
# Bulk Modulus (GPa) = 26.95264 38.61242 32.78253
# Shear Modulus (GPa) = 12.88277 20.11235 16.49756
#
# Velocity S-wave (km/s) = 2.63329 3.29022 2.97991
# Velocity P-wave (km/s) = 4.87370 5.93442 5.43002
#
# Compressibility (1/GPa) = 0.03710212
#
# Stress axis : x y z
#
# Youngs Moduli (GPa) = 88.48955 24.39603 23.91733
#
# Poissons Ratio (x) = 0.21886 0.06006
# Poissons Ratio (y) = 0.79385 0.40701
# Poissons Ratio (z) = 0.22220 0.41516
#
# Static dielectric constant tensor:
#      x y z
#    x 4.037060 0.000000 -0.091820 
#    y 0.000000 3.336930 0.000000 
#    z -0.091820 0.000000 3.160500 
# 
# 
# High freq. dielectric constant tensor:
#      x y z
#    x 1.745310 0.000000 -0.004030 
#    y 0.000000 1.711960 0.000000 
#    z -0.004030 0.000000 1.678470 
# 
# From -- ./inp_files/38264.got.cif
#   From: 2010.06.25/outbox.cif.g09.slc.cpg/sg11_20_cif.got.tgz:38264.got - 2010.06.27 23:14:04.
