data_PCOD8071566
_publ_section_title
;
Structure prediction by ZEFSAII (Michael W. Deem and Ramdas Pophale) SiO2 
 PCOD8071566
Probable space group: P 21/M
;
_chemical_formula_sum "Si O2"
_cell_formula_units_Z 24
_cell_length_a 11.823793
_cell_length_b 14.285019
_cell_length_c 12.435412
_cell_angle_alpha 90.000000
_cell_angle_beta 146.967508
_cell_angle_gamma 90.000000
_cell_volume 1144.947555
_symmetry_space_group_name_H-M "P 21/M"
_symmetry_group_IT_number 11
_symmetry_cell_setting 'monoclinic'
loop_
_space_group_symop_operation_xyz
x,y,z
-x,1/2+y,-z
-x,-y,-z
x,1/2-y,z
loop_
_atom_site_type_symbol
_atom_site_label
_atom_site_fract_x
_atom_site_fract_y
_atom_site_fract_z
Si Si1 0.604973 0.852767 0.038187
Si Si2 0.242509 0.952749 0.852044
Si Si3 0.647652 0.850273 0.821264
Si Si4 0.424813 0.951628 0.236969
Si Si5 0.968274 0.144530 0.008663
Si Si6 0.851890 0.858292 0.619940
O O1 0.656080 0.750000 0.132871
O O2 0.751043 0.940521 0.190997
O O3 0.368004 0.882013 0.875007
O O4 0.634494 0.838547 0.936580
O O5 0.005992 0.919132 0.668431
O O6 0.351339 0.948911 0.055290
O O7 0.574720 0.750000 0.709980
O O8 0.888534 0.869517 0.982000
O O9 0.515117 0.941389 0.680075
O O10 0.617989 0.884320 0.404978
O O11 0.235138 0.919746 0.162183
O O12 0.885450 0.250000 0.952735
O O13 0.108239 0.119254 0.223710
O O14 0.887963 0.750000 0.621758
#
# Coordination Sequence:
#
# PCOD8071566 Si02
#       6
#     4   4   4   4   4   4
#     4   9  17  33  56  76 101 138 170 203 253 304
#     4   9  19  35  54  78 104 130 168 214 253 296
#     4   9  18  33  52  74 103 138 171 206 251 301
#     4  10  19  33  55  78 101 133 171 210 254 301
#     4   9  18  33  52  76 105 133 167 211 253 298
#     4  10  20  33  52  78 104 132 169 213 257 297
#
# _framework density 20.961658
#
# number of rings (size 3 to 8) (size 9 to 14) (size 15 to 20)
#    0.000    2.667    0.000    1.500    0.000    2.667 
#    0.000    8.333    0.000   11.000    0.000    0.000 
#    0.000    0.000    0.000    0.000    0.000    0.000 
#
# Total GULP energy -297342.784099 kJ/mol
# GULP energy per Si atom -12389.282671 kJ/mol
# Density = 2.091395 g / cm^3
# Si number density = 20.961658 Si / 1000 Ang^3
#
#
#
# Elastic Constant Matrix: (Units=GPa)
#
#
# Indices 1 2 3 4 5 6 
#
# 1 102.5545 32.7331 19.1195 0.0000 30.7935 0.0000
# 2 32.7331 161.5635 30.4784 0.0000 12.3110 0.0000
# 3 19.1195 30.4784 73.3897 0.0000 17.4229 0.0000
# 4 0.0000 0.0000 0.0000 24.2757 0.0000 10.0119
# 5 30.7935 12.3110 17.4229 0.0000 19.2894 0.0000
# 6 0.0000 0.0000 0.0000 10.0119 0.0000 30.7833
#
#
#
# Elastic Compliance Matrix: (Units=1/GPa)
#
#
# Indices 1 2 3 4 5 6 
#
# 1 0.019863 -0.002159 0.003720 0.000000 -0.033691 0.000000
# 2 -0.002159 0.007028 -0.002685 0.000000 0.001386 0.000000
# 3 0.003720 -0.002685 0.018808 0.000000 -0.021213 0.000000
# 4 0.000000 0.000000 0.000000 0.047575 0.000000 -0.015473
# 5 -0.033691 0.001386 -0.021213 0.000000 0.123901 0.000000
# 6 0.000000 0.000000 0.000000 -0.015473 0.000000 0.037518
#
#
# Mechanical properties :
#
#
# Convention : Reuss Voigt Hill
#
# Bulk Modulus (GPa) = 23.01466 55.79663 39.40565
# Shear Modulus (GPa) = 18.42139 31.88149 25.15144
#
# Velocity S-wave (km/s) = 2.96770 3.90416 3.46768
# Velocity P-wave (km/s) = 4.76930 6.85562 5.90532
#
# Compressibility (1/GPa) = 0.04345057
#
# Stress axis : x y z
#
# Youngs Moduli (GPa) = 50.34595 142.29147 53.16900
#
# Poissons Ratio (x) = 0.30718 -0.19780
# Poissons Ratio (y) = 0.10869 0.14278
# Poissons Ratio (z) = -0.18730 0.38210
#
# Static dielectric constant tensor:
#      x y z
#    x 3.927440 0.000000 0.295670 
#    y 0.000000 4.647880 0.000000 
#    z 0.295670 0.000000 3.151690 
# 
# 
# High freq. dielectric constant tensor:
#      x y z
#    x 1.832510 0.000000 0.031420 
#    y 0.000000 1.853840 0.000000 
#    z 0.031420 0.000000 1.753350 
# 
# From -- ./inp_files/31319.got.cif
#   From: 2010.06.25/outbox.cif.g09.slc.cpg/sg11_16_cif.got.tgz:31319.got - 2010.06.27 23:14:04.
