data_PCOD8071794
_publ_section_title
;
Structure prediction by ZEFSAII (Michael W. Deem and Ramdas Pophale) SiO2 
 PCOD8071794
Probable space group: P 21/M
;
_chemical_formula_sum "Si O2"
_cell_formula_units_Z 32
_cell_length_a 17.280844
_cell_length_b 9.634954
_cell_length_c 13.767484
_cell_angle_alpha 90.000000
_cell_angle_beta 128.122225
_cell_angle_gamma 90.000000
_cell_volume 1803.332896
_symmetry_space_group_name_H-M "P 21/M"
_symmetry_group_IT_number 11
_symmetry_cell_setting 'monoclinic'
loop_
_space_group_symop_operation_xyz
x,y,z
-x,1/2+y,-z
-x,-y,-z
x,1/2-y,z
loop_
_atom_site_type_symbol
_atom_site_label
_atom_site_fract_x
_atom_site_fract_y
_atom_site_fract_z
Si Si1 0.401521 0.906010 0.321418
Si Si2 0.937897 0.097399 0.324610
Si Si3 0.279630 0.902785 0.897120
Si Si4 0.711064 0.593648 0.391600
Si Si5 0.370964 0.403395 0.464018
Si Si6 0.102755 0.595833 0.484292
Si Si7 0.574053 0.036140 0.143386
Si Si8 0.601459 0.595404 0.869661
O O1 0.358673 0.750000 0.271007
O O2 0.512321 0.892952 0.441830
O O3 0.339303 0.984541 0.357681
O O4 0.395871 0.997671 0.221021
O O5 0.961857 0.250000 0.299245
O O6 0.831581 0.046581 0.205675
O O7 0.939141 0.110999 0.440941
O O8 0.022058 0.988185 0.357143
O O9 0.282048 0.750000 0.949386
O O10 0.336208 0.881840 0.837610
O O11 0.328968 0.022963 0.997712
O O12 0.752621 0.750000 0.425375
O O13 0.669232 0.548282 0.463381
O O14 0.795808 0.486331 0.432411
O O15 0.624679 0.589566 0.242947
O O16 0.329634 0.250000 0.404907
O O17 0.118294 0.750000 0.451366
O O18 0.508779 0.116758 0.172729
O O19 0.500000 0.000000 0.000000
O O20 0.640890 0.750000 0.875013
#
# Coordination Sequence:
#
# PCOD8071794 Si02
#       8
#     4   4   4   4   4   4   4   4
#     4  10  19  34  52  72  99 133 169 210 257 301
#     4   9  18  34  51  71  98 134 171 211 257 299
#     4  10  20  35  52  71 101 137 176 215 251 297
#     4  11  21  35  54  75 102 137 174 211 256 307
#     4   9  19  34  51  73  98 130 170 213 256 300
#     4  10  20  33  50  74 101 131 169 214 257 301
#     4  10  21  34  47  71 102 141 178 213 246 290
#     4  11  22  33  50  75 103 137 175 212 252 301
#
# _framework density 17.744921000000001
#
# number of rings (size 3 to 8) (size 9 to 14) (size 15 to 20)
#    0.000    2.000    2.500    1.500    0.000    6.500 
#    0.000    0.000    0.000    0.000    0.000    0.875 
#    0.000    0.000    0.000    0.000    0.000    0.000 
#
# Total GULP energy -396422.535260 kJ/mol
# GULP energy per Si atom -12388.204227 kJ/mol
# Density = 1.770453 g / cm^3
# Si number density = 17.744921 Si / 1000 Ang^3
#
#
#
# Elastic Constant Matrix: (Units=GPa)
#
#
# Indices 1 2 3 4 5 6 
#
# 1 49.9427 41.1925 40.8658 0.0000 -0.8630 0.0000
# 2 41.1925 145.6379 57.1198 0.0000 -0.8589 0.0000
# 3 40.8658 57.1198 78.0421 0.0000 0.7636 0.0000
# 4 0.0000 0.0000 0.0000 37.9793 0.0000 2.6207
# 5 -0.8630 -0.8589 0.7636 0.0000 30.0112 0.0000
# 6 0.0000 0.0000 0.0000 2.6207 0.0000 21.0405
#
#
#
# Elastic Compliance Matrix: (Units=1/GPa)
#
#
# Indices 1 2 3 4 5 6 
#
# 1 0.036661 -0.003965 -0.016308 0.000000 0.001356 0.000000
# 2 -0.003965 0.010066 -0.005294 0.000000 0.000309 0.000000
# 3 -0.016308 -0.005294 0.025241 0.000000 -0.001263 0.000000
# 4 0.000000 0.000000 0.000000 0.026558 0.000000 -0.003308
# 5 0.001356 0.000309 -0.001263 0.000000 0.033401 0.000000
# 6 0.000000 0.000000 0.000000 -0.003308 0.000000 0.047939
#
#
# Mechanical properties :
#
#
# Convention : Reuss Voigt Hill
#
# Bulk Modulus (GPa) = 48.00207 61.33100 54.66653
# Shear Modulus (GPa) = 21.01319 26.76917 23.89118
#
# Velocity S-wave (km/s) = 3.44493 3.88822 3.67327
# Velocity P-wave (km/s) = 6.55235 7.40239 6.99030
#
# Compressibility (1/GPa) = 0.02083244
#
# Stress axis : x y z
#
# Youngs Moduli (GPa) = 27.27682 99.34359 39.61887
#
# Poissons Ratio (x) = 0.39391 0.64612
# Poissons Ratio (y) = 0.10816 0.20975
# Poissons Ratio (z) = 0.44484 0.52595
#
# Static dielectric constant tensor:
#      x y z
#    x 3.220610 0.000000 -0.009000 
#    y 0.000000 3.647590 0.000000 
#    z -0.009000 0.000000 3.120050 
# 
# 
# High freq. dielectric constant tensor:
#      x y z
#    x 1.657370 0.000000 0.001890 
#    y 0.000000 1.697950 0.000000 
#    z 0.001890 0.000000 1.661700 
# 
# From -- ./inp_files/51728.got.cif
#   From: 2010.06.25/outbox.cif.g09.slc.cpg/sg11_26_cif.got.tgz:51728.got - 2010.06.27 23:14:04.
