data_PCOD8071076
_publ_section_title
;
Structure prediction by ZEFSAII (Michael W. Deem and Ramdas Pophale) SiO2 
 PCOD8071076
Probable space group: P 21/M
;
_chemical_formula_sum "Si O2"
_cell_formula_units_Z 32
_cell_length_a 11.174541
_cell_length_b 9.539729
_cell_length_c 28.455589
_cell_angle_alpha 90.000000
_cell_angle_beta 33.496390
_cell_angle_gamma 90.000000
_cell_volume 1674.100258
_symmetry_space_group_name_H-M "P 21/M"
_symmetry_group_IT_number 11
_symmetry_cell_setting 'monoclinic'
loop_
_space_group_symop_operation_xyz
x,y,z
-x,1/2+y,-z
-x,-y,-z
x,1/2-y,z
loop_
_atom_site_type_symbol
_atom_site_label
_atom_site_fract_x
_atom_site_fract_y
_atom_site_fract_z
Si Si1 0.096598 0.586853 0.239094
Si Si2 0.126421 0.900448 0.024475
Si Si3 0.797107 0.098716 0.105589
Si Si4 0.407480 0.903517 0.221631
Si Si5 0.242339 0.911481 0.469900
Si Si6 0.434856 0.418135 0.068576
Si Si7 0.606360 0.914190 0.422441
Si Si8 0.854191 0.405455 0.601866
O O1 0.106687 0.750000 0.219303
O O2 0.209006 0.564395 0.252339
O O3 0.215816 0.488595 0.161270
O O4 0.849218 0.537742 0.328974
O O5 0.076304 0.750000 0.065831
O O6 0.084809 0.878602 0.982734
O O7 0.368986 0.947371 0.959067
O O8 0.945411 0.017841 0.096089
O O9 0.742766 0.250000 0.145962
O O10 0.582586 0.021854 0.159605
O O11 0.506436 0.750000 0.177330
O O12 0.335437 0.906309 0.298790
O O13 0.184122 0.750000 0.495189
O O14 0.467646 0.946667 0.421246
O O15 0.253570 0.957562 0.411610
O O16 0.046552 0.996571 0.557693
O O17 0.400216 0.250000 0.071757
O O18 0.500000 0.500000 0.000000
O O19 0.603715 0.750000 0.437044
O O20 0.500000 0.000000 0.500000
O O21 0.951889 0.250000 0.563525
#
# Coordination Sequence:
#
# PCOD8071076 Si02
#       8
#     4   4   4   4   4   4   4   4
#     4  10  21  37  57  82 114 152 195 242 288 343
#     4   9  19  36  55  78 106 140 178 220 277 334
#     4  10  19  32  54  81 109 137 173 225 276 328
#     4  10  19  32  52  78 109 144 183 228 280 338
#     4   9  18  34  54  77 108 144 183 228 276 331
#     4  11  23  41  62  84 113 152 196 239 288 345
#     4  10  21  37  58  86 118 154 196 240 288 338
#     4   9  18  33  54  79 108 145 182 221 275 337
#
# _framework density 19.114744999999999
#
# number of rings (size 3 to 8) (size 9 to 14) (size 15 to 20)
#    0.000    2.250    1.250    1.500    0.000    4.000 
#    2.250    0.000    0.000    0.000    0.000    0.000 
#    0.000    0.000    0.000    0.000    0.000    0.000 
#
# Total GULP energy -396523.598752 kJ/mol
# GULP energy per Si atom -12391.362461 kJ/mol
# Density = 1.907124 g / cm^3
# Si number density = 19.114745 Si / 1000 Ang^3
#
#
#
# Elastic Constant Matrix: (Units=GPa)
#
#
# Indices 1 2 3 4 5 6 
#
# 1 82.5221 54.8702 52.7292 0.0000 -20.1600 0.0000
# 2 54.8702 117.1660 61.6388 0.0000 -16.0461 0.0000
# 3 52.7292 61.6388 95.4972 0.0000 -11.0513 0.0000
# 4 0.0000 0.0000 0.0000 31.4072 0.0000 -4.0855
# 5 -20.1600 -16.0461 -11.0513 0.0000 34.4396 0.0000
# 6 0.0000 0.0000 0.0000 -4.0855 0.0000 24.3238
#
#
#
# Elastic Compliance Matrix: (Units=1/GPa)
#
#
# Indices 1 2 3 4 5 6 
#
# 1 0.022953 -0.005221 -0.008340 0.000000 0.008327 0.000000
# 2 -0.005221 0.014524 -0.006296 0.000000 0.001690 0.000000
# 3 -0.008340 -0.006296 0.018939 0.000000 -0.001738 0.000000
# 4 0.000000 0.000000 0.000000 0.032551 0.000000 0.005467
# 5 0.008327 0.001690 -0.001738 0.000000 0.034141 0.000000
# 6 0.000000 0.000000 0.000000 0.005467 0.000000 0.042030
#
#
# Mechanical properties :
#
#
# Convention : Reuss Voigt Hill
#
# Bulk Modulus (GPa) = 59.87415 70.40686 65.14051
# Shear Modulus (GPa) = 23.76219 26.43059 25.09639
#
# Velocity S-wave (km/s) = 3.52964 3.72255 3.62737
# Velocity P-wave (km/s) = 6.92839 7.44246 7.19002
#
# Compressibility (1/GPa) = 0.01670170
#
# Stress axis : x y z
#
# Youngs Moduli (GPa) = 43.56752 68.85324 52.80149
#
# Poissons Ratio (x) = 0.35950 0.44035
# Poissons Ratio (y) = 0.22748 0.33243
# Poissons Ratio (z) = 0.36335 0.43348
#
# Static dielectric constant tensor:
#      x y z
#    x 3.536580 0.000000 -0.050720 
#    y 0.000000 3.866050 0.000000 
#    z -0.050720 0.000000 3.310180 
# 
# 
# High freq. dielectric constant tensor:
#      x y z
#    x 1.740560 0.000000 -0.011490 
#    y 0.000000 1.752110 0.000000 
#    z -0.011490 0.000000 1.721610 
# 
# From -- ./inp_files/73077.got.cif
#   From: 2010.06.25/outbox.cif.g09.slc.cpg/sg11_37_cif.got.tgz:73077.got - 2010.06.27 23:14:04.
