data_PCOD8071960
_publ_section_title
;
Structure prediction by ZEFSAII (Michael W. Deem and Ramdas Pophale) SiO2 
 PCOD8071960
Probable space group: P 21/M
;
_chemical_formula_sum "Si O2"
_cell_formula_units_Z 28
_cell_length_a 9.959840
_cell_length_b 13.604300
_cell_length_c 11.958860
_cell_angle_alpha 90.000000
_cell_angle_beta 72.300502
_cell_angle_gamma 90.000000
_cell_volume 1543.683151
_symmetry_space_group_name_H-M "P 21/M"
_symmetry_group_IT_number 11
_symmetry_cell_setting 'monoclinic'
loop_
_space_group_symop_operation_xyz
x,y,z
-x,1/2+y,-z
-x,-y,-z
x,1/2-y,z
loop_
_atom_site_type_symbol
_atom_site_label
_atom_site_fract_x
_atom_site_fract_y
_atom_site_fract_z
Si Si1 0.803214 0.866274 0.220806
Si Si2 0.084787 0.531649 0.238923
Si Si3 0.163576 0.000712 0.981875
Si Si4 0.912010 0.139305 0.363056
Si Si5 0.301425 0.639173 0.785761
Si Si6 0.461250 0.025362 0.635351
Si Si7 0.264574 0.635058 0.375583
O O1 0.809921 0.750000 0.219156
O O2 0.774386 0.905084 0.101085
O O3 0.676195 0.904534 0.330722
O O4 0.947847 0.909745 0.232011
O O5 0.173015 0.604995 0.292564
O O6 0.042996 0.434898 0.320227
O O7 0.183766 0.496035 0.110465
O O8 0.238642 0.902025 0.917381
O O9 0.000000 0.000000 0.000000
O O10 0.969905 0.250000 0.366425
O O11 0.822614 0.132404 0.273054
O O12 0.816046 0.106354 0.490718
O O13 0.353961 0.750000 0.791020
O O14 0.433341 0.575482 0.709827
O O15 0.587625 0.079431 0.666140
O O16 0.500000 0.000000 0.500000
O O17 0.296215 0.750000 0.362856
#
# Coordination Sequence:
#
# PCOD8071960 Si02
#       7
#     4   4   4   4   4   4   4
#     4  10  20  34  55  82 112 143 189 236 276 322
#     4  11  20  38  55  85 114 150 184 227 283 337
#     4   9  18  33  53  81 110 140 190 229 273 318
#     4  10  19  34  56  82 112 148 184 226 277 329
#     4  10  19  34  56  81 108 143 187 232 273 322
#     4  11  20  37  56  81 108 145 188 231 269 327
#     4  11  23  36  56  84 118 150 182 226 287 339
#
# _framework density 18.138435999999999
#
# number of rings (size 3 to 8) (size 9 to 14) (size 15 to 20)
#    0.000    1.714    5.714    1.286    0.000    4.000 
#    0.000    3.571    0.000    1.714    0.000    0.000 
#    0.000    0.000    0.000    0.000    0.000    0.000 
#
# Total GULP energy -347171.594944 kJ/mol
# GULP energy per Si atom -12398.985534 kJ/mol
# Density = 1.809715 g / cm^3
# Si number density = 18.138436 Si / 1000 Ang^3
#
#
#
# Elastic Constant Matrix: (Units=GPa)
#
#
# Indices 1 2 3 4 5 6 
#
# 1 68.3573 40.9543 40.6464 0.0000 -5.4076 0.0000
# 2 40.9543 145.7770 54.0758 0.0000 -16.0745 0.0000
# 3 40.6464 54.0758 89.6058 0.0000 -26.1112 0.0000
# 4 0.0000 0.0000 0.0000 22.4557 0.0000 0.5258
# 5 -5.4076 -16.0745 -26.1112 0.0000 19.2934 0.0000
# 6 0.0000 0.0000 0.0000 0.5258 0.0000 27.9672
#
#
#
# Elastic Compliance Matrix: (Units=1/GPa)
#
#
# Indices 1 2 3 4 5 6 
#
# 1 0.022759 -0.003339 -0.011988 0.000000 -0.012628 0.000000
# 2 -0.003339 0.009329 -0.003505 0.000000 0.002092 0.000000
# 3 -0.011988 -0.003505 0.027878 0.000000 0.031448 0.000000
# 4 0.000000 0.000000 0.000000 0.044552 0.000000 -0.000838
# 5 -0.012628 0.002092 0.031448 0.000000 0.092596 0.000000
# 6 0.000000 0.000000 0.000000 -0.000838 0.000000 0.035772
#
#
# Mechanical properties :
#
#
# Convention : Reuss Voigt Hill
#
# Bulk Modulus (GPa) = 44.84426 63.89923 54.37174
# Shear Modulus (GPa) = 17.98660 25.14751 21.56705
#
# Velocity S-wave (km/s) = 3.15243 3.72751 3.45197
# Velocity P-wave (km/s) = 6.16664 7.33695 6.77710
#
# Compressibility (1/GPa) = 0.02229940
#
# Stress axis : x y z
#
# Youngs Moduli (GPa) = 43.93828 107.19273 35.87114
#
# Poissons Ratio (x) = 0.35795 0.43004
# Poissons Ratio (y) = 0.14672 0.12574
# Poissons Ratio (z) = 0.52675 0.37576
#
# Static dielectric constant tensor:
#      x y z
#    x 3.069440 0.000000 -0.132920 
#    y 0.000000 3.563710 0.000000 
#    z -0.132920 0.000000 3.802100 
# 
# 
# High freq. dielectric constant tensor:
#      x y z
#    x 1.667830 0.000000 -0.012870 
#    y 0.000000 1.711490 0.000000 
#    z -0.012870 0.000000 1.714870 
# 
# From -- ./inp_files/17715.got.cif
#   From: 2010.06.25/outbox.cif.g09.slc.cpg/sg11_9_cif.got.tgz:17715.got - 2010.06.27 23:14:04.
