data_PCOD8071879
_publ_section_title
;
Structure prediction by ZEFSAII (Michael W. Deem and Ramdas Pophale) SiO2 
 PCOD8071879
Probable space group: P 21/M
;
_chemical_formula_sum "Si O2"
_cell_formula_units_Z 32
_cell_length_a 11.377922
_cell_length_b 9.221432
_cell_length_c 21.345594
_cell_angle_alpha 90.000000
_cell_angle_beta 52.442230
_cell_angle_gamma 90.000000
_cell_volume 1775.414918
_symmetry_space_group_name_H-M "P 21/M"
_symmetry_group_IT_number 11
_symmetry_cell_setting 'monoclinic'
loop_
_space_group_symop_operation_xyz
x,y,z
-x,1/2+y,-z
-x,-y,-z
x,1/2-y,z
loop_
_atom_site_type_symbol
_atom_site_label
_atom_site_fract_x
_atom_site_fract_y
_atom_site_fract_z
Si Si1 0.988827 0.421397 0.568578
Si Si2 0.149239 0.916523 0.937542
Si Si3 0.293514 0.080956 0.531899
Si Si4 0.365894 0.917494 0.120836
Si Si5 0.307021 0.578024 0.272780
Si Si6 0.560294 0.919101 0.387266
Si Si7 0.655485 0.088124 0.006873
Si Si8 0.621579 0.578569 0.226280
O O1 0.983777 0.250000 0.559662
O O2 0.125566 0.463602 0.569654
O O3 0.000000 0.500000 0.500000
O O4 0.836376 0.484743 0.646148
O O5 0.121968 0.750000 0.925377
O O6 0.218928 0.922185 0.983276
O O7 0.248855 0.994004 0.852380
O O8 0.000000 0.000000 0.000000
O O9 0.320695 0.250000 0.512185
O O10 0.324367 0.039521 0.594703
O O11 0.404997 0.999660 0.448835
O O12 0.382064 0.750000 0.130036
O O13 0.290168 0.984349 0.207233
O O14 0.531973 0.973312 0.062725
O O15 0.277959 0.948263 0.084484
O O16 0.300490 0.750000 0.278697
O O17 0.461697 0.524599 0.252846
O O18 0.522141 0.750000 0.399938
O O19 0.630432 0.961984 0.297245
O O20 0.585731 0.250000 0.027385
O O21 0.644246 0.750000 0.207991
#
# Coordination Sequence:
#
# PCOD8071879 Si02
#       8
#     4   4   4   4   4   4   4   4
#     4  10  20  34  51  76 108 139 174 212 259 310
#     4  11  23  38  54  76 106 138 174 216 263 311
#     4   9  18  33  52  78 109 142 178 217 260 307
#     4   9  16  30  53  77 100 131 166 204 254 305
#     4   9  17  30  51  76 102 134 170 209 254 307
#     4   9  18  33  55  80 105 140 180 218 258 306
#     4   9  18  32  51  77 102 128 166 209 254 303
#     4  10  19  34  55  78 102 134 178 217 259 312
#
# _framework density 18.023955999999998
#
# number of rings (size 3 to 8) (size 9 to 14) (size 15 to 20)
#    0.000    2.500    1.250    1.125    0.000    2.500 
#    2.250    1.250    0.000    0.000    0.000    0.000 
#    0.000    0.000    0.000    0.000    0.000    0.000 
#
# Total GULP energy -396553.796376 kJ/mol
# GULP energy per Si atom -12392.306137 kJ/mol
# Density = 1.798293 g / cm^3
# Si number density = 18.023956 Si / 1000 Ang^3
#
#
#
# Elastic Constant Matrix: (Units=GPa)
#
#
# Indices 1 2 3 4 5 6 
#
# 1 96.9972 36.2515 81.0012 0.0000 1.5794 0.0000
# 2 36.2515 42.0893 49.3396 0.0000 0.4960 0.0000
# 3 81.0012 49.3396 176.2905 0.0000 6.6145 0.0000
# 4 0.0000 0.0000 0.0000 28.5109 0.0000 -1.3756
# 5 1.5794 0.4960 6.6145 0.0000 31.5353 0.0000
# 6 0.0000 0.0000 0.0000 -1.3756 0.0000 21.1890
#
#
#
# Elastic Compliance Matrix: (Units=1/GPa)
#
#
# Indices 1 2 3 4 5 6 
#
# 1 0.018784 -0.008997 -0.006131 0.000000 0.000487 0.000000
# 2 -0.008997 0.039744 -0.007038 0.000000 0.001302 0.000000
# 3 -0.006131 -0.007038 0.010526 0.000000 -0.001790 0.000000
# 4 0.000000 0.000000 0.000000 0.035184 0.000000 0.002284
# 5 0.000487 0.001302 -0.001790 0.000000 0.032041 0.000000
# 6 0.000000 0.000000 0.000000 0.002284 0.000000 0.047343
#
#
# Mechanical properties :
#
#
# Convention : Reuss Voigt Hill
#
# Bulk Modulus (GPa) = 40.45098 72.06240 56.25669
# Shear Modulus (GPa) = 21.16888 26.16604 23.66746
#
# Velocity S-wave (km/s) = 3.43080 3.81430 3.62762
# Velocity P-wave (km/s) = 6.17944 7.71147 6.98757
#
# Compressibility (1/GPa) = 0.02472128
#
# Stress axis : x y z
#
# Youngs Moduli (GPa) = 53.23606 25.16132 94.99893
#
# Poissons Ratio (x) = 0.22639 0.58244
# Poissons Ratio (y) = 0.47899 0.66860
# Poissons Ratio (z) = 0.32639 0.17709
#
# Static dielectric constant tensor:
#      x y z
#    x 3.355300 0.000000 0.070670 
#    y 0.000000 3.263850 0.000000 
#    z 0.070670 0.000000 3.480030 
# 
# 
# High freq. dielectric constant tensor:
#      x y z
#    x 1.696870 0.000000 0.019200 
#    y 0.000000 1.682000 0.000000 
#    z 0.019200 0.000000 1.703440 
# 
# From -- ./inp_files/64379.got.cif
#   From: 2010.06.25/outbox.cif.g09.slc.cpg/sg11_33_cif.got.tgz:64379.got - 2010.06.27 23:14:04.
