data_PCOD8071688
_publ_section_title
;
Structure prediction by ZEFSAII (Michael W. Deem and Ramdas Pophale) SiO2 
 PCOD8071688
Probable space group: P 21/M
;
_chemical_formula_sum "Si O2"
_cell_formula_units_Z 32
_cell_length_a 10.246568
_cell_length_b 13.728251
_cell_length_c 27.022954
_cell_angle_alpha 90.000000
_cell_angle_beta 155.973229
_cell_angle_gamma 90.000000
_cell_volume 1547.730141
_symmetry_space_group_name_H-M "P 21/M"
_symmetry_group_IT_number 11
_symmetry_cell_setting 'monoclinic'
loop_
_space_group_symop_operation_xyz
x,y,z
-x,1/2+y,-z
-x,-y,-z
x,1/2-y,z
loop_
_atom_site_type_symbol
_atom_site_label
_atom_site_fract_x
_atom_site_fract_y
_atom_site_fract_z
Si Si1 0.345227 0.358096 0.739917
Si Si2 0.742237 0.641719 0.052399
Si Si3 0.766022 0.997010 0.743316
Si Si4 0.928651 0.856488 0.008732
Si Si5 0.409078 0.861889 0.687043
Si Si6 0.948051 0.361318 0.230901
Si Si7 0.245768 0.139742 0.590250
Si Si8 0.691507 0.059826 0.241262
O O1 0.204921 0.250000 0.704162
O O2 0.309021 0.380579 0.669617
O O3 0.181438 0.447548 0.712540
O O4 0.710887 0.365036 0.885326
O O5 0.773140 0.750000 0.087388
O O6 0.897492 0.556901 0.139485
O O7 0.954596 0.637482 0.076680
O O8 0.373666 0.620467 0.912103
O O9 0.707038 0.928893 0.771800
O O10 0.778754 0.928410 0.699084
O O11 0.473203 0.071859 0.635807
O O12 0.784301 0.750000 0.944119
O O13 0.689889 0.936916 0.903554
O O14 0.522994 0.750000 0.726045
O O15 0.270999 0.888913 0.692887
O O16 0.124412 0.881979 0.549442
O O17 0.061333 0.250000 0.266657
O O18 0.899114 0.386313 0.271590
O O19 0.333622 0.250000 0.606526
#
# Coordination Sequence:
#
# PCOD8071688 Si02
#       8
#     4   4   4   4   4   4   4   4
#     4  10  19  33  56  84 112 144 188 242 287 333
#     4   9  17  33  56  82 114 156 193 227 278 349
#     4  12  20  35  59  88 109 148 196 241 284 328
#     4   9  16  29  52  83 113 145 185 228 286 344
#     4  11  23  37  59  86 115 148 197 245 281 332
#     4  10  23  39  55  81 122 157 186 228 292 349
#     4  10  21  38  60  87 115 148 191 244 292 332
#     4  11  20  36  57  79 114 154 187 224 287 351
#
# _framework density 20.675439000000001
#
# number of rings (size 3 to 8) (size 9 to 14) (size 15 to 20)
#    0.000    1.750    2.500    3.750    0.000    1.000 
#    0.000    1.875    0.000    3.000    0.000    0.000 
#    0.000    0.000    0.000    0.000    0.000    0.000 
#
# Total GULP energy -396609.923774 kJ/mol
# GULP energy per Si atom -12394.060118 kJ/mol
# Density = 2.062838 g / cm^3
# Si number density = 20.675439 Si / 1000 Ang^3
#
#
#
# Elastic Constant Matrix: (Units=GPa)
#
#
# Indices 1 2 3 4 5 6 
#
# 1 73.1971 54.1974 13.9679 0.0000 -3.7250 0.0000
# 2 54.1974 147.2883 32.6433 0.0000 -5.3770 0.0000
# 3 13.9679 32.6433 42.3927 0.0000 -10.2992 0.0000
# 4 0.0000 0.0000 0.0000 15.7210 0.0000 0.5136
# 5 -3.7250 -5.3770 -10.2992 0.0000 16.8826 0.0000
# 6 0.0000 0.0000 0.0000 0.5136 0.0000 36.0939
#
#
#
# Elastic Compliance Matrix: (Units=1/GPa)
#
#
# Indices 1 2 3 4 5 6 
#
# 1 0.018854 -0.006739 -0.000626 0.000000 0.001631 0.000000
# 2 -0.006739 0.010626 -0.006458 0.000000 -0.002042 0.000000
# 3 -0.000626 -0.006458 0.033148 0.000000 0.018027 0.000000
# 4 0.000000 0.000000 0.000000 0.063639 0.000000 -0.000906
# 5 0.001631 -0.002042 0.018027 0.000000 0.069939 0.000000
# 6 0.000000 0.000000 0.000000 -0.000906 0.000000 0.027718
#
#
# Mechanical properties :
#
#
# Convention : Reuss Voigt Hill
#
# Bulk Modulus (GPa) = 28.58731 51.61058 40.09894
# Shear Modulus (GPa) = 18.99466 24.54414 21.76940
#
# Velocity S-wave (km/s) = 3.03431 3.44919 3.24838
# Velocity P-wave (km/s) = 5.11202 6.39367 5.78843
#
# Compressibility (1/GPa) = 0.03498056
#
# Stress axis : x y z
#
# Youngs Moduli (GPa) = 53.03804 94.10892 30.16809
#
# Poissons Ratio (x) = 0.63424 0.01890
# Poissons Ratio (y) = 0.35745 0.19482
# Poissons Ratio (z) = 0.03322 0.60774
#
# Static dielectric constant tensor:
#      x y z
#    x 3.309070 0.000000 -0.056500 
#    y 0.000000 4.162190 0.000000 
#    z -0.056500 0.000000 3.516700 
# 
# 
# High freq. dielectric constant tensor:
#      x y z
#    x 1.766140 0.000000 -0.003280 
#    y 0.000000 1.838940 0.000000 
#    z -0.003280 0.000000 1.783600 
# 
# From -- ./inp_files/68144.got.cif
#   From: 2010.06.25/outbox.cif.g09.slc.cpg/sg11_35_cif.got.tgz:68144.got - 2010.06.27 23:14:04.
