data_PCOD8071806
_publ_section_title
;
Structure prediction by ZEFSAII (Michael W. Deem and Ramdas Pophale) SiO2 
 PCOD8071806
Probable space group: P 21/M
;
_chemical_formula_sum "Si O2"
_cell_formula_units_Z 28
_cell_length_a 9.202988
_cell_length_b 18.215954
_cell_length_c 11.830799
_cell_angle_alpha 90.000000
_cell_angle_beta 149.790898
_cell_angle_gamma 90.000000
_cell_volume 997.926551
_symmetry_space_group_name_H-M "P 21/M"
_symmetry_group_IT_number 11
_symmetry_cell_setting 'monoclinic'
loop_
_space_group_symop_operation_xyz
x,y,z
-x,1/2+y,-z
-x,-y,-z
x,1/2-y,z
loop_
_atom_site_type_symbol
_atom_site_label
_atom_site_fract_x
_atom_site_fract_y
_atom_site_fract_z
Si Si1 0.563275 0.581315 0.004401
Si Si2 0.446718 0.953880 0.270025
Si Si3 0.225624 0.587877 0.544814
Si Si4 0.244814 0.166478 0.639125
Si Si5 0.006527 0.430576 0.877738
Si Si6 0.110005 0.830947 0.821321
Si Si7 0.285252 0.163401 0.246265
O O1 0.410367 0.601741 0.784128
O O2 0.436974 0.633638 0.022288
O O3 0.500000 0.500000 0.000000
O O4 0.914841 0.586342 0.202914
O O5 0.477862 0.873764 0.233050
O O6 0.331164 0.945870 0.322167
O O7 0.749782 0.999648 0.467293
O O8 0.198721 0.998006 0.036408
O O9 0.390757 0.631064 0.553752
O O10 0.897274 0.616413 0.354053
O O11 0.312280 0.250000 0.722968
O O12 0.005994 0.168830 0.382021
O O13 0.088601 0.360279 0.008921
O O14 0.164556 0.750000 0.906386
O O15 0.876090 0.868678 0.748424
O O16 0.319094 0.250000 0.276379
#
# Coordination Sequence:
#
# PCOD8071806 Si02
#       7
#     4   4   4   4   4   4   4
#     4   9  18  29  53  74 103 136 169 210 256 299
#     4   9  18  33  53  71 103 133 169 212 255 298
#     4   9  19  32  51  76 100 134 174 214 249 306
#     4  10  19  34  53  74 101 134 172 207 258 310
#     4   9  20  33  51  77 103 135 173 216 251 306
#     4   9  19  32  50  76 103 132 170 216 259 306
#     4   9  17  31  53  76 102 134 171 215 258 301
#
# _framework density 28.058178000000002
#
# number of rings (size 3 to 8) (size 9 to 14) (size 15 to 20)
#    0.000    3.143    0.000    0.857    8.000    4.000 
#    0.000    2.857    6.286    0.000    0.000    0.000 
#    0.000    0.000    0.000    0.000    0.000    0.000 
#
# Total GULP energy -346975.759200 kJ/mol
# GULP energy per Si atom -12391.991400 kJ/mol
# Density = 2.799432 g / cm^3
# Si number density = 28.058178 Si / 1000 Ang^3
#
#
#
# Elastic Constant Matrix: (Units=GPa)
#
#
# Indices 1 2 3 4 5 6 
#
# 1 261.1639 104.3636 77.3357 0.0000 45.6867 0.0000
# 2 104.3636 163.8165 17.1781 0.0000 31.6956 0.0000
# 3 77.3357 17.1781 120.0439 0.0000 42.8721 0.0000
# 4 0.0000 0.0000 0.0000 23.2425 0.0000 7.7303
# 5 45.6867 31.6956 42.8721 0.0000 61.0672 0.0000
# 6 0.0000 0.0000 0.0000 7.7303 0.0000 52.0359
#
#
#
# Elastic Compliance Matrix: (Units=1/GPa)
#
#
# Indices 1 2 3 4 5 6 
#
# 1 0.006364 -0.003600 -0.003405 0.000000 -0.000502 0.000000
# 2 -0.003600 0.008836 0.002310 0.000000 -0.003514 0.000000
# 3 -0.003405 0.002310 0.012962 0.000000 -0.007751 0.000000
# 4 0.000000 0.000000 0.000000 0.045261 0.000000 -0.006724
# 5 -0.000502 -0.003514 -0.007751 0.000000 0.024016 0.000000
# 6 0.000000 0.000000 0.000000 -0.006724 0.000000 0.020216
#
#
# Mechanical properties :
#
#
# Convention : Reuss Voigt Hill
#
# Bulk Modulus (GPa) = 53.27573 104.75325 79.01449
# Shear Modulus (GPa) = 37.50865 50.34558 43.92711
#
# Velocity S-wave (km/s) = 3.66022 4.24055 3.96102
# Velocity P-wave (km/s) = 6.07386 7.83528 7.01011
#
# Compressibility (1/GPa) = 0.01877027
#
# Stress axis : x y z
#
# Youngs Moduli (GPa) = 157.13866 113.17802 77.14995
#
# Poissons Ratio (x) = 0.40745 0.26273
# Poissons Ratio (y) = 0.56571 -0.17822
# Poissons Ratio (z) = 0.53512 -0.26144
#
# Static dielectric constant tensor:
#      x y z
#    x 6.526920 0.000000 0.257920 
#    y 0.000000 5.170320 0.000000 
#    z 0.257920 0.000000 5.621210 
# 
# 
# High freq. dielectric constant tensor:
#      x y z
#    x 2.196010 0.000000 -0.000760 
#    y 0.000000 2.110150 0.000000 
#    z -0.000760 0.000000 2.176750 
# 
# From -- ./inp_files/48039.got.cif
#   From: 2010.06.25/outbox.cif.g09.slc.cpg/sg11_25_cif.got.tgz:48039.got - 2010.06.27 23:14:04.
