data_PCOD8071290
_publ_section_title
;
Structure prediction by ZEFSAII (Michael W. Deem and Ramdas Pophale) SiO2 
 PCOD8071290
Probable space group: P 21/M
;
_chemical_formula_sum "Si O2"
_cell_formula_units_Z 32
_cell_length_a 5.279071
_cell_length_b 20.849012
_cell_length_c 17.801506
_cell_angle_alpha 90.000000
_cell_angle_beta 70.272864
_cell_angle_gamma 90.000000
_cell_volume 1844.305081
_symmetry_space_group_name_H-M "P 21/M"
_symmetry_group_IT_number 11
_symmetry_cell_setting 'monoclinic'
loop_
_space_group_symop_operation_xyz
x,y,z
-x,1/2+y,-z
-x,-y,-z
x,1/2-y,z
loop_
_atom_site_type_symbol
_atom_site_label
_atom_site_fract_x
_atom_site_fract_y
_atom_site_fract_z
Si Si1 0.292522 0.041175 0.193578
Si Si2 0.434684 0.678127 0.404915
Si Si3 0.885320 0.442435 0.110553
Si Si4 0.320989 0.554116 0.483869
Si Si5 0.908901 0.500481 0.632396
Si Si6 0.916977 0.908924 0.065859
Si Si7 0.989464 0.134382 0.674988
Si Si8 0.678393 0.393761 0.850781
O O1 0.576117 0.077927 0.155989
O O2 0.062643 0.075106 0.166313
O O3 0.217988 0.043255 0.289165
O O4 0.321368 0.969315 0.162154
O O5 0.403734 0.750000 0.439734
O O6 0.423425 0.627729 0.476293
O O7 0.184634 0.665428 0.374368
O O8 0.730729 0.671382 0.338092
O O9 0.896462 0.517437 0.091930
O O10 0.000687 0.402189 0.029250
O O11 0.500000 0.500000 0.500000
O O12 0.308658 0.536682 0.396655
O O13 0.051540 0.549572 0.560606
O O14 0.076488 0.440500 0.651136
O O15 0.146199 0.875478 0.093587
O O16 0.631785 0.872771 0.106377
O O17 0.805838 0.142004 0.766946
#
# Coordination Sequence:
#
# PCOD8071290 Si02
#       8
#     4   4   4   4   4   4   4   4
#     4   9  17  25  38  58  84 118 155 192 232 275
#     4  11  22  35  51  71  98 129 160 199 254 305
#     4   9  16  24  35  54  86 121 152 187 228 277
#     4  10  19  33  51  69  94 126 168 214 250 296
#     4   9  19  30  47  70  92 123 167 212 241 289
#     4   9  15  24  36  56  83 118 158 189 220 267
#     4  10  19  33  49  69  94 125 165 200 239 283
#     4   9  16  25  41  59  81 115 158 193 219 263
#
# _framework density 17.350708000000001
#
# number of rings (size 3 to 8) (size 9 to 14) (size 15 to 20)
#    0.000    2.500    1.250    1.875    1.750    6.000 
#    0.000    0.000    0.000    0.000    0.000    0.000 
#    0.000    0.000    0.000   22.500    0.500   17.500 
#
# Total GULP energy -396493.968471 kJ/mol
# GULP energy per Si atom -12390.436515 kJ/mol
# Density = 1.731122 g / cm^3
# Si number density = 17.350708 Si / 1000 Ang^3
#
#
#
# Elastic Constant Matrix: (Units=GPa)
#
#
# Indices 1 2 3 4 5 6 
#
# 1 117.7304 18.8597 45.8958 0.0000 -8.0587 0.0000
# 2 18.8597 65.3390 32.6336 0.0000 -6.2013 0.0000
# 3 45.8958 32.6336 117.0205 0.0000 4.2469 0.0000
# 4 0.0000 0.0000 0.0000 8.8315 0.0000 -0.7883
# 5 -8.0587 -6.2013 4.2469 0.0000 25.1072 0.0000
# 6 0.0000 0.0000 0.0000 -0.7883 0.0000 12.6441
#
#
#
# Elastic Compliance Matrix: (Units=1/GPa)
#
#
# Indices 1 2 3 4 5 6 
#
# 1 0.010444 -0.000615 -0.004066 0.000000 0.003888 0.000000
# 2 -0.000615 0.018537 -0.005119 0.000000 0.005247 0.000000
# 3 -0.004066 -0.005119 0.011733 0.000000 -0.004554 0.000000
# 4 0.000000 0.000000 0.000000 0.113864 0.000000 0.007099
# 5 0.003888 0.005247 -0.004554 0.000000 0.043143 0.000000
# 6 0.000000 0.000000 0.000000 0.007099 0.000000 0.079531
#
#
# Mechanical properties :
#
#
# Convention : Reuss Voigt Hill
#
# Bulk Modulus (GPa) = 47.36016 54.98536 51.17276
# Shear Modulus (GPa) = 16.45344 22.82997 19.64170
#
# Velocity S-wave (km/s) = 3.08277 3.63132 3.36823
# Velocity P-wave (km/s) = 6.32664 7.02434 6.68460
#
# Compressibility (1/GPa) = 0.02111479
#
# Stress axis : x y z
#
# Youngs Moduli (GPa) = 95.75296 53.94689 85.23148
#
# Poissons Ratio (x) = 0.03317 0.34652
# Poissons Ratio (y) = 0.05888 0.43627
# Poissons Ratio (z) = 0.38929 0.27613
#
# Static dielectric constant tensor:
#      x y z
#    x 2.077770 0.000000 5.909490 
#    y 0.000000 1.203920 0.000000 
#    z 5.909490 0.000000 -21.323080 
# 
# 
# High freq. dielectric constant tensor:
#      x y z
#    x 1.687770 0.000000 -0.003660 
#    y 0.000000 1.592570 0.000000 
#    z -0.003660 0.000000 1.666870 
# 
# From -- ./inp_files/57211.got.cif
#   From: 2010.06.25/outbox.cif.g09.slc.cpg/sg11_29_cif.got.tgz:57211.got - 2010.06.27 23:14:04.
