data_PCOD8071678
_publ_section_title
;
Structure prediction by ZEFSAII (Michael W. Deem and Ramdas Pophale) SiO2 
 PCOD8071678
Probable space group: P 21/M
;
_chemical_formula_sum "Si O2"
_cell_formula_units_Z 32
_cell_length_a 12.095687
_cell_length_b 9.072526
_cell_length_c 28.557640
_cell_angle_alpha 90.000000
_cell_angle_beta 34.400280
_cell_angle_gamma 90.000000
_cell_volume 1770.546184
_symmetry_space_group_name_H-M "P 21/M"
_symmetry_group_IT_number 11
_symmetry_cell_setting 'monoclinic'
loop_
_space_group_symop_operation_xyz
x,y,z
-x,1/2+y,-z
-x,-y,-z
x,1/2-y,z
loop_
_atom_site_type_symbol
_atom_site_label
_atom_site_fract_x
_atom_site_fract_y
_atom_site_fract_z
Si Si1 0.675989 0.923308 0.465008
Si Si2 0.248329 0.078641 0.131151
Si Si3 0.208768 0.921752 0.482481
Si Si4 0.182245 0.921678 0.958945
Si Si5 0.764283 0.917653 0.619043
Si Si6 0.086364 0.577467 0.274353
Si Si7 0.300221 0.919549 0.020312
Si Si8 0.592603 0.579381 0.776578
O O1 0.637858 0.750000 0.481791
O O2 0.872489 0.960256 0.368157
O O3 0.500000 0.000000 0.500000
O O4 0.686112 0.988494 0.513497
O O5 0.198515 0.250000 0.149927
O O6 0.105754 0.996312 0.216755
O O7 0.208378 0.019937 0.092878
O O8 0.471443 0.044981 0.067928
O O9 0.254322 0.750000 0.473106
O O10 0.978234 0.957083 0.564387
O O11 0.295742 0.975325 0.402332
O O12 0.161000 0.750000 0.956762
O O13 0.380526 0.980254 0.865585
O O14 0.185560 0.956849 0.012961
O O15 0.000000 0.000000 0.000000
O O16 0.763471 0.750000 0.600746
O O17 0.609856 0.940480 0.714707
O O18 0.121837 0.750000 0.256786
O O19 0.243360 0.514634 0.255400
O O20 0.275724 0.750000 0.043769
O O21 0.620650 0.750000 0.781863
#
# Coordination Sequence:
#
# PCOD8071678 Si02
#       8
#     4   4   4   4   4   4   4   4
#     4  11  24  40  58  82 114 149 187 229 280 339
#     4  10  19  33  56  83 111 143 184 229 277 331
#     4  10  19  33  56  83 113 147 184 226 278 332
#     4  10  21  37  56  80 113 149 185 226 273 328
#     4   9  18  32  55  83 112 145 184 231 276 324
#     4  11  22  35  56  86 114 141 182 234 280 327
#     4   9  18  34  54  79 112 146 184 230 277 322
#     4  10  19  36  58  82 111 146 188 230 274 327
#
# _framework density 18.073519000000001
#
# number of rings (size 3 to 8) (size 9 to 14) (size 15 to 20)
#    0.000    2.000    2.500    1.500    0.000    4.000 
#    0.000    1.250    0.000    3.000    0.000    0.000 
#    0.000    0.000    0.000    0.000    0.000    0.000 
#
# Total GULP energy -396923.328157 kJ/mol
# GULP energy per Si atom -12403.854005 kJ/mol
# Density = 1.803238 g / cm^3
# Si number density = 18.073519 Si / 1000 Ang^3
#
#
#
# Elastic Constant Matrix: (Units=GPa)
#
#
# Indices 1 2 3 4 5 6 
#
# 1 127.5119 67.3801 63.5329 0.0000 -0.4495 0.0000
# 2 67.3801 92.4241 62.2130 0.0000 1.4383 0.0000
# 3 63.5329 62.2130 99.1728 0.0000 4.2834 0.0000
# 4 0.0000 0.0000 0.0000 27.9524 0.0000 2.9520
# 5 -0.4495 1.4383 4.2834 0.0000 26.3588 0.0000
# 6 0.0000 0.0000 0.0000 2.9520 0.0000 37.9520
#
#
#
# Elastic Compliance Matrix: (Units=1/GPa)
#
#
# Indices 1 2 3 4 5 6 
#
# 1 0.013817 -0.007091 -0.004462 0.000000 0.001348 0.000000
# 2 -0.007091 0.022388 -0.009510 0.000000 0.000203 0.000000
# 3 -0.004462 -0.009510 0.019022 0.000000 -0.002648 0.000000
# 4 0.000000 0.000000 0.000000 0.036071 0.000000 -0.002806
# 5 0.001348 0.000203 -0.002648 0.000000 0.038380 0.000000
# 6 0.000000 0.000000 0.000000 -0.002806 0.000000 0.026567
#
#
# Mechanical properties :
#
#
# Convention : Reuss Voigt Hill
#
# Bulk Modulus (GPa) = 76.32906 78.37341 77.35124
# Shear Modulus (GPa) = 24.66230 26.85149 25.75689
#
# Velocity S-wave (km/s) = 3.69800 3.85863 3.77917
# Velocity P-wave (km/s) = 7.78189 7.95675 7.86981
#
# Compressibility (1/GPa) = 0.01310117
#
# Stress axis : x y z
#
# Youngs Moduli (GPa) = 72.37387 44.66750 52.57054
#
# Poissons Ratio (x) = 0.31673 0.23455
# Poissons Ratio (y) = 0.51319 0.49996
# Poissons Ratio (z) = 0.32291 0.42480
#
# Static dielectric constant tensor:
#      x y z
#    x 3.246850 0.000000 0.204630 
#    y 0.000000 3.366310 0.000000 
#    z 0.204630 0.000000 3.428310 
# 
# 
# High freq. dielectric constant tensor:
#      x y z
#    x 1.695810 0.000000 0.021940 
#    y 0.000000 1.705630 0.000000 
#    z 0.021940 0.000000 1.690270 
# 
# From -- ./inp_files/73129.got.cif
#   From: 2010.06.25/outbox.cif.g09.slc.cpg/sg11_37_cif.got.tgz:73129.got - 2010.06.27 23:14:04.
