data_PCOD8071781
_publ_section_title
;
Structure prediction by ZEFSAII (Michael W. Deem and Ramdas Pophale) SiO2 
 PCOD8071781
Probable space group: P 21/M
;
_chemical_formula_sum "Si O2"
_cell_formula_units_Z 20
_cell_length_a 15.251046
_cell_length_b 7.558208
_cell_length_c 29.088306
_cell_angle_alpha 90.000000
_cell_angle_beta 19.193570
_cell_angle_gamma 90.000000
_cell_volume 1102.342997
_symmetry_space_group_name_H-M "P 21/M"
_symmetry_group_IT_number 11
_symmetry_cell_setting 'monoclinic'
loop_
_space_group_symop_operation_xyz
x,y,z
-x,1/2+y,-z
-x,-y,-z
x,1/2-y,z
loop_
_atom_site_type_symbol
_atom_site_label
_atom_site_fract_x
_atom_site_fract_y
_atom_site_fract_z
Si Si1 0.695673 0.953734 0.598198
Si Si2 0.007238 0.250000 0.823826
Si Si3 0.470037 0.750000 0.876597
Si Si4 0.801952 0.057550 0.844298
Si Si5 0.445248 0.750000 0.398818
Si Si6 0.940748 0.750000 0.712871
Si Si7 0.682666 0.454539 0.707070
O O1 0.639836 0.750000 0.613866
O O2 0.007219 0.001445 0.440174
O O3 0.534963 0.074758 0.642193
O O4 0.592387 0.997979 0.700294
O O5 0.939572 0.075439 0.826584
O O6 0.316635 0.250000 0.682960
O O7 0.834942 0.250000 0.955782
O O8 0.514982 0.573280 0.824935
O O9 0.653916 0.750000 0.830646
O O10 0.806651 0.250000 0.817067
O O11 0.968684 0.922299 0.730917
O O12 0.500000 0.000000 0.000000
O O13 0.169258 0.750000 0.562373
O O14 0.624143 0.250000 0.746814
#
# Coordination Sequence:
#
# PCOD8071781 Si02
#       7
#     4   2   2   4   2   2   4
#     4  10  19  35  61  89 126 161 195 247 302 344
#     4  10  26  44  60  88 127 153 200 258 305 365
#     4  12  20  38  60  98 112 157 216 247 277 372
#     4  10  20  41  65  90 117 154 195 253 309 350
#     4  12  24  42  58  92 127 161 198 250 301 359
#     4  12  22  38  70  88 118 159 204 251 297 362
#     4  10  19  33  61  95 118 156 205 252 290 337
#
# _framework density 18.143172
#
# number of rings (size 3 to 8) (size 9 to 14) (size 15 to 20)
#    0.600    0.800    7.000    0.000    0.000    2.400 
#    3.600    1.000    0.000    0.000    0.000    0.000 
#    0.000    0.000    0.000    0.000    0.000    0.000 
#
# Total GULP energy -248012.473356 kJ/mol
# GULP energy per Si atom -12400.623668 kJ/mol
# Density = 1.810188 g / cm^3
# Si number density = 18.143172 Si / 1000 Ang^3
#
#
#
# Elastic Constant Matrix: (Units=GPa)
#
#
# Indices 1 2 3 4 5 6 
#
# 1 97.8867 47.7021 20.7092 0.0000 1.5360 0.0000
# 2 47.7021 138.7311 23.9801 0.0000 14.1353 0.0000
# 3 20.7092 23.9801 35.6009 0.0000 10.1488 0.0000
# 4 0.0000 0.0000 0.0000 22.1877 0.0000 11.3341
# 5 1.5360 14.1353 10.1488 0.0000 33.0913 0.0000
# 6 0.0000 0.0000 0.0000 11.3341 0.0000 41.0911
#
#
#
# Elastic Compliance Matrix: (Units=1/GPa)
#
#
# Indices 1 2 3 4 5 6 
#
# 1 0.013302 -0.003832 -0.005969 0.000000 0.002850 0.000000
# 2 -0.003832 0.009381 -0.003285 0.000000 -0.002822 0.000000
# 3 -0.005969 -0.003285 0.036485 0.000000 -0.009509 0.000000
# 4 0.000000 0.000000 0.000000 0.052462 0.000000 -0.014471
# 5 0.002850 -0.002822 -0.009509 0.000000 0.034209 0.000000
# 6 0.000000 0.000000 0.000000 -0.014471 0.000000 0.028328
#
#
# Mechanical properties :
#
#
# Convention : Reuss Voigt Hill
#
# Bulk Modulus (GPa) = 30.30763 50.77795 40.54279
# Shear Modulus (GPa) = 23.65889 31.26252 27.46070
#
# Velocity S-wave (km/s) = 3.61503 4.15553 3.89466
# Velocity P-wave (km/s) = 5.84513 7.14651 6.52833
#
# Compressibility (1/GPa) = 0.03299500
#
# Stress axis : x y z
#
# Youngs Moduli (GPa) = 75.17949 106.59458 27.40861
#
# Poissons Ratio (x) = 0.40851 0.16359
# Poissons Ratio (y) = 0.28812 0.09005
# Poissons Ratio (z) = 0.44872 0.35020
#
# Static dielectric constant tensor:
#      x y z
#    x 3.296010 0.000000 0.214680 
#    y 0.000000 3.550410 0.000000 
#    z 0.214680 0.000000 3.008750 
# 
# 
# High freq. dielectric constant tensor:
#      x y z
#    x 1.696150 0.000000 0.021640 
#    y 0.000000 1.714180 0.000000 
#    z 0.021640 0.000000 1.676240 
# 
# From -- ./inp_files/71502.got.cif
#   From: 2010.06.25/outbox.cif.g09.slc.cpg/sg11_36_cif.got.tgz:71502.got - 2010.06.27 23:14:04.
