data_PCOD8071683
_publ_section_title
;
Structure prediction by ZEFSAII (Michael W. Deem and Ramdas Pophale) SiO2 
 PCOD8071683
Probable space group: P 21/M
;
_chemical_formula_sum "Si O2"
_cell_formula_units_Z 28
_cell_length_a 9.589090
_cell_length_b 13.607570
_cell_length_c 15.457726
_cell_angle_alpha 90.000000
_cell_angle_beta 135.248149
_cell_angle_gamma 90.000000
_cell_volume 1420.036384
_symmetry_space_group_name_H-M "P 21/M"
_symmetry_group_IT_number 11
_symmetry_cell_setting 'monoclinic'
loop_
_space_group_symop_operation_xyz
x,y,z
-x,1/2+y,-z
-x,-y,-z
x,1/2-y,z
loop_
_atom_site_type_symbol
_atom_site_label
_atom_site_fract_x
_atom_site_fract_y
_atom_site_fract_z
Si Si1 0.991071 0.144317 0.744320
Si Si2 0.270468 0.033098 0.092594
Si Si3 0.894637 0.357964 0.901656
Si Si4 0.269514 0.517194 0.900248
Si Si5 0.029404 0.636827 0.666840
Si Si6 0.316390 0.521967 0.481881
Si Si7 0.360451 0.634569 0.676659
O O1 0.057210 0.250000 0.738136
O O2 0.939999 0.148996 0.821601
O O3 0.796558 0.113470 0.608167
O O4 0.173274 0.072934 0.804917
O O5 0.472524 0.095444 0.182626
O O6 0.279116 0.938461 0.160303
O O7 0.211241 0.985268 0.974534
O O8 0.091964 0.106610 0.040033
O O9 0.831270 0.250000 0.908464
O O10 0.178277 0.613154 0.813045
O O11 0.500000 0.500000 0.000000
O O12 0.965101 0.750000 0.648418
O O13 0.148328 0.620851 0.629337
O O14 0.828548 0.572716 0.576493
O O15 0.500000 0.500000 0.500000
O O16 0.383131 0.562264 0.604725
O O17 0.396883 0.750000 0.670547
#
# Coordination Sequence:
#
# PCOD8071683 Si02
#       7
#     4   4   4   4   4   4   4
#     4   9  19  35  55  78 108 146 187 231 285 345
#     4  10  19  33  56  83 116 152 191 240 294 351
#     4   9  18  33  52  79 114 149 187 236 295 354
#     4  10  19  35  57  84 115 148 187 238 287 347
#     4  10  23  41  62  88 120 158 201 251 303 358
#     4  11  23  40  61  87 117 155 201 251 300 347
#     4  11  22  38  62  87 117 158 202 245 300 362
#
# _framework density 19.717804000000001
#
# number of rings (size 3 to 8) (size 9 to 14) (size 15 to 20)
#    0.000    2.000    1.429    2.143    0.000    4.000 
#    0.000    0.714    0.000    0.000    0.000    0.000 
#    0.000    0.000    0.000    0.000    0.000    0.000 
#
# Total GULP energy -346980.748056 kJ/mol
# GULP energy per Si atom -12392.169573 kJ/mol
# Density = 1.967293 g / cm^3
# Si number density = 19.717804 Si / 1000 Ang^3
#
#
#
# Elastic Constant Matrix: (Units=GPa)
#
#
# Indices 1 2 3 4 5 6 
#
# 1 87.5115 41.0121 25.1076 0.0000 9.0584 0.0000
# 2 41.0121 129.7966 33.7063 0.0000 -2.3851 0.0000
# 3 25.1076 33.7063 76.7401 0.0000 -1.0102 0.0000
# 4 0.0000 0.0000 0.0000 26.3506 0.0000 0.8725
# 5 9.0584 -2.3851 -1.0102 0.0000 23.1660 0.0000
# 6 0.0000 0.0000 0.0000 0.8725 0.0000 16.1961
#
#
#
# Elastic Compliance Matrix: (Units=1/GPa)
#
#
# Indices 1 2 3 4 5 6 
#
# 1 0.014871 -0.003985 -0.003199 0.000000 -0.006365 0.000000
# 2 -0.003985 0.009777 -0.002958 0.000000 0.002436 0.000000
# 3 -0.003199 -0.002958 0.015398 0.000000 0.001618 0.000000
# 4 0.000000 0.000000 0.000000 0.038018 0.000000 -0.002048
# 5 -0.006365 0.002436 0.001618 0.000000 0.045977 0.000000
# 6 0.000000 0.000000 0.000000 -0.002048 0.000000 0.061854
#
#
# Mechanical properties :
#
#
# Convention : Reuss Voigt Hill
#
# Bulk Modulus (GPa) = 50.60351 54.85558 52.72954
# Shear Modulus (GPa) = 23.50001 26.09069 24.79535
#
# Velocity S-wave (km/s) = 3.45602 3.64153 3.54999
# Velocity P-wave (km/s) = 6.45329 6.74994 6.60328
#
# Compressibility (1/GPa) = 0.01976148
#
# Stress axis : x y z
#
# Youngs Moduli (GPa) = 67.24350 102.28595 64.94257
#
# Poissons Ratio (x) = 0.40763 0.20775
# Poissons Ratio (y) = 0.26798 0.19211
# Poissons Ratio (z) = 0.21511 0.30258
#
# Static dielectric constant tensor:
#      x y z
#    x 3.521770 0.000000 -0.097760 
#    y 0.000000 3.968400 0.000000 
#    z -0.097760 0.000000 3.609340 
# 
# 
# High freq. dielectric constant tensor:
#      x y z
#    x 1.756990 0.000000 -0.000290 
#    y 0.000000 1.777490 0.000000 
#    z -0.000290 0.000000 1.765890 
# 
# From -- ./inp_files/47678.got.cif
#   From: 2010.06.25/outbox.cif.g09.slc.cpg/sg11_24_cif.got.tgz:47678.got - 2010.06.27 23:14:04.
