data_PCOD8071473
_publ_section_title
;
Structure prediction by ZEFSAII (Michael W. Deem and Ramdas Pophale) SiO2 
 PCOD8071473
Probable space group: P 21/M
;
_chemical_formula_sum "Si O2"
_cell_formula_units_Z 32
_cell_length_a 21.105972
_cell_length_b 9.052352
_cell_length_c 22.871944
_cell_angle_alpha 90.000000
_cell_angle_beta 24.282914
_cell_angle_gamma 90.000000
_cell_volume 1797.082094
_symmetry_space_group_name_H-M "P 21/M"
_symmetry_group_IT_number 11
_symmetry_cell_setting 'monoclinic'
loop_
_space_group_symop_operation_xyz
x,y,z
-x,1/2+y,-z
-x,-y,-z
x,1/2-y,z
loop_
_atom_site_type_symbol
_atom_site_label
_atom_site_fract_x
_atom_site_fract_y
_atom_site_fract_z
Si Si1 0.664780 0.081343 0.235020
Si Si2 0.661553 0.575105 0.850481
Si Si3 0.772711 0.423438 0.268691
Si Si4 0.896941 0.918216 0.964169
Si Si5 0.130371 0.081403 0.424175
Si Si6 0.685157 0.579216 0.457077
Si Si7 0.064274 0.575763 0.308277
Si Si8 0.034758 0.923734 0.724613
O O1 0.714993 0.250000 0.194995
O O2 0.715073 0.012769 0.255180
O O3 0.484948 0.061053 0.373952
O O4 0.752052 0.010512 0.107318
O O5 0.650854 0.750000 0.872167
O O6 0.704491 0.543176 0.745139
O O7 0.792392 0.503312 0.780997
O O8 0.500000 0.500000 0.000000
O O9 0.735711 0.250000 0.308662
O O10 0.683320 0.513704 0.393501
O O11 0.954544 0.454173 0.121149
O O12 0.848803 0.750000 0.011255
O O13 0.930811 0.957347 0.868522
O O14 0.095802 0.250000 0.440808
O O15 0.099485 0.047858 0.519034
O O16 0.000000 0.000000 0.500000
O O17 0.736274 0.750000 0.411792
O O18 0.795856 0.489629 0.407306
O O19 0.099261 0.750000 0.273428
O O20 0.047732 0.504779 0.259037
O O21 0.050561 0.750000 0.699086
#
# Coordination Sequence:
#
# PCOD8071473 Si02
#       8
#     4   4   4   4   4   4   4   4
#     4  10  20  32  49  74 102 128 162 208 259 308
#     4  10  19  33  53  81 115 145 170 205 250 294
#     4   9  18  33  50  72 100 130 164 206 254 309
#     4   9  19  33  50  71  98 131 168 207 252 305
#     4   8  16  30  50  76 105 133 165 203 243 286
#     4  10  20  33  50  74  99 128 166 209 253 302
#     4  10  19  34  57  81 102 133 174 212 250 299
#     4  10  21  38  55  73  98 132 172 212 252 301
#
# _framework density 17.806643999999999
#
# number of rings (size 3 to 8) (size 9 to 14) (size 15 to 20)
#    0.000    2.500    0.000    3.000    0.000    5.000 
#    0.000    1.250    0.000    1.500    0.000    0.000 
#    0.000    0.000    0.000    0.000    0.000    0.000 
#
# Total GULP energy -396596.312451 kJ/mol
# GULP energy per Si atom -12393.634764 kJ/mol
# Density = 1.776612 g / cm^3
# Si number density = 17.806644 Si / 1000 Ang^3
#
#
#
# Elastic Constant Matrix: (Units=GPa)
#
#
# Indices 1 2 3 4 5 6 
#
# 1 87.9690 44.4870 49.4370 0.0000 4.4885 0.0000
# 2 44.4870 88.5523 61.9915 0.0000 2.2181 0.0000
# 3 49.4370 61.9915 124.0827 0.0000 2.2831 0.0000
# 4 0.0000 0.0000 0.0000 31.6140 0.0000 -0.7719
# 5 4.4885 2.2181 2.2831 0.0000 12.8883 0.0000
# 6 0.0000 0.0000 0.0000 -0.7719 0.0000 28.8347
#
#
#
# Elastic Compliance Matrix: (Units=1/GPa)
#
#
# Indices 1 2 3 4 5 6 
#
# 1 0.016483 -0.005587 -0.003700 0.000000 -0.004123 0.000000
# 2 -0.005587 0.019288 -0.007409 0.000000 -0.000061 0.000000
# 3 -0.003700 -0.007409 0.013231 0.000000 0.000220 0.000000
# 4 0.000000 0.000000 0.000000 0.031652 0.000000 0.000847
# 5 -0.004123 -0.000061 0.000220 0.000000 0.078997 0.000000
# 6 0.000000 0.000000 0.000000 0.000847 0.000000 0.034703
#
#
# Mechanical properties :
#
#
# Convention : Reuss Voigt Hill
#
# Bulk Modulus (GPa) = 64.06465 68.04833 66.05649
# Shear Modulus (GPa) = 21.46388 24.31330 22.88859
#
# Velocity S-wave (km/s) = 3.47563 3.69915 3.58913
# Velocity P-wave (km/s) = 7.22238 7.51951 7.37244
#
# Compressibility (1/GPa) = 0.01560923
#
# Stress axis : x y z
#
# Youngs Moduli (GPa) = 60.66928 51.84582 75.58175
#
# Poissons Ratio (x) = 0.28968 0.27964
# Poissons Ratio (y) = 0.33898 0.55999
# Poissons Ratio (z) = 0.22446 0.38413
#
# Static dielectric constant tensor:
#      x y z
#    x 3.185090 0.000000 0.263070 
#    y 0.000000 3.381570 0.000000 
#    z 0.263070 0.000000 3.479700 
# 
# 
# High freq. dielectric constant tensor:
#      x y z
#    x 1.667590 0.000000 0.011950 
#    y 0.000000 1.698860 0.000000 
#    z 0.011950 0.000000 1.691560 
# 
# From -- ./inp_files/69955.got.cif
#   From: 2010.06.25/outbox.cif.g09.slc.cpg/sg11_35_cif.got.tgz:69955.got - 2010.06.27 23:14:04.
