data_PCOD8071714
_publ_section_title
;
Structure prediction by ZEFSAII (Michael W. Deem and Ramdas Pophale) SiO2 
 PCOD8071714
Probable space group: P 21/M
;
_chemical_formula_sum "Si O2"
_cell_formula_units_Z 28
_cell_length_a 11.558737
_cell_length_b 9.199592
_cell_length_c 15.069196
_cell_angle_alpha 90.000000
_cell_angle_beta 63.197710
_cell_angle_gamma 90.000000
_cell_volume 1430.244362
_symmetry_space_group_name_H-M "P 21/M"
_symmetry_group_IT_number 11
_symmetry_cell_setting 'monoclinic'
loop_
_space_group_symop_operation_xyz
x,y,z
-x,1/2+y,-z
-x,-y,-z
x,1/2-y,z
loop_
_atom_site_type_symbol
_atom_site_label
_atom_site_fract_x
_atom_site_fract_y
_atom_site_fract_z
Si Si1 0.386609 0.080316 0.287662
Si Si2 0.801571 0.919937 0.052281
Si Si3 0.954923 0.418409 0.141708
Si Si4 0.481422 0.076720 0.913012
Si Si5 0.546116 0.086158 0.399515
Si Si6 0.171737 0.586983 0.641073
Si Si7 0.129692 0.081366 0.481230
O O1 0.410247 0.250000 0.257760
O O2 0.484377 0.023113 0.330540
O O3 0.239059 0.052943 0.369541
O O4 0.410805 0.984303 0.192047
O O5 0.804399 0.750000 0.069129
O O6 0.659302 0.971105 0.073699
O O7 0.843303 0.995571 0.128636
O O8 0.901742 0.965028 0.939394
O O9 0.929112 0.250000 0.131284
O O10 0.945148 0.451026 0.250640
O O11 0.495541 0.250000 0.917822
O O12 0.500000 0.000000 0.000000
O O13 0.494223 0.250000 0.428412
O O14 0.700788 0.078443 0.341630
O O15 0.500000 0.000000 0.500000
O O16 0.154633 0.750000 0.607698
O O17 0.180142 0.474021 0.558550
O O18 0.098095 0.250000 0.501137
O O19 0.000000 0.000000 0.500000
#
# Coordination Sequence:
#
# PCOD8071714 Si02
#       7
#     4   4   4   4   4   4   4
#     4  10  22  41  62  86 117 154 194 242 296 347
#     4   9  19  36  56  83 115 147 187 235 288 339
#     4   9  18  34  58  84 114 150 185 229 285 343
#     4  11  24  40  60  86 117 155 198 245 293 348
#     4  10  19  33  56  86 118 150 189 237 291 346
#     4  10  20  34  56  86 117 151 190 231 282 347
#     4  11  24  41  60  82 114 153 194 239 287 346
#
# _framework density 19.577075000000001
#
# number of rings (size 3 to 8) (size 9 to 14) (size 15 to 20)
#    0.000    2.000    1.429    1.714    0.000    5.714 
#    0.000    2.857    0.000    0.000    0.000    0.000 
#    0.000    0.000    0.000    0.000    0.000    0.000 
#
# Total GULP energy -347235.351590 kJ/mol
# GULP energy per Si atom -12401.262557 kJ/mol
# Density = 1.953252 g / cm^3
# Si number density = 19.577075 Si / 1000 Ang^3
#
#
#
# Elastic Constant Matrix: (Units=GPa)
#
#
# Indices 1 2 3 4 5 6 
#
# 1 93.3041 45.9345 40.9749 0.0000 -3.3744 0.0000
# 2 45.9345 84.0771 61.3463 0.0000 -0.7284 0.0000
# 3 40.9749 61.3463 135.2652 0.0000 -0.5515 0.0000
# 4 0.0000 0.0000 0.0000 35.5725 0.0000 3.0603
# 5 -3.3744 -0.7284 -0.5515 0.0000 24.7710 0.0000
# 6 0.0000 0.0000 0.0000 3.0603 0.0000 32.3248
#
#
#
# Elastic Compliance Matrix: (Units=1/GPa)
#
#
# Indices 1 2 3 4 5 6 
#
# 1 0.014873 -0.007216 -0.001225 0.000000 0.001787 0.000000
# 2 -0.007216 0.021280 -0.007467 0.000000 -0.000524 0.000000
# 3 -0.001225 -0.007467 0.011150 0.000000 -0.000138 0.000000
# 4 0.000000 0.000000 0.000000 0.028342 0.000000 -0.002683
# 5 0.001787 -0.000524 -0.000138 0.000000 0.040595 0.000000
# 6 0.000000 0.000000 0.000000 -0.002683 0.000000 0.031190
#
#
# Mechanical properties :
#
#
# Convention : Reuss Voigt Hill
#
# Bulk Modulus (GPa) = 64.57579 67.68420 66.13000
# Shear Modulus (GPa) = 27.11348 29.49303 28.30326
#
# Velocity S-wave (km/s) = 3.72554 3.88559 3.80641
# Velocity P-wave (km/s) = 7.18076 7.40126 7.29184
#
# Compressibility (1/GPa) = 0.01548568
#
# Stress axis : x y z
#
# Youngs Moduli (GPa) = 67.23625 46.99195 89.68477
#
# Poissons Ratio (x) = 0.33910 0.10990
# Poissons Ratio (y) = 0.48518 0.66971
# Poissons Ratio (z) = 0.08239 0.35091
#
# Static dielectric constant tensor:
#      x y z
#    x 3.688670 0.000000 -0.144550 
#    y 0.000000 3.456970 0.000000 
#    z -0.144550 0.000000 3.648020 
# 
# 
# High freq. dielectric constant tensor:
#      x y z
#    x 1.758930 0.000000 -0.009640 
#    y 0.000000 1.758690 0.000000 
#    z -0.009640 0.000000 1.770210 
# 
# From -- ./inp_files/48897.got.cif
#   From: 2010.06.25/outbox.cif.g09.slc.cpg/sg11_25_cif.got.tgz:48897.got - 2010.06.27 23:14:04.
