data_PCOD8071069
_publ_section_title
;
Structure prediction by ZEFSAII (Michael W. Deem and Ramdas Pophale) SiO2 
 PCOD8071069
Probable space group: P 21/M
;
_chemical_formula_sum "Si O2"
_cell_formula_units_Z 28
_cell_length_a 14.142341
_cell_length_b 8.787715
_cell_length_c 18.936400
_cell_angle_alpha 90.000000
_cell_angle_beta 42.178755
_cell_angle_gamma 90.000000
_cell_volume 1580.176814
_symmetry_space_group_name_H-M "P 21/M"
_symmetry_group_IT_number 11
_symmetry_cell_setting 'monoclinic'
loop_
_space_group_symop_operation_xyz
x,y,z
-x,1/2+y,-z
-x,-y,-z
x,1/2-y,z
loop_
_atom_site_type_symbol
_atom_site_label
_atom_site_fract_x
_atom_site_fract_y
_atom_site_fract_z
Si Si1 0.703153 0.575695 0.398470
Si Si2 0.490272 0.425190 0.618326
Si Si3 0.516914 0.927040 0.884380
Si Si4 0.280587 0.073456 0.100167
Si Si5 0.000289 0.074141 0.706663
Si Si6 0.613209 0.571755 0.676790
Si Si7 0.087587 0.570603 0.514635
O O1 0.664541 0.750000 0.439872
O O2 0.624606 0.464939 0.495826
O O3 0.652905 0.540891 0.346170
O O4 0.869378 0.546535 0.312343
O O5 0.501135 0.250000 0.634547
O O6 0.490897 0.526713 0.688938
O O7 0.476689 0.750000 0.908413
O O8 0.643664 0.963345 0.867656
O O9 0.566020 0.980937 0.780293
O O10 0.379362 0.022730 0.980906
O O11 0.245210 0.250000 0.111875
O O12 0.137509 0.978320 0.175150
O O13 0.988124 0.250000 0.691736
O O14 0.015846 0.976212 0.627486
O O15 0.644009 0.750000 0.657639
O O16 0.752768 0.485060 0.575916
O O17 0.082156 0.750000 0.510394
O O18 0.000000 0.500000 0.500000
#
# Coordination Sequence:
#
# PCOD8071069 Si02
#       7
#     4   4   4   4   4   4   4
#     4   9  19  34  52  75 106 142 179 218 266 319
#     4  10  19  32  52  78 106 139 179 223 265 316
#     4   9  20  37  55  75 103 140 179 218 264 317
#     4  10  20  35  56  80 105 136 179 225 265 313
#     4  11  21  35  55  78 108 143 177 217 266 320
#     4  11  21  35  54  78 109 143 177 218 268 323
#     4  12  24  36  51  76 109 144 178 215 263 319
#
# _framework density 17.719536000000002
#
# number of rings (size 3 to 8) (size 9 to 14) (size 15 to 20)
#    0.000    1.714    1.429    3.857    0.000    4.000 
#    0.000    0.000    0.000    0.857    0.000    0.000 
#    0.000    0.000    0.000    0.000    0.000    0.000 
#
# Total GULP energy -347309.964523 kJ/mol
# GULP energy per Si atom -12403.927304 kJ/mol
# Density = 1.767921 g / cm^3
# Si number density = 17.719536 Si / 1000 Ang^3
#
#
#
# Elastic Constant Matrix: (Units=GPa)
#
#
# Indices 1 2 3 4 5 6 
#
# 1 92.0328 34.1867 31.1640 0.0000 -10.1450 0.0000
# 2 34.1867 84.1148 28.8797 0.0000 -6.5096 0.0000
# 3 31.1640 28.8797 72.1414 0.0000 -9.0134 0.0000
# 4 0.0000 0.0000 0.0000 27.9323 0.0000 0.4841
# 5 -10.1450 -6.5096 -9.0134 0.0000 23.9589 0.0000
# 6 0.0000 0.0000 0.0000 0.4841 0.0000 28.9922
#
#
#
# Elastic Compliance Matrix: (Units=1/GPa)
#
#
# Indices 1 2 3 4 5 6 
#
# 1 0.014125 -0.004093 -0.004045 0.000000 0.003347 0.000000
# 2 -0.004093 0.015039 -0.004154 0.000000 0.000790 0.000000
# 3 -0.004045 -0.004154 0.017751 0.000000 0.003837 0.000000
# 4 0.000000 0.000000 0.000000 0.035811 0.000000 -0.000598
# 5 0.003347 0.000790 0.003837 0.000000 0.044814 0.000000
# 6 0.000000 0.000000 0.000000 -0.000598 0.000000 0.034502
#
#
# Mechanical properties :
#
#
# Convention : Reuss Voigt Hill
#
# Bulk Modulus (GPa) = 44.77872 48.52774 46.65323
# Shear Modulus (GPa) = 25.76401 26.44726 26.10564
#
# Velocity S-wave (km/s) = 3.81726 3.86754 3.84248
# Velocity P-wave (km/s) = 6.68986 6.88403 6.78764
#
# Compressibility (1/GPa) = 0.02233204
#
# Stress axis : x y z
#
# Youngs Moduli (GPa) = 70.79796 66.49264 56.33414
#
# Poissons Ratio (x) = 0.27214 0.22787
# Poissons Ratio (y) = 0.28977 0.23400
# Poissons Ratio (z) = 0.28638 0.27619
#
# Static dielectric constant tensor:
#      x y z
#    x 3.552390 0.000000 0.027500 
#    y 0.000000 3.363600 0.000000 
#    z 0.027500 0.000000 3.103400 
# 
# 
# High freq. dielectric constant tensor:
#      x y z
#    x 1.688820 0.000000 -0.000140 
#    y 0.000000 1.697960 0.000000 
#    z -0.000140 0.000000 1.661710 
# 
# From -- ./inp_files/60075.got.cif
#   From: 2010.06.25/outbox.cif.g09.slc.cpg/sg11_31_cif.got.tgz:60075.got - 2010.06.27 23:14:04.
