data_PCOD8071698
_publ_section_title
;
Structure prediction by ZEFSAII (Michael W. Deem and Ramdas Pophale) SiO2 
 PCOD8071698
Probable space group: P 21/M
;
_chemical_formula_sum "Si O2"
_cell_formula_units_Z 32
_cell_length_a 28.639971
_cell_length_b 8.900025
_cell_length_c 12.166832
_cell_angle_alpha 90.000000
_cell_angle_beta 145.789206
_cell_angle_gamma 90.000000
_cell_volume 1743.662470
_symmetry_space_group_name_H-M "P 21/M"
_symmetry_group_IT_number 11
_symmetry_cell_setting 'monoclinic'
loop_
_space_group_symop_operation_xyz
x,y,z
-x,1/2+y,-z
-x,-y,-z
x,1/2-y,z
loop_
_atom_site_type_symbol
_atom_site_label
_atom_site_fract_x
_atom_site_fract_y
_atom_site_fract_z
Si Si1 0.003417 0.075189 0.678050
Si Si2 0.632183 0.424339 0.249043
Si Si3 0.460013 0.926333 0.317003
Si Si4 0.871808 0.575978 0.265980
Si Si5 0.522245 0.576287 0.203953
Si Si6 0.775359 0.575252 0.406712
Si Si7 0.725518 0.428188 0.082841
Si Si8 0.033778 0.425548 0.174884
O O1 0.980473 0.250000 0.642887
O O2 0.089085 0.051743 0.778142
O O3 0.929329 0.991971 0.472356
O O4 0.015265 0.002670 0.820093
O O5 0.655124 0.250000 0.299968
O O6 0.594949 0.476203 0.293309
O O7 0.715087 0.517571 0.385813
O O8 0.566043 0.458335 0.024378
O O9 0.457397 0.750000 0.330172
O O10 0.514999 0.967380 0.317531
O O11 0.500000 0.000000 0.500000
O O12 0.367051 0.988186 0.119168
O O13 0.859868 0.750000 0.271005
O O14 0.783215 0.493084 0.097606
O O15 0.545502 0.750000 0.232230
O O16 0.759496 0.750000 0.353962
O O17 0.758258 0.484818 0.262950
O O18 0.868497 0.543078 0.626756
O O19 0.728826 0.250000 0.089614
O O20 0.013228 0.250000 0.134878
O O21 0.000000 0.500000 0.000000
#
# Coordination Sequence:
#
# PCOD8071698 Si02
#       8
#     4   4   4   4   4   4   4   4
#     4  10  20  35  57  83 116 153 189 232 284 336
#     4  10  19  33  56  85 113 143 186 233 281 334
#     4  10  22  39  57  82 115 151 190 231 281 340
#     4  10  20  34  55  87 117 146 189 236 285 337
#     4   9  18  35  54  79 115 148 184 231 282 332
#     4  11  22  36  57  86 115 146 188 235 282 337
#     4  11  21  36  58  85 115 148 190 238 283 333
#     4  11  24  40  59  84 116 151 193 235 285 347
#
# _framework density 18.352177000000001
#
# number of rings (size 3 to 8) (size 9 to 14) (size 15 to 20)
#    0.000    1.750    2.500    2.250    0.000    5.000 
#    0.000    1.250    0.000    1.500    0.000    0.000 
#    0.000    0.000    0.000    0.000    0.000    0.000 
#
# Total GULP energy -396920.945854 kJ/mol
# GULP energy per Si atom -12403.779558 kJ/mol
# Density = 1.831041 g / cm^3
# Si number density = 18.352177 Si / 1000 Ang^3
#
#
#
# Elastic Constant Matrix: (Units=GPa)
#
#
# Indices 1 2 3 4 5 6 
#
# 1 132.9983 59.3001 57.9457 0.0000 -3.7515 0.0000
# 2 59.3001 94.3331 49.5367 0.0000 1.5515 0.0000
# 3 57.9457 49.5367 86.1250 0.0000 -7.9822 0.0000
# 4 0.0000 0.0000 0.0000 29.3209 0.0000 -0.3655
# 5 -3.7515 1.5515 -7.9822 0.0000 30.7506 0.0000
# 6 0.0000 0.0000 0.0000 -0.3655 0.0000 38.4940
#
#
#
# Elastic Compliance Matrix: (Units=1/GPa)
#
#
# Indices 1 2 3 4 5 6 
#
# 1 0.011941 -0.004741 -0.005277 0.000000 0.000326 0.000000
# 2 -0.004741 0.017366 -0.007105 0.000000 -0.003299 0.000000
# 3 -0.005277 -0.007105 0.019695 0.000000 0.004827 0.000000
# 4 0.000000 0.000000 0.000000 0.034109 0.000000 0.000324
# 5 0.000326 -0.003299 0.004827 0.000000 0.033979 0.000000
# 6 0.000000 0.000000 0.000000 0.000324 0.000000 0.025981
#
#
# Mechanical properties :
#
#
# Convention : Reuss Voigt Hill
#
# Bulk Modulus (GPa) = 67.76206 71.89128 69.82667
# Shear Modulus (GPa) = 27.43706 29.49135 28.46421
#
# Velocity S-wave (km/s) = 3.87076 4.01305 3.94254
# Velocity P-wave (km/s) = 7.54853 7.79301 7.67174
#
# Compressibility (1/GPa) = 0.01475752
#
# Stress axis : x y z
#
# Youngs Moduli (GPa) = 83.74537 57.58434 50.77363
#
# Poissons Ratio (x) = 0.27298 0.26794
# Poissons Ratio (y) = 0.39700 0.36072
# Poissons Ratio (z) = 0.44193 0.40911
#
# Static dielectric constant tensor:
#      x y z
#    x 3.713500 0.000000 0.172780 
#    y 0.000000 3.622240 0.000000 
#    z 0.172780 0.000000 3.254530 
# 
# 
# High freq. dielectric constant tensor:
#      x y z
#    x 1.728350 0.000000 0.008840 
#    y 0.000000 1.723830 0.000000 
#    z 0.008840 0.000000 1.681320 
# 
# From -- ./inp_files/45282.got.cif
#   From: 2010.06.25/outbox.cif.g09.slc.cpg/sg11_23_cif.got.tgz:45282.got - 2010.06.27 23:14:04.
