data_PCOD8071657
_publ_section_title
;
Structure prediction by ZEFSAII (Michael W. Deem and Ramdas Pophale) SiO2 
 PCOD8071657
Probable space group: P 21/M
;
_chemical_formula_sum "Si O2"
_cell_formula_units_Z 28
_cell_length_a 12.253070
_cell_length_b 18.167576
_cell_length_c 8.028948
_cell_angle_alpha 90.000000
_cell_angle_beta 43.386975
_cell_angle_gamma 90.000000
_cell_volume 1227.745001
_symmetry_space_group_name_H-M "P 21/M"
_symmetry_group_IT_number 11
_symmetry_cell_setting 'monoclinic'
loop_
_space_group_symop_operation_xyz
x,y,z
-x,1/2+y,-z
-x,-y,-z
x,1/2-y,z
loop_
_atom_site_type_symbol
_atom_site_label
_atom_site_fract_x
_atom_site_fract_y
_atom_site_fract_z
Si Si1 0.217017 0.899574 0.404145
Si Si2 0.656368 0.935064 0.228013
Si Si3 0.093005 0.168171 0.164901
Si Si4 0.788327 0.556550 0.428846
Si Si5 0.541519 0.446945 0.103895
Si Si6 0.964346 0.331639 0.933279
Si Si7 0.633448 0.164127 0.439446
O O1 0.324601 0.857336 0.418416
O O2 0.050784 0.858401 0.557223
O O3 0.176911 0.982168 0.509356
O O4 0.312657 0.896488 0.121819
O O5 0.767416 0.962771 0.256089
O O6 0.516069 0.883265 0.456055
O O7 0.585456 0.006453 0.218659
O O8 0.758738 0.887294 0.981914
O O9 0.145478 0.250000 0.161655
O O10 0.034477 0.168257 0.040577
O O11 0.623754 0.595651 0.672932
O O12 0.937396 0.611232 0.290060
O O13 0.500000 0.500000 0.000000
O O14 0.982476 0.250000 0.836000
O O15 0.778756 0.353679 0.152027
O O16 0.589844 0.250000 0.481948
#
# Coordination Sequence:
#
# PCOD8071657 Si02
#       7
#     4   4   4   4   4   4   4
#     4  10  20  37  57  81 112 150 183 225 280 337
#     4  11  20  34  58  86 110 142 187 239 281 319
#     4   9  19  35  57  83 111 145 192 230 269 331
#     4  10  20  35  57  84 112 142 188 232 280 331
#     4  10  20  36  54  80 116 142 182 227 278 337
#     4   8  17  33  52  78 110 144 183 229 277 328
#     4  10  19  33  56  81 107 145 191 229 272 332
#
# _framework density 22.806038999999998
#
# number of rings (size 3 to 8) (size 9 to 14) (size 15 to 20)
#    0.000    2.286    2.857    2.143    0.000    6.286 
#    0.000    1.429    0.000    0.000    0.000    0.000 
#    0.000    0.000    0.000    0.000    0.000    0.000 
#
# Total GULP energy -347108.680686 kJ/mol
# GULP energy per Si atom -12396.738596 kJ/mol
# Density = 2.275413 g / cm^3
# Si number density = 22.806039 Si / 1000 Ang^3
#
#
#
# Elastic Constant Matrix: (Units=GPa)
#
#
# Indices 1 2 3 4 5 6 
#
# 1 22.7837 2.9574 0.0394 0.0000 -8.3565 0.0000
# 2 2.9574 74.8358 40.1514 0.0000 -8.0243 0.0000
# 3 0.0394 40.1514 118.4201 0.0000 -23.7645 0.0000
# 4 0.0000 0.0000 0.0000 37.5994 0.0000 -14.5232
# 5 -8.3565 -8.0243 -23.7645 0.0000 32.7054 0.0000
# 6 0.0000 0.0000 0.0000 -14.5232 0.0000 15.3546
#
#
#
# Elastic Compliance Matrix: (Units=1/GPa)
#
#
# Indices 1 2 3 4 5 6 
#
# 1 0.049637 -0.002395 0.003773 0.000000 0.014837 0.000000
# 2 -0.002395 0.016450 -0.005724 0.000000 -0.000735 0.000000
# 3 0.003773 -0.005724 0.012053 0.000000 0.008318 0.000000
# 4 0.000000 0.000000 0.000000 0.041907 0.000000 0.039637
# 5 0.014837 -0.000735 0.008318 0.000000 0.040230 0.000000
# 6 0.000000 0.000000 0.000000 0.039637 0.000000 0.102618
#
#
# Mechanical properties :
#
#
# Convention : Reuss Voigt Hill
#
# Bulk Modulus (GPa) = 14.39937 33.59288 23.99613
# Shear Modulus (GPa) = 16.96432 28.65800 22.81116
#
# Velocity S-wave (km/s) = 2.73032 3.54870 3.16606
# Velocity P-wave (km/s) = 4.03325 5.61719 4.88978
#
# Compressibility (1/GPa) = 0.06944746
#
# Stress axis : x y z
#
# Youngs Moduli (GPa) = 20.14626 60.79198 82.96493
#
# Poissons Ratio (x) = 0.14560 -0.31302
# Poissons Ratio (y) = 0.04825 0.47490
# Poissons Ratio (z) = -0.07601 0.34798
#
# Static dielectric constant tensor:
#      x y z
#    x 3.768620 0.000000 -0.183790 
#    y 0.000000 4.146750 0.000000 
#    z -0.183790 0.000000 5.265550 
# 
# 
# High freq. dielectric constant tensor:
#      x y z
#    x 1.869830 0.000000 -0.022780 
#    y 0.000000 1.884330 0.000000 
#    z -0.022780 0.000000 1.910000 
# 
# From -- ./inp_files/22706.got.cif
#   From: 2010.06.25/outbox.cif.g09.slc.cpg/sg11_12_cif.got.tgz:22706.got - 2010.06.27 23:14:04.
