data_PCOD8071779
_publ_section_title
;
Structure prediction by ZEFSAII (Michael W. Deem and Ramdas Pophale) SiO2 
 PCOD8071779
Probable space group: P 21/M
;
_chemical_formula_sum "Si O2"
_cell_formula_units_Z 24
_cell_length_a 8.578919
_cell_length_b 14.303377
_cell_length_c 14.032859
_cell_angle_alpha 90.000000
_cell_angle_beta 136.469332
_cell_angle_gamma 90.000000
_cell_volume 1185.971760
_symmetry_space_group_name_H-M "P 21/M"
_symmetry_group_IT_number 11
_symmetry_cell_setting 'monoclinic'
loop_
_space_group_symop_operation_xyz
x,y,z
-x,1/2+y,-z
-x,-y,-z
x,1/2-y,z
loop_
_atom_site_type_symbol
_atom_site_label
_atom_site_fract_x
_atom_site_fract_y
_atom_site_fract_z
Si Si1 0.385730 0.859106 0.499649
Si Si2 0.456270 0.006334 0.272194
Si Si3 0.879575 0.148227 0.223455
Si Si4 0.279475 0.353627 0.524979
Si Si5 0.050681 0.958510 0.219598
Si Si6 0.420382 0.071382 0.044042
O O1 0.328544 0.750000 0.487589
O O2 0.468476 0.901291 0.636590
O O3 0.587241 0.876526 0.514190
O O4 0.162370 0.914488 0.364193
O O5 0.412453 0.025010 0.143645
O O6 0.654544 0.928426 0.365798
O O7 0.229790 0.959348 0.213761
O O8 0.942050 0.250000 0.205237
O O9 0.611516 0.151528 0.128192
O O10 0.013394 0.138171 0.383257
O O11 0.956340 0.064048 0.189554
O O12 0.342455 0.250000 0.589991
O O13 0.834308 0.893993 0.094115
O O14 0.500000 0.000000 0.000000
#
# Coordination Sequence:
#
# PCOD8071779 Si02
#       6
#     4   4   4   4   4   4
#     4  10  19  33  60  91 117 143 190 252 298 333
#     4  11  19  36  62  86 114 148 199 247 284 339
#     4  10  19  36  58  82 118 155 186 231 292 353
#     4   9  17  33  59  89 113 144 190 242 296 344
#     4  10  19  39  59  88 112 155 192 242 292 344
#     4  10  24  38  54  80 120 158 192 231 291 347
#
# _framework density 20.236568999999999
#
# number of rings (size 3 to 8) (size 9 to 14) (size 15 to 20)
#    0.000    2.000    3.333    1.500    0.000    2.000 
#    0.000    3.333    0.000    6.000    0.000    0.000 
#    0.000    0.000    0.000    0.000    0.000    0.000 
#
# Total GULP energy -297445.784200 kJ/mol
# GULP energy per Si atom -12393.574342 kJ/mol
# Density = 2.019051 g / cm^3
# Si number density = 20.236569 Si / 1000 Ang^3
#
#
#
# Elastic Constant Matrix: (Units=GPa)
#
#
# Indices 1 2 3 4 5 6 
#
# 1 50.2397 11.8225 42.3960 0.0000 1.1284 0.0000
# 2 11.8225 80.1439 28.5822 0.0000 13.1438 0.0000
# 3 42.3960 28.5822 133.1242 0.0000 19.5033 0.0000
# 4 0.0000 0.0000 0.0000 18.3656 0.0000 7.8089
# 5 1.1284 13.1438 19.5033 0.0000 38.3740 0.0000
# 6 0.0000 0.0000 0.0000 7.8089 0.0000 16.4165
#
#
#
# Elastic Compliance Matrix: (Units=1/GPa)
#
#
# Indices 1 2 3 4 5 6 
#
# 1 0.027943 -0.001558 -0.009208 0.000000 0.004392 0.000000
# 2 -0.001558 0.014024 -0.001964 0.000000 -0.003760 0.000000
# 3 -0.009208 -0.001964 0.011591 0.000000 -0.004947 0.000000
# 4 0.000000 0.000000 0.000000 0.068254 0.000000 -0.032467
# 5 0.004392 -0.003760 -0.004947 0.000000 0.029732 0.000000
# 6 0.000000 0.000000 0.000000 -0.032467 0.000000 0.076358
#
#
# Mechanical properties :
#
#
# Convention : Reuss Voigt Hill
#
# Bulk Modulus (GPa) = 35.59029 47.67880 41.63454
# Shear Modulus (GPa) = 19.03104 26.67837 22.85471
#
# Velocity S-wave (km/s) = 3.06997 3.63481 3.36427
# Velocity P-wave (km/s) = 5.49468 6.42088 5.97575
#
# Compressibility (1/GPa) = 0.02809755
#
# Stress axis : x y z
#
# Youngs Moduli (GPa) = 35.78730 71.30391 86.27630
#
# Poissons Ratio (x) = 0.11113 0.79441
# Poissons Ratio (y) = 0.05577 0.16944
# Poissons Ratio (z) = 0.32952 0.14004
#
# Static dielectric constant tensor:
#      x y z
#    x 3.481510 0.000000 0.514990 
#    y 0.000000 3.666740 0.000000 
#    z 0.514990 0.000000 4.172930 
# 
# 
# High freq. dielectric constant tensor:
#      x y z
#    x 1.758850 0.000000 0.026000 
#    y 0.000000 1.782820 0.000000 
#    z 0.026000 0.000000 1.801350 
# 
# From -- ./inp_files/12542.got.cif
#   From: 2010.06.25/outbox.cif.g09.slc.cpg/sg11_7_cif.got.tgz:12542.got - 2010.06.27 23:14:04.
