data_PCOD8071278
_publ_section_title
;
Structure prediction by ZEFSAII (Michael W. Deem and Ramdas Pophale) SiO2 
 PCOD8071278
Probable space group: P 21/M
;
_chemical_formula_sum "Si O2"
_cell_formula_units_Z 32
_cell_length_a 16.292828
_cell_length_b 8.898320
_cell_length_c 11.293247
_cell_angle_alpha 90.000000
_cell_angle_beta 86.666349
_cell_angle_gamma 90.000000
_cell_volume 1634.510818
_symmetry_space_group_name_H-M "P 21/M"
_symmetry_group_IT_number 11
_symmetry_cell_setting 'monoclinic'
loop_
_space_group_symop_operation_xyz
x,y,z
-x,1/2+y,-z
-x,-y,-z
x,1/2-y,z
loop_
_atom_site_type_symbol
_atom_site_label
_atom_site_fract_x
_atom_site_fract_y
_atom_site_fract_z
Si Si1 0.271232 0.077404 0.692118
Si Si2 0.658734 0.427396 0.719546
Si Si3 0.419310 0.427582 0.057041
Si Si4 0.410711 0.425812 0.501816
Si Si5 0.173693 0.921511 0.166574
Si Si6 0.274738 0.575974 0.935398
Si Si7 0.108768 0.424674 0.572619
Si Si8 0.045185 0.426140 0.326186
O O1 0.262926 0.250000 0.734301
O O2 0.361551 0.049046 0.628920
O O3 0.202235 0.038506 0.600058
O O4 0.254119 0.968187 0.803368
O O5 0.643174 0.250000 0.718753
O O6 0.593239 0.502806 0.812445
O O7 0.645277 0.496810 0.592333
O O8 0.749514 0.468222 0.757376
O O9 0.428042 0.250000 0.066526
O O10 0.500000 0.500000 0.000000
O O11 0.346714 0.468605 0.973658
O O12 0.500000 0.500000 0.500000
O O13 0.420562 0.250000 0.473137
O O14 0.150172 0.750000 0.191969
O O15 0.095081 0.020526 0.206735
O O16 0.195657 0.948971 0.026695
O O17 0.302728 0.750000 0.940697
O O18 0.089008 0.250000 0.583193
O O19 0.093709 0.481800 0.439818
O O20 0.046454 0.506822 0.667555
O O21 0.037097 0.250000 0.321081
#
# Coordination Sequence:
#
# PCOD8071278 Si02
#       8
#     4   4   4   4   4   4   4   4
#     4  10  22  40  60  81 113 155 195 236 287 346
#     4  10  21  38  58  83 113 145 188 235 284 339
#     4  11  22  37  59  83 110 145 187 237 289 338
#     4  11  24  40  58  83 115 151 192 237 288 346
#     4   9  19  36  57  82 113 148 184 232 286 337
#     4  10  22  39  58  83 113 149 194 238 287 344
#     4   9  19  36  56  83 117 151 186 231 286 340
#     4  10  19  32  57  89 117 146 187 235 281 339
#
# _framework density 19.577722000000001
#
# number of rings (size 3 to 8) (size 9 to 14) (size 15 to 20)
#    0.000    2.000    0.000    4.125    1.750    6.000 
#    0.000    0.625    0.000    0.000    0.000    0.000 
#    0.000    0.000    0.000    0.000    0.000    0.000 
#
# Total GULP energy -396874.093784 kJ/mol
# GULP energy per Si atom -12402.315431 kJ/mol
# Density = 1.953316 g / cm^3
# Si number density = 19.577722 Si / 1000 Ang^3
#
#
#
# Elastic Constant Matrix: (Units=GPa)
#
#
# Indices 1 2 3 4 5 6 
#
# 1 90.8590 38.8856 28.1006 0.0000 -24.5317 0.0000
# 2 38.8856 96.5440 35.6338 0.0000 -13.5713 0.0000
# 3 28.1006 35.6338 83.7096 0.0000 -12.3053 0.0000
# 4 0.0000 0.0000 0.0000 35.5527 0.0000 -1.6154
# 5 -24.5317 -13.5713 -12.3053 0.0000 30.9859 0.0000
# 6 0.0000 0.0000 0.0000 -1.6154 0.0000 32.9092
#
#
#
# Elastic Compliance Matrix: (Units=1/GPa)
#
#
# Indices 1 2 3 4 5 6 
#
# 1 0.016253 -0.004341 -0.002120 0.000000 0.010125 0.000000
# 2 -0.004341 0.013818 -0.004291 0.000000 0.000912 0.000000
# 3 -0.002120 -0.004291 0.014827 0.000000 0.002330 0.000000
# 4 0.000000 0.000000 0.000000 0.028190 0.000000 0.001384
# 5 0.010125 0.000912 0.002330 0.000000 0.041613 0.000000
# 6 0.000000 0.000000 0.000000 0.001384 0.000000 0.030455
#
#
# Mechanical properties :
#
#
# Convention : Reuss Voigt Hill
#
# Bulk Modulus (GPa) = 42.74447 52.92808 47.83627
# Shear Modulus (GPa) = 28.66027 31.12242 29.89134
#
# Velocity S-wave (km/s) = 3.83027 3.99141 3.91167
# Velocity P-wave (km/s) = 6.43754 6.95236 6.69990
#
# Compressibility (1/GPa) = 0.02339484
#
# Stress axis : x y z
#
# Youngs Moduli (GPa) = 61.52695 72.36821 67.44495
#
# Poissons Ratio (x) = 0.31413 0.14298
# Poissons Ratio (y) = 0.26707 0.28941
# Poissons Ratio (z) = 0.13043 0.31054
#
# Static dielectric constant tensor:
#      x y z
#    x 3.493930 0.000000 -0.087910 
#    y 0.000000 3.469570 0.000000 
#    z -0.087910 0.000000 3.638550 
# 
# 
# High freq. dielectric constant tensor:
#      x y z
#    x 1.757270 0.000000 -0.015030 
#    y 0.000000 1.769790 0.000000 
#    z -0.015030 0.000000 1.757840 
# 
# From -- ./inp_files/38157.got.cif
#   From: 2010.06.25/outbox.cif.g09.slc.cpg/sg11_20_cif.got.tgz:38157.got - 2010.06.27 23:14:04.
