data_PCOD8071514
_publ_section_title
;
Structure prediction by ZEFSAII (Michael W. Deem and Ramdas Pophale) SiO2 
 PCOD8071514
Probable space group: P 21/M
;
_chemical_formula_sum "Si O2"
_cell_formula_units_Z 32
_cell_length_a 12.485079
_cell_length_b 9.163452
_cell_length_c 31.613597
_cell_angle_alpha 90.000000
_cell_angle_beta 28.199421
_cell_angle_gamma 90.000000
_cell_volume 1709.088697
_symmetry_space_group_name_H-M "P 21/M"
_symmetry_group_IT_number 11
_symmetry_cell_setting 'monoclinic'
loop_
_space_group_symop_operation_xyz
x,y,z
-x,1/2+y,-z
-x,-y,-z
x,1/2-y,z
loop_
_atom_site_type_symbol
_atom_site_label
_atom_site_fract_x
_atom_site_fract_y
_atom_site_fract_z
Si Si1 0.775420 0.089699 0.576938
Si Si2 0.201609 0.076273 0.705680
Si Si3 0.192605 0.418663 0.205657
Si Si4 0.112064 0.421786 0.833187
Si Si5 0.494474 0.923698 0.739445
Si Si6 0.861047 0.576604 0.679975
Si Si7 0.327198 0.908494 0.483737
Si Si8 0.400468 0.582167 0.994879
O O1 0.797947 0.250000 0.591161
O O2 0.711876 0.118570 0.551497
O O3 0.589799 0.989187 0.663087
O O4 0.000000 0.000000 0.500000
O O5 0.195438 0.250000 0.703445
O O6 0.202037 0.033576 0.755084
O O7 0.424062 0.013385 0.602315
O O8 0.980111 0.011635 0.761495
O O9 0.120384 0.250000 0.228020
O O10 0.192775 0.473316 0.253919
O O11 0.444668 0.443911 0.100203
O O12 0.144937 0.250000 0.829408
O O13 0.241292 0.508098 0.826376
O O14 0.851458 0.471756 0.928287
O O15 0.481914 0.750000 0.742604
O O16 0.654036 0.979488 0.722499
O O17 0.875559 0.750000 0.669378
O O18 0.108355 0.508260 0.580245
O O19 0.346284 0.750000 0.499731
O O20 0.392698 0.750000 0.011010
O O21 0.500000 0.500000 0.000000
#
# Coordination Sequence:
#
# PCOD8071514 Si02
#       8
#     4   4   4   4   4   4   4   4
#     4  11  19  31  51  78 109 143 184 228 273 316
#     4  10  19  33  54  79 109 143 174 215 276 329
#     4  10  21  37  57  79 105 140 183 226 266 324
#     4  10  20  35  54  81 114 141 169 223 288 332
#     4  11  21  34  55  81 109 145 187 227 270 321
#     4   9  19  36  54  74 107 149 185 218 264 320
#     4   9  17  31  51  74 105 145 178 209 263 321
#     4  10  20  35  58  84 107 137 176 222 279 333
#
# _framework density 18.723427999999998
#
# number of rings (size 3 to 8) (size 9 to 14) (size 15 to 20)
#    0.000    2.000    3.750    0.750    0.000    1.500 
#    0.000    1.875    0.000    0.000    0.000    0.000 
#    0.000    0.000    0.000    0.000    0.000    0.000 
#
# Total GULP energy -396461.016953 kJ/mol
# GULP energy per Si atom -12389.406780 kJ/mol
# Density = 1.868081 g / cm^3
# Si number density = 18.723428 Si / 1000 Ang^3
#
#
#
# Elastic Constant Matrix: (Units=GPa)
#
#
# Indices 1 2 3 4 5 6 
#
# 1 72.5990 25.3655 47.7792 0.0000 -10.6583 0.0000
# 2 25.3655 41.7882 26.4162 0.0000 -10.4532 0.0000
# 3 47.7792 26.4162 126.0253 0.0000 -18.5336 0.0000
# 4 0.0000 0.0000 0.0000 19.3040 0.0000 -7.1186
# 5 -10.6583 -10.4532 -18.5336 0.0000 36.9145 0.0000
# 6 0.0000 0.0000 0.0000 -7.1186 0.0000 21.2750
#
#
#
# Elastic Compliance Matrix: (Units=1/GPa)
#
#
# Indices 1 2 3 4 5 6 
#
# 1 0.020850 -0.008731 -0.005995 0.000000 0.000537 0.000000
# 2 -0.008731 0.032237 -0.002672 0.000000 0.005266 0.000000
# 3 -0.005995 -0.002672 0.011231 0.000000 0.003151 0.000000
# 4 0.000000 0.000000 0.000000 0.059094 0.000000 0.019773
# 5 0.000537 0.005266 0.003151 0.000000 0.030318 0.000000
# 6 0.000000 0.000000 0.000000 0.019773 0.000000 0.053619
#
#
# Mechanical properties :
#
#
# Convention : Reuss Voigt Hill
#
# Bulk Modulus (GPa) = 33.87600 48.83715 41.35658
# Shear Modulus (GPa) = 19.84222 24.88880 22.36551
#
# Velocity S-wave (km/s) = 3.25892 3.64989 3.45993
# Velocity P-wave (km/s) = 5.68268 6.62589 6.17233
#
# Compressibility (1/GPa) = 0.02951942
#
# Stress axis : x y z
#
# Youngs Moduli (GPa) = 47.96267 31.02042 89.03531
#
# Poissons Ratio (x) = 0.27085 0.53380
# Poissons Ratio (y) = 0.41878 0.23794
# Poissons Ratio (z) = 0.28755 0.08290
#
# Static dielectric constant tensor:
#      x y z
#    x 3.329320 0.000000 -0.115360 
#    y 0.000000 3.183030 0.000000 
#    z -0.115360 0.000000 3.737350 
# 
# 
# High freq. dielectric constant tensor:
#      x y z
#    x 1.715720 0.000000 -0.019940 
#    y 0.000000 1.698460 0.000000 
#    z -0.019940 0.000000 1.736730 
# 
# From -- ./inp_files/65217.got.cif
#   From: 2010.06.25/outbox.cif.g09.slc.cpg/sg11_33_cif.got.tgz:65217.got - 2010.06.27 23:14:04.
