data_PCOD8071286
_publ_section_title
;
Structure prediction by ZEFSAII (Michael W. Deem and Ramdas Pophale) SiO2 
 PCOD8071286
Probable space group: P 21/M
;
_chemical_formula_sum "Si O2"
_cell_formula_units_Z 20
_cell_length_a 4.951864
_cell_length_b 17.106871
_cell_length_c 11.193197
_cell_angle_alpha 90.000000
_cell_angle_beta 99.275519
_cell_angle_gamma 90.000000
_cell_volume 935.787940
_symmetry_space_group_name_H-M "P 21/M"
_symmetry_group_IT_number 11
_symmetry_cell_setting 'monoclinic'
loop_
_space_group_symop_operation_xyz
x,y,z
-x,1/2+y,-z
-x,-y,-z
x,1/2-y,z
loop_
_atom_site_type_symbol
_atom_site_label
_atom_site_fract_x
_atom_site_fract_y
_atom_site_fract_z
Si Si1 0.846373 0.085444 0.683089
Si Si2 0.861697 0.905448 0.689242
Si Si3 0.240516 0.943451 0.065895
Si Si4 0.304646 0.160429 0.568320
Si Si5 0.432998 0.914532 0.841799
O O1 0.865014 0.104497 0.826543
O O2 0.621499 0.138105 0.601673
O O3 0.136604 0.105693 0.645972
O O4 0.774857 0.994513 0.655273
O O5 0.790454 0.850292 0.574525
O O6 0.697057 0.875370 0.796621
O O7 0.184143 0.902314 0.733586
O O8 0.502025 0.993854 0.129921
O O9 0.345331 0.883852 0.968493
O O10 0.000000 0.000000 0.000000
O O11 0.261723 0.250000 0.601235
#
# Coordination Sequence:
#
# PCOD8071286 Si02
#       5
#     4   4   4   4   4
#     4  11  22  38  65  92 118 154 206 254 296 360
#     4  11  21  38  62  92 121 151 206 251 294 352
#     4  10  19  34  60  95 127 142 187 253 313 343
#     4  12  26  42  59  85 126 168 199 246 309 361
#     4  10  19  32  59  93 123 149 185 250 305 348
#
# _framework density 21.372361999999999
#
# number of rings (size 3 to 8) (size 9 to 14) (size 15 to 20)
#    0.000    1.200    4.000    5.400    2.800    0.000 
#    0.000    0.000    0.000    7.200    0.000    0.000 
#    0.000    0.000    0.000    0.000    0.000    0.000 
#
# Total GULP energy -247894.608445 kJ/mol
# GULP energy per Si atom -12394.730422 kJ/mol
# Density = 2.132372 g / cm^3
# Si number density = 21.372362 Si / 1000 Ang^3
#
#
#
# Elastic Constant Matrix: (Units=GPa)
#
#
# Indices 1 2 3 4 5 6 
#
# 1 93.7920 3.9768 12.6764 0.0000 0.5017 0.0000
# 2 3.9768 33.7188 1.3396 0.0000 3.6480 0.0000
# 3 12.6764 1.3396 82.5705 0.0000 -4.7480 0.0000
# 4 0.0000 0.0000 0.0000 4.7335 0.0000 0.5354
# 5 0.5017 3.6480 -4.7480 0.0000 50.4967 0.0000
# 6 0.0000 0.0000 0.0000 0.5354 0.0000 7.6545
#
#
#
# Elastic Compliance Matrix: (Units=1/GPa)
#
#
# Indices 1 2 3 4 5 6 
#
# 1 0.010940 -0.001205 -0.001670 0.000000 -0.000179 0.000000
# 2 -0.001205 0.030054 -0.000429 0.000000 -0.002200 0.000000
# 3 -0.001670 -0.000429 0.012444 0.000000 0.001218 0.000000
# 4 0.000000 0.000000 0.000000 0.212945 0.000000 -0.014895
# 5 -0.000179 -0.002200 0.001218 0.000000 0.020078 0.000000
# 6 0.000000 0.000000 0.000000 -0.014895 0.000000 0.131684
#
#
# Mechanical properties :
#
#
# Convention : Reuss Voigt Hill
#
# Bulk Modulus (GPa) = 21.35372 27.34076 24.34724
# Shear Modulus (GPa) = 11.35428 25.38285 18.36856
#
# Velocity S-wave (km/s) = 2.30741 3.44997 2.93483
# Velocity P-wave (km/s) = 4.13664 5.35631 4.78549
#
# Compressibility (1/GPa) = 0.04683025
#
# Stress axis : x y z
#
# Youngs Moduli (GPa) = 91.41056 33.27331 80.35835
#
# Poissons Ratio (x) = 0.04008 0.13422
# Poissons Ratio (y) = 0.11011 0.03448
# Poissons Ratio (z) = 0.15267 0.01428
#
# Static dielectric constant tensor:
#      x y z
#    x 4.112340 0.000000 -0.320590 
#    y 0.000000 3.183110 0.000000 
#    z -0.320590 0.000000 4.257890 
# 
# 
# High freq. dielectric constant tensor:
#      x y z
#    x 1.864850 0.000000 -0.012080 
#    y 0.000000 1.755740 0.000000 
#    z -0.012080 0.000000 1.859330 
# 
# From -- ./inp_files/29682.got.cif
#   From: 2010.06.25/outbox.cif.g09.slc.cpg/sg11_15_cif.got.tgz:29682.got - 2010.06.27 23:14:04.
