data_PCOD8071834
_publ_section_title
;
Structure prediction by ZEFSAII (Michael W. Deem and Ramdas Pophale) SiO2 
 PCOD8071834
Probable space group: P 21/M
;
_chemical_formula_sum "Si O2"
_cell_formula_units_Z 28
_cell_length_a 31.584944
_cell_length_b 8.486958
_cell_length_c 31.585718
_cell_angle_alpha 90.000000
_cell_angle_beta 9.407351
_cell_angle_gamma 90.000000
_cell_volume 1383.931468
_symmetry_space_group_name_H-M "P 21/M"
_symmetry_group_IT_number 11
_symmetry_cell_setting 'monoclinic'
loop_
_space_group_symop_operation_xyz
x,y,z
-x,1/2+y,-z
-x,-y,-z
x,1/2-y,z
loop_
_atom_site_type_symbol
_atom_site_label
_atom_site_fract_x
_atom_site_fract_y
_atom_site_fract_z
Si Si1 0.385521 0.435292 0.422085
Si Si2 0.164231 0.437236 0.168086
Si Si3 0.979539 0.437088 0.973211
Si Si4 0.545581 0.936949 0.550396
Si Si5 0.738397 0.063405 0.738446
Si Si6 0.312118 0.937598 0.307358
Si Si7 0.136196 0.435384 0.099487
O O1 0.436737 0.250000 0.367731
O O2 0.429405 0.497881 0.426375
O O3 0.585092 0.526955 0.195343
O O4 0.090755 0.472993 0.700652
O O5 0.169499 0.250000 0.164254
O O6 0.924650 0.504874 0.431349
O O7 0.425253 0.505858 0.931411
O O8 0.140265 0.496278 0.143682
O O9 0.979854 0.250000 0.973802
O O10 0.217940 0.504505 0.710661
O O11 0.000000 0.500000 0.000000
O O12 0.718799 0.503043 0.208880
O O13 0.550939 0.750000 0.544459
O O14 0.738889 0.250000 0.739027
O O15 0.714315 0.999729 0.714340
O O16 0.000000 0.000000 0.500000
O O17 0.500000 0.000000 0.000000
O O18 0.312157 0.750000 0.308096
O O19 0.082128 0.250000 0.150139
#
# Coordination Sequence:
#
# PCOD8071834 Si02
#       7
#     4   4   4   4   4   4   4
#     4  11  22  39  61  83 112 155 196 226 268 339
#     4   9  17  31  53  79 107 140 183 229 274 324
#     4  10  19  34  54  77 103 134 175 221 268 318
#     4   9  19  35  55  75 102 143 184 216 256 323
#     4  11  22  37  59  85 114 147 188 234 281 332
#     4   9  17  31  53  79 104 141 190 228 260 326
#     4  11  22  37  59  88 117 144 181 240 295 326
#
# _framework density 20.232216999999999
#
# number of rings (size 3 to 8) (size 9 to 14) (size 15 to 20)
#    0.000    2.000    0.000    4.286    0.000    6.857 
#    0.000    4.286    0.000   17.143    0.000    0.000 
#    0.000    0.000    0.000    0.000    0.000    0.000 
#
# Total GULP energy -347310.115282 kJ/mol
# GULP energy per Si atom -12403.932689 kJ/mol
# Density = 2.018617 g / cm^3
# Si number density = 20.232217 Si / 1000 Ang^3
#
#
#
# Elastic Constant Matrix: (Units=GPa)
#
#
# Indices 1 2 3 4 5 6 
#
# 1 184.9182 27.2086 80.3199 0.0000 0.3349 0.0000
# 2 27.2086 29.8474 16.5123 0.0000 0.6292 0.0000
# 3 80.3199 16.5123 175.9735 0.0000 0.6780 0.0000
# 4 0.0000 0.0000 0.0000 22.7528 0.0000 0.3681
# 5 0.3349 0.6292 0.6780 0.0000 51.2722 0.0000
# 6 0.0000 0.0000 0.0000 0.3681 0.0000 26.3590
#
#
#
# Elastic Compliance Matrix: (Units=1/GPa)
#
#
# Indices 1 2 3 4 5 6 
#
# 1 0.007431 -0.005167 -0.002907 0.000000 0.000053 0.000000
# 2 -0.005167 0.038938 -0.001294 0.000000 -0.000427 0.000000
# 3 -0.002907 -0.001294 0.007131 0.000000 -0.000059 0.000000
# 4 0.000000 0.000000 0.000000 0.043961 0.000000 -0.000614
# 5 0.000053 -0.000427 -0.000059 0.000000 0.019509 0.000000
# 6 0.000000 0.000000 0.000000 -0.000614 0.000000 0.037946
#
#
# Mechanical properties :
#
#
# Convention : Reuss Voigt Hill
#
# Bulk Modulus (GPa) = 28.76437 70.98008 49.87222
# Shear Modulus (GPa) = 26.99207 37.85668 32.42437
#
# Velocity S-wave (km/s) = 3.65651 4.33032 4.00761
# Velocity P-wave (km/s) = 5.66346 7.75636 6.79102
#
# Compressibility (1/GPa) = 0.03476523
#
# Stress axis : x y z
#
# Youngs Moduli (GPa) = 134.57976 25.68161 140.23007
#
# Poissons Ratio (x) = 0.13269 0.40764
# Poissons Ratio (y) = 0.69531 0.18145
# Poissons Ratio (z) = 0.39122 0.03323
#
# Static dielectric constant tensor:
#      x y z
#    x 3.950230 0.000000 0.006720 
#    y 0.000000 3.206360 0.000000 
#    z 0.006720 0.000000 3.955080 
# 
# 
# High freq. dielectric constant tensor:
#      x y z
#    x 1.810780 0.000000 0.000000 
#    y 0.000000 1.750960 0.000000 
#    z 0.000000 0.000000 1.811460 
# 
# From -- ./inp_files/73835.got.cif
#   From: 2010.06.25/outbox.cif.g09.slc.cpg/sg11_37_cif.got.tgz:73835.got - 2010.06.27 23:14:04.
