data_PCOD8071139
_publ_section_title
;
Structure prediction by ZEFSAII (Michael W. Deem and Ramdas Pophale) SiO2 
 PCOD8071139
Probable space group: P 21/M
;
_chemical_formula_sum "Si O2"
_cell_formula_units_Z 32
_cell_length_a 7.684753
_cell_length_b 18.339717
_cell_length_c 12.630232
_cell_angle_alpha 90.000000
_cell_angle_beta 107.711274
_cell_angle_gamma 90.000000
_cell_volume 1695.685066
_symmetry_space_group_name_H-M "P 21/M"
_symmetry_group_IT_number 11
_symmetry_cell_setting 'monoclinic'
loop_
_space_group_symop_operation_xyz
x,y,z
-x,1/2+y,-z
-x,-y,-z
x,1/2-y,z
loop_
_atom_site_type_symbol
_atom_site_label
_atom_site_fract_x
_atom_site_fract_y
_atom_site_fract_z
Si Si1 0.669594 0.586580 0.223941
Si Si2 0.945654 0.086580 0.776059
Si Si3 0.947640 0.166133 0.990377
Si Si4 0.457263 0.666133 0.009623
Si Si5 0.436799 0.084913 0.373599
Si Si6 0.943561 0.918376 0.788988
Si Si7 0.560408 0.087994 0.620815
Si Si8 0.654573 0.081624 0.211012
O O1 0.578508 0.616193 0.314673
O O2 0.609793 0.503677 0.189465
O O3 0.888663 0.591584 0.277326
O O4 0.613366 0.635360 0.114076
O O5 0.763835 0.116193 0.685326
O O6 0.920328 0.003677 0.810535
O O7 0.999290 0.135360 0.885924
O O8 0.006178 0.250000 0.008280
O O9 0.732901 0.154932 0.965801
O O10 0.058869 0.123007 0.100110
O O11 0.497897 0.750000 0.991720
O O12 0.458759 0.623007 0.899890
O O13 0.229952 0.110257 0.309984
O O14 0.498136 0.120901 0.496272
O O15 0.580032 0.110257 0.309984
O O16 0.442663 0.998506 0.385327
O O17 0.128724 0.901870 0.757447
#
# Coordination Sequence:
#
# PCOD8071139 Si02
#       8
#     4   4   4   4   4   4   4   4
#     4  10  19  32  53  77 104 138 172 212 259 310
#     4  10  19  32  53  77 104 138 172 212 259 310
#     4  10  20  34  52  75 107 138 169 216 263 308
#     4  10  20  34  52  75 107 138 169 216 263 308
#     4   9  18  32  55  77 105 141 170 215 260 305
#     4   9  19  33  51  78 105 135 174 213 258 309
#     4   9  18  34  51  79 109 133 176 217 256 305
#     4   9  19  33  51  78 105 135 174 213 258 309
#
# _framework density 18.871427000000001
#
# number of rings (size 3 to 8) (size 9 to 14) (size 15 to 20)
#    0.000    2.500    1.250    0.750    1.750    1.500 
#    0.000    5.000    0.000    3.000    0.000    3.500 
#    0.000    0.000    0.000    0.000    0.000    0.000 
#
# Total GULP energy -396817.811597 kJ/mol
# GULP energy per Si atom -12400.556612 kJ/mol
# Density = 1.882847 g / cm^3
# Si number density = 18.871427 Si / 1000 Ang^3
#
#
#
# Elastic Constant Matrix: (Units=GPa)
#
#
# Indices 1 2 3 4 5 6 
#
# 1 111.7241 16.7359 65.5820 0.0000 -0.7174 0.0000
# 2 16.7359 36.9792 20.2121 0.0000 -0.2138 0.0000
# 3 65.5820 20.2121 141.9789 0.0000 -1.1432 0.0000
# 4 0.0000 0.0000 0.0000 0.4926 0.0000 0.8467
# 5 -0.7174 -0.2138 -1.1432 0.0000 28.9303 0.0000
# 6 0.0000 0.0000 0.0000 0.8467 0.0000 14.2605
#
#
#
# Elastic Compliance Matrix: (Units=1/GPa)
#
#
# Indices 1 2 3 4 5 6 
#
# 1 0.012528 -0.002718 -0.005399 0.000000 0.000077 0.000000
# 2 -0.002718 0.029914 -0.003003 0.000000 0.000035 0.000000
# 3 -0.005399 -0.003003 0.009967 0.000000 0.000238 0.000000
# 4 0.000000 0.000000 0.000000 2.260890 0.000000 -0.134234
# 5 0.000077 0.000035 0.000238 0.000000 0.034577 0.000000
# 6 0.000000 0.000000 0.000000 -0.134234 0.000000 0.078093
#
#
# Mechanical properties :
#
#
# Convention : Reuss Voigt Hill
#
# Bulk Modulus (GPa) = 33.14760 55.08246 44.11503
# Shear Modulus (GPa) = 2.03396 21.28016 11.65706
#
# Velocity S-wave (km/s) = 1.03930 3.36168 2.48807
# Velocity P-wave (km/s) = 4.36386 6.65729 5.62862
#
# Compressibility (1/GPa) = 0.03016810
#
# Stress axis : x y z
#
# Youngs Moduli (GPa) = 79.82417 33.42932 100.33544
#
# Poissons Ratio (x) = 0.09087 0.54172
# Poissons Ratio (y) = 0.21698 0.30127
# Poissons Ratio (z) = 0.43097 0.10038
#
# Static dielectric constant tensor:
#      x y z
#    x 3.570800 0.000000 0.002100 
#    y 0.000000 3.135940 0.000000 
#    z 0.002100 0.000000 3.536690 
# 
# 
# High freq. dielectric constant tensor:
#      x y z
#    x 1.745710 0.000000 0.001260 
#    y 0.000000 1.696800 0.000000 
#    z 0.001260 0.000000 1.725170 
# 
# From -- ./inp_files/32679.got.cif
#   From: 2010.06.25/outbox.cif.g09.slc.cpg/sg11_17_cif.got.tgz:32679.got - 2010.06.27 23:14:04.
