data_PCOD8071884
_publ_section_title
;
Structure prediction by ZEFSAII (Michael W. Deem and Ramdas Pophale) SiO2 
 PCOD8071884
Probable space group: P 21/M
;
_chemical_formula_sum "Si O2"
_cell_formula_units_Z 32
_cell_length_a 16.165736
_cell_length_b 8.937135
_cell_length_c 24.703884
_cell_angle_alpha 90.000000
_cell_angle_beta 152.969926
_cell_angle_gamma 90.000000
_cell_volume 1622.007676
_symmetry_space_group_name_H-M "P 21/M"
_symmetry_group_IT_number 11
_symmetry_cell_setting 'monoclinic'
loop_
_space_group_symop_operation_xyz
x,y,z
-x,1/2+y,-z
-x,-y,-z
x,1/2-y,z
loop_
_atom_site_type_symbol
_atom_site_label
_atom_site_fract_x
_atom_site_fract_y
_atom_site_fract_z
Si Si1 0.053077 0.071209 0.087250
Si Si2 0.354857 0.572761 0.454010
Si Si3 0.257206 0.573306 0.590083
Si Si4 0.458751 0.426122 0.329027
Si Si5 0.370109 0.422926 0.761711
Si Si6 0.076429 0.076941 0.677940
Si Si7 0.975681 0.073239 0.239459
Si Si8 0.226769 0.573110 0.985103
O O1 0.047244 0.250000 0.079630
O O2 0.256009 0.008725 0.218141
O O3 0.918390 0.011252 0.055671
O O4 0.000000 0.000000 0.000000
O O5 0.500000 0.500000 0.500000
O O6 0.351840 0.750000 0.444406
O O7 0.408701 0.522926 0.545766
O O8 0.159736 0.505031 0.327400
O O9 0.243818 0.750000 0.588800
O O10 0.445444 0.521969 0.670832
O O11 0.253713 0.502631 0.647283
O O12 0.086607 0.516332 0.455071
O O13 0.441179 0.250000 0.319514
O O14 0.380519 0.250000 0.751952
O O15 0.266813 0.445095 0.758178
O O16 0.572513 0.493036 0.885463
O O17 0.039809 0.250000 0.671725
O O18 0.091358 0.983569 0.741593
O O19 0.006793 0.250000 0.259668
O O20 0.828468 0.027596 0.108036
O O21 0.233702 0.750000 0.993900
#
# Coordination Sequence:
#
# PCOD8071884 Si02
#       8
#     4   4   4   4   4   4   4   4
#     4  10  19  34  55  78 108 147 185 224 273 330
#     4  11  21  37  58  83 115 150 189 232 283 337
#     4  10  19  35  56  81 114 146 183 237 297 348
#     4   9  18  33  54  76 107 148 180 216 280 339
#     4  10  21  37  58  82 110 150 194 238 291 350
#     4  10  21  38  58  82 115 151 186 236 301 349
#     4  11  22  38  60  84 113 152 195 238 287 343
#     4   9  20  38  56  79 115 152 189 237 291 341
#
# _framework density 19.728636999999999
#
# number of rings (size 3 to 8) (size 9 to 14) (size 15 to 20)
#    0.000    2.000    1.250    2.625    0.000    3.500 
#    0.000    5.000    0.000    0.000    0.000    0.000 
#    0.000    0.000    0.000    0.000    0.000    0.000 
#
# Total GULP energy -396799.115331 kJ/mol
# GULP energy per Si atom -12399.972354 kJ/mol
# Density = 1.968373 g / cm^3
# Si number density = 19.728637 Si / 1000 Ang^3
#
#
#
# Elastic Constant Matrix: (Units=GPa)
#
#
# Indices 1 2 3 4 5 6 
#
# 1 113.3459 34.1821 46.6212 0.0000 -6.9203 0.0000
# 2 34.1821 49.9342 26.7874 0.0000 -8.0935 0.0000
# 3 46.6212 26.7874 117.4716 0.0000 -2.1490 0.0000
# 4 0.0000 0.0000 0.0000 23.0922 0.0000 -6.1851
# 5 -6.9203 -8.0935 -2.1490 0.0000 39.4513 0.0000
# 6 0.0000 0.0000 0.0000 -6.1851 0.0000 31.3145
#
#
#
# Elastic Compliance Matrix: (Units=1/GPa)
#
#
# Indices 1 2 3 4 5 6 
#
# 1 0.012183 -0.006437 -0.003356 0.000000 0.000634 0.000000
# 2 -0.006437 0.027009 -0.003527 0.000000 0.004220 0.000000
# 3 -0.003356 -0.003527 0.010635 0.000000 -0.000733 0.000000
# 4 0.000000 0.000000 0.000000 0.045724 0.000000 0.009031
# 5 0.000634 0.004220 -0.000733 0.000000 0.026285 0.000000
# 6 0.000000 0.000000 0.000000 0.009031 0.000000 0.033718
#
#
# Mechanical properties :
#
#
# Convention : Reuss Voigt Hill
#
# Bulk Modulus (GPa) = 43.12615 55.10369 49.11492
# Shear Modulus (GPa) = 26.32678 30.31566 28.32122
#
# Velocity S-wave (km/s) = 3.65697 3.92424 3.79296
# Velocity P-wave (km/s) = 6.30384 6.96594 6.64314
#
# Compressibility (1/GPa) = 0.02318779
#
# Stress axis : x y z
#
# Youngs Moduli (GPa) = 82.08437 37.02519 94.02636
#
# Poissons Ratio (x) = 0.23832 0.31551
# Poissons Ratio (y) = 0.52835 0.33164
# Poissons Ratio (z) = 0.27544 0.13059
#
# Static dielectric constant tensor:
#      x y z
#    x 3.574520 0.000000 0.280930 
#    y 0.000000 3.300640 0.000000 
#    z 0.280930 0.000000 3.582780 
# 
# 
# High freq. dielectric constant tensor:
#      x y z
#    x 1.783010 0.000000 0.004170 
#    y 0.000000 1.737100 0.000000 
#    z 0.004170 0.000000 1.778660 
# 
# From -- ./inp_files/69155.got.cif
#   From: 2010.06.25/outbox.cif.g09.slc.cpg/sg11_35_cif.got.tgz:69155.got - 2010.06.27 23:14:04.
