data_PCOD8071995
_publ_section_title
;
Structure prediction by ZEFSAII (Michael W. Deem and Ramdas Pophale) SiO2 
 PCOD8071995
Probable space group: P 21/M
;
_chemical_formula_sum "Si O2"
_cell_formula_units_Z 28
_cell_length_a 14.791695
_cell_length_b 8.543936
_cell_length_c 20.299250
_cell_angle_alpha 90.000000
_cell_angle_beta 147.286197
_cell_angle_gamma 90.000000
_cell_volume 1386.455207
_symmetry_space_group_name_H-M "P 21/M"
_symmetry_group_IT_number 11
_symmetry_cell_setting 'monoclinic'
loop_
_space_group_symop_operation_xyz
x,y,z
-x,1/2+y,-z
-x,-y,-z
x,1/2-y,z
loop_
_atom_site_type_symbol
_atom_site_label
_atom_site_fract_x
_atom_site_fract_y
_atom_site_fract_z
Si Si1 0.404825 0.932236 0.793074
Si Si2 0.845954 0.564391 0.865060
Si Si3 0.511624 0.065003 0.302777
Si Si4 0.712463 0.067867 0.054439
Si Si5 0.816863 0.934801 0.565530
Si Si6 0.930166 0.933734 0.774684
Si Si7 0.152397 0.432426 0.731029
O O1 0.362372 0.750000 0.767638
O O2 0.449639 0.990465 0.747387
O O3 0.241447 0.027068 0.716524
O O4 0.559838 0.964173 0.936126
O O5 0.858093 0.750000 0.871692
O O6 0.674276 0.507648 0.793009
O O7 0.854996 0.495424 0.796001
O O8 0.000000 0.500000 0.000000
O O9 0.530780 0.250000 0.322934
O O10 0.635419 0.979626 0.428669
O O11 0.665321 0.250000 0.019647
O O12 0.873613 0.023882 0.109247
O O13 0.750674 0.029451 0.153589
O O14 0.846579 0.750000 0.580697
O O15 0.834084 0.998933 0.651252
O O16 0.958689 0.016948 0.607762
O O17 0.905708 0.750000 0.760469
O O18 0.165671 0.250000 0.754661
#
# Coordination Sequence:
#
# PCOD8071995 Si02
#       7
#     4   4   4   4   4   4   4
#     4  11  22  36  53  78 113 150 188 229 277 329
#     4  10  20  37  59  85 116 146 181 223 271 326
#     4  10  23  39  56  81 114 149 185 230 276 323
#     4  10  19  34  56  84 115 146 184 228 277 330
#     4  10  21  39  60  82 109 144 187 230 275 329
#     4   8  17  34  57  82 111 146 180 223 274 323
#     4  11  22  37  58  82 109 144 185 230 281 332
#
# _framework density 20.195388000000001
#
# number of rings (size 3 to 8) (size 9 to 14) (size 15 to 20)
#    0.000    2.000    0.000    4.714    0.000    2.857 
#    0.000    3.571    0.000    0.000    0.000    0.000 
#    0.000    0.000    0.000    0.000    0.000    0.000 
#
# Total GULP energy -347271.535817 kJ/mol
# GULP energy per Si atom -12402.554851 kJ/mol
# Density = 2.014942 g / cm^3
# Si number density = 20.195388 Si / 1000 Ang^3
#
#
#
# Elastic Constant Matrix: (Units=GPa)
#
#
# Indices 1 2 3 4 5 6 
#
# 1 170.3630 32.0367 61.3541 0.0000 12.2376 0.0000
# 2 32.0367 44.3221 23.2271 0.0000 4.4000 0.0000
# 3 61.3541 23.2271 123.2537 0.0000 12.9351 0.0000
# 4 0.0000 0.0000 0.0000 35.3175 0.0000 1.1423
# 5 12.2376 4.4000 12.9351 0.0000 19.2550 0.0000
# 6 0.0000 0.0000 0.0000 1.1423 0.0000 18.0569
#
#
#
# Elastic Compliance Matrix: (Units=1/GPa)
#
#
# Indices 1 2 3 4 5 6 
#
# 1 0.007810 -0.003900 -0.002932 0.000000 -0.002103 0.000000
# 2 -0.003900 0.027117 -0.002989 0.000000 -0.001710 0.000000
# 3 -0.002932 -0.002989 0.010618 0.000000 -0.004586 0.000000
# 4 0.000000 0.000000 0.000000 0.028373 0.000000 -0.001795
# 5 -0.002103 -0.001710 -0.004586 0.000000 0.056742 0.000000
# 6 0.000000 0.000000 0.000000 -0.001795 0.000000 0.055494
#
#
# Mechanical properties :
#
#
# Convention : Reuss Voigt Hill
#
# Bulk Modulus (GPa) = 38.60705 63.46386 51.03546
# Shear Modulus (GPa) = 23.31743 29.28060 26.29901
#
# Velocity S-wave (km/s) = 3.40161 3.81184 3.61256
# Velocity P-wave (km/s) = 5.88101 7.13209 6.53655
#
# Compressibility (1/GPa) = 0.02590200
#
# Stress axis : x y z
#
# Youngs Moduli (GPa) = 128.03662 36.87656 94.18320
#
# Poissons Ratio (x) = 0.14382 0.27616
# Poissons Ratio (y) = 0.49934 0.28156
# Poissons Ratio (z) = 0.37543 0.11024
#
# Static dielectric constant tensor:
#      x y z
#    x 4.157020 0.000000 -0.018350 
#    y 0.000000 3.445990 0.000000 
#    z -0.018350 0.000000 3.560230 
# 
# 
# High freq. dielectric constant tensor:
#      x y z
#    x 1.800350 0.000000 0.002970 
#    y 0.000000 1.774890 0.000000 
#    z 0.002970 0.000000 1.784290 
# 
# From -- ./inp_files/49180.got.cif
#   From: 2010.06.25/outbox.cif.g09.slc.cpg/sg11_25_cif.got.tgz:49180.got - 2010.06.27 23:14:04.
