data_PCOD8071578
_publ_section_title
;
Structure prediction by ZEFSAII (Michael W. Deem and Ramdas Pophale) SiO2 
 PCOD8071578
Probable space group: P 21/M
;
_chemical_formula_sum "Si O2"
_cell_formula_units_Z 32
_cell_length_a 12.753411
_cell_length_b 17.496977
_cell_length_c 15.693273
_cell_angle_alpha 90.000000
_cell_angle_beta 149.376630
_cell_angle_gamma 90.000000
_cell_volume 1783.838017
_symmetry_space_group_name_H-M "P 21/M"
_symmetry_group_IT_number 11
_symmetry_cell_setting 'monoclinic'
loop_
_space_group_symop_operation_xyz
x,y,z
-x,1/2+y,-z
-x,-y,-z
x,1/2-y,z
loop_
_atom_site_type_symbol
_atom_site_label
_atom_site_fract_x
_atom_site_fract_y
_atom_site_fract_z
Si Si1 0.636660 0.445612 0.150695
Si Si2 0.307362 0.332946 0.126639
Si Si3 0.608162 0.464565 0.325425
Si Si4 0.052831 0.839380 0.001594
Si Si5 0.305427 0.165503 0.929003
Si Si6 0.975626 0.976442 0.299516
Si Si7 0.187857 0.449117 0.288646
Si Si8 0.415182 0.933688 0.325999
O O1 0.608928 0.478772 0.225876
O O2 0.865509 0.451857 0.271166
O O3 0.500000 0.500000 0.000000
O O4 0.546180 0.359072 0.084305
O O5 0.381396 0.250000 0.211005
O O6 0.490802 0.389577 0.274866
O O7 0.103142 0.358286 0.031940
O O8 0.247787 0.330074 0.986918
O O9 0.838338 0.450411 0.513324
O O10 0.505329 0.535629 0.300423
O O11 0.063989 0.750000 0.984921
O O12 0.966737 0.885889 0.859062
O O13 0.275444 0.863567 0.195346
O O14 0.272582 0.250000 0.864311
O O15 0.163684 0.099174 0.792574
O O16 0.048392 0.001553 0.256460
O O17 0.388071 0.410987 0.476198
O O18 0.271779 0.504882 0.273760
#
# Coordination Sequence:
#
# PCOD8071578 Si02
#       8
#     4   4   4   4   4   4   4   4
#     4   9  19  33  54  78 104 136 175 218 264 319
#     4   9  18  32  49  78 109 139 177 220 272 321
#     4  10  19  33  55  80 105 139 175 228 268 319
#     4  11  22  35  55  78 112 155 186 227 280 327
#     4   9  18  33  53  78 107 137 176 222 271 322
#     4  10  20  33  54  80 108 140 179 220 272 322
#     4  10  21  36  56  84 113 145 187 229 274 331
#     4  10  21  35  57  83 110 144 190 228 274 329
#
# _framework density 17.938848
#
# number of rings (size 3 to 8) (size 9 to 14) (size 15 to 20)
#    0.000    2.250    1.250    1.500    5.250    1.000 
#    0.000    0.625    0.000    0.750    0.000    0.000 
#    0.000    0.000    0.000    0.000    0.000    0.000 
#
# Total GULP energy -396460.260330 kJ/mol
# GULP energy per Si atom -12389.383135 kJ/mol
# Density = 1.789802 g / cm^3
# Si number density = 17.938848 Si / 1000 Ang^3
#
#
#
# Elastic Constant Matrix: (Units=GPa)
#
#
# Indices 1 2 3 4 5 6 
#
# 1 78.7833 35.6503 30.9851 0.0000 5.5808 0.0000
# 2 35.6503 91.0285 56.9480 0.0000 1.2609 0.0000
# 3 30.9851 56.9480 105.3097 0.0000 3.8662 0.0000
# 4 0.0000 0.0000 0.0000 19.4292 0.0000 2.4878
# 5 5.5808 1.2609 3.8662 0.0000 28.4922 0.0000
# 6 0.0000 0.0000 0.0000 2.4878 0.0000 16.8422
#
#
#
# Elastic Compliance Matrix: (Units=1/GPa)
#
#
# Indices 1 2 3 4 5 6 
#
# 1 0.015883 -0.005019 -0.001863 0.000000 -0.002636 0.000000
# 2 -0.005019 0.018195 -0.008411 0.000000 0.001319 0.000000
# 3 -0.001863 -0.008411 0.014638 0.000000 -0.001249 0.000000
# 4 0.000000 0.000000 0.000000 0.052461 0.000000 -0.007749
# 5 -0.002636 0.001319 -0.001249 0.000000 0.035725 0.000000
# 6 0.000000 0.000000 0.000000 -0.007749 0.000000 0.060519
#
#
# Mechanical properties :
#
#
# Convention : Reuss Voigt Hill
#
# Bulk Modulus (GPa) = 55.15210 58.03202 56.59206
# Shear Modulus (GPa) = 21.36296 23.05526 22.20911
#
# Velocity S-wave (km/s) = 3.45465 3.58888 3.52240
# Velocity P-wave (km/s) = 6.83550 7.04227 6.93965
#
# Compressibility (1/GPa) = 0.01813168
#
# Stress axis : x y z
#
# Youngs Moduli (GPa) = 62.95887 54.96097 68.31537
#
# Poissons Ratio (x) = 0.27584 0.12724
# Poissons Ratio (y) = 0.31598 0.57459
# Poissons Ratio (z) = 0.11727 0.46227
#
# Static dielectric constant tensor:
#      x y z
#    x 2.996570 0.000000 0.222820 
#    y 0.000000 3.377020 0.000000 
#    z 0.222820 0.000000 3.483050 
# 
# 
# High freq. dielectric constant tensor:
#      x y z
#    x 1.699850 0.000000 0.004190 
#    y 0.000000 1.675140 0.000000 
#    z 0.004190 0.000000 1.697880 
# 
# From -- ./inp_files/50724.got.cif
#   From: 2010.06.25/outbox.cif.g09.slc.cpg/sg11_26_cif.got.tgz:50724.got - 2010.06.27 23:14:04.
