data_PCOD8071894
_publ_section_title
;
Structure prediction by ZEFSAII (Michael W. Deem and Ramdas Pophale) SiO2 
 PCOD8071894
Probable space group: P 21/M
;
_chemical_formula_sum "Si O2"
_cell_formula_units_Z 24
_cell_length_a 12.052088
_cell_length_b 17.468288
_cell_length_c 9.120876
_cell_angle_alpha 90.000000
_cell_angle_beta 135.483628
_cell_angle_gamma 90.000000
_cell_volume 1346.285710
_symmetry_space_group_name_H-M "P 21/M"
_symmetry_group_IT_number 11
_symmetry_cell_setting 'monoclinic'
loop_
_space_group_symop_operation_xyz
x,y,z
-x,1/2+y,-z
-x,-y,-z
x,1/2-y,z
loop_
_atom_site_type_symbol
_atom_site_label
_atom_site_fract_x
_atom_site_fract_y
_atom_site_fract_z
Si Si1 0.873580 0.062863 0.437524
Si Si2 0.870420 0.836475 0.211888
Si Si3 0.859295 0.540224 0.677204
Si Si4 0.690822 0.838019 0.338450
Si Si5 0.198027 0.023941 0.049300
Si Si6 0.411543 0.553732 0.031184
O O1 0.745179 0.085305 0.196147
O O2 0.959623 0.141626 0.559978
O O3 0.791424 0.025270 0.503819
O O4 0.000000 0.000000 0.500000
O O5 0.876593 0.750000 0.159101
O O6 0.740567 0.846835 0.216195
O O7 0.832778 0.890868 0.040063
O O8 0.817706 0.622409 0.566832
O O9 0.771480 0.530141 0.749087
O O10 0.048740 0.531519 0.874432
O O11 0.678246 0.750000 0.374436
O O12 0.519125 0.876951 0.189357
O O13 0.356251 0.991648 0.123809
O O14 0.500000 0.500000 0.000000
#
# Coordination Sequence:
#
# PCOD8071894 Si02
#       6
#     4   4   4   4   4   4
#     4  11  17  35  58  79 101 140 185 226 259 314
#     4  10  19  34  55  79 107 140 180 225 269 317
#     4  10  19  36  56  83 106 140 185 226 261 319
#     4  11  22  35  53  81 113 145 178 219 279 327
#     4  10  20  34  59  83 105 142 188 223 263 318
#     4  12  19  34  57  81 106 142 181 228 261 323
#
# _framework density 17.826824999999999
#
# number of rings (size 3 to 8) (size 9 to 14) (size 15 to 20)
#    0.000    1.333    8.333    0.000    0.000    2.000 
#    0.000    0.833    0.000    4.000    0.000    0.000 
#    0.000    0.000    0.000    0.000    0.000    0.000 
#
# Total GULP energy -297566.902184 kJ/mol
# GULP energy per Si atom -12398.620924 kJ/mol
# Density = 1.778625 g / cm^3
# Si number density = 17.826825 Si / 1000 Ang^3
#
#
#
# Elastic Constant Matrix: (Units=GPa)
#
#
# Indices 1 2 3 4 5 6 
#
# 1 106.2682 53.9179 31.7151 0.0000 -16.3450 0.0000
# 2 53.9179 127.4238 49.8876 0.0000 3.8264 0.0000
# 3 31.7151 49.8876 73.8366 0.0000 -7.5590 0.0000
# 4 0.0000 0.0000 0.0000 26.5093 0.0000 4.1603
# 5 -16.3450 3.8264 -7.5590 0.0000 30.3696 0.0000
# 6 0.0000 0.0000 0.0000 4.1603 0.0000 23.2659
#
#
#
# Elastic Compliance Matrix: (Units=1/GPa)
#
#
# Indices 1 2 3 4 5 6 
#
# 1 0.013839 -0.005541 -0.001402 0.000000 0.007798 0.000000
# 2 -0.005541 0.013205 -0.007201 0.000000 -0.006438 0.000000
# 3 -0.001402 -0.007201 0.019524 0.000000 0.005012 0.000000
# 4 0.000000 0.000000 0.000000 0.038812 0.000000 -0.006940
# 5 0.007798 -0.006438 0.005012 0.000000 0.039183 0.000000
# 6 0.000000 0.000000 0.000000 -0.006940 0.000000 0.044222
#
#
# Mechanical properties :
#
#
# Convention : Reuss Voigt Hill
#
# Bulk Modulus (GPa) = 54.70527 64.28554 59.49541
# Shear Modulus (GPa) = 24.61012 27.49615 26.05313
#
# Velocity S-wave (km/s) = 3.71955 3.93160 3.82705
# Velocity P-wave (km/s) = 7.01430 7.53322 7.27839
#
# Compressibility (1/GPa) = 0.01827977
#
# Stress axis : x y z
#
# Youngs Moduli (GPa) = 72.25722 75.72827 51.21833
#
# Poissons Ratio (x) = 0.41962 0.07183
# Poissons Ratio (y) = 0.40039 0.36883
# Poissons Ratio (z) = 0.10133 0.54532
#
# Static dielectric constant tensor:
#      x y z
#    x 3.430900 0.000000 -0.072430 
#    y 0.000000 3.201780 0.000000 
#    z -0.072430 0.000000 3.459730 
# 
# 
# High freq. dielectric constant tensor:
#      x y z
#    x 1.690540 0.000000 -0.005170 
#    y 0.000000 1.669820 0.000000 
#    z -0.005170 0.000000 1.685680 
# 
# From -- ./inp_files/18532.got.cif
#   From: 2010.06.25/outbox.cif.g09.slc.cpg/sg11_10_cif.got.tgz:18532.got - 2010.06.27 23:14:04.
