data_PCOD8071147
_publ_section_title
;
Structure prediction by ZEFSAII (Michael W. Deem and Ramdas Pophale) SiO2 
 PCOD8071147
Probable space group: P 21/M
;
_chemical_formula_sum "Si O2"
_cell_formula_units_Z 20
_cell_length_a 21.139313
_cell_length_b 7.626037
_cell_length_c 8.863815
_cell_angle_alpha 90.000000
_cell_angle_beta 51.142453
_cell_angle_gamma 90.000000
_cell_volume 1112.718273
_symmetry_space_group_name_H-M "P 21/M"
_symmetry_group_IT_number 11
_symmetry_cell_setting 'monoclinic'
loop_
_space_group_symop_operation_xyz
x,y,z
-x,1/2+y,-z
-x,-y,-z
x,1/2-y,z
loop_
_atom_site_type_symbol
_atom_site_label
_atom_site_fract_x
_atom_site_fract_y
_atom_site_fract_z
Si Si1 0.084454 0.947816 0.446009
Si Si2 0.384401 0.250000 0.355898
Si Si3 0.201533 0.250000 0.269681
Si Si4 0.084376 0.947750 0.801290
Si Si5 0.615074 0.750000 0.004015
Si Si6 0.516691 0.057853 0.644063
Si Si7 0.798746 0.750000 0.371877
O O1 0.108745 0.750000 0.364439
O O2 0.073819 0.968537 0.639482
O O3 0.154973 0.076753 0.280007
O O4 0.000000 0.000000 0.500000
O O5 0.388673 0.250000 0.170103
O O6 0.426725 0.423130 0.354328
O O7 0.292409 0.250000 0.555565
O O8 0.293144 0.250000 0.070095
O O9 0.204431 0.250000 0.444330
O O10 0.108683 0.750000 0.810114
O O11 0.154707 0.076710 0.756858
O O12 0.000000 0.000000 0.000000
O O13 0.569388 0.576529 0.137444
O O14 0.559790 0.250000 0.578182
O O15 0.500000 0.000000 0.500000
#
# Coordination Sequence:
#
# PCOD8071147 Si02
#       7
#     4   2   2   4   2   4   2
#     4  10  19  32  53  78 105 146 182 223 271 318
#     4  11  19  39  61  88 113 140 199 242 277 343
#     4   9  18  37  51  78 117 134 185 232 273 317
#     4  10  19  33  53  77 108 145 185 222 271 321
#     4   9  21  37  61  88 109 148 191 244 277 335
#     4  10  21  38  60  83 117 153 180 224 300 345
#     4   9  20  33  55  80 111 144 175 238 277 311
#
# _framework density 17.974001999999999
#
# number of rings (size 3 to 8) (size 9 to 14) (size 15 to 20)
#    0.600    1.600    3.000    0.600    0.000    0.800 
#    1.800    6.000    0.000    0.000    0.000    0.000 
#    0.000    0.000    0.000    0.000    0.000    0.000 
#
# Total GULP energy -247910.519606 kJ/mol
# GULP energy per Si atom -12395.525980 kJ/mol
# Density = 1.793309 g / cm^3
# Si number density = 17.974002 Si / 1000 Ang^3
#
#
#
# Elastic Constant Matrix: (Units=GPa)
#
#
# Indices 1 2 3 4 5 6 
#
# 1 115.7787 77.3160 56.4277 0.0000 -32.4052 0.0000
# 2 77.3160 183.4980 59.7441 0.0000 -26.8466 0.0000
# 3 56.4277 59.7441 91.6399 0.0000 -26.3625 0.0000
# 4 0.0000 0.0000 0.0000 29.6878 0.0000 -4.6292
# 5 -32.4052 -26.8466 -26.3625 0.0000 38.0476 0.0000
# 6 0.0000 0.0000 0.0000 -4.6292 0.0000 33.0635
#
#
#
# Elastic Compliance Matrix: (Units=1/GPa)
#
#
# Indices 1 2 3 4 5 6 
#
# 1 0.015726 -0.003935 -0.005075 0.000000 0.007101 0.000000
# 2 -0.003935 0.008052 -0.002693 0.000000 0.000465 0.000000
# 3 -0.005075 -0.002693 0.017489 0.000000 0.005895 0.000000
# 4 0.000000 0.000000 0.000000 0.034436 0.000000 0.004821
# 5 0.007101 0.000465 0.005895 0.000000 0.036743 0.000000
# 6 0.000000 0.000000 0.000000 0.004821 0.000000 0.030920
#
#
# Mechanical properties :
#
#
# Convention : Reuss Voigt Hill
#
# Bulk Modulus (GPa) = 55.98893 86.43248 71.21070
# Shear Modulus (GPa) = 28.94770 33.32171 31.13470
#
# Velocity S-wave (km/s) = 4.01750 4.31035 4.16649
# Velocity P-wave (km/s) = 7.26209 8.54190 7.92786
#
# Compressibility (1/GPa) = 0.01786067
#
# Stress axis : x y z
#
# Youngs Moduli (GPa) = 63.59026 124.18744 57.17852
#
# Poissons Ratio (x) = 0.48863 0.29020
# Poissons Ratio (y) = 0.25020 0.15400
# Poissons Ratio (z) = 0.32274 0.33447
#
# Static dielectric constant tensor:
#      x y z
#    x 3.269210 0.000000 -0.106220 
#    y 0.000000 4.254140 0.000000 
#    z -0.106220 0.000000 3.286780 
# 
# 
# High freq. dielectric constant tensor:
#      x y z
#    x 1.685830 0.000000 -0.004310 
#    y 0.000000 1.709050 0.000000 
#    z -0.004310 0.000000 1.685100 
# 
# From -- ./inp_files/25453.got.cif
#   From: 2010.06.25/outbox.cif.g09.slc.cpg/sg11_13_cif.got.tgz:25453.got - 2010.06.27 23:14:04.
