data_PCOD8071293
_publ_section_title
;
Structure prediction by ZEFSAII (Michael W. Deem and Ramdas Pophale) SiO2 
 PCOD8071293
Probable space group: P 21/M
;
_chemical_formula_sum "Si O2"
_cell_formula_units_Z 32
_cell_length_a 14.108817
_cell_length_b 9.120818
_cell_length_c 27.605138
_cell_angle_alpha 90.000000
_cell_angle_beta 149.776980
_cell_angle_gamma 90.000000
_cell_volume 1788.130383
_symmetry_space_group_name_H-M "P 21/M"
_symmetry_group_IT_number 11
_symmetry_cell_setting 'monoclinic'
loop_
_space_group_symop_operation_xyz
x,y,z
-x,1/2+y,-z
-x,-y,-z
x,1/2-y,z
loop_
_atom_site_type_symbol
_atom_site_label
_atom_site_fract_x
_atom_site_fract_y
_atom_site_fract_z
Si Si1 0.303421 0.411811 0.559281
Si Si2 0.970583 0.580021 0.647334
Si Si3 0.193221 0.922525 0.596374
Si Si4 0.753748 0.577790 0.928015
Si Si5 0.119378 0.078341 0.121888
Si Si6 0.286094 0.914178 0.286094
Si Si7 0.698476 0.076466 0.599477
Si Si8 0.340543 0.576717 0.762191
O O1 0.279942 0.250000 0.572284
O O2 0.330794 0.532319 0.613297
O O3 0.488676 0.418472 0.608554
O O4 0.122496 0.444302 0.446282
O O5 0.952874 0.750000 0.655526
O O6 0.191817 0.531878 0.738901
O O7 0.867479 0.477702 0.640114
O O8 0.167579 0.750000 0.586967
O O9 0.274947 0.988205 0.681925
O O10 0.000000 0.000000 0.500000
O O11 0.786787 0.750000 0.950041
O O12 0.758816 0.540433 0.872525
O O13 0.556305 0.524706 0.865110
O O14 0.913930 0.492310 0.027324
O O15 0.092898 0.250000 0.115959
O O16 0.216972 0.020985 0.213572
O O17 0.215741 0.750000 0.242341
O O18 0.222908 0.961900 0.312010
O O19 0.669031 0.250000 0.580048
O O20 0.500000 0.000000 0.500000
O O21 0.339991 0.750000 0.757067
#
# Coordination Sequence:
#
# PCOD8071293 Si02
#       8
#     4   4   4   4   4   4   4   4
#     4  10  19  33  49  71 104 140 175 214 259 311
#     4  10  19  35  53  73 105 142 178 219 263 313
#     4  11  20  31  46  70 104 141 178 214 252 306
#     4   9  18  35  57  80 108 143 177 213 265 324
#     4  10  20  34  55  84 111 136 176 225 266 314
#     4  10  21  36  54  75 106 142 174 217 273 322
#     4  11  22  37  55  78 106 141 184 226 271 319
#     4   9  18  33  53  73 103 144 180 213 260 320
#
# _framework density 17.895786999999999
#
# number of rings (size 3 to 8) (size 9 to 14) (size 15 to 20)
#    0.000    2.000    2.500    1.875    0.000    3.500 
#    0.000    1.875    0.000    0.750    0.000    0.000 
#    0.000    0.000    0.000    0.000    0.000    0.000 
#
# Total GULP energy -396616.137185 kJ/mol
# GULP energy per Si atom -12394.254287 kJ/mol
# Density = 1.785506 g / cm^3
# Si number density = 17.895787 Si / 1000 Ang^3
#
#
#
# Elastic Constant Matrix: (Units=GPa)
#
#
# Indices 1 2 3 4 5 6 
#
# 1 109.3358 39.9701 45.3753 0.0000 15.8244 0.0000
# 2 39.9701 66.6363 35.6701 0.0000 1.7468 0.0000
# 3 45.3753 35.6701 83.4268 0.0000 13.4954 0.0000
# 4 0.0000 0.0000 0.0000 27.0691 0.0000 -1.3046
# 5 15.8244 1.7468 13.4954 0.0000 28.2512 0.0000
# 6 0.0000 0.0000 0.0000 -1.3046 0.0000 31.0362
#
#
#
# Elastic Compliance Matrix: (Units=1/GPa)
#
#
# Indices 1 2 3 4 5 6 
#
# 1 0.013800 -0.005948 -0.004088 0.000000 -0.005409 0.000000
# 2 -0.005948 0.022262 -0.007153 0.000000 0.005372 0.000000
# 3 -0.004088 -0.007153 0.018235 0.000000 -0.005979 0.000000
# 4 0.000000 0.000000 0.000000 0.037017 0.000000 0.001556
# 5 -0.005409 0.005372 -0.005979 0.000000 0.040951 0.000000
# 6 0.000000 0.000000 0.000000 0.001556 0.000000 0.032286
#
#
# Mechanical properties :
#
#
# Convention : Reuss Voigt Hill
#
# Bulk Modulus (GPa) = 50.19677 55.71445 52.95561
# Shear Modulus (GPa) = 24.32297 26.49686 25.40992
#
# Velocity S-wave (km/s) = 3.69066 3.85206 3.77222
# Velocity P-wave (km/s) = 6.80233 7.14036 6.97339
#
# Compressibility (1/GPa) = 0.01992160
#
# Stress axis : x y z
#
# Youngs Moduli (GPa) = 72.46554 44.91909 54.83917
#
# Poissons Ratio (x) = 0.26716 0.22416
# Poissons Ratio (y) = 0.43099 0.39224
# Poissons Ratio (z) = 0.29621 0.32129
#
# Static dielectric constant tensor:
#      x y z
#    x 3.694770 0.000000 0.133480 
#    y 0.000000 3.479380 0.000000 
#    z 0.133480 0.000000 3.203290 
# 
# 
# High freq. dielectric constant tensor:
#      x y z
#    x 1.693340 0.000000 0.012480 
#    y 0.000000 1.682910 0.000000 
#    z 0.012480 0.000000 1.674340 
# 
# From -- ./inp_files/71646.got.cif
#   From: 2010.06.25/outbox.cif.g09.slc.cpg/sg11_36_cif.got.tgz:71646.got - 2010.06.27 23:14:04.
