data_PCOD8071792
_publ_section_title
;
Structure prediction by ZEFSAII (Michael W. Deem and Ramdas Pophale) SiO2 
 PCOD8071792
Probable space group: P 21/M
;
_chemical_formula_sum "Si O2"
_cell_formula_units_Z 32
_cell_length_a 11.479687
_cell_length_b 9.453596
_cell_length_c 17.928547
_cell_angle_alpha 90.000000
_cell_angle_beta 91.553699
_cell_angle_gamma 90.000000
_cell_volume 1944.968101
_symmetry_space_group_name_H-M "P 21/M"
_symmetry_group_IT_number 11
_symmetry_cell_setting 'monoclinic'
loop_
_space_group_symop_operation_xyz
x,y,z
-x,1/2+y,-z
-x,-y,-z
x,1/2-y,z
loop_
_atom_site_type_symbol
_atom_site_label
_atom_site_fract_x
_atom_site_fract_y
_atom_site_fract_z
Si Si1 0.229290 0.912882 0.347149
Si Si2 0.384267 0.587041 0.487713
Si Si3 0.368371 0.906530 0.926110
Si Si4 0.013212 0.416641 0.577298
Si Si5 0.343241 0.417735 0.224198
Si Si6 0.604778 0.081988 0.235532
Si Si7 0.355346 0.094178 0.058123
Si Si8 0.229528 0.915369 0.628242
O O1 0.247856 0.750000 0.326240
O O2 0.321858 0.961060 0.411021
O O3 0.100715 0.939292 0.375340
O O4 0.248576 0.006938 0.274431
O O5 0.500000 0.500000 0.500000
O O6 0.420136 0.750000 0.486457
O O7 0.295786 0.557132 0.552782
O O8 0.313858 0.750000 0.930204
O O9 0.346072 0.973960 0.843426
O O10 0.505810 0.899244 0.941154
O O11 0.307203 0.997317 0.990157
O O12 0.034988 0.250000 0.561669
O O13 0.116770 0.485302 0.627139
O O14 0.000000 0.500000 0.500000
O O15 0.333323 0.250000 0.234374
O O16 0.473208 0.472544 0.248169
O O17 0.314524 0.462006 0.138384
O O18 0.598030 0.250000 0.229954
O O19 0.689035 0.031582 0.302795
O O20 0.303741 0.250000 0.043651
O O21 0.195227 0.750000 0.636095
#
# Coordination Sequence:
#
# PCOD8071792 Si02
#       8
#     4   4   4   4   4   4   4   4
#     4  10  21  35  48  67  95 121 152 198 242 275
#     4  10  20  33  48  69  96 125 155 188 230 281
#     4   8  13  23  40  63  91 127 161 183 219 274
#     4  11  22  38  55  70  90 119 159 204 244 284
#     4   9  17  30  48  70  96 129 162 188 228 286
#     4   8  15  28  47  70  99 129 157 192 230 278
#     4   8  14  24  39  63  94 124 156 191 222 264
#     4  10  19  34  52  70  95 125 158 198 241 277
#
# _framework density 16.452712999999999
#
# number of rings (size 3 to 8) (size 9 to 14) (size 15 to 20)
#    0.000    2.750    1.250    2.625    0.000    3.500 
#    0.000    3.125    0.000    0.000    0.000    0.875 
#    0.000    0.000    0.000    0.000    0.000    0.000 
#
# Total GULP energy -396678.712648 kJ/mol
# GULP energy per Si atom -12396.209770 kJ/mol
# Density = 1.641527 g / cm^3
# Si number density = 16.452713 Si / 1000 Ang^3
#
#
#
# Elastic Constant Matrix: (Units=GPa)
#
#
# Indices 1 2 3 4 5 6 
#
# 1 57.5732 35.0507 25.1616 0.0000 -10.6944 0.0000
# 2 35.0507 64.1096 48.2641 0.0000 -10.6453 0.0000
# 3 25.1616 48.2641 116.1285 0.0000 -19.6143 0.0000
# 4 0.0000 0.0000 0.0000 28.7207 0.0000 -2.4292
# 5 -10.6944 -10.6453 -19.6143 0.0000 11.6211 0.0000
# 6 0.0000 0.0000 0.0000 -2.4292 0.0000 26.0689
#
#
#
# Elastic Compliance Matrix: (Units=1/GPa)
#
#
# Indices 1 2 3 4 5 6 
#
# 1 0.028356 -0.014838 0.002986 0.000000 0.017543 0.000000
# 2 -0.014838 0.030858 -0.009990 0.000000 -0.002249 0.000000
# 3 0.002986 -0.009990 0.015435 0.000000 0.019648 0.000000
# 4 0.000000 0.000000 0.000000 0.035095 0.000000 0.003270
# 5 0.017543 -0.002249 0.019648 0.000000 0.133296 0.000000
# 6 0.000000 0.000000 0.000000 0.003270 0.000000 0.038665
#
#
# Mechanical properties :
#
#
# Convention : Reuss Voigt Hill
#
# Bulk Modulus (GPa) = 32.29475 50.52934 41.41205
# Shear Modulus (GPa) = 14.89378 21.90446 18.39912
#
# Velocity S-wave (km/s) = 3.01200 3.65274 3.34773
# Velocity P-wave (km/s) = 5.63628 6.96911 6.33783
#
# Compressibility (1/GPa) = 0.03096478
#
# Stress axis : x y z
#
# Youngs Moduli (GPa) = 35.26530 32.40643 64.78964
#
# Poissons Ratio (x) = 0.48086 -0.19346
# Poissons Ratio (y) = 0.52328 0.64723
# Poissons Ratio (z) = -0.10530 0.32373
#
# Static dielectric constant tensor:
#      x y z
#    x 2.784420 0.000000 0.038440 
#    y 0.000000 3.130920 0.000000 
#    z 0.038440 0.000000 3.348060 
# 
# 
# High freq. dielectric constant tensor:
#      x y z
#    x 1.595690 0.000000 -0.003330 
#    y 0.000000 1.622740 0.000000 
#    z -0.003330 0.000000 1.643160 
# 
# From -- ./inp_files/58719.got.cif
#   From: 2010.06.25/outbox.cif.g09.slc.cpg/sg11_30_cif.got.tgz:58719.got - 2010.06.27 23:14:04.
