data_PCOD8071790
_publ_section_title
;
Structure prediction by ZEFSAII (Michael W. Deem and Ramdas Pophale) SiO2 
 PCOD8071790
Probable space group: P 21/M
;
_chemical_formula_sum "Si O2"
_cell_formula_units_Z 32
_cell_length_a 15.334835
_cell_length_b 9.019103
_cell_length_c 21.034283
_cell_angle_alpha 90.000000
_cell_angle_beta 42.466312
_cell_angle_gamma 90.000000
_cell_volume 1964.150139
_symmetry_space_group_name_H-M "P 21/M"
_symmetry_group_IT_number 11
_symmetry_cell_setting 'monoclinic'
loop_
_space_group_symop_operation_xyz
x,y,z
-x,1/2+y,-z
-x,-y,-z
x,1/2-y,z
loop_
_atom_site_type_symbol
_atom_site_label
_atom_site_fract_x
_atom_site_fract_y
_atom_site_fract_z
Si Si1 0.055457 0.419638 0.620849
Si Si2 0.188632 0.920780 0.909376
Si Si3 0.887362 0.079231 0.597833
Si Si4 0.719011 0.922509 0.598919
Si Si5 0.007796 0.423300 0.092483
Si Si6 0.122091 0.575008 0.708768
Si Si7 0.385980 0.426787 0.600619
Si Si8 0.560724 0.076952 0.296957
O O1 0.070031 0.250000 0.636318
O O2 0.177678 0.462309 0.511085
O O3 0.049391 0.530874 0.683237
O O4 0.920178 0.439612 0.655070
O O5 0.160823 0.750000 0.936477
O O6 0.339356 0.950560 0.814493
O O7 0.107049 0.977133 0.892291
O O8 0.143223 0.004560 0.997611
O O9 0.886246 0.250000 0.578986
O O10 0.752834 0.005996 0.647136
O O11 0.000000 0.000000 0.500000
O O12 0.719160 0.750000 0.614588
O O13 0.579215 0.975976 0.650854
O O14 0.027267 0.250000 0.078506
O O15 0.971207 0.472637 0.183250
O O16 0.152508 0.750000 0.694315
O O17 0.253690 0.483083 0.641020
O O18 0.500000 0.500000 0.500000
O O19 0.393622 0.250000 0.591310
O O20 0.395055 0.477113 0.668355
O O21 0.561529 0.250000 0.317247
#
# Coordination Sequence:
#
# PCOD8071790 Si02
#       8
#     4   4   4   4   4   4   4   4
#     4   9  18  31  46  70  98 128 161 195 235 283
#     4   9  17  31  50  69  93 124 158 198 242 284
#     4   9  17  30  48  68  95 124 157 198 237 277
#     4   9  18  31  49  70  97 128 158 194 237 282
#     4   9  18  32  48  68  94 122 158 201 242 283
#     4  11  21  34  50  70  96 127 161 201 242 284
#     4  12  24  35  48  66  94 132 167 197 231 279
#     4  10  19  34  51  71  99 128 160 200 240 283
#
# _framework density 16.292034000000001
#
# number of rings (size 3 to 8) (size 9 to 14) (size 15 to 20)
#    0.000    2.250    1.250    3.375    0.000    5.500 
#    0.000    0.000    0.000    0.000    0.000    0.875 
#    0.000    0.000    0.000    0.000    0.000    0.000 
#
# Total GULP energy -396737.588362 kJ/mol
# GULP energy per Si atom -12398.049636 kJ/mol
# Density = 1.625495 g / cm^3
# Si number density = 16.292034 Si / 1000 Ang^3
#
#
#
# Elastic Constant Matrix: (Units=GPa)
#
#
# Indices 1 2 3 4 5 6 
#
# 1 83.1910 33.6954 25.9953 0.0000 11.5664 0.0000
# 2 33.6954 68.8917 29.9011 0.0000 11.0184 0.0000
# 3 25.9953 29.9011 78.7793 0.0000 14.3215 0.0000
# 4 0.0000 0.0000 0.0000 25.7604 0.0000 2.2190
# 5 11.5664 11.0184 14.3215 0.0000 12.2739 0.0000
# 6 0.0000 0.0000 0.0000 2.2190 0.0000 29.3507
#
#
#
# Elastic Compliance Matrix: (Units=1/GPa)
#
#
# Indices 1 2 3 4 5 6 
#
# 1 0.016000 -0.005856 -0.001614 0.000000 -0.007938 0.000000
# 2 -0.005856 0.020553 -0.004465 0.000000 -0.007723 0.000000
# 3 -0.001614 -0.004465 0.017662 0.000000 -0.015080 0.000000
# 4 0.000000 0.000000 0.000000 0.039074 0.000000 -0.002954
# 5 -0.007938 -0.007723 -0.015080 0.000000 0.113482 0.000000
# 6 0.000000 0.000000 0.000000 -0.002954 0.000000 0.034294
#
#
# Mechanical properties :
#
#
# Convention : Reuss Voigt Hill
#
# Bulk Modulus (GPa) = 32.95313 45.56063 39.25688
# Shear Modulus (GPa) = 18.17855 22.89501 20.53678
#
# Velocity S-wave (km/s) = 3.34397 3.75278 3.55426
# Velocity P-wave (km/s) = 5.93127 6.84131 6.40248
#
# Compressibility (1/GPa) = 0.03034613
#
# Stress axis : x y z
#
# Youngs Moduli (GPa) = 62.49877 48.65577 56.61780
#
# Poissons Ratio (x) = 0.28492 0.09139
# Poissons Ratio (y) = 0.36598 0.25278
# Poissons Ratio (z) = 0.10088 0.21723
#
# Static dielectric constant tensor:
#      x y z
#    x 3.243800 0.000000 -0.032330 
#    y 0.000000 3.161230 0.000000 
#    z -0.032330 0.000000 3.021350 
# 
# 
# High freq. dielectric constant tensor:
#      x y z
#    x 1.615120 0.000000 0.001420 
#    y 0.000000 1.631880 0.000000 
#    z 0.001420 0.000000 1.604280 
# 
# From -- ./inp_files/65196.got.cif
#   From: 2010.06.25/outbox.cif.g09.slc.cpg/sg11_33_cif.got.tgz:65196.got - 2010.06.27 23:14:04.
