data_PCOD8071979
_publ_section_title
;
Structure prediction by ZEFSAII (Michael W. Deem and Ramdas Pophale) SiO2 
 PCOD8071979
Probable space group: P 21/M
;
_chemical_formula_sum "Si O2"
_cell_formula_units_Z 32
_cell_length_a 28.786626
_cell_length_b 8.701596
_cell_length_c 11.901833
_cell_angle_alpha 90.000000
_cell_angle_beta 148.568839
_cell_angle_gamma 90.000000
_cell_volume 1554.662062
_symmetry_space_group_name_H-M "P 21/M"
_symmetry_group_IT_number 11
_symmetry_cell_setting 'monoclinic'
loop_
_space_group_symop_operation_xyz
x,y,z
-x,1/2+y,-z
-x,-y,-z
x,1/2-y,z
loop_
_atom_site_type_symbol
_atom_site_label
_atom_site_fract_x
_atom_site_fract_y
_atom_site_fract_z
Si Si1 0.658086 0.069088 0.096014
Si Si2 0.725928 0.430778 0.470246
Si Si3 0.162667 0.927515 0.901044
Si Si4 0.835503 0.433302 0.343983
Si Si5 0.506689 0.567202 0.388805
Si Si6 0.018844 0.572151 0.772906
Si Si7 0.323529 0.932893 0.383604
Si Si8 0.087519 0.430227 0.124834
O O1 0.656683 0.250000 0.077794
O O2 0.657532 0.025710 0.227726
O O3 0.748603 0.005255 0.227887
O O4 0.574095 0.001165 0.854937
O O5 0.743647 0.250000 0.511589
O O6 0.684276 0.487650 0.502409
O O7 0.820379 0.507067 0.634140
O O8 0.185358 0.750000 0.933681
O O9 0.169160 0.002654 0.791656
O O10 0.062359 0.952027 0.739957
O O11 0.236167 0.994008 0.138145
O O12 0.845430 0.250000 0.367410
O O13 0.920440 0.505440 0.580238
O O14 0.500000 0.500000 0.500000
O O15 0.503944 0.750000 0.392453
O O16 0.594852 0.514856 0.507801
O O17 0.017923 0.750000 0.806335
O O18 0.085316 0.479772 0.990761
O O19 0.335536 0.750000 0.401759
O O20 0.085328 0.250000 0.136281
O O21 0.000000 0.500000 0.000000
#
# Coordination Sequence:
#
# PCOD8071979 Si02
#       8
#     4   4   4   4   4   4   4   4
#     4   9  20  38  61  86 117 155 198 245 300 361
#     4  10  20  39  64  88 119 161 203 242 299 365
#     4   9  18  34  56  81 116 161 201 241 299 363
#     4  10  19  34  56  82 114 156 203 251 303 355
#     4  11  23  41  64  92 122 156 201 249 302 363
#     4  11  21  36  55  82 117 156 201 248 300 359
#     4  10  20  38  63  89 120 161 202 245 301 364
#     4  12  24  38  58  85 119 159 204 251 299 353
#
# _framework density 20.583252000000002
#
# number of rings (size 3 to 8) (size 9 to 14) (size 15 to 20)
#    0.000    1.750    1.250    3.750    0.000    4.000 
#    0.000    5.000    0.000    0.000    0.000    0.000 
#    0.000    0.000    0.000    0.000    0.000    0.000 
#
# Total GULP energy -396734.385077 kJ/mol
# GULP energy per Si atom -12397.949534 kJ/mol
# Density = 2.053640 g / cm^3
# Si number density = 20.583252 Si / 1000 Ang^3
#
#
#
# Elastic Constant Matrix: (Units=GPa)
#
#
# Indices 1 2 3 4 5 6 
#
# 1 113.5411 27.8956 39.5906 0.0000 2.9421 0.0000
# 2 27.8956 57.6155 27.5875 0.0000 1.9824 0.0000
# 3 39.5906 27.5875 123.4771 0.0000 1.5532 0.0000
# 4 0.0000 0.0000 0.0000 24.4039 0.0000 4.8696
# 5 2.9421 1.9824 1.5532 0.0000 40.0205 0.0000
# 6 0.0000 0.0000 0.0000 4.8696 0.0000 28.3415
#
#
#
# Elastic Compliance Matrix: (Units=1/GPa)
#
#
# Indices 1 2 3 4 5 6 
#
# 1 0.010671 -0.003935 -0.002536 0.000000 -0.000491 0.000000
# 2 -0.003935 0.020912 -0.003403 0.000000 -0.000614 0.000000
# 3 -0.002536 -0.003403 0.009672 0.000000 -0.000020 0.000000
# 4 0.000000 0.000000 0.000000 0.042432 0.000000 -0.007291
# 5 -0.000491 -0.000614 -0.000020 0.000000 0.025055 0.000000
# 6 0.000000 0.000000 0.000000 -0.007291 0.000000 0.036537
#
#
# Mechanical properties :
#
#
# Convention : Reuss Voigt Hill
#
# Bulk Modulus (GPa) = 46.49571 53.86459 50.18015
# Shear Modulus (GPa) = 29.03658 31.85719 30.44689
#
# Velocity S-wave (km/s) = 3.75999 3.93838 3.85022
# Velocity P-wave (km/s) = 6.44113 6.84887 6.64813
#
# Compressibility (1/GPa) = 0.02150736
#
# Stress axis : x y z
#
# Youngs Moduli (GPa) = 93.70916 47.81873 103.38786
#
# Poissons Ratio (x) = 0.18819 0.26220
# Poissons Ratio (y) = 0.36879 0.35180
# Poissons Ratio (z) = 0.23766 0.16271
#
# Static dielectric constant tensor:
#      x y z
#    x 3.917370 0.000000 -0.210510 
#    y 0.000000 3.449140 0.000000 
#    z -0.210510 0.000000 4.086830 
# 
# 
# High freq. dielectric constant tensor:
#      x y z
#    x 1.820030 0.000000 -0.008110 
#    y 0.000000 1.772050 0.000000 
#    z -0.008110 0.000000 1.812640 
# 
# From -- ./inp_files/45367.got.cif
#   From: 2010.06.25/outbox.cif.g09.slc.cpg/sg11_23_cif.got.tgz:45367.got - 2010.06.27 23:14:04.
