data_PCOD8071862
_publ_section_title
;
Structure prediction by ZEFSAII (Michael W. Deem and Ramdas Pophale) SiO2 
 PCOD8071862
Probable space group: P 21/M
;
_chemical_formula_sum "Si O2"
_cell_formula_units_Z 28
_cell_length_a 29.665592
_cell_length_b 9.438272
_cell_length_c 29.669185
_cell_angle_alpha 90.000000
_cell_angle_beta 170.087211
_cell_angle_gamma 90.000000
_cell_volume 1430.064365
_symmetry_space_group_name_H-M "P 21/M"
_symmetry_group_IT_number 11
_symmetry_cell_setting 'monoclinic'
loop_
_space_group_symop_operation_xyz
x,y,z
-x,1/2+y,-z
-x,-y,-z
x,1/2-y,z
loop_
_atom_site_type_symbol
_atom_site_label
_atom_site_fract_x
_atom_site_fract_y
_atom_site_fract_z
Si Si1 0.124441 0.917070 0.880672
Si Si2 0.792541 0.750000 0.318666
Si Si3 0.839630 0.411887 0.190357
Si Si4 0.677441 0.250000 0.211054
Si Si5 0.395152 0.577705 0.600299
Si Si6 0.306895 0.491438 0.709720
Si Si7 0.979180 0.919118 0.026113
Si Si8 0.451357 0.916538 0.552494
O O1 0.116201 0.750000 0.887844
O O2 0.151845 0.925263 0.854466
O O3 0.867948 0.003925 0.641759
O O4 0.366382 0.002929 0.139485
O O5 0.731247 0.880058 0.289115
O O6 0.095873 0.750000 0.603128
O O7 0.606026 0.750000 0.091346
O O8 0.850865 0.250000 0.217398
O O9 0.085422 0.492450 0.453457
O O10 0.578309 0.482664 0.951016
O O11 0.709923 0.371754 0.278037
O O12 0.391974 0.750000 0.604405
O O13 0.423622 0.533404 0.576353
O O14 0.983415 0.750000 0.022299
O O15 0.213286 0.974660 0.288171
O O16 0.719124 0.973506 0.794908
O O17 0.000000 0.000000 0.000000
O O18 0.449218 0.750000 0.548874
#
# Coordination Sequence:
#
# PCOD8071862 Si02
#       8
#     4   2   4   2   4   4   4   4
#     4  11  24  42  66  93 128 163 208 262 314 375
#     4  12  22  42  66  86 122 158 208 226 290 362
#     4  11  22  43  65  87 115 166 204 230 290 375
#     4  12  26  40  58 100 122 150 186 264 300 326
#     4  11  22  42  65  96 123 164 215 258 315 381
#     4  12  23  42  65  88 121 158 199 240 292 359
#     4  10  19  34  54  81 112 155 200 248 300 358
#     4   9  19  35  58  79 115 159 199 244 303 375
#
# _framework density 19.579537999999999
#
# number of rings (size 3 to 8) (size 9 to 14) (size 15 to 20)
#    0.000    1.143    1.429    5.571    0.000    4.571 
#    7.714    4.286    0.000    0.000    0.000    0.000 
#    0.000    0.000    0.000    0.000    0.000    0.000 
#
# Total GULP energy -347137.027928 kJ/mol
# GULP energy per Si atom -12397.750997 kJ/mol
# Density = 1.953497 g / cm^3
# Si number density = 19.579538 Si / 1000 Ang^3
#
#
#
# Elastic Constant Matrix: (Units=GPa)
#
#
# Indices 1 2 3 4 5 6 
#
# 1 127.4638 52.2956 61.9956 0.0000 0.1032 0.0000
# 2 52.2956 118.3631 47.2694 0.0000 -0.1986 0.0000
# 3 61.9956 47.2694 181.6296 0.0000 -0.1570 0.0000
# 4 0.0000 0.0000 0.0000 35.9979 0.0000 -2.0928
# 5 0.1032 -0.1986 -0.1570 0.0000 43.1877 0.0000
# 6 0.0000 0.0000 0.0000 -2.0928 0.0000 45.5016
#
#
#
# Elastic Compliance Matrix: (Units=1/GPa)
#
#
# Indices 1 2 3 4 5 6 
#
# 1 0.010641 -0.003628 -0.002688 0.000000 -0.000052 0.000000
# 2 -0.003628 0.010666 -0.001537 0.000000 0.000052 0.000000
# 3 -0.002688 -0.001537 0.006823 0.000000 0.000024 0.000000
# 4 0.000000 0.000000 0.000000 0.027854 0.000000 0.001281
# 5 -0.000052 0.000052 0.000024 0.000000 0.023155 0.000000
# 6 0.000000 0.000000 0.000000 0.001281 0.000000 0.022036
#
#
# Mechanical properties :
#
#
# Convention : Reuss Voigt Hill
#
# Bulk Modulus (GPa) = 80.49399 83.39752 81.94576
# Shear Modulus (GPa) = 41.31422 42.66383 41.98903
#
# Velocity S-wave (km/s) = 4.59853 4.67304 4.63594
# Velocity P-wave (km/s) = 8.33042 8.47367 8.40235
#
# Compressibility (1/GPa) = 0.01242329
#
# Stress axis : x y z
#
# Youngs Moduli (GPa) = 93.97277 93.75914 146.55636
#
# Poissons Ratio (x) = 0.34018 0.39395
# Poissons Ratio (y) = 0.34095 0.22530
# Poissons Ratio (z) = 0.25260 0.14413
#
# Static dielectric constant tensor:
#      x y z
#    x 3.813870 0.000000 -0.037840 
#    y 0.000000 3.614850 0.000000 
#    z -0.037840 0.000000 3.764620 
# 
# 
# High freq. dielectric constant tensor:
#      x y z
#    x 1.782540 0.000000 -0.000370 
#    y 0.000000 1.758710 0.000000 
#    z -0.000370 0.000000 1.785470 
# 
# From -- ./inp_files/73891.got.cif
#   From: 2010.06.25/outbox.cif.g09.slc.cpg/sg11_37_cif.got.tgz:73891.got - 2010.06.27 23:14:04.
