data_PCOD8071205
_publ_section_title
;
Structure prediction by ZEFSAII (Michael W. Deem and Ramdas Pophale) SiO2 
 PCOD8071205
Probable space group: P 21/M
;
_chemical_formula_sum "Si O2"
_cell_formula_units_Z 32
_cell_length_a 11.589770
_cell_length_b 9.053225
_cell_length_c 31.801595
_cell_angle_alpha 90.000000
_cell_angle_beta 149.100079
_cell_angle_gamma 90.000000
_cell_volume 1713.568101
_symmetry_space_group_name_H-M "P 21/M"
_symmetry_group_IT_number 11
_symmetry_cell_setting 'monoclinic'
loop_
_space_group_symop_operation_xyz
x,y,z
-x,1/2+y,-z
-x,-y,-z
x,1/2-y,z
loop_
_atom_site_type_symbol
_atom_site_label
_atom_site_fract_x
_atom_site_fract_y
_atom_site_fract_z
Si Si1 0.479205 0.578921 0.928586
Si Si2 0.615128 0.078143 0.267315
Si Si3 0.322369 0.076445 0.256404
Si Si4 0.125428 0.421927 0.429141
Si Si5 0.485433 0.923468 0.388218
Si Si6 0.386845 0.077045 0.817966
Si Si7 0.868446 0.078786 0.652948
Si Si8 0.849060 0.921234 0.112927
O O1 0.416981 0.750000 0.904040
O O2 0.524755 0.505318 0.897657
O O3 0.270859 0.497728 0.885298
O O4 0.705181 0.556905 0.025832
O O5 0.603163 0.250000 0.251687
O O6 0.456702 0.037775 0.256335
O O7 0.869417 0.032243 0.359132
O O8 0.530588 0.984484 0.201000
O O9 0.282816 0.250000 0.249242
O O10 0.469632 0.016933 0.340942
O O11 0.086927 0.994686 0.179624
O O12 0.150647 0.250000 0.428625
O O13 0.279760 0.468663 0.516661
O O14 0.216057 0.498020 0.415315
O O15 0.474793 0.750000 0.374323
O O16 0.279342 0.971227 0.353683
O O17 0.437606 0.250000 0.835970
O O18 0.125534 0.038568 0.743173
O O19 0.835981 0.250000 0.633761
O O20 0.881145 0.750000 0.134578
#
# Coordination Sequence:
#
# PCOD8071205 Si02
#       8
#     4   4   4   4   4   4   4   4
#     4  10  20  35  58  86 113 140 169 206 258 315
#     4   9  20  38  54  72 103 140 182 229 268 309
#     4  11  23  37  54  75 102 140 182 223 269 316
#     4   9  18  33  53  75 101 137 176 216 265 315
#     4  10  20  33  51  76 106 138 172 216 270 323
#     4  10  19  32  54  81 107 140 180 218 260 312
#     4   9  18  31  48  75 108 136 166 210 261 312
#     4  10  21  37  57  82 112 141 171 212 259 311
#
# _framework density 18.674482000000001
#
# number of rings (size 3 to 8) (size 9 to 14) (size 15 to 20)
#    0.000    2.250    0.000    2.625    0.000    5.500 
#    0.000    0.625    0.000    0.000    0.000    0.000 
#    0.000    0.000    0.000    0.000    0.000    0.000 
#
# Total GULP energy -396923.654964 kJ/mol
# GULP energy per Si atom -12403.864218 kJ/mol
# Density = 1.863198 g / cm^3
# Si number density = 18.674482 Si / 1000 Ang^3
#
#
#
# Elastic Constant Matrix: (Units=GPa)
#
#
# Indices 1 2 3 4 5 6 
#
# 1 91.3506 56.2227 50.1536 0.0000 -26.4614 0.0000
# 2 56.2227 95.3611 53.3045 0.0000 -20.0509 0.0000
# 3 50.1536 53.3045 88.4951 0.0000 -24.2705 0.0000
# 4 0.0000 0.0000 0.0000 32.1042 0.0000 -6.5378
# 5 -26.4614 -20.0509 -24.2705 0.0000 24.7417 0.0000
# 6 0.0000 0.0000 0.0000 -6.5378 0.0000 30.6281
#
#
#
# Elastic Compliance Matrix: (Units=1/GPa)
#
#
# Indices 1 2 3 4 5 6 
#
# 1 0.021737 -0.007830 -0.004059 0.000000 0.012921 0.000000
# 2 -0.007830 0.019048 -0.006976 0.000000 0.000220 0.000000
# 3 -0.004059 -0.006976 0.020605 0.000000 0.010217 0.000000
# 4 0.000000 0.000000 0.000000 0.032564 0.000000 0.006951
# 5 0.012921 0.000220 0.010217 0.000000 0.064437 0.000000
# 6 0.000000 0.000000 0.000000 0.006951 0.000000 0.034134
#
#
# Mechanical properties :
#
#
# Convention : Reuss Voigt Hill
#
# Bulk Modulus (GPa) = 42.26557 66.06314 54.16436
# Shear Modulus (GPa) = 20.99584 25.19653 23.09618
#
# Velocity S-wave (km/s) = 3.35671 3.67720 3.52060
# Velocity P-wave (km/s) = 6.14046 7.31314 6.75230
#
# Compressibility (1/GPa) = 0.02365992
#
# Stress axis : x y z
#
# Youngs Moduli (GPa) = 46.00394 52.49802 48.53239
#
# Poissons Ratio (x) = 0.41106 0.19702
# Poissons Ratio (y) = 0.36021 0.33855
# Poissons Ratio (z) = 0.18675 0.36622
#
# Static dielectric constant tensor:
#      x y z
#    x 3.364580 0.000000 -0.048840 
#    y 0.000000 3.446560 0.000000 
#    z -0.048840 0.000000 3.500150 
# 
# 
# High freq. dielectric constant tensor:
#      x y z
#    x 1.716460 0.000000 -0.009410 
#    y 0.000000 1.729750 0.000000 
#    z -0.009410 0.000000 1.728380 
# 
# From -- ./inp_files/73158.got.cif
#   From: 2010.06.25/outbox.cif.g09.slc.cpg/sg11_37_cif.got.tgz:73158.got - 2010.06.27 23:14:04.
