data_PCOD8071421
_publ_section_title
;
Structure prediction by ZEFSAII (Michael W. Deem and Ramdas Pophale) SiO2 
 PCOD8071421
Probable space group: P 21/M
;
_chemical_formula_sum "Si O2"
_cell_formula_units_Z 16
_cell_length_a 15.778424
_cell_length_b 8.729227
_cell_length_c 9.554111
_cell_angle_alpha 90.000000
_cell_angle_beta 135.583695
_cell_angle_gamma 90.000000
_cell_volume 920.968935
_symmetry_space_group_name_H-M "P 21/M"
_symmetry_group_IT_number 11
_symmetry_cell_setting 'monoclinic'
loop_
_space_group_symop_operation_xyz
x,y,z
-x,1/2+y,-z
-x,-y,-z
x,1/2-y,z
loop_
_atom_site_type_symbol
_atom_site_label
_atom_site_fract_x
_atom_site_fract_y
_atom_site_fract_z
Si Si1 0.372818 0.075465 0.459989
Si Si2 0.295439 0.929889 0.100829
Si Si3 0.885534 0.578994 0.932412
Si Si4 0.473489 0.431260 0.118591
O O1 0.423306 0.250000 0.507448
O O2 0.226384 0.080309 0.309204
O O3 0.393945 0.981307 0.337936
O O4 0.424514 0.989851 0.654764
O O5 0.294004 0.750000 0.079513
O O6 0.160839 0.988983 0.982686
O O7 0.341243 0.009511 0.012408
O O8 0.922522 0.750000 0.020722
O O9 0.000000 0.500000 0.000000
O O10 0.474762 0.250000 0.112419
O O11 0.500000 0.500000 0.000000
#
# Coordination Sequence:
#
# PCOD8071421 Si02
#       4
#     4   4   4   4
#     4   9  19  34  52  76 104 134 170 210 253 300
#     4  10  19  33  53  76 104 135 170 210 254 301
#     4   9  18  31  52  78 104 131 169 213 254 296
#     4  12  23  35  51  74 105 138 171 209 256 308
#
# _framework density 17.373006
#
# number of rings (size 3 to 8) (size 9 to 14) (size 15 to 20)
#    1.500    0.500    0.000    6.000    0.000    0.000 
#    0.000    0.000    0.000    1.500    0.000    0.000 
#    0.000    0.000    0.000    0.000    0.000    0.000 
#
# Total GULP energy -198263.905291 kJ/mol
# GULP energy per Si atom -12391.494081 kJ/mol
# Density = 1.733346 g / cm^3
# Si number density = 17.373006 Si / 1000 Ang^3
#
#
#
# Elastic Constant Matrix: (Units=GPa)
#
#
# Indices 1 2 3 4 5 6 
#
# 1 149.1576 73.6251 36.1703 0.0000 -16.9267 0.0000
# 2 73.6251 195.5973 32.3428 0.0000 -13.8457 0.0000
# 3 36.1703 32.3428 32.8383 0.0000 -17.8677 0.0000
# 4 0.0000 0.0000 0.0000 25.8832 0.0000 -0.2163
# 5 -16.9267 -13.8457 -17.8677 0.0000 24.0192 0.0000
# 6 0.0000 0.0000 0.0000 -0.2163 0.0000 37.9147
#
#
#
# Elastic Compliance Matrix: (Units=1/GPa)
#
#
# Indices 1 2 3 4 5 6 
#
# 1 0.009975 -0.002285 -0.009456 0.000000 -0.001322 0.000000
# 2 -0.002285 0.006667 -0.004763 0.000000 -0.001310 0.000000
# 3 -0.009456 -0.004763 0.067938 0.000000 0.041129 0.000000
# 4 0.000000 0.000000 0.000000 0.038637 0.000000 0.000220
# 5 -0.001322 -0.001310 0.041129 0.000000 0.070542 0.000000
# 6 0.000000 0.000000 0.000000 0.000220 0.000000 0.026376
#
#
# Mechanical properties :
#
#
# Convention : Reuss Voigt Hill
#
# Bulk Modulus (GPa) = 19.39016 73.54106 46.46561
# Shear Modulus (GPa) = 18.49558 33.26042 25.87800
#
# Velocity S-wave (km/s) = 3.26639 4.38023 3.86366
# Velocity P-wave (km/s) = 5.04093 8.24648 6.83431
#
# Compressibility (1/GPa) = 0.05157255
#
# Stress axis : x y z
#
# Youngs Moduli (GPa) = 100.24872 149.98366 14.71931
#
# Poissons Ratio (x) = 0.34267 0.13919
# Poissons Ratio (y) = 0.22904 0.07011
# Poissons Ratio (z) = 0.94798 0.71437
#
# Static dielectric constant tensor:
#      x y z
#    x 3.308100 0.000000 0.084080 
#    y 0.000000 3.405950 0.000000 
#    z 0.084080 0.000000 2.840350 
# 
# 
# High freq. dielectric constant tensor:
#      x y z
#    x 1.678730 0.000000 0.009670 
#    y 0.000000 1.696870 0.000000 
#    z 0.009670 0.000000 1.619350 
# 
# From -- ./inp_files/15557.got.cif
#   From: 2010.06.25/outbox.cif.g09.slc.cpg/sg11_8_cif.got.tgz:15557.got - 2010.06.27 23:14:04.
