data_PCOD8071509
_publ_section_title
;
Structure prediction by ZEFSAII (Michael W. Deem and Ramdas Pophale) SiO2 
 PCOD8071509
Probable space group: P 21/M
;
_chemical_formula_sum "Si O2"
_cell_formula_units_Z 32
_cell_length_a 22.235597
_cell_length_b 8.955462
_cell_length_c 27.173383
_cell_angle_alpha 90.000000
_cell_angle_beta 161.812072
_cell_angle_gamma 90.000000
_cell_volume 1688.972699
_symmetry_space_group_name_H-M "P 21/M"
_symmetry_group_IT_number 11
_symmetry_cell_setting 'monoclinic'
loop_
_space_group_symop_operation_xyz
x,y,z
-x,1/2+y,-z
-x,-y,-z
x,1/2-y,z
loop_
_atom_site_type_symbol
_atom_site_label
_atom_site_fract_x
_atom_site_fract_y
_atom_site_fract_z
Si Si1 0.795447 0.417895 0.735984
Si Si2 0.481771 0.922206 0.907839
Si Si3 0.466487 0.418333 0.398492
Si Si4 0.519221 0.425310 0.834029
Si Si5 0.261779 0.074061 0.460594
Si Si6 0.050803 0.923740 0.861826
Si Si7 0.785407 0.579008 0.226944
Si Si8 0.211092 0.924913 0.525555
O O1 0.845298 0.250000 0.790420
O O2 0.626949 0.422890 0.565161
O O3 0.728530 0.506095 0.732711
O O4 0.986059 0.491592 0.860966
O O5 0.458522 0.750000 0.873747
O O6 0.500291 0.028208 0.875638
O O7 0.293697 0.970338 0.792328
O O8 0.672573 0.947962 0.088391
O O9 0.418178 0.250000 0.345083
O O10 0.542254 0.507265 0.409880
O O11 0.476663 0.250000 0.795694
O O12 0.371993 0.520248 0.687883
O O13 0.730956 0.466895 0.979665
O O14 0.287117 0.250000 0.483424
O O15 0.078489 0.026738 0.285188
O O16 0.229493 0.010849 0.489159
O O17 0.022196 0.750000 0.849817
O O18 0.759355 0.750000 0.223926
O O19 0.006419 0.537023 0.390621
O O20 0.233755 0.750000 0.533114
#
# Coordination Sequence:
#
# PCOD8071509 Si02
#       8
#     4   4   4   4   4   4   4   4
#     4   9  16  26  45  74 105 136 172 217 265 311
#     4  10  20  36  60  86 109 136 173 217 264 313
#     4   9  16  27  45  72 106 139 172 214 263 313
#     4  11  23  38  55  77 108 144 180 218 262 312
#     4  10  19  33  54  79 106 137 176 220 266 315
#     4   9  19  34  53  77 105 139 177 218 264 315
#     4   9  20  38  59  83 110 139 173 215 262 314
#     4  11  23  38  55  77 107 142 179 218 262 312
#
# _framework density 18.946427
#
# number of rings (size 3 to 8) (size 9 to 14) (size 15 to 20)
#    0.000    2.250    0.000    3.000    0.000    6.500 
#    0.000    0.000    0.000    0.750    0.000    0.000 
#    0.000    0.000    0.000    0.000    0.000    0.000 
#
# Total GULP energy -396896.337359 kJ/mol
# GULP energy per Si atom -12403.010542 kJ/mol
# Density = 1.890330 g / cm^3
# Si number density = 18.946427 Si / 1000 Ang^3
#
#
#
# Elastic Constant Matrix: (Units=GPa)
#
#
# Indices 1 2 3 4 5 6 
#
# 1 55.8070 46.5980 62.2051 0.0000 31.6553 0.0000
# 2 46.5980 80.8705 32.1814 0.0000 11.7316 0.0000
# 3 62.2051 32.1814 76.6855 0.0000 11.6634 0.0000
# 4 0.0000 0.0000 0.0000 24.5537 0.0000 4.0585
# 5 31.6553 11.7316 11.6634 0.0000 15.4981 0.0000
# 6 0.0000 0.0000 0.0000 4.0585 0.0000 41.7191
#
#
#
# Elastic Compliance Matrix: (Units=1/GPa)
#
#
# Indices 1 2 3 4 5 6 
#
# 1 -0.031312 0.004620 0.016109 0.000000 0.048336 0.000000
# 2 0.004620 0.014953 -0.007753 0.000000 -0.014921 0.000000
# 3 0.016109 -0.007753 0.008287 0.000000 -0.033271 0.000000
# 4 0.000000 0.000000 0.000000 0.041393 0.000000 -0.004027
# 5 0.048336 -0.014921 -0.033271 0.000000 0.002130 0.000000
# 6 0.000000 0.000000 0.000000 -0.004027 0.000000 0.024362
#
#
# Mechanical properties :
#
#
# Convention : Reuss Voigt Hill
#
# Bulk Modulus (GPa) = 55.93001 55.03689 55.48345
# Shear Modulus (GPa) = 125.56608 21.17942 73.37275
#
# Velocity S-wave (km/s) = 8.14973 3.34707 6.22981
# Velocity P-wave (km/s) = 10.86930 6.63693 9.00529
#
# Compressibility (1/GPa) = 0.01787949
#
# Stress axis : x y z
#
# Youngs Moduli (GPa) = -31.93615 66.87501 120.67172
#
# Poissons Ratio (x) = -0.30896 -1.94395
# Poissons Ratio (y) = 0.14754 0.93562
# Poissons Ratio (z) = 0.51447 0.51851
#
# Static dielectric constant tensor:
#      x y z
#    x 3.460610 0.000000 0.215980 
#    y 0.000000 3.586470 0.000000 
#    z 0.215980 0.000000 3.357370 
# 
# 
# High freq. dielectric constant tensor:
#      x y z
#    x 1.738970 0.000000 0.022000 
#    y 0.000000 1.748910 0.000000 
#    z 0.022000 0.000000 1.713770 
# 
# From -- ./inp_files/72125.got.cif
#   From: 2010.06.25/outbox.cif.g09.slc.cpg/sg11_37_cif.got.tgz:72125.got - 2010.06.27 23:14:04.
