data_PCOD8071854
_publ_section_title
;
Structure prediction by ZEFSAII (Michael W. Deem and Ramdas Pophale) SiO2 
 PCOD8071854
Probable space group: P 21/M
;
_chemical_formula_sum "Si O2"
_cell_formula_units_Z 32
_cell_length_a 24.793213
_cell_length_b 9.245331
_cell_length_c 19.871036
_cell_angle_alpha 90.000000
_cell_angle_beta 156.525978
_cell_angle_gamma 90.000000
_cell_volume 1814.355249
_symmetry_space_group_name_H-M "P 21/M"
_symmetry_group_IT_number 11
_symmetry_cell_setting 'monoclinic'
loop_
_space_group_symop_operation_xyz
x,y,z
-x,1/2+y,-z
-x,-y,-z
x,1/2-y,z
loop_
_atom_site_type_symbol
_atom_site_label
_atom_site_fract_x
_atom_site_fract_y
_atom_site_fract_z
Si Si1 0.332591 0.078516 0.044463
Si Si2 0.120112 0.414478 0.558943
Si Si3 0.640350 0.419114 0.415449
Si Si4 0.857830 0.417448 0.072077
Si Si5 0.838984 0.583000 0.546568
Si Si6 0.095265 0.584002 0.021916
Si Si7 0.830019 0.081610 0.748627
Si Si8 0.187847 0.917623 0.764118
O O1 0.313720 0.250000 0.017818
O O2 0.485420 0.031846 0.235664
O O3 0.240813 0.018753 0.999256
O O4 0.294690 0.006395 0.930299
O O5 0.147180 0.250000 0.613335
O O6 0.181469 0.445003 0.556105
O O7 0.192097 0.522584 0.693059
O O8 0.959297 0.442363 0.371684
O O9 0.654374 0.250000 0.418526
O O10 0.724187 0.494485 0.452711
O O11 0.696937 0.463090 0.554197
O O12 0.838918 0.250000 0.072826
O O13 0.011831 0.467640 0.260512
O O14 0.821513 0.440789 0.951648
O O15 0.819875 0.750000 0.543158
O O16 0.050696 0.750000 0.976783
O O17 0.186069 0.538255 0.190779
O O18 0.957686 0.495089 0.861427
O O19 0.858301 0.250000 0.773688
O O20 0.229165 0.750000 0.810343
#
# Coordination Sequence:
#
# PCOD8071854 Si02
#       8
#     4   4   4   4   4   4   4   4
#     4  11  23  37  53  75 108 147 180 216 262 314
#     4   9  18  33  53  80 109 134 167 217 267 313
#     4  10  22  37  52  76 110 144 180 218 261 316
#     4  10  19  34  54  80 108 135 177 225 265 312
#     4  10  19  34  56  81 108 136 174 222 265 310
#     4   9  17  30  52  79 106 134 171 221 268 310
#     4   9  17  31  51  76 106 140 174 214 265 314
#     4  10  19  34  55  80 108 137 173 217 263 314
#
# _framework density 17.637118999999998
#
# number of rings (size 3 to 8) (size 9 to 14) (size 15 to 20)
#    0.000    2.250    2.500    0.750    0.000    3.000 
#    0.000    1.250    0.000    0.000    0.000    0.000 
#    0.000    0.000    0.000    0.000    0.000    0.000 
#
# Total GULP energy -396794.879249 kJ/mol
# GULP energy per Si atom -12399.839977 kJ/mol
# Density = 1.759698 g / cm^3
# Si number density = 17.637119 Si / 1000 Ang^3
#
#
#
# Elastic Constant Matrix: (Units=GPa)
#
#
# Indices 1 2 3 4 5 6 
#
# 1 94.0193 43.6550 62.2145 0.0000 -9.1411 0.0000
# 2 43.6550 66.2354 58.3897 0.0000 -4.5994 0.0000
# 3 62.2145 58.3897 125.5823 0.0000 -10.7245 0.0000
# 4 0.0000 0.0000 0.0000 23.8185 0.0000 -0.3399
# 5 -9.1411 -4.5994 -10.7245 0.0000 23.8108 0.0000
# 6 0.0000 0.0000 0.0000 -0.3399 0.0000 31.3398
#
#
#
# Elastic Compliance Matrix: (Units=1/GPa)
#
#
# Indices 1 2 3 4 5 6 
#
# 1 0.017557 -0.006646 -0.005348 0.000000 0.003048 0.000000
# 2 -0.006646 0.028104 -0.009910 0.000000 -0.001586 0.000000
# 3 -0.005348 -0.009910 0.015476 0.000000 0.003003 0.000000
# 4 0.000000 0.000000 0.000000 0.041991 0.000000 0.000455
# 5 0.003048 -0.001586 0.003003 0.000000 0.044214 0.000000
# 6 0.000000 0.000000 0.000000 0.000455 0.000000 0.031913
#
#
# Mechanical properties :
#
#
# Convention : Reuss Voigt Hill
#
# Bulk Modulus (GPa) = 57.70238 68.26171 62.98205
# Shear Modulus (GPa) = 21.84950 23.89902 22.87426
#
# Velocity S-wave (km/s) = 3.52353 3.68508 3.60521
# Velocity P-wave (km/s) = 7.02433 7.54280 7.28818
#
# Compressibility (1/GPa) = 0.01733031
#
# Stress axis : x y z
#
# Youngs Moduli (GPa) = 56.95815 35.58238 64.61493
#
# Poissons Ratio (x) = 0.23647 0.34553
# Poissons Ratio (y) = 0.37852 0.64034
# Poissons Ratio (z) = 0.30459 0.35262
#
# Static dielectric constant tensor:
#      x y z
#    x 3.311420 0.000000 -0.293720 
#    y 0.000000 3.287390 0.000000 
#    z -0.293720 0.000000 3.317230 
# 
# 
# High freq. dielectric constant tensor:
#      x y z
#    x 1.682740 0.000000 -0.025830 
#    y 0.000000 1.683190 0.000000 
#    z -0.025830 0.000000 1.666550 
# 
# From -- ./inp_files/67216.got.cif
#   From: 2010.06.25/outbox.cif.g09.slc.cpg/sg11_34_cif.got.tgz:67216.got - 2010.06.27 23:14:04.
