data_PCOD8071773
_publ_section_title
;
Structure prediction by ZEFSAII (Michael W. Deem and Ramdas Pophale) SiO2 
 PCOD8071773
Probable space group: P 21/M
;
_chemical_formula_sum "Si O2"
_cell_formula_units_Z 28
_cell_length_a 15.904715
_cell_length_b 14.898359
_cell_length_c 8.843534
_cell_angle_alpha 90.000000
_cell_angle_beta 43.704828
_cell_angle_gamma 90.000000
_cell_volume 1447.880118
_symmetry_space_group_name_H-M "P 21/M"
_symmetry_group_IT_number 11
_symmetry_cell_setting 'monoclinic'
loop_
_space_group_symop_operation_xyz
x,y,z
-x,1/2+y,-z
-x,-y,-z
x,1/2-y,z
loop_
_atom_site_type_symbol
_atom_site_label
_atom_site_fract_x
_atom_site_fract_y
_atom_site_fract_z
Si Si1 0.921336 0.058196 0.214570
Si Si2 0.300149 0.980268 0.308461
Si Si3 0.551674 0.147504 0.682117
Si Si4 0.755480 0.351844 0.199081
Si Si5 0.031204 0.094479 0.382645
Si Si6 0.799328 0.349930 0.815384
Si Si7 0.701029 0.851723 0.876268
O O1 0.814217 0.001318 0.432736
O O2 0.855948 0.133160 0.197895
O O3 0.006261 0.099413 0.234861
O O4 0.000000 0.000000 0.000000
O O5 0.409062 0.927394 0.247336
O O6 0.263284 0.918391 0.216501
O O7 0.338391 0.079863 0.205692
O O8 0.590676 0.250000 0.679296
O O9 0.619773 0.123757 0.435932
O O10 0.405206 0.142421 0.857323
O O11 0.765100 0.250000 0.140236
O O12 0.783275 0.398488 0.001319
O O13 0.170893 0.121179 0.218995
O O14 0.941885 0.162294 0.586929
O O15 0.000000 0.000000 0.500000
O O16 0.740474 0.250000 0.881058
O O17 0.706828 0.750000 0.804067
#
# Coordination Sequence:
#
# PCOD8071773 Si02
#       7
#     4   4   4   4   4   4   4
#     4  10  20  33  57  78 112 143 180 230 280 333
#     4  10  20  36  58  83 112 145 190 229 273 330
#     4   9  19  37  59  83 112 145 186 229 278 330
#     4   9  19  34  55  82 108 142 182 228 278 328
#     4  11  20  36  55  80 113 145 185 229 276 336
#     4  10  19  33  59  85 110 142 185 231 274 327
#     4  11  22  36  58  82 112 149 186 230 277 329
#
# _framework density 19.338618
#
# number of rings (size 3 to 8) (size 9 to 14) (size 15 to 20)
#    0.000    2.000    2.857    2.143    0.000    4.000 
#    0.000    0.714    3.143    0.000    0.000    0.000 
#    0.000    0.000    0.000    0.000    0.000    0.000 
#
# Total GULP energy -346874.340660 kJ/mol
# GULP energy per Si atom -12388.369309 kJ/mol
# Density = 1.929460 g / cm^3
# Si number density = 19.338618 Si / 1000 Ang^3
#
#
#
# Elastic Constant Matrix: (Units=GPa)
#
#
# Indices 1 2 3 4 5 6 
#
# 1 77.5310 32.7766 73.7121 0.0000 -1.3087 0.0000
# 2 32.7766 92.6563 46.4918 0.0000 1.0004 0.0000
# 3 73.7121 46.4918 152.7281 0.0000 3.6468 0.0000
# 4 0.0000 0.0000 0.0000 26.0810 0.0000 -1.0992
# 5 -1.3087 1.0004 3.6468 0.0000 37.2077 0.0000
# 6 0.0000 0.0000 0.0000 -1.0992 0.0000 18.8034
#
#
#
# Elastic Compliance Matrix: (Units=1/GPa)
#
#
# Indices 1 2 3 4 5 6 
#
# 1 0.024788 -0.003261 -0.011019 0.000000 0.002040 0.000000
# 2 -0.003261 0.013167 -0.002429 0.000000 -0.000231 0.000000
# 3 -0.011019 -0.002429 0.012643 0.000000 -0.001561 0.000000
# 4 0.000000 0.000000 0.000000 0.038437 0.000000 0.002247
# 5 0.002040 -0.000231 -0.001561 0.000000 0.027107 0.000000
# 6 0.000000 0.000000 0.000000 0.002247 0.000000 0.053313
#
#
# Mechanical properties :
#
#
# Convention : Reuss Voigt Hill
#
# Bulk Modulus (GPa) = 58.21132 69.87517 64.04325
# Shear Modulus (GPa) = 23.96929 27.74742 25.85836
#
# Velocity S-wave (km/s) = 3.52440 3.79201 3.66065
# Velocity P-wave (km/s) = 6.83581 7.44200 7.14534
#
# Compressibility (1/GPa) = 0.01717879
#
# Stress axis : x y z
#
# Youngs Moduli (GPa) = 40.34221 75.94506 79.09789
#
# Poissons Ratio (x) = 0.24769 0.87161
# Poissons Ratio (y) = 0.13157 0.19210
# Poissons Ratio (z) = 0.44455 0.18445
#
# Static dielectric constant tensor:
#      x y z
#    x 3.484180 0.000000 -0.077250 
#    y 0.000000 3.664380 0.000000 
#    z -0.077250 0.000000 3.972490 
# 
# 
# High freq. dielectric constant tensor:
#      x y z
#    x 1.730590 0.000000 -0.005440 
#    y 0.000000 1.746230 0.000000 
#    z -0.005440 0.000000 1.767630 
# 
# From -- ./inp_files/24911.got.cif
#   From: 2010.06.25/outbox.cif.g09.slc.cpg/sg11_13_cif.got.tgz:24911.got - 2010.06.27 23:14:04.
