data_PCOD8071121
_publ_section_title
;
Structure prediction by ZEFSAII (Michael W. Deem and Ramdas Pophale) SiO2 
 PCOD8071121
Probable space group: P 21/M
;
_chemical_formula_sum "Si O2"
_cell_formula_units_Z 24
_cell_length_a 5.062561
_cell_length_b 23.550973
_cell_length_c 10.725220
_cell_angle_alpha 90.000000
_cell_angle_beta 87.199400
_cell_angle_gamma 90.000000
_cell_volume 1277.221772
_symmetry_space_group_name_H-M "P 21/M"
_symmetry_group_IT_number 11
_symmetry_cell_setting 'monoclinic'
loop_
_space_group_symop_operation_xyz
x,y,z
-x,1/2+y,-z
-x,-y,-z
x,1/2-y,z
loop_
_atom_site_type_symbol
_atom_site_label
_atom_site_fract_x
_atom_site_fract_y
_atom_site_fract_z
Si Si1 0.586767 0.185769 0.421808
Si Si2 0.741077 0.995507 0.086260
Si Si3 0.250740 0.529193 0.405276
Si Si4 0.763025 0.583111 0.290630
Si Si5 0.067879 0.311824 0.585154
Si Si6 0.363781 0.563605 0.665771
O O1 0.643374 0.250000 0.364497
O O2 0.284308 0.183143 0.471547
O O3 0.624693 0.132676 0.326145
O O4 0.782502 0.174698 0.533466
O O5 0.736777 0.042381 0.197228
O O6 0.722262 0.932484 0.146853
O O7 0.500000 0.000000 0.000000
O O8 0.000000 0.000000 0.000000
O O9 0.491324 0.572920 0.371059
O O10 0.180296 0.540433 0.553784
O O11 0.348976 0.465074 0.370320
O O12 0.992453 0.541046 0.331961
O O13 0.863416 0.647012 0.302449
O O14 0.069555 0.250000 0.646516
#
# Coordination Sequence:
#
# PCOD8071121 Si02
#       6
#     4   4   4   4   4   4
#     4  10  20  33  52  82 114 140 169 213 281 343
#     4  11  25  38  52  76 106 149 186 222 263 308
#     4  10  21  30  56  89 103 140 173 220 296 325
#     4  11  19  37  55  79 114 138 179 224 272 339
#     4  10  19  32  52  82 114 138 168 215 278 341
#     4  10  20  36  56  79 116 138 180 229 271 339
#
# _framework density 18.790786000000001
#
# number of rings (size 3 to 8) (size 9 to 14) (size 15 to 20)
#    0.000    1.667    3.333    2.000    0.000   11.333 
#    0.000    0.000    0.000    2.000    0.000    0.000 
#    0.000    0.000    0.000    0.000    0.000    0.000 
#
# Total GULP energy -297335.411185 kJ/mol
# GULP energy per Si atom -12388.975466 kJ/mol
# Density = 1.874802 g / cm^3
# Si number density = 18.790786 Si / 1000 Ang^3
#
#
#
# Elastic Constant Matrix: (Units=GPa)
#
#
# Indices 1 2 3 4 5 6 
#
# 1 83.9586 14.3429 37.8793 0.0000 2.3889 0.0000
# 2 14.3429 160.0428 51.8243 0.0000 -5.0350 0.0000
# 3 37.8793 51.8243 116.0507 0.0000 -0.0547 0.0000
# 4 0.0000 0.0000 0.0000 25.5052 0.0000 2.4470
# 5 2.3889 -5.0350 -0.0547 0.0000 28.4040 0.0000
# 6 0.0000 0.0000 0.0000 2.4470 0.0000 21.6092
#
#
#
# Elastic Compliance Matrix: (Units=1/GPa)
#
#
# Indices 1 2 3 4 5 6 
#
# 1 0.014014 0.000221 -0.004674 0.000000 -0.001148 0.000000
# 2 0.000221 0.007356 -0.003356 0.000000 0.001279 0.000000
# 3 -0.004674 -0.003356 0.011641 0.000000 -0.000179 0.000000
# 4 0.000000 0.000000 0.000000 0.039638 0.000000 -0.004489
# 5 -0.001148 0.001279 -0.000179 0.000000 0.035529 0.000000
# 6 0.000000 0.000000 0.000000 -0.004489 0.000000 0.046785
#
#
# Mechanical properties :
#
#
# Convention : Reuss Voigt Hill
#
# Bulk Modulus (GPa) = 57.49283 63.12723 60.31003
# Shear Modulus (GPa) = 28.34815 32.17073 30.25944
#
# Velocity S-wave (km/s) = 3.88831 4.14218 4.01725
# Velocity P-wave (km/s) = 7.12891 7.51961 7.32686
#
# Compressibility (1/GPa) = 0.01739347
#
# Stress axis : x y z
#
# Youngs Moduli (GPa) = 71.35681 135.95135 85.90206
#
# Poissons Ratio (x) = -0.03009 0.40147
# Poissons Ratio (y) = -0.01579 0.28832
# Poissons Ratio (z) = 0.33349 0.45631
#
# Static dielectric constant tensor:
#      x y z
#    x 3.676050 0.000000 0.064210 
#    y 0.000000 3.820380 0.000000 
#    z 0.064210 0.000000 3.237400 
# 
# 
# High freq. dielectric constant tensor:
#      x y z
#    x 1.756430 0.000000 0.005330 
#    y 0.000000 1.734070 0.000000 
#    z 0.005330 0.000000 1.677190 
# 
# From -- ./inp_files/10443.got.cif
#   From: 2010.06.25/outbox.cif.g09.slc.cpg/sg11_6_cif.got.tgz:10443.got - 2010.06.27 23:14:04.
