data_PCOD8071575
_publ_section_title
;
Structure prediction by ZEFSAII (Michael W. Deem and Ramdas Pophale) SiO2 
 PCOD8071575
Probable space group: P 21/M
;
_chemical_formula_sum "Si O2"
_cell_formula_units_Z 32
_cell_length_a 12.912027
_cell_length_b 9.229950
_cell_length_c 30.112127
_cell_angle_alpha 90.000000
_cell_angle_beta 152.045126
_cell_angle_gamma 90.000000
_cell_volume 1682.288924
_symmetry_space_group_name_H-M "P 21/M"
_symmetry_group_IT_number 11
_symmetry_cell_setting 'monoclinic'
loop_
_space_group_symop_operation_xyz
x,y,z
-x,1/2+y,-z
-x,-y,-z
x,1/2-y,z
loop_
_atom_site_type_symbol
_atom_site_label
_atom_site_fract_x
_atom_site_fract_y
_atom_site_fract_z
Si Si1 0.203211 0.084381 0.557084
Si Si2 0.921225 0.921651 0.112428
Si Si3 0.000994 0.084332 0.389613
Si Si4 0.498467 0.920039 0.896190
Si Si5 0.273478 0.417543 0.409451
Si Si6 0.561639 0.920477 0.217483
Si Si7 0.077587 0.917643 0.794785
Si Si8 0.640456 0.079995 0.767697
O O1 0.185332 0.250000 0.566592
O O2 0.433968 0.015564 0.661351
O O3 0.189085 0.072386 0.498493
O O4 0.000000 0.000000 0.500000
O O5 0.932724 0.750000 0.121771
O O6 0.131259 0.985401 0.164824
O O7 0.913397 0.986828 0.158246
O O8 0.702406 0.969791 0.003656
O O9 0.916019 0.250000 0.352619
O O10 0.106070 0.028118 0.383837
O O11 0.795044 0.982228 0.322927
O O12 0.504592 0.750000 0.888056
O O13 0.273933 0.964254 0.836035
O O14 0.519201 0.003494 0.857770
O O15 0.500000 0.500000 0.500000
O O16 0.326382 0.250000 0.436763
O O17 0.156972 0.446221 0.318051
O O18 0.584949 0.750000 0.218146
O O19 0.385062 0.955107 0.189654
O O20 0.105372 0.750000 0.818437
O O21 0.646413 0.250000 0.761883
#
# Coordination Sequence:
#
# PCOD8071575 Si02
#       8
#     4   4   4   4   4   4   4   4
#     4  10  19  33  55  79 109 147 183 222 267 325
#     4  10  22  39  62  85 110 150 192 231 284 347
#     4  10  20  36  57  80 111 153 190 227 282 337
#     4  10  21  40  62  84 112 146 187 237 289 342
#     4  10  22  38  56  82 116 150 184 229 282 332
#     4  11  21  35  59  85 114 150 189 238 282 331
#     4  10  21  39  59  82 118 150 181 237 289 328
#     4   9  20  37  54  83 120 147 182 236 286 326
#
# _framework density 19.021702999999999
#
# number of rings (size 3 to 8) (size 9 to 14) (size 15 to 20)
#    0.000    2.000    2.500    0.750    1.750    2.500 
#    0.000    1.875    0.000    0.000    0.000    0.000 
#    0.000    0.000    0.000    0.000    0.000    0.000 
#
# Total GULP energy -396827.673013 kJ/mol
# GULP energy per Si atom -12400.864782 kJ/mol
# Density = 1.897841 g / cm^3
# Si number density = 19.021703 Si / 1000 Ang^3
#
#
#
# Elastic Constant Matrix: (Units=GPa)
#
#
# Indices 1 2 3 4 5 6 
#
# 1 100.8886 35.7720 51.6383 0.0000 -11.5734 0.0000
# 2 35.7720 46.9099 35.4574 0.0000 -2.5294 0.0000
# 3 51.6383 35.4574 129.1475 0.0000 -1.2473 0.0000
# 4 0.0000 0.0000 0.0000 29.0115 0.0000 -3.4455
# 5 -11.5734 -2.5294 -1.2473 0.0000 32.1525 0.0000
# 6 0.0000 0.0000 0.0000 -3.4455 0.0000 28.2364
#
#
#
# Elastic Compliance Matrix: (Units=1/GPa)
#
#
# Indices 1 2 3 4 5 6 
#
# 1 0.015457 -0.008701 -0.003746 0.000000 0.004734 0.000000
# 2 -0.008701 0.031905 -0.005289 0.000000 -0.000827 0.000000
# 3 -0.003746 -0.005289 0.010680 0.000000 -0.001350 0.000000
# 4 0.000000 0.000000 0.000000 0.034976 0.000000 0.004268
# 5 0.004734 -0.000827 -0.001350 0.000000 0.032688 0.000000
# 6 0.000000 0.000000 0.000000 0.004268 0.000000 0.035936
#
#
# Mechanical properties :
#
#
# Convention : Reuss Voigt Hill
#
# Bulk Modulus (GPa) = 44.30299 58.07570 51.18935
# Shear Modulus (GPa) = 24.43349 28.15195 26.29272
#
# Velocity S-wave (km/s) = 3.58789 3.85124 3.72189
# Velocity P-wave (km/s) = 6.36437 7.09744 6.74088
#
# Compressibility (1/GPa) = 0.02257184
#
# Stress axis : x y z
#
# Youngs Moduli (GPa) = 64.69446 31.34287 93.63419
#
# Poissons Ratio (x) = 0.27270 0.35075
# Poissons Ratio (y) = 0.56288 0.49521
# Poissons Ratio (z) = 0.24234 0.16576
#
# Static dielectric constant tensor:
#      x y z
#    x 3.618760 0.000000 -0.003660 
#    y 0.000000 3.284380 0.000000 
#    z -0.003660 0.000000 3.760280 
# 
# 
# High freq. dielectric constant tensor:
#      x y z
#    x 1.746690 0.000000 -0.008250 
#    y 0.000000 1.718180 0.000000 
#    z -0.008250 0.000000 1.748530 
# 
# From -- ./inp_files/65234.got.cif
#   From: 2010.06.25/outbox.cif.g09.slc.cpg/sg11_33_cif.got.tgz:65234.got - 2010.06.27 23:14:04.
