data_PCOD8071618
_publ_section_title
;
Structure prediction by ZEFSAII (Michael W. Deem and Ramdas Pophale) SiO2 
 PCOD8071618
Probable space group: P 21/M
;
_chemical_formula_sum "Si O2"
_cell_formula_units_Z 32
_cell_length_a 30.088259
_cell_length_b 8.811444
_cell_length_c 12.637024
_cell_angle_alpha 90.000000
_cell_angle_beta 151.343469
_cell_angle_gamma 90.000000
_cell_volume 1606.682243
_symmetry_space_group_name_H-M "P 21/M"
_symmetry_group_IT_number 11
_symmetry_cell_setting 'monoclinic'
loop_
_space_group_symop_operation_xyz
x,y,z
-x,1/2+y,-z
-x,-y,-z
x,1/2-y,z
loop_
_atom_site_type_symbol
_atom_site_label
_atom_site_fract_x
_atom_site_fract_y
_atom_site_fract_z
Si Si1 0.874283 0.070200 0.987691
Si Si2 0.751573 0.570385 0.136424
Si Si3 0.735121 0.428371 0.324993
Si Si4 0.598260 0.429794 0.225880
Si Si5 0.097143 0.927939 0.184731
Si Si6 0.403624 0.930129 0.335373
Si Si7 0.674718 0.070203 0.607824
Si Si8 0.038802 0.430268 0.474565
O O1 0.879113 0.250000 0.002847
O O2 0.864614 0.012173 0.847300
O O3 0.780341 0.011955 0.849008
O O4 0.968426 0.007186 0.237448
O O5 0.742810 0.750000 0.106790
O O6 0.718828 0.522610 0.184781
O O7 0.856790 0.514079 0.333299
O O8 0.682822 0.491742 0.911016
O O9 0.727335 0.250000 0.283912
O O10 0.662360 0.479452 0.262018
O O11 0.835598 0.474136 0.579532
O O12 0.591749 0.250000 0.218461
O O13 0.635844 0.496207 0.416046
O O14 0.500000 0.500000 0.000000
O O15 0.085609 0.750000 0.154624
O O16 0.000000 0.000000 0.000000
O O17 0.407777 0.750000 0.331365
O O18 0.388907 0.980295 0.426724
O O19 0.500000 0.000000 0.500000
O O20 0.676774 0.250000 0.602593
O O21 0.036945 0.250000 0.479635
O O22 0.000000 0.500000 0.500000
#
# Coordination Sequence:
#
# PCOD8071618 Si02
#       8
#     4   4   4   4   4   4   4   4
#     4   9  16  32  57  82 109 147 189 231 284 348
#     4  11  24  41  60  88 125 162 202 250 302 362
#     4  10  21  38  60  87 121 159 200 246 296 358
#     4  10  21  38  60  89 117 151 197 246 300 359
#     4  10  19  33  55  82 115 152 191 234 282 343
#     4  11  24  42  65  91 119 157 202 251 304 360
#     4   9  18  36  62  87 114 149 195 242 292 357
#     4  10  21  36  58  86 116 154 200 248 299 356
#
# _framework density 19.916819
#
# number of rings (size 3 to 8) (size 9 to 14) (size 15 to 20)
#    0.000    2.000    1.250    2.250    1.750    4.000 
#    0.000    1.250    0.000    2.250    0.000    0.000 
#    0.000    0.000    0.000    0.000    0.000    0.000 
#
# Total GULP energy -396717.560947 kJ/mol
# GULP energy per Si atom -12397.423780 kJ/mol
# Density = 1.987149 g / cm^3
# Si number density = 19.916819 Si / 1000 Ang^3
#
#
#
# Elastic Constant Matrix: (Units=GPa)
#
#
# Indices 1 2 3 4 5 6 
#
# 1 156.2349 36.1146 73.9312 0.0000 4.5964 0.0000
# 2 36.1146 33.9017 30.2040 0.0000 0.3427 0.0000
# 3 73.9312 30.2040 145.9143 0.0000 9.1895 0.0000
# 4 0.0000 0.0000 0.0000 31.4094 0.0000 3.1350
# 5 4.5964 0.3427 9.1895 0.0000 42.1923 0.0000
# 6 0.0000 0.0000 0.0000 3.1350 0.0000 29.0516
#
#
#
# Elastic Compliance Matrix: (Units=1/GPa)
#
#
# Indices 1 2 3 4 5 6 
#
# 1 0.009701 -0.007316 -0.003384 0.000000 -0.000260 0.000000
# 2 -0.007316 0.041762 -0.005035 0.000000 0.001555 0.000000
# 3 -0.003384 -0.005035 0.009718 0.000000 -0.001707 0.000000
# 4 0.000000 0.000000 0.000000 0.032184 0.000000 -0.003473
# 5 -0.000260 0.001555 -0.001707 0.000000 0.024089 0.000000
# 6 0.000000 0.000000 0.000000 -0.003473 0.000000 0.034796
#
#
# Mechanical properties :
#
#
# Convention : Reuss Voigt Hill
#
# Bulk Modulus (GPa) = 33.66085 68.50561 51.08323
# Shear Modulus (GPa) = 25.82315 33.58407 29.70361
#
# Velocity S-wave (km/s) = 3.60467 4.11081 3.86603
# Velocity P-wave (km/s) = 5.85340 7.54998 6.75516
#
# Compressibility (1/GPa) = 0.02970810
#
# Stress axis : x y z
#
# Youngs Moduli (GPa) = 103.08206 23.94545 102.90224
#
# Poissons Ratio (x) = 0.17519 0.34826
# Poissons Ratio (y) = 0.75419 0.51816
# Poissons Ratio (z) = 0.34887 0.12058
#
# Static dielectric constant tensor:
#      x y z
#    x 3.764240 0.000000 0.065620 
#    y 0.000000 3.306530 0.000000 
#    z 0.065620 0.000000 3.831160 
# 
# 
# High freq. dielectric constant tensor:
#      x y z
#    x 1.793040 0.000000 0.000760 
#    y 0.000000 1.742830 0.000000 
#    z 0.000760 0.000000 1.792930 
# 
# From -- ./inp_files/45240.got.cif
#   From: 2010.06.25/outbox.cif.g09.slc.cpg/sg11_23_cif.got.tgz:45240.got - 2010.06.27 23:14:04.
