data_PCOD8071093
_publ_section_title
;
Structure prediction by ZEFSAII (Michael W. Deem and Ramdas Pophale) SiO2 
 PCOD8071093
Probable space group: P 21/M
;
_chemical_formula_sum "Si O2"
_cell_formula_units_Z 32
_cell_length_a 24.093004
_cell_length_b 8.706863
_cell_length_c 18.846007
_cell_angle_alpha 90.000000
_cell_angle_beta 155.661473
_cell_angle_gamma 90.000000
_cell_volume 1629.308037
_symmetry_space_group_name_H-M "P 21/M"
_symmetry_group_IT_number 11
_symmetry_cell_setting 'monoclinic'
loop_
_space_group_symop_operation_xyz
x,y,z
-x,1/2+y,-z
-x,-y,-z
x,1/2-y,z
loop_
_atom_site_type_symbol
_atom_site_label
_atom_site_fract_x
_atom_site_fract_y
_atom_site_fract_z
Si Si1 0.130097 0.071379 0.488794
Si Si2 0.168383 0.568333 0.866076
Si Si3 0.148856 0.567738 0.004447
Si Si4 0.115044 0.922153 0.325758
Si Si5 0.635640 0.431392 0.631924
Si Si6 0.451220 0.569564 0.141517
Si Si7 0.620870 0.423105 0.456248
Si Si8 0.408961 0.931165 0.833013
O O1 0.148664 0.250000 0.527918
O O2 0.978860 0.012488 0.335696
O O3 0.143197 0.044053 0.420425
O O4 0.254557 0.981144 0.669472
O O5 0.165321 0.750000 0.863368
O O6 0.190725 0.513328 0.973473
O O7 0.293812 0.513863 0.962756
O O8 0.129420 0.750000 0.985031
O O9 0.251635 0.505931 0.183092
O O10 0.012356 0.481213 0.866759
O O11 0.092582 0.750000 0.330650
O O12 0.237643 0.922524 0.416343
O O13 0.500000 0.500000 0.500000
O O14 0.633515 0.250000 0.633161
O O15 0.652729 0.489169 0.571280
O O16 0.459743 0.750000 0.136013
O O17 0.516475 0.532624 0.293735
O O18 0.533428 0.482740 0.176057
O O19 0.560745 0.250000 0.388945
O O20 0.414963 0.750000 0.842900
O O21 0.500000 0.000000 0.000000
#
# Coordination Sequence:
#
# PCOD8071093 Si02
#       8
#     4   4   4   4   4   4   4   4
#     4  10  19  37  62  88 118 154 193 235 283 339
#     4   8  17  33  57  86 115 149 194 241 284 335
#     4   9  18  34  53  75 109 150 194 242 289 338
#     4  10  19  32  52  79 111 147 189 237 288 343
#     4  10  21  36  52  73 106 149 192 244 300 349
#     4  11  21  37  62  90 117 152 195 237 285 346
#     4  10  21  35  52  78 114 149 188 243 295 340
#     4  12  25  42  63  91 122 153 190 234 283 341
#
# _framework density 19.640239999999999
#
# number of rings (size 3 to 8) (size 9 to 14) (size 15 to 20)
#    0.000    2.000    1.250    3.750    0.000    3.000 
#    0.000    8.125    0.000    0.000    0.000    0.000 
#    0.000    0.000    0.000    0.000    0.000    0.000 
#
# Total GULP energy -396594.673482 kJ/mol
# GULP energy per Si atom -12393.583546 kJ/mol
# Density = 1.959554 g / cm^3
# Si number density = 19.640240 Si / 1000 Ang^3
#
#
#
# Elastic Constant Matrix: (Units=GPa)
#
#
# Indices 1 2 3 4 5 6 
#
# 1 40.6338 17.4532 36.8663 0.0000 6.4436 0.0000
# 2 17.4532 65.9269 39.2557 0.0000 6.5713 0.0000
# 3 36.8663 39.2557 161.2994 0.0000 3.9825 0.0000
# 4 0.0000 0.0000 0.0000 32.8420 0.0000 0.4976
# 5 6.4436 6.5713 3.9825 0.0000 30.3951 0.0000
# 6 0.0000 0.0000 0.0000 0.4976 0.0000 21.5288
#
#
#
# Elastic Compliance Matrix: (Units=1/GPa)
#
#
# Indices 1 2 3 4 5 6 
#
# 1 0.033121 -0.004464 -0.006355 0.000000 -0.005224 0.000000
# 2 -0.004464 0.018673 -0.003459 0.000000 -0.002637 0.000000
# 3 -0.006355 -0.003459 0.008470 0.000000 0.000985 0.000000
# 4 0.000000 0.000000 0.000000 0.030459 0.000000 -0.000704
# 5 -0.005224 -0.002637 0.000985 0.000000 0.034449 0.000000
# 6 0.000000 0.000000 0.000000 -0.000704 0.000000 0.046466
#
#
# Mechanical properties :
#
#
# Convention : Reuss Voigt Hill
#
# Bulk Modulus (GPa) = 31.53751 50.55674 41.04713
# Shear Modulus (GPa) = 23.72346 28.57219 26.14783
#
# Velocity S-wave (km/s) = 3.47926 3.81829 3.65271
# Velocity P-wave (km/s) = 5.67739 6.72580 6.22371
#
# Compressibility (1/GPa) = 0.03170827
#
# Stress axis : x y z
#
# Youngs Moduli (GPa) = 30.19199 53.55452 118.06931
#
# Poissons Ratio (x) = 0.23906 0.75031
# Poissons Ratio (y) = 0.13477 0.40840
# Poissons Ratio (z) = 0.19186 0.18525
#
# Static dielectric constant tensor:
#      x y z
#    x 3.517890 0.000000 0.167270 
#    y 0.000000 3.617930 0.000000 
#    z 0.167270 0.000000 3.887890 
# 
# 
# High freq. dielectric constant tensor:
#      x y z
#    x 1.747150 0.000000 0.011580 
#    y 0.000000 1.754390 0.000000 
#    z 0.011580 0.000000 1.781490 
# 
# From -- ./inp_files/67260.got.cif
#   From: 2010.06.25/outbox.cif.g09.slc.cpg/sg11_34_cif.got.tgz:67260.got - 2010.06.27 23:14:04.
