data_PCOD8071549
_publ_section_title
;
Structure prediction by ZEFSAII (Michael W. Deem and Ramdas Pophale) SiO2 
 PCOD8071549
Probable space group: P 21/M
;
_chemical_formula_sum "Si O2"
_cell_formula_units_Z 28
_cell_length_a 15.061716
_cell_length_b 17.555180
_cell_length_c 8.753511
_cell_angle_alpha 90.000000
_cell_angle_beta 139.164069
_cell_angle_gamma 90.000000
_cell_volume 1513.457295
_symmetry_space_group_name_H-M "P 21/M"
_symmetry_group_IT_number 11
_symmetry_cell_setting 'monoclinic'
loop_
_space_group_symop_operation_xyz
x,y,z
-x,1/2+y,-z
-x,-y,-z
x,1/2-y,z
loop_
_atom_site_type_symbol
_atom_site_label
_atom_site_fract_x
_atom_site_fract_y
_atom_site_fract_z
Si Si1 0.798875 0.042372 0.892477
Si Si2 0.382622 0.662318 0.184611
Si Si3 0.467877 0.834387 0.952622
Si Si4 0.655280 0.912818 0.561462
Si Si5 0.708437 0.050533 0.452471
Si Si6 0.061236 0.474572 0.419732
Si Si7 0.228193 0.163438 0.556437
O O1 0.737403 0.105652 0.925145
O O2 0.792169 0.077558 0.712551
O O3 0.719941 0.959766 0.788565
O O4 0.950564 0.023899 0.141233
O O5 0.356226 0.750000 0.201571
O O6 0.522214 0.632103 0.444828
O O7 0.394987 0.656518 0.019844
O O8 0.443628 0.750000 0.857880
O O9 0.400607 0.888364 0.740799
O O10 0.627101 0.850068 0.174922
O O11 0.760313 0.855688 0.611348
O O12 0.621371 0.975019 0.383253
O O13 0.817830 0.032772 0.463273
O O14 0.119111 0.388666 0.502201
O O15 0.000000 0.500000 0.500000
O O16 0.178628 0.250000 0.508294
#
# Coordination Sequence:
#
# PCOD8071549 Si02
#       7
#     4   4   4   4   4   4   4
#     4  10  21  35  55  80 116 142 184 220 275 328
#     4  10  19  33  54  82 110 145 180 220 277 333
#     4   9  18  35  57  82 112 138 182 233 275 324
#     4   8  18  33  56  79 107 137 181 231 269 326
#     4   9  20  34  56  80 107 143 182 229 274 320
#     4  11  22  37  57  80 111 149 188 224 268 329
#     4   9  19  36  59  82 105 144 185 226 274 325
#
# _framework density 18.500686999999999
#
# number of rings (size 3 to 8) (size 9 to 14) (size 15 to 20)
#    0.857    1.714    0.000    3.000    0.000    7.429 
#    0.000    0.714    0.000    0.857    0.000    0.000 
#    0.000    0.000    0.000    0.000    0.000    0.000 
#
# Total GULP energy -346920.371105 kJ/mol
# GULP energy per Si atom -12390.013254 kJ/mol
# Density = 1.845858 g / cm^3
# Si number density = 18.500687 Si / 1000 Ang^3
#
#
#
# Elastic Constant Matrix: (Units=GPa)
#
#
# Indices 1 2 3 4 5 6 
#
# 1 46.7642 24.8382 7.8061 0.0000 3.7072 0.0000
# 2 24.8382 106.4016 48.3472 0.0000 5.5278 0.0000
# 3 7.8061 48.3472 76.3494 0.0000 -2.9852 0.0000
# 4 0.0000 0.0000 0.0000 20.8167 0.0000 4.1249
# 5 3.7072 5.5278 -2.9852 0.0000 20.4001 0.0000
# 6 0.0000 0.0000 0.0000 4.1249 0.0000 30.2069
#
#
#
# Elastic Compliance Matrix: (Units=1/GPa)
#
#
# Indices 1 2 3 4 5 6 
#
# 1 0.024676 -0.006223 0.001316 0.000000 -0.002606 0.000000
# 2 -0.006223 0.015254 -0.009193 0.000000 -0.004348 0.000000
# 3 0.001316 -0.009193 0.018981 0.000000 0.005030 0.000000
# 4 0.000000 0.000000 0.000000 0.049374 0.000000 -0.006742
# 5 -0.002606 -0.004348 0.005030 0.000000 0.051407 0.000000
# 6 0.000000 0.000000 0.000000 -0.006742 0.000000 0.034026
#
#
# Mechanical properties :
#
#
# Convention : Reuss Voigt Hill
#
# Bulk Modulus (GPa) = 32.56188 43.49979 38.03083
# Shear Modulus (GPa) = 21.53726 24.18634 22.86180
#
# Velocity S-wave (km/s) = 3.41564 3.61961 3.51910
# Velocity P-wave (km/s) = 5.76143 6.40565 6.09206
#
# Compressibility (1/GPa) = 0.03071076
#
# Stress axis : x y z
#
# Youngs Moduli (GPa) = 40.52528 65.55606 52.68348
#
# Poissons Ratio (x) = 0.40794 -0.06931
# Poissons Ratio (y) = 0.25218 0.48433
# Poissons Ratio (z) = -0.05332 0.60267
#
# Static dielectric constant tensor:
#      x y z
#    x 3.157430 0.000000 0.052180 
#    y 0.000000 3.510710 0.000000 
#    z 0.052180 0.000000 3.147800 
# 
# 
# High freq. dielectric constant tensor:
#      x y z
#    x 1.702220 0.000000 0.006580 
#    y 0.000000 1.720490 0.000000 
#    z 0.006580 0.000000 1.697490 
# 
# From -- ./inp_files/22775.got.cif
#   From: 2010.06.25/outbox.cif.g09.slc.cpg/sg11_12_cif.got.tgz:22775.got - 2010.06.27 23:14:04.
