data_PCOD8071072
_publ_section_title
;
Structure prediction by ZEFSAII (Michael W. Deem and Ramdas Pophale) SiO2 
 PCOD8071072
Probable space group: P 21/M
;
_chemical_formula_sum "Si O2"
_cell_formula_units_Z 32
_cell_length_a 26.554629
_cell_length_b 14.237366
_cell_length_c 9.741265
_cell_angle_alpha 90.000000
_cell_angle_beta 28.396647
_cell_angle_gamma 90.000000
_cell_volume 1751.467931
_symmetry_space_group_name_H-M "P 21/M"
_symmetry_group_IT_number 11
_symmetry_cell_setting 'monoclinic'
loop_
_space_group_symop_operation_xyz
x,y,z
-x,1/2+y,-z
-x,-y,-z
x,1/2-y,z
loop_
_atom_site_type_symbol
_atom_site_label
_atom_site_fract_x
_atom_site_fract_y
_atom_site_fract_z
Si Si1 0.933223 0.990728 0.520653
Si Si2 0.744392 0.354846 0.320273
Si Si3 0.913730 0.356902 0.350438
Si Si4 0.328937 0.642671 0.033866
Si Si5 0.507673 0.142217 0.937842
Si Si6 0.491214 0.034124 0.241929
Si Si7 0.044849 0.640206 0.046550
Si Si8 0.292853 0.968910 0.856851
O O1 0.966246 0.905474 0.344160
O O2 0.953264 0.085742 0.386945
O O3 0.000000 0.000000 0.500000
O O4 0.808197 0.972931 0.845999
O O5 0.766901 0.250000 0.212784
O O6 0.633224 0.359521 0.666279
O O7 0.748414 0.421303 0.181190
O O8 0.834603 0.388085 0.208058
O O9 0.942861 0.250000 0.314126
O O10 0.788388 0.367207 0.623795
O O11 0.973616 0.391070 0.067659
O O12 0.369530 0.750000 0.945847
O O13 0.405488 0.574773 0.934482
O O14 0.329897 0.611142 0.873363
O O15 0.468763 0.250000 0.003075
O O16 0.483212 0.073679 0.867171
O O17 0.454400 0.098662 0.201590
O O18 0.392959 0.035813 0.584045
O O19 0.025963 0.750000 0.104728
#
# Coordination Sequence:
#
# PCOD8071072 Si02
#       8
#     4   4   4   4   4   4   4   4
#     4  11  21  35  54  80 108 147 179 218 270 322
#     4   9  16  29  52  78 102 129 173 227 273 310
#     4   9  20  36  58  84 106 130 177 233 275 315
#     4  10  19  33  55  81 107 135 171 220 277 324
#     4   9  18  32  52  77 104 136 177 224 269 316
#     4  10  19  32  52  78 107 139 174 221 266 324
#     4  10  19  33  54  79 106 140 179 224 269 314
#     4  10  20  33  48  77 110 139 179 215 266 316
#
# _framework density 18.270388000000001
#
# number of rings (size 3 to 8) (size 9 to 14) (size 15 to 20)
#    0.000    2.250    1.250    2.250    0.000    3.500 
#    0.000    1.250    0.000    3.000    0.000    0.000 
#    0.000    0.000    0.000    0.000    0.000    0.000 
#
# Total GULP energy -396677.735197 kJ/mol
# GULP energy per Si atom -12396.179225 kJ/mol
# Density = 1.822880 g / cm^3
# Si number density = 18.270388 Si / 1000 Ang^3
#
#
#
# Elastic Constant Matrix: (Units=GPa)
#
#
# Indices 1 2 3 4 5 6 
#
# 1 92.7475 49.7632 32.9698 0.0000 10.6650 0.0000
# 2 49.7632 97.2380 39.3830 0.0000 3.9004 0.0000
# 3 32.9698 39.3830 82.4033 0.0000 19.6014 0.0000
# 4 0.0000 0.0000 0.0000 29.9943 0.0000 -0.5495
# 5 10.6650 3.9004 19.6014 0.0000 27.7559 0.0000
# 6 0.0000 0.0000 0.0000 -0.5495 0.0000 30.6613
#
#
#
# Elastic Compliance Matrix: (Units=1/GPa)
#
#
# Indices 1 2 3 4 5 6 
#
# 1 0.015718 -0.007067 -0.002056 0.000000 -0.003594 0.000000
# 2 -0.007067 0.016144 -0.006003 0.000000 0.004686 0.000000
# 3 -0.002056 -0.006003 0.018556 0.000000 -0.011470 0.000000
# 4 0.000000 0.000000 0.000000 0.033351 0.000000 0.000598
# 5 -0.003594 0.004686 -0.011470 0.000000 0.044851 0.000000
# 6 0.000000 0.000000 0.000000 0.000598 0.000000 0.032625
#
#
# Mechanical properties :
#
#
# Convention : Reuss Voigt Hill
#
# Bulk Modulus (GPa) = 49.59017 57.40231 53.49624
# Shear Modulus (GPa) = 25.22466 27.70049 26.46258
#
# Velocity S-wave (km/s) = 3.71972 3.89799 3.80990
# Velocity P-wave (km/s) = 6.75645 7.19344 6.97837
#
# Compressibility (1/GPa) = 0.02016529
#
# Stress axis : x y z
#
# Youngs Moduli (GPa) = 63.62146 61.94269 53.89198
#
# Poissons Ratio (x) = 0.43774 0.11082
# Poissons Ratio (y) = 0.44961 0.32351
# Poissons Ratio (z) = 0.13083 0.37183
#
# Static dielectric constant tensor:
#      x y z
#    x 3.323090 0.000000 0.189330 
#    y 0.000000 3.359170 0.000000 
#    z 0.189330 0.000000 3.503050 
# 
# 
# High freq. dielectric constant tensor:
#      x y z
#    x 1.706280 0.000000 0.019810 
#    y 0.000000 1.698440 0.000000 
#    z 0.019810 0.000000 1.703460 
# 
# From -- ./inp_files/27782.got.cif
#   From: 2010.06.25/outbox.cif.g09.slc.cpg/sg11_14_cif.got.tgz:27782.got - 2010.06.27 23:14:04.
