data_PCOD8071487
_publ_section_title
;
Structure prediction by ZEFSAII (Michael W. Deem and Ramdas Pophale) SiO2 
 PCOD8071487
Probable space group: P 21/M
;
_chemical_formula_sum "Si O2"
_cell_formula_units_Z 28
_cell_length_a 15.757355
_cell_length_b 13.175936
_cell_length_c 7.823599
_cell_angle_alpha 90.000000
_cell_angle_beta 63.088865
_cell_angle_gamma 90.000000
_cell_volume 1448.421003
_symmetry_space_group_name_H-M "P 21/M"
_symmetry_group_IT_number 11
_symmetry_cell_setting 'monoclinic'
loop_
_space_group_symop_operation_xyz
x,y,z
-x,1/2+y,-z
-x,-y,-z
x,1/2-y,z
loop_
_atom_site_type_symbol
_atom_site_label
_atom_site_fract_x
_atom_site_fract_y
_atom_site_fract_z
Si Si1 0.461487 0.631323 0.371996
Si Si2 0.905824 0.964213 0.788704
Si Si3 0.118662 0.021084 0.581641
Si Si4 0.630742 0.003447 0.251195
Si Si5 0.265839 0.641126 0.413946
Si Si6 0.802379 0.633764 0.187489
Si Si7 0.774721 0.361147 0.936009
O O1 0.485538 0.750000 0.374715
O O2 0.425424 0.582702 0.580822
O O3 0.556453 0.572248 0.225081
O O4 0.377708 0.612247 0.310892
O O5 0.871221 0.940764 0.624678
O O6 0.870249 0.074830 0.887140
O O7 0.861877 0.881602 0.957434
O O8 0.019240 0.962886 0.695793
O O9 0.131201 0.111601 0.706698
O O10 0.201122 0.942561 0.563942
O O11 0.707523 0.934814 0.281532
O O12 0.682489 0.073589 0.066441
O O13 0.254885 0.750000 0.521439
O O14 0.228000 0.656149 0.260770
O O15 0.770399 0.750000 0.225067
O O16 0.778567 0.250000 0.023610
#
# Coordination Sequence:
#
# PCOD8071487 Si02
#       7
#     4   4   4   4   4   4   4
#     4  10  19  33  54  77 102 138 178 220 273 326
#     4   9  21  36  57  81 112 144 182 230 272 323
#     4  10  19  38  57  80 111 146 183 226 276 321
#     4  10  20  34  52  77 107 139 176 224 268 324
#     4   9  18  33  55  79 104 136 180 225 269 323
#     4  11  22  36  54  80 112 147 184 223 271 326
#     4   9  18  34  54  78 105 138 178 224 271 323
#
# _framework density 19.331396999999999
#
# number of rings (size 3 to 8) (size 9 to 14) (size 15 to 20)
#    0.000    2.286    1.429    1.286    0.000    2.286 
#    0.000    2.857    0.000    0.000    0.000    0.000 
#    0.000    0.000    0.000    0.000    0.000    0.000 
#
# Total GULP energy -346981.868781 kJ/mol
# GULP energy per Si atom -12392.209599 kJ/mol
# Density = 1.928740 g / cm^3
# Si number density = 19.331397 Si / 1000 Ang^3
#
#
#
# Elastic Constant Matrix: (Units=GPa)
#
#
# Indices 1 2 3 4 5 6 
#
# 1 77.2585 28.4962 15.7601 0.0000 -9.4967 0.0000
# 2 28.4962 110.0049 32.0667 0.0000 -4.1233 0.0000
# 3 15.7601 32.0667 69.7393 0.0000 -8.1187 0.0000
# 4 0.0000 0.0000 0.0000 17.5700 0.0000 -0.4391
# 5 -9.4967 -4.1233 -8.1187 0.0000 24.6003 0.0000
# 6 0.0000 0.0000 0.0000 -0.4391 0.0000 23.3978
#
#
#
# Elastic Compliance Matrix: (Units=1/GPa)
#
#
# Indices 1 2 3 4 5 6 
#
# 1 0.015031 -0.003333 -0.001304 0.000000 0.004813 0.000000
# 2 -0.003333 0.011237 -0.004518 0.000000 -0.000894 0.000000
# 3 -0.001304 -0.004518 0.017226 0.000000 0.004425 0.000000
# 4 0.000000 0.000000 0.000000 0.056942 0.000000 0.001069
# 5 0.004813 -0.000894 0.004425 0.000000 0.043818 0.000000
# 6 0.000000 0.000000 0.000000 0.001069 0.000000 0.042759
#
#
# Mechanical properties :
#
#
# Convention : Reuss Voigt Hill
#
# Bulk Modulus (GPa) = 39.70675 45.51651 42.61163
# Shear Modulus (GPa) = 23.39531 25.15893 24.27712
#
# Velocity S-wave (km/s) = 3.48260 3.61148 3.54763
# Velocity P-wave (km/s) = 6.06267 6.40210 6.23470
#
# Compressibility (1/GPa) = 0.02518464
#
# Stress axis : x y z
#
# Youngs Moduli (GPa) = 66.53095 88.98849 58.05111
#
# Poissons Ratio (x) = 0.29661 0.07568
# Poissons Ratio (y) = 0.22176 0.26227
# Poissons Ratio (z) = 0.08674 0.40204
#
# Static dielectric constant tensor:
#      x y z
#    x 3.575030 0.000000 -0.124930 
#    y 0.000000 3.979310 0.000000 
#    z -0.124930 0.000000 3.409670 
# 
# 
# High freq. dielectric constant tensor:
#      x y z
#    x 1.754020 0.000000 -0.008280 
#    y 0.000000 1.752610 0.000000 
#    z -0.008280 0.000000 1.738050 
# 
# From -- ./inp_files/21429.got.cif
#   From: 2010.06.25/outbox.cif.g09.slc.cpg/sg11_11_cif.got.tgz:21429.got - 2010.06.27 23:14:04.
