data_PCOD8071315
_publ_section_title
;
Structure prediction by ZEFSAII (Michael W. Deem and Ramdas Pophale) SiO2 
 PCOD8071315
Probable space group: P 21/M
;
_chemical_formula_sum "Si O2"
_cell_formula_units_Z 24
_cell_length_a 16.731782
_cell_length_b 10.449912
_cell_length_c 16.364922
_cell_angle_alpha 90.000000
_cell_angle_beta 153.481054
_cell_angle_gamma 90.000000
_cell_volume 1277.568285
_symmetry_space_group_name_H-M "P 21/M"
_symmetry_group_IT_number 11
_symmetry_cell_setting 'monoclinic'
loop_
_space_group_symop_operation_xyz
x,y,z
-x,1/2+y,-z
-x,-y,-z
x,1/2-y,z
loop_
_atom_site_type_symbol
_atom_site_label
_atom_site_fract_x
_atom_site_fract_y
_atom_site_fract_z
Si Si1 0.457446 0.394701 0.121440
Si Si2 0.804578 0.891219 0.258485
Si Si3 0.174416 0.011245 0.550904
Si Si4 0.975483 0.400043 0.050069
Si Si5 0.386840 0.896930 0.188746
Si Si6 0.775991 0.604946 0.581948
O O1 0.408894 0.250000 0.106027
O O2 0.674213 0.400966 0.316737
O O3 0.369488 0.501103 0.099855
O O4 0.373594 0.424883 0.955833
O O5 0.867633 0.750000 0.295444
O O6 0.758946 0.901181 0.312871
O O7 0.972588 0.974235 0.385209
O O8 0.162657 0.082696 0.454454
O O9 0.016279 0.250000 0.063256
O O10 0.101109 0.460708 0.236725
O O11 0.000000 0.500000 0.000000
O O12 0.772087 0.411218 0.893278
O O13 0.396936 0.750000 0.163420
O O14 0.568326 0.931114 0.404004
O O15 0.813873 0.750000 0.636110
#
# Coordination Sequence:
#
# PCOD8071315 Si02
#       6
#     4   4   4   4   4   4
#     4  10  20  34  52  77 108 138 172 216 259 298
#     4  10  20  32  48  73 105 139 176 218 259 298
#     4  10  19  33  51  73 101 138 178 214 254 302
#     4  10  21  37  56  80 106 132 166 209 257 310
#     4   9  19  36  56  78 104 137 174 208 248 305
#     4   9  18  34  55  75 100 135 174 213 253 303
#
# _framework density 18.785688
#
# number of rings (size 3 to 8) (size 9 to 14) (size 15 to 20)
#    0.000    2.333    0.000    2.500    0.000    2.000 
#    0.000    8.333    0.000    0.000    0.000    0.000 
#    0.000    0.000    0.000    0.000    0.000    0.000 
#
# Total GULP energy -297322.756296 kJ/mol
# GULP energy per Si atom -12388.448179 kJ/mol
# Density = 1.874293 g / cm^3
# Si number density = 18.785688 Si / 1000 Ang^3
#
#
#
# Elastic Constant Matrix: (Units=GPa)
#
#
# Indices 1 2 3 4 5 6 
#
# 1 100.0445 27.1239 51.6883 0.0000 -8.5760 0.0000
# 2 27.1239 34.3843 12.9708 0.0000 8.2903 0.0000
# 3 51.6883 12.9708 95.6185 0.0000 -7.2623 0.0000
# 4 0.0000 0.0000 0.0000 22.1141 0.0000 -2.3887
# 5 -8.5760 8.2903 -7.2623 0.0000 22.8916 0.0000
# 6 0.0000 0.0000 0.0000 -2.3887 0.0000 29.7265
#
#
#
# Elastic Compliance Matrix: (Units=1/GPa)
#
#
# Indices 1 2 3 4 5 6 
#
# 1 0.018434 -0.014122 -0.007312 0.000000 0.009700 0.000000
# 2 -0.014122 0.045572 -0.000209 0.000000 -0.021861 0.000000
# 3 -0.007312 -0.000209 0.014588 0.000000 0.001964 0.000000
# 4 0.000000 0.000000 0.000000 0.045616 0.000000 0.003666
# 5 0.009700 -0.021861 0.001964 0.000000 0.055858 0.000000
# 6 0.000000 0.000000 0.000000 0.003666 0.000000 0.033935
#
#
# Mechanical properties :
#
#
# Convention : Reuss Voigt Hill
#
# Bulk Modulus (GPa) = 28.32101 45.95701 37.13901
# Shear Modulus (GPa) = 18.58333 24.16408 21.37370
#
# Velocity S-wave (km/s) = 3.14861 3.59040 3.37674
# Velocity P-wave (km/s) = 5.32230 6.45793 5.91742
#
# Compressibility (1/GPa) = 0.03530948
#
# Stress axis : x y z
#
# Youngs Moduli (GPa) = 54.24869 21.94309 68.54730
#
# Poissons Ratio (x) = 0.30987 0.50123
# Poissons Ratio (y) = 0.76608 0.01430
# Poissons Ratio (z) = 0.39668 0.00458
#
# Static dielectric constant tensor:
#      x y z
#    x 3.290740 0.000000 -0.042780 
#    y 0.000000 3.363380 0.000000 
#    z -0.042780 0.000000 3.668120 
# 
# 
# High freq. dielectric constant tensor:
#      x y z
#    x 1.713920 0.000000 0.002240 
#    y 0.000000 1.717350 0.000000 
#    z 0.002240 0.000000 1.749870 
# 
# From -- ./inp_files/52210.got.cif
#   From: 2010.06.25/outbox.cif.g09.slc.cpg/sg11_27_cif.got.tgz:52210.got - 2010.06.27 23:14:04.
