data_PCOD8071919
_publ_section_title
;
Structure prediction by ZEFSAII (Michael W. Deem and Ramdas Pophale) SiO2 
 PCOD8071919
Probable space group: P 21/M
;
_chemical_formula_sum "Si O2"
_cell_formula_units_Z 32
_cell_length_a 24.678407
_cell_length_b 11.551947
_cell_length_c 12.180427
_cell_angle_alpha 90.000000
_cell_angle_beta 152.574871
_cell_angle_gamma 90.000000
_cell_volume 1599.368360
_symmetry_space_group_name_H-M "P 21/M"
_symmetry_group_IT_number 11
_symmetry_cell_setting 'monoclinic'
loop_
_space_group_symop_operation_xyz
x,y,z
-x,1/2+y,-z
-x,-y,-z
x,1/2-y,z
loop_
_atom_site_type_symbol
_atom_site_label
_atom_site_fract_x
_atom_site_fract_y
_atom_site_fract_z
Si Si1 0.004519 0.118697 0.578963
Si Si2 0.660983 0.621439 0.474501
Si Si3 0.597862 0.378148 0.621785
Si Si4 0.809488 0.964847 0.933861
Si Si5 0.447338 0.957594 0.226302
Si Si6 0.232040 0.619381 0.716962
Si Si7 0.815672 0.019853 0.600238
Si Si8 0.039325 0.618611 0.947344
O O1 0.997339 0.250000 0.509209
O O2 0.899011 0.107391 0.474642
O O3 0.000000 0.000000 0.500000
O O4 0.127803 0.117349 0.865208
O O5 0.662113 0.750000 0.427577
O O6 0.752567 0.615855 0.739561
O O7 0.530961 0.592215 0.282135
O O8 0.700474 0.533805 0.450534
O O9 0.635485 0.250000 0.654162
O O10 0.710690 0.460203 0.817250
O O11 0.551274 0.376576 0.662918
O O12 0.494701 0.417544 0.352337
O O13 0.907577 0.047122 0.057522
O O14 0.317637 0.965559 0.940170
O O15 0.279603 0.750000 0.817161
O O16 0.232362 0.589216 0.589723
O O17 0.882350 0.106972 0.802106
O O18 0.905448 0.918731 0.728130
O O19 0.037593 0.750000 0.906257
#
# Coordination Sequence:
#
# PCOD8071919 Si02
#       8
#     4   4   4   4   4   4   4   4
#     4  11  24  41  60  89 126 164 203 249 307 370
#     4  10  20  36  58  83 113 149 195 251 297 347
#     4  10  20  38  63  88 117 153 201 257 303 356
#     4  10  20  36  60  88 114 151 199 245 303 365
#     4  10  22  38  59  85 114 154 204 240 296 360
#     4  11  22  40  61  83 121 162 200 244 300 365
#     4  10  21  35  54  85 114 153 201 238 301 359
#     4  10  19  34  55  82 117 151 195 249 300 358
#
# _framework density 20.007898999999998
#
# number of rings (size 3 to 8) (size 9 to 14) (size 15 to 20)
#    0.000    1.750    1.250    3.375    0.000    2.500 
#    0.000    6.875    0.000    0.000    0.000    0.000 
#    0.000    0.000    0.000    0.000    0.000    0.000 
#
# Total GULP energy -396714.497752 kJ/mol
# GULP energy per Si atom -12397.328055 kJ/mol
# Density = 1.996236 g / cm^3
# Si number density = 20.007899 Si / 1000 Ang^3
#
#
#
# Elastic Constant Matrix: (Units=GPa)
#
#
# Indices 1 2 3 4 5 6 
#
# 1 96.5286 33.0203 23.0302 0.0000 8.9385 0.0000
# 2 33.0203 99.0889 25.1510 0.0000 4.1596 0.0000
# 3 23.0302 25.1510 90.1214 0.0000 1.6564 0.0000
# 4 0.0000 0.0000 0.0000 17.2646 0.0000 -4.7038
# 5 8.9385 4.1596 1.6564 0.0000 29.6035 0.0000
# 6 0.0000 0.0000 0.0000 -4.7038 0.0000 6.0526
#
#
#
# Elastic Compliance Matrix: (Units=1/GPa)
#
#
# Indices 1 2 3 4 5 6 
#
# 1 0.012334 -0.003437 -0.002135 0.000000 -0.003122 0.000000
# 2 -0.003437 0.011874 -0.002426 0.000000 -0.000495 0.000000
# 3 -0.002135 -0.002426 0.012313 0.000000 0.000297 0.000000
# 4 0.000000 0.000000 0.000000 0.073481 0.000000 0.057106
# 5 -0.003122 -0.000495 0.000297 0.000000 0.034775 0.000000
# 6 0.000000 0.000000 0.000000 0.057106 0.000000 0.209598
#
#
# Mechanical properties :
#
#
# Convention : Reuss Voigt Hill
#
# Bulk Modulus (GPa) = 48.72371 49.79357 49.25864
# Shear Modulus (GPa) = 13.25507 24.21996 18.73752
#
# Velocity S-wave (km/s) = 2.57668 3.48303 3.06356
# Velocity P-wave (km/s) = 5.76693 6.41220 6.09811
#
# Compressibility (1/GPa) = 0.02052389
#
# Stress axis : x y z
#
# Youngs Moduli (GPa) = 81.07738 84.21789 81.21173
#
# Poissons Ratio (x) = 0.28947 0.17341
# Poissons Ratio (y) = 0.27867 0.19705
# Poissons Ratio (z) = 0.17312 0.20434
#
# Static dielectric constant tensor:
#      x y z
#    x 3.661120 0.000000 0.116210 
#    y 0.000000 3.602230 0.000000 
#    z 0.116210 0.000000 3.533040 
# 
# 
# High freq. dielectric constant tensor:
#      x y z
#    x 1.783220 0.000000 0.012260 
#    y 0.000000 1.774640 0.000000 
#    z 0.012260 0.000000 1.773370 
# 
# From -- ./inp_files/44237.got.cif
#   From: 2010.06.25/outbox.cif.g09.slc.cpg/sg11_23_cif.got.tgz:44237.got - 2010.06.27 23:14:04.
