data_PCOD8071748
_publ_section_title
;
Structure prediction by ZEFSAII (Michael W. Deem and Ramdas Pophale) SiO2 
 PCOD8071748
Probable space group: P 21/M
;
_chemical_formula_sum "Si O2"
_cell_formula_units_Z 32
_cell_length_a 15.180198
_cell_length_b 8.723642
_cell_length_c 22.599632
_cell_angle_alpha 90.000000
_cell_angle_beta 32.690191
_cell_angle_gamma 90.000000
_cell_volume 1616.396113
_symmetry_space_group_name_H-M "P 21/M"
_symmetry_group_IT_number 11
_symmetry_cell_setting 'monoclinic'
loop_
_space_group_symop_operation_xyz
x,y,z
-x,1/2+y,-z
-x,-y,-z
x,1/2-y,z
loop_
_atom_site_type_symbol
_atom_site_label
_atom_site_fract_x
_atom_site_fract_y
_atom_site_fract_z
Si Si1 0.559243 0.081615 0.123647
Si Si2 0.765520 0.067975 0.501169
Si Si3 0.781952 0.574767 0.620990
Si Si4 0.179527 0.420746 0.954797
Si Si5 0.090225 0.932874 0.335928
Si Si6 0.574800 0.423879 0.902400
Si Si7 0.487314 0.931143 0.573471
Si Si8 0.808825 0.076502 0.174445
O O1 0.574297 0.250000 0.086118
O O2 0.400653 0.072462 0.252968
O O3 0.719223 0.051129 0.070508
O O4 0.552985 0.950546 0.077758
O O5 0.750319 0.250000 0.506084
O O6 0.759219 0.011111 0.572045
O O7 0.628456 0.996074 0.536364
O O8 0.944558 0.009144 0.380142
O O9 0.843553 0.750000 0.576797
O O10 0.905404 0.488274 0.597335
O O11 0.250756 0.250000 0.923747
O O12 0.200448 0.456047 0.873552
O O13 0.998778 0.428276 0.085160
O O14 0.077731 0.750000 0.341728
O O15 0.252010 0.997872 0.213077
O O16 0.602730 0.250000 0.900798
O O17 0.500000 0.500000 0.000000
O O18 0.509921 0.750000 0.554964
O O19 0.311589 0.971440 0.703233
O O20 0.500000 0.000000 0.500000
O O21 0.762981 0.250000 0.179867
#
# Coordination Sequence:
#
# PCOD8071748 Si02
#       8
#     4   4   4   4   4   4   4   4
#     4  10  20  34  54  82 115 151 189 228 277 335
#     4  12  24  38  59  87 116 152 193 236 290 345
#     4  10  20  35  57  86 122 157 189 233 287 341
#     4  10  19  33  57  89 118 146 186 235 291 348
#     4  10  21  38  59  86 118 151 191 236 283 341
#     4  10  21  38  59  81 110 148 188 231 278 330
#     4  11  24  44  64  83 113 154 202 249 297 350
#     4   9  20  38  59  83 115 150 184 235 296 348
#
# _framework density 19.797129000000002
#
# number of rings (size 3 to 8) (size 9 to 14) (size 15 to 20)
#    0.000    1.750    0.000    4.500    0.000    7.500 
#    2.250    0.000    0.000    0.000    0.000    0.000 
#    0.000    0.000    0.000    0.000    0.000    0.000 
#
# Total GULP energy -396563.119069 kJ/mol
# GULP energy per Si atom -12392.597471 kJ/mol
# Density = 1.975207 g / cm^3
# Si number density = 19.797129 Si / 1000 Ang^3
#
#
#
# Elastic Constant Matrix: (Units=GPa)
#
#
# Indices 1 2 3 4 5 6 
#
# 1 84.2174 35.4359 37.0341 0.0000 -5.4431 0.0000
# 2 35.4359 102.9135 36.9325 0.0000 -3.8841 0.0000
# 3 37.0341 36.9325 67.9387 0.0000 11.6270 0.0000
# 4 0.0000 0.0000 0.0000 28.5995 0.0000 -0.3178
# 5 -5.4431 -3.8841 11.6270 0.0000 31.2483 0.0000
# 6 0.0000 0.0000 0.0000 -0.3178 0.0000 38.3654
#
#
#
# Elastic Compliance Matrix: (Units=1/GPa)
#
#
# Indices 1 2 3 4 5 6 
#
# 1 0.017329 -0.002447 -0.009164 0.000000 0.006124 0.000000
# 2 -0.002447 0.012960 -0.006316 0.000000 0.003535 0.000000
# 3 -0.009164 -0.006316 0.025158 0.000000 -0.011742 0.000000
# 4 0.000000 0.000000 0.000000 0.034969 0.000000 0.000290
# 5 0.006124 0.003535 -0.011742 0.000000 0.037877 0.000000
# 6 0.000000 0.000000 0.000000 0.000290 0.000000 0.026068
#
#
# Mechanical properties :
#
#
# Convention : Reuss Voigt Hill
#
# Bulk Modulus (GPa) = 51.04136 52.65275 51.84706
# Shear Modulus (GPa) = 25.41355 29.35379 27.38367
#
# Velocity S-wave (km/s) = 3.58676 3.85480 3.72319
# Velocity P-wave (km/s) = 6.55678 6.81664 6.68797
#
# Compressibility (1/GPa) = 0.01959195
#
# Stress axis : x y z
#
# Youngs Moduli (GPa) = 57.70526 77.16336 39.74916
#
# Poissons Ratio (x) = 0.18882 0.36427
# Poissons Ratio (y) = 0.14121 0.25106
# Poissons Ratio (z) = 0.52883 0.48736
#
# Static dielectric constant tensor:
#      x y z
#    x 3.366290 0.000000 -0.202300 
#    y 0.000000 3.850370 0.000000 
#    z -0.202300 0.000000 3.862420 
# 
# 
# High freq. dielectric constant tensor:
#      x y z
#    x 1.756240 0.000000 -0.010540 
#    y 0.000000 1.784350 0.000000 
#    z -0.010540 0.000000 1.784480 
# 
# From -- ./inp_files/69049.got.cif
#   From: 2010.06.25/outbox.cif.g09.slc.cpg/sg11_35_cif.got.tgz:69049.got - 2010.06.27 23:14:04.
