data_PCOD8071718
_publ_section_title
;
Structure prediction by ZEFSAII (Michael W. Deem and Ramdas Pophale) SiO2 
 PCOD8071718
Probable space group: P 21/M
;
_chemical_formula_sum "Si O2"
_cell_formula_units_Z 32
_cell_length_a 11.229982
_cell_length_b 27.682258
_cell_length_c 9.025921
_cell_angle_alpha 90.000000
_cell_angle_beta 143.194240
_cell_angle_gamma 90.000000
_cell_volume 1681.025833
_symmetry_space_group_name_H-M "P 21/M"
_symmetry_group_IT_number 11
_symmetry_cell_setting 'monoclinic'
loop_
_space_group_symop_operation_xyz
x,y,z
-x,1/2+y,-z
-x,-y,-z
x,1/2-y,z
loop_
_atom_site_type_symbol
_atom_site_label
_atom_site_fract_x
_atom_site_fract_y
_atom_site_fract_z
Si Si1 0.064928 0.195111 0.889144
Si Si2 0.916876 0.881931 0.328173
Si Si3 0.383940 0.440195 0.156997
Si Si4 0.132842 0.525092 0.844009
Si Si5 0.760422 0.194030 0.839369
Si Si6 0.367236 0.362715 0.382589
Si Si7 0.220004 0.964636 0.607835
Si Si8 0.030750 0.124074 0.275774
O O1 0.113292 0.250000 0.901053
O O2 0.042256 0.168835 0.709968
O O3 0.862132 0.189220 0.779912
O O4 0.250338 0.174514 0.163607
O O5 0.902829 0.872943 0.488233
O O6 0.100943 0.915192 0.466985
O O7 0.714960 0.906717 0.068180
O O8 0.427300 0.410075 0.348646
O O9 0.585011 0.462416 0.295730
O O10 0.238733 0.485443 0.054540
O O11 0.267694 0.528135 0.829319
O O12 0.909102 0.509967 0.576718
O O13 0.109969 0.577389 0.897963
O O14 0.722211 0.250000 0.842406
O O15 0.556931 0.164519 0.636741
O O16 0.905842 0.171598 0.108432
O O17 0.231823 0.380204 0.382900
#
# Coordination Sequence:
#
# PCOD8071718 Si02
#       8
#     4   4   4   4   4   4   4   4
#     4   9  18  35  58  79 101 131 173 225 268 308
#     4   9  19  34  54  81 106 134 177 221 264 315
#     4  10  19  33  57  80 105 142 182 221 259 307
#     4   9  19  33  51  78 109 141 178 216 262 316
#     4  10  21  38  58  76 101 141 179 213 263 322
#     4  10  21  36  54  79 108 142 179 215 261 318
#     4   9  17  32  53  77 107 142 177 218 263 311
#     4  10  22  37  53  78 113 143 171 215 267 317
#
# _framework density 19.035993999999999
#
# number of rings (size 3 to 8) (size 9 to 14) (size 15 to 20)
#    0.000    2.500    0.000    2.250    0.000    5.500 
#    0.000    1.250    0.000    0.000    0.000    0.000 
#    0.000    0.000    0.000    0.000    0.000    0.000 
#
# Total GULP energy -396819.090104 kJ/mol
# GULP energy per Si atom -12400.596566 kJ/mol
# Density = 1.899267 g / cm^3
# Si number density = 19.035994 Si / 1000 Ang^3
#
#
#
# Elastic Constant Matrix: (Units=GPa)
#
#
# Indices 1 2 3 4 5 6 
#
# 1 95.3046 47.1466 39.3931 0.0000 2.0396 0.0000
# 2 47.1466 105.7496 18.0461 0.0000 -8.5960 0.0000
# 3 39.3931 18.0461 53.5245 0.0000 -1.8543 0.0000
# 4 0.0000 0.0000 0.0000 27.8553 0.0000 -1.5037
# 5 2.0396 -8.5960 -1.8543 0.0000 28.3149 0.0000
# 6 0.0000 0.0000 0.0000 -1.5037 0.0000 29.3168
#
#
#
# Elastic Compliance Matrix: (Units=1/GPa)
#
#
# Indices 1 2 3 4 5 6 
#
# 1 0.018708 -0.006688 -0.011658 0.000000 -0.004141 0.000000
# 2 -0.006688 0.012656 0.000807 0.000000 0.004377 0.000000
# 3 -0.011658 0.000807 0.027090 0.000000 0.002859 0.000000
# 4 0.000000 0.000000 0.000000 0.035999 0.000000 0.001846
# 5 -0.004141 0.004377 0.002859 0.000000 0.037131 0.000000
# 6 0.000000 0.000000 0.000000 0.001846 0.000000 0.034205
#
#
# Mechanical properties :
#
#
# Convention : Reuss Voigt Hill
#
# Bulk Modulus (GPa) = 42.77766 51.52782 47.15274
# Shear Modulus (GPa) = 23.96241 27.09692 25.52967
#
# Velocity S-wave (km/s) = 3.55180 3.77697 3.66611
# Velocity P-wave (km/s) = 6.27225 6.79323 6.53793
#
# Compressibility (1/GPa) = 0.02337669
#
# Stress axis : x y z
#
# Youngs Moduli (GPa) = 53.45187 79.01286 36.91422
#
# Poissons Ratio (x) = 0.52845 0.43033
# Poissons Ratio (y) = 0.35749 -0.02978
# Poissons Ratio (z) = 0.62312 -0.06375
#
# Static dielectric constant tensor:
#      x y z
#    x 3.319770 0.000000 0.014220 
#    y 0.000000 3.638170 0.000000 
#    z 0.014220 0.000000 3.354770 
# 
# 
# High freq. dielectric constant tensor:
#      x y z
#    x 1.730430 0.000000 0.006980 
#    y 0.000000 1.749410 0.000000 
#    z 0.006980 0.000000 1.729690 
# 
# From -- ./inp_files/3396.got.cif
#   From: 2010.06.25/outbox.cif.g09.slc.cpg/sg11_2_cif.got.tgz:3396.got - 2010.06.27 23:14:04.
