data_PCOD8071058
_publ_section_title
;
Structure prediction by ZEFSAII (Michael W. Deem and Ramdas Pophale) SiO2 
 PCOD8071058
Probable space group: P 21/M
;
_chemical_formula_sum "Si O2"
_cell_formula_units_Z 32
_cell_length_a 14.166870
_cell_length_b 9.056184
_cell_length_c 20.563380
_cell_angle_alpha 90.000000
_cell_angle_beta 136.818863
_cell_angle_gamma 90.000000
_cell_volume 1805.363587
_symmetry_space_group_name_H-M "P 21/M"
_symmetry_group_IT_number 11
_symmetry_cell_setting 'monoclinic'
loop_
_space_group_symop_operation_xyz
x,y,z
-x,1/2+y,-z
-x,-y,-z
x,1/2-y,z
loop_
_atom_site_type_symbol
_atom_site_label
_atom_site_fract_x
_atom_site_fract_y
_atom_site_fract_z
Si Si1 0.577782 0.078712 0.725276
Si Si2 0.856113 0.078559 0.045685
Si Si3 0.130159 0.919152 0.185403
Si Si4 0.129121 0.579924 0.796380
Si Si5 0.145826 0.578716 0.344254
Si Si6 0.592168 0.575528 0.861878
Si Si7 0.426012 0.922226 0.903570
Si Si8 0.584445 0.575303 0.485035
O O1 0.558046 0.250000 0.731581
O O2 0.737088 0.042451 0.790475
O O3 0.484526 0.031939 0.617718
O O4 0.529862 0.983897 0.763081
O O5 0.842940 0.250000 0.022217
O O6 0.833271 0.044705 0.110111
O O7 0.006708 0.023270 0.099313
O O8 0.742764 0.992149 0.947887
O O9 0.083661 0.750000 0.153570
O O10 0.168097 0.950180 0.279229
O O11 0.084264 0.750000 0.766491
O O12 0.263087 0.541112 0.820822
O O13 0.004502 0.477955 0.709045
O O14 0.160232 0.750000 0.369625
O O15 0.260358 0.485540 0.439916
O O16 0.604787 0.750000 0.865553
O O17 0.489595 0.523084 0.867570
O O18 0.450561 0.750000 0.926507
O O19 0.500000 0.000000 0.000000
O O20 0.500000 0.500000 0.500000
O O21 0.582908 0.750000 0.495910
#
# Coordination Sequence:
#
# PCOD8071058 Si02
#       8
#     4   4   4   4   4   4   4   4
#     4  10  22  39  55  75 107 146 182 219 266 320
#     4  10  19  32  52  77 106 144 182 218 263 318
#     4   9  18  34  52  74 107 143 180 220 261 314
#     4   9  18  33  53  80 109 140 177 220 268 322
#     4  10  19  33  54  83 112 139 174 223 272 319
#     4  11  23  36  53  79 109 144 181 224 271 316
#     4  10  20  35  56  81 109 140 180 224 271 319
#     4  11  21  36  58  83 109 142 181 224 271 319
#
# _framework density 17.724959999999999
#
# number of rings (size 3 to 8) (size 9 to 14) (size 15 to 20)
#    0.000    2.000    2.500    1.500    0.000    4.000 
#    0.000    0.000    0.000    0.750    0.000    0.000 
#    0.000    0.000    0.000    0.000    0.000    0.000 
#
# Total GULP energy -396917.707081 kJ/mol
# GULP energy per Si atom -12403.678346 kJ/mol
# Density = 1.768462 g / cm^3
# Si number density = 17.724960 Si / 1000 Ang^3
#
#
#
# Elastic Constant Matrix: (Units=GPa)
#
#
# Indices 1 2 3 4 5 6 
#
# 1 103.9472 48.1559 61.4684 0.0000 -4.2070 0.0000
# 2 48.1559 80.4305 59.4628 0.0000 -3.7924 0.0000
# 3 61.4684 59.4628 111.2716 0.0000 -1.2355 0.0000
# 4 0.0000 0.0000 0.0000 32.8024 0.0000 1.6102
# 5 -4.2070 -3.7924 -1.2355 0.0000 19.8157 0.0000
# 6 0.0000 0.0000 0.0000 1.6102 0.0000 26.1724
#
#
#
# Elastic Compliance Matrix: (Units=1/GPa)
#
#
# Indices 1 2 3 4 5 6 
#
# 1 0.015421 -0.004723 -0.005973 0.000000 0.001998 0.000000
# 2 -0.004723 0.022211 -0.009231 0.000000 0.002673 0.000000
# 3 -0.005973 -0.009231 0.017197 0.000000 -0.001962 0.000000
# 4 0.000000 0.000000 0.000000 0.030578 0.000000 -0.001881
# 5 0.001998 0.002673 -0.001962 0.000000 0.051278 0.000000
# 6 0.000000 0.000000 0.000000 -0.001881 0.000000 0.038324
#
#
# Mechanical properties :
#
#
# Convention : Reuss Voigt Hill
#
# Bulk Modulus (GPa) = 66.77024 70.42483 68.59753
# Shear Modulus (GPa) = 22.74219 24.19558 23.46889
#
# Velocity S-wave (km/s) = 3.58587 3.69868 3.64271
# Velocity P-wave (km/s) = 7.40922 7.61962 7.51515
#
# Compressibility (1/GPa) = 0.01497673
#
# Stress axis : x y z
#
# Youngs Moduli (GPa) = 64.84593 45.02193 58.14804
#
# Poissons Ratio (x) = 0.21265 0.34730
# Poissons Ratio (y) = 0.30628 0.53675
# Poissons Ratio (z) = 0.38730 0.41559
#
# Static dielectric constant tensor:
#      x y z
#    x 3.326740 0.000000 0.107950 
#    y 0.000000 3.311880 0.000000 
#    z 0.107950 0.000000 3.249780 
# 
# 
# High freq. dielectric constant tensor:
#      x y z
#    x 1.674930 0.000000 0.012250 
#    y 0.000000 1.691840 0.000000 
#    z 0.012250 0.000000 1.676060 
# 
# From -- ./inp_files/45313.got.cif
#   From: 2010.06.25/outbox.cif.g09.slc.cpg/sg11_23_cif.got.tgz:45313.got - 2010.06.27 23:14:04.
