data_PCOD8071583
_publ_section_title
;
Structure prediction by ZEFSAII (Michael W. Deem and Ramdas Pophale) SiO2 
 PCOD8071583
Probable space group: P 21/M
;
_chemical_formula_sum "Si O2"
_cell_formula_units_Z 28
_cell_length_a 21.664598
_cell_length_b 9.114602
_cell_length_c 16.184572
_cell_angle_alpha 90.000000
_cell_angle_beta 25.966253
_cell_angle_gamma 90.000000
_cell_volume 1399.286581
_symmetry_space_group_name_H-M "P 21/M"
_symmetry_group_IT_number 11
_symmetry_cell_setting 'monoclinic'
loop_
_space_group_symop_operation_xyz
x,y,z
-x,1/2+y,-z
-x,-y,-z
x,1/2-y,z
loop_
_atom_site_type_symbol
_atom_site_label
_atom_site_fract_x
_atom_site_fract_y
_atom_site_fract_z
Si Si1 0.895590 0.410196 0.734581
Si Si2 0.035935 0.424287 0.181959
Si Si3 0.559952 0.080161 0.547421
Si Si4 0.184674 0.092190 0.305299
Si Si5 0.391841 0.078391 0.189835
Si Si6 0.282885 0.578480 0.474844
Si Si7 0.699731 0.078244 0.205630
O O1 0.844509 0.250000 0.828631
O O2 0.938055 0.515318 0.757768
O O3 0.777205 0.485791 0.818126
O O4 0.019850 0.389169 0.519453
O O5 0.055031 0.250000 0.159496
O O6 0.880852 0.469925 0.335838
O O7 0.150894 0.497340 0.983722
O O8 0.515488 0.250000 0.604400
O O9 0.658553 0.036158 0.505553
O O10 0.651254 0.045135 0.356730
O O11 0.415833 0.985735 0.719734
O O12 0.250810 0.250000 0.201048
O O13 0.244772 0.043532 0.321439
O O14 0.426598 0.250000 0.157775
O O15 0.382597 0.006782 0.290852
O O16 0.500000 0.000000 0.000000
O O17 0.297140 0.750000 0.439474
O O18 0.718101 0.250000 0.165870
#
# Coordination Sequence:
#
# PCOD8071583 Si02
#       7
#     4   4   4   4   4   4   4
#     4  10  19  33  55  80 107 142 186 232 280 335
#     4  11  22  36  58  88 122 156 194 241 296 349
#     4   9  20  41  64  87 119 156 194 240 292 347
#     4   9  19  35  53  76 107 143 184 231 283 332
#     4  11  23  39  58  82 114 151 192 238 288 344
#     4  10  22  40  62  87 117 155 196 241 295 351
#     4  10  21  38  62  90 119 154 196 240 289 348
#
# _framework density 20.010197000000002
#
# number of rings (size 3 to 8) (size 9 to 14) (size 15 to 20)
#    0.000    2.000    1.429    1.714    0.000    5.143 
#    0.000    1.429    0.000    0.000    0.000    0.000 
#    0.000    0.000    0.000    0.000    0.000    0.000 
#
# Total GULP energy -347045.700125 kJ/mol
# GULP energy per Si atom -12394.489290 kJ/mol
# Density = 1.996465 g / cm^3
# Si number density = 20.010197 Si / 1000 Ang^3
#
#
#
# Elastic Constant Matrix: (Units=GPa)
#
#
# Indices 1 2 3 4 5 6 
#
# 1 122.0716 53.3961 33.9233 0.0000 16.2115 0.0000
# 2 53.3961 104.3544 51.2231 0.0000 5.1027 0.0000
# 3 33.9233 51.2231 94.1889 0.0000 4.6037 0.0000
# 4 0.0000 0.0000 0.0000 33.6572 0.0000 4.7100
# 5 16.2115 5.1027 4.6037 0.0000 15.7910 0.0000
# 6 0.0000 0.0000 0.0000 4.7100 0.0000 29.1982
#
#
#
# Elastic Compliance Matrix: (Units=1/GPa)
#
#
# Indices 1 2 3 4 5 6 
#
# 1 0.012144 -0.005192 -0.001038 0.000000 -0.010487 0.000000
# 2 -0.005192 0.015366 -0.006599 0.000000 0.002288 0.000000
# 3 -0.001038 -0.006599 0.014632 0.000000 -0.001068 0.000000
# 4 0.000000 0.000000 0.000000 0.030398 0.000000 -0.004903
# 5 -0.010487 0.002288 -0.001068 0.000000 0.073666 0.000000
# 6 0.000000 0.000000 0.000000 -0.004903 0.000000 0.035040
#
#
# Mechanical properties :
#
#
# Convention : Reuss Voigt Hill
#
# Bulk Modulus (GPa) = 60.65945 66.41109 63.53527
# Shear Modulus (GPa) = 23.54090 27.86742 25.70416
#
# Velocity S-wave (km/s) = 3.43366 3.73589 3.58795
# Velocity P-wave (km/s) = 6.78970 7.20207 6.99892
#
# Compressibility (1/GPa) = 0.01648548
#
# Stress axis : x y z
#
# Youngs Moduli (GPa) = 82.34559 65.07743 68.34534
#
# Poissons Ratio (x) = 0.33785 0.07093
# Poissons Ratio (y) = 0.42750 0.45099
# Poissons Ratio (z) = 0.08546 0.42943
#
# Static dielectric constant tensor:
#      x y z
#    x 3.194430 0.000000 0.111490 
#    y 0.000000 3.887160 0.000000 
#    z 0.111490 0.000000 3.411390 
# 
# 
# High freq. dielectric constant tensor:
#      x y z
#    x 1.784880 0.000000 0.001100 
#    y 0.000000 1.790090 0.000000 
#    z 0.001100 0.000000 1.767800 
# 
# From -- ./inp_files/54454.got.cif
#   From: 2010.06.25/outbox.cif.g09.slc.cpg/sg11_28_cif.got.tgz:54454.got - 2010.06.27 23:14:04.
