data_PCOD8071613
_publ_section_title
;
Structure prediction by ZEFSAII (Michael W. Deem and Ramdas Pophale) SiO2 
 PCOD8071613
Probable space group: P 21/M
;
_chemical_formula_sum "Si O2"
_cell_formula_units_Z 32
_cell_length_a 24.682043
_cell_length_b 8.885766
_cell_length_c 16.187212
_cell_angle_alpha 90.000000
_cell_angle_beta 26.822542
_cell_angle_gamma 90.000000
_cell_volume 1601.934390
_symmetry_space_group_name_H-M "P 21/M"
_symmetry_group_IT_number 11
_symmetry_cell_setting 'monoclinic'
loop_
_space_group_symop_operation_xyz
x,y,z
-x,1/2+y,-z
-x,-y,-z
x,1/2-y,z
loop_
_atom_site_type_symbol
_atom_site_label
_atom_site_fract_x
_atom_site_fract_y
_atom_site_fract_z
Si Si1 0.832365 0.927971 0.033729
Si Si2 0.283967 0.572669 0.445528
Si Si3 0.275619 0.072059 0.116580
Si Si4 0.512128 0.571760 0.730377
Si Si5 0.809223 0.428450 0.608042
Si Si6 0.079716 0.427651 0.256061
Si Si7 0.409965 0.071364 0.558115
Si Si8 0.955387 0.426577 0.142997
O O1 0.820107 0.750000 0.051475
O O2 0.720435 0.993062 0.237835
O O3 0.838736 0.988824 0.931061
O O4 0.956817 0.981250 0.904249
O O5 0.308644 0.750000 0.415978
O O6 0.402476 0.484966 0.311933
O O7 0.244765 0.524677 0.406864
O O8 0.178739 0.523248 0.651495
O O9 0.294019 0.250000 0.094837
O O10 0.148793 0.027595 0.245835
O O11 0.275653 0.004540 0.208236
O O12 0.382231 0.001167 0.918321
O O13 0.501231 0.750000 0.750771
O O14 0.562690 0.518707 0.572571
O O15 0.806472 0.250000 0.623293
O O16 0.944583 0.493562 0.435795
O O17 0.067886 0.250000 0.262566
O O18 0.418454 0.250000 0.553206
O O19 0.500000 0.000000 0.500000
O O20 0.962922 0.250000 0.121701
O O21 0.000000 0.500000 0.000000
#
# Coordination Sequence:
#
# PCOD8071613 Si02
#       8
#     4   4   4   4   4   4   4   4
#     4   9  16  31  55  81 109 146 185 221 273 342
#     4  10  21  38  61  86 115 154 198 243 290 349
#     4  11  23  38  60  88 115 152 198 245 296 353
#     4  11  24  41  59  84 119 159 199 244 295 347
#     4  10  20  38  62  88 117 151 192 242 298 354
#     4   9  17  33  59  88 117 149 189 234 288 351
#     4  10  21  36  57  84 116 155 196 236 283 338
#     4  10  19  33  55  82 112 147 188 230 278 338
#
# _framework density 19.975849
#
# number of rings (size 3 to 8) (size 9 to 14) (size 15 to 20)
#    0.000    2.000    1.250    2.625    0.000    4.500 
#    0.000    1.250    0.000    2.250    0.000    0.000 
#    0.000    0.000    0.000    0.000    0.000    0.000 
#
# Total GULP energy -396771.695374 kJ/mol
# GULP energy per Si atom -12399.115480 kJ/mol
# Density = 1.993038 g / cm^3
# Si number density = 19.975849 Si / 1000 Ang^3
#
#
#
# Elastic Constant Matrix: (Units=GPa)
#
#
# Indices 1 2 3 4 5 6 
#
# 1 113.5872 34.2555 35.0066 0.0000 5.4562 0.0000
# 2 34.2555 36.8663 23.4817 0.0000 1.3581 0.0000
# 3 35.0066 23.4817 98.0167 0.0000 8.5605 0.0000
# 4 0.0000 0.0000 0.0000 26.4043 0.0000 0.5722
# 5 5.4562 1.3581 8.5605 0.0000 41.5994 0.0000
# 6 0.0000 0.0000 0.0000 0.5722 0.0000 27.7165
#
#
#
# Elastic Compliance Matrix: (Units=1/GPa)
#
#
# Indices 1 2 3 4 5 6 
#
# 1 0.012587 -0.010443 -0.001914 0.000000 -0.000916 0.000000
# 2 -0.010443 0.040686 -0.006131 0.000000 0.001303 0.000000
# 3 -0.001914 -0.006131 0.012541 0.000000 -0.002129 0.000000
# 4 0.000000 0.000000 0.000000 0.037890 0.000000 -0.000782
# 5 -0.000916 0.001303 -0.002129 0.000000 0.024555 0.000000
# 6 0.000000 0.000000 0.000000 -0.000782 0.000000 0.036096
#
#
# Mechanical properties :
#
#
# Convention : Reuss Voigt Hill
#
# Bulk Modulus (GPa) = 34.67669 48.21753 41.44711
# Shear Modulus (GPa) = 23.70332 29.52580 26.61456
#
# Velocity S-wave (km/s) = 3.44844 3.84874 3.65408
# Velocity P-wave (km/s) = 5.76651 6.62878 6.21263
#
# Compressibility (1/GPa) = 0.02883782
#
# Stress axis : x y z
#
# Youngs Moduli (GPa) = 79.44733 24.57876 79.74111
#
# Poissons Ratio (x) = 0.25667 0.15259
# Poissons Ratio (y) = 0.82966 0.48890
# Poissons Ratio (z) = 0.15203 0.15069
#
# Static dielectric constant tensor:
#      x y z
#    x 3.907460 0.000000 0.035460 
#    y 0.000000 3.312340 0.000000 
#    z 0.035460 0.000000 3.855190 
# 
# 
# High freq. dielectric constant tensor:
#      x y z
#    x 1.790480 0.000000 0.003180 
#    y 0.000000 1.744900 0.000000 
#    z 0.003180 0.000000 1.792810 
# 
# From -- ./inp_files/55637.got.cif
#   From: 2010.06.25/outbox.cif.g09.slc.cpg/sg11_28_cif.got.tgz:55637.got - 2010.06.27 23:14:04.
