data_PCOD8071253
_publ_section_title
;
Structure prediction by ZEFSAII (Michael W. Deem and Ramdas Pophale) SiO2 
 PCOD8071253
Probable space group: P 21/M
;
_chemical_formula_sum "Si O2"
_cell_formula_units_Z 32
_cell_length_a 11.306564
_cell_length_b 9.137488
_cell_length_c 16.009398
_cell_angle_alpha 90.000000
_cell_angle_beta 92.772395
_cell_angle_gamma 90.000000
_cell_volume 1652.052528
_symmetry_space_group_name_H-M "P 21/M"
_symmetry_group_IT_number 11
_symmetry_cell_setting 'monoclinic'
loop_
_space_group_symop_operation_xyz
x,y,z
-x,1/2+y,-z
-x,-y,-z
x,1/2-y,z
loop_
_atom_site_type_symbol
_atom_site_label
_atom_site_fract_x
_atom_site_fract_y
_atom_site_fract_z
Si Si1 0.479193 0.420581 0.912128
Si Si2 0.322841 0.078987 0.455673
Si Si3 0.320193 0.579538 0.781281
Si Si4 0.574882 0.418724 0.391089
Si Si5 0.272108 0.582113 0.157361
Si Si6 0.052090 0.583167 0.753572
Si Si7 0.067476 0.083366 0.073696
Si Si8 0.158809 0.578366 0.327398
O O1 0.457219 0.250000 0.928404
O O2 0.365287 0.487917 0.862123
O O3 0.590544 0.447231 0.855066
O O4 0.500000 0.500000 0.000000
O O5 0.296428 0.250000 0.459694
O O6 0.438830 0.042793 0.404891
O O7 0.339272 0.017577 0.549478
O O8 0.211394 0.999734 0.410333
O O9 0.323469 0.750000 0.806178
O O10 0.402287 0.545175 0.704604
O O11 0.187447 0.530303 0.753883
O O12 0.602718 0.250000 0.412881
O O13 0.237134 0.750000 0.140012
O O14 0.197084 0.485012 0.090568
O O15 0.241818 0.537648 0.251277
O O16 0.039001 0.750000 0.721905
O O17 0.010167 0.567110 0.846602
O O18 0.974039 0.480378 0.691185
O O19 0.085018 0.250000 0.047045
O O20 0.000000 0.000000 0.000000
O O21 0.153548 0.750000 0.343712
#
# Coordination Sequence:
#
# PCOD8071253 Si02
#       8
#     4   4   4   4   4   4   4   4
#     4  11  24  39  56  80 110 144 183 226 274 329
#     4  10  19  32  55  85 116 144 178 225 272 322
#     4  10  21  39  60  80 110 147 182 223 276 331
#     4   9  19  35  56  84 113 146 183 221 269 327
#     4   9  20  37  54  75 105 139 178 224 271 320
#     4   9  20  37  55  77 106 143 181 223 274 326
#     4  10  20  33  53  78 104 136 177 225 274 322
#     4  10  19  34  57  82 108 141 182 228 273 320
#
# _framework density 19.369844000000001
#
# number of rings (size 3 to 8) (size 9 to 14) (size 15 to 20)
#    0.000    2.250    0.000    2.250    1.750    3.500 
#    0.000    0.625    0.000    0.000    0.000    0.000 
#    0.000    0.000    0.000    0.000    0.000    0.000 
#
# Total GULP energy -396938.084148 kJ/mol
# GULP energy per Si atom -12404.315130 kJ/mol
# Density = 1.932576 g / cm^3
# Si number density = 19.369844 Si / 1000 Ang^3
#
#
#
# Elastic Constant Matrix: (Units=GPa)
#
#
# Indices 1 2 3 4 5 6 
#
# 1 83.5274 45.9175 33.0064 0.0000 19.3202 0.0000
# 2 45.9175 105.6211 50.5978 0.0000 27.8284 0.0000
# 3 33.0064 50.5978 77.3778 0.0000 27.4185 0.0000
# 4 0.0000 0.0000 0.0000 34.6115 0.0000 9.9627
# 5 19.3202 27.8284 27.4185 0.0000 34.5790 0.0000
# 6 0.0000 0.0000 0.0000 9.9627 0.0000 34.1537
#
#
#
# Elastic Compliance Matrix: (Units=1/GPa)
#
#
# Indices 1 2 3 4 5 6 
#
# 1 0.016530 -0.005133 -0.002623 0.000000 -0.003025 0.000000
# 2 -0.005133 0.016172 -0.006662 0.000000 -0.004865 0.000000
# 3 -0.002623 -0.006662 0.022224 0.000000 -0.010795 0.000000
# 4 0.000000 0.000000 0.000000 0.031540 0.000000 -0.009200
# 5 -0.003025 -0.004865 -0.010795 0.000000 0.043085 0.000000
# 6 0.000000 0.000000 0.000000 -0.009200 0.000000 0.031963
#
#
# Mechanical properties :
#
#
# Convention : Reuss Voigt Hill
#
# Bulk Modulus (GPa) = 38.32665 58.39665 48.36165
# Shear Modulus (GPa) = 25.11986 29.80248 27.46117
#
# Velocity S-wave (km/s) = 3.60509 3.92676 3.76936
# Velocity P-wave (km/s) = 6.09579 7.12551 6.63067
#
# Compressibility (1/GPa) = 0.02609150
#
# Stress axis : x y z
#
# Youngs Moduli (GPa) = 60.49661 61.83395 44.99689
#
# Poissons Ratio (x) = 0.31737 0.11801
# Poissons Ratio (y) = 0.31051 0.29977
# Poissons Ratio (z) = 0.15866 0.41193
#
# Static dielectric constant tensor:
#      x y z
#    x 3.675530 0.000000 -0.049230 
#    y 0.000000 3.600970 0.000000 
#    z -0.049230 0.000000 3.465580 
# 
# 
# High freq. dielectric constant tensor:
#      x y z
#    x 1.751260 0.000000 0.010990 
#    y 0.000000 1.758610 0.000000 
#    z 0.010990 0.000000 1.746360 
# 
# From -- ./inp_files/42951.got.cif
#   From: 2010.06.25/outbox.cif.g09.slc.cpg/sg11_22_cif.got.tgz:42951.got - 2010.06.27 23:14:04.
