data_PCOD8071321
_publ_section_title
;
Structure prediction by ZEFSAII (Michael W. Deem and Ramdas Pophale) SiO2 
 PCOD8071321
Probable space group: P 21/M
;
_chemical_formula_sum "Si O2"
_cell_formula_units_Z 32
_cell_length_a 21.196390
_cell_length_b 8.523434
_cell_length_c 15.561238
_cell_angle_alpha 90.000000
_cell_angle_beta 137.924287
_cell_angle_gamma 90.000000
_cell_volume 1883.944363
_symmetry_space_group_name_H-M "P 21/M"
_symmetry_group_IT_number 11
_symmetry_cell_setting 'monoclinic'
loop_
_space_group_symop_operation_xyz
x,y,z
-x,1/2+y,-z
-x,-y,-z
x,1/2-y,z
loop_
_atom_site_type_symbol
_atom_site_label
_atom_site_fract_x
_atom_site_fract_y
_atom_site_fract_z
Si Si1 0.288425 0.567896 0.128529
Si Si2 0.400323 0.064296 0.709707
Si Si3 0.611291 0.936146 0.929763
Si Si4 0.280767 0.567062 0.435648
Si Si5 0.907787 0.567824 0.808094
Si Si6 0.398168 0.432151 0.893590
Si Si7 0.395869 0.066107 0.394758
Si Si8 0.103537 0.431798 0.005235
O O1 0.309383 0.750000 0.165947
O O2 0.317112 0.519571 0.061857
O O3 0.348760 0.464387 0.255431
O O4 0.177854 0.533683 0.026930
O O5 0.397957 0.250000 0.689298
O O6 0.353615 0.019271 0.756134
O O7 0.507222 0.005157 0.811016
O O8 0.338951 0.974393 0.578536
O O9 0.608450 0.750000 0.910821
O O10 0.652589 0.977988 0.067720
O O11 0.260031 0.750000 0.411177
O O12 0.181258 0.477638 0.339785
O O13 0.337403 0.519584 0.408697
O O14 0.930714 0.750000 0.822171
O O15 0.998753 0.472891 0.867181
O O16 0.884892 0.522681 0.883208
O O17 0.412997 0.250000 0.906596
O O18 0.500000 0.500000 0.000000
O O19 0.396878 0.250000 0.415292
O O20 0.500000 0.000000 0.500000
O O21 0.124568 0.250000 0.010467
#
# Coordination Sequence:
#
# PCOD8071321 Si02
#       8
#     4   4   4   4   4   4   4   4
#     4  12  23  35  51  74 102 135 171 208 250 299
#     4  10  19  33  51  74 103 135 172 211 253 300
#     4  10  19  33  51  74 103 135 172 211 253 300
#     4  12  23  35  51  74 102 135 171 208 250 299
#     4  10  20  35  55  76 100 130 166 210 256 298
#     4   8  16  30  50  72  97 130 167 210 254 296
#     4  12  24  38  51  68  97 136 174 210 248 294
#     4  10  20  35  55  76 100 130 166 210 256 298
#
# _framework density 16.98564
#
# number of rings (size 3 to 8) (size 9 to 14) (size 15 to 20)
#    0.000    1.500    1.250    5.625    0.000    2.000 
#    0.000    0.000    0.000    0.000    0.000    0.875 
#    0.000    0.000    0.000    0.000    0.000    0.000 
#
# Total GULP energy -396709.504247 kJ/mol
# GULP energy per Si atom -12397.172008 kJ/mol
# Density = 1.694698 g / cm^3
# Si number density = 16.985640 Si / 1000 Ang^3
#
#
#
# Elastic Constant Matrix: (Units=GPa)
#
#
# Indices 1 2 3 4 5 6 
#
# 1 93.5906 19.9206 48.8639 0.0000 -7.3054 0.0000
# 2 19.9206 52.3436 15.5694 0.0000 -3.7160 0.0000
# 3 48.8639 15.5694 25.1811 0.0000 3.1106 0.0000
# 4 0.0000 0.0000 0.0000 21.3455 0.0000 5.4313
# 5 -7.3054 -3.7160 3.1106 0.0000 27.7060 0.0000
# 6 0.0000 0.0000 0.0000 5.4313 0.0000 25.9977
#
#
#
# Elastic Compliance Matrix: (Units=1/GPa)
#
#
# Indices 1 2 3 4 5 6 
#
# 1 -0.084459 -0.026516 0.186058 0.000000 -0.046716 0.000000
# 2 -0.026516 0.015741 0.042919 0.000000 -0.009699 0.000000
# 3 0.186058 0.042919 -0.359629 0.000000 0.095192 0.000000
# 4 0.000000 0.000000 0.000000 0.049478 0.000000 -0.010337
# 5 -0.046716 -0.009699 0.095192 0.000000 0.011787 0.000000
# 6 0.000000 0.000000 0.000000 -0.010337 0.000000 0.040625
#
#
# Mechanical properties :
#
#
# Convention : Reuss Voigt Hill
#
# Bulk Modulus (GPa) = -42.69195 37.75811 -2.46692
# Shear Modulus (GPa) = -6.76418 20.79394 7.01488
#
# Velocity S-wave (km/s) = -1.99773 3.50266 2.03442
# Velocity P-wave (km/s) = 5.52358 6.21578 2.01568
#
# Compressibility (1/GPa) = -0.02342362
#
# Stress axis : x y z
#
# Youngs Moduli (GPa) = -11.84002 63.52829 -2.78065
#
# Poissons Ratio (x) = 1.68450 0.51736
# Poissons Ratio (y) = -0.31395 0.11934
# Poissons Ratio (z) = 2.20293 -2.72658
#
# Static dielectric constant tensor:
#      x y z
#    x 3.324670 0.000000 -0.222260 
#    y 0.000000 3.324890 0.000000 
#    z -0.222260 0.000000 3.245740 
# 
# 
# High freq. dielectric constant tensor:
#      x y z
#    x 1.644470 0.000000 -0.007210 
#    y 0.000000 1.674490 0.000000 
#    z -0.007210 0.000000 1.637330 
# 
# From -- ./inp_files/54333.got.cif
#   From: 2010.06.25/outbox.cif.g09.slc.cpg/sg11_28_cif.got.tgz:54333.got - 2010.06.27 23:14:04.
