data_PCOD8071614
_publ_section_title
;
Structure prediction by ZEFSAII (Michael W. Deem and Ramdas Pophale) SiO2 
 PCOD8071614
Probable space group: P 21/M
;
_chemical_formula_sum "Si O2"
_cell_formula_units_Z 32
_cell_length_a 8.450097
_cell_length_b 12.959854
_cell_length_c 26.092295
_cell_angle_alpha 90.000000
_cell_angle_beta 146.718065
_cell_angle_gamma 90.000000
_cell_volume 1568.035713
_symmetry_space_group_name_H-M "P 21/M"
_symmetry_group_IT_number 11
_symmetry_cell_setting 'monoclinic'
loop_
_space_group_symop_operation_xyz
x,y,z
-x,1/2+y,-z
-x,-y,-z
x,1/2-y,z
loop_
_atom_site_type_symbol
_atom_site_label
_atom_site_fract_x
_atom_site_fract_y
_atom_site_fract_z
Si Si1 0.841026 0.134225 0.683678
Si Si2 0.085788 0.027316 0.846773
Si Si3 0.099032 0.130984 0.060824
Si Si4 0.327263 0.512415 0.534299
Si Si5 0.549605 0.540719 0.757443
Si Si6 0.109323 0.368016 0.652694
Si Si7 0.167593 0.635320 0.579040
Si Si8 0.309303 0.042307 0.016739
O O1 0.704799 0.250000 0.648749
O O2 0.094763 0.132982 0.710309
O O3 0.973045 0.110416 0.775209
O O4 0.621760 0.047611 0.602120
O O5 0.342382 0.960417 0.890325
O O6 0.200297 0.078721 0.930922
O O7 0.819833 0.955390 0.791698
O O8 0.058015 0.250000 0.064917
O O9 0.362406 0.077002 0.162325
O O10 0.182574 0.123363 0.023474
O O11 0.806385 0.071284 0.997480
O O12 0.173402 0.571491 0.445491
O O13 0.389176 0.595899 0.595448
O O14 0.127820 0.425624 0.505397
O O15 0.315818 0.623125 0.674504
O O16 0.404874 0.426676 0.717703
O O17 0.119917 0.250000 0.634259
O O18 0.078291 0.750000 0.543707
#
# Coordination Sequence:
#
# PCOD8071614 Si02
#       8
#     4   4   4   4   4   4   4   4
#     4  11  22  36  57  85 116 153 196 241 291 343
#     4  10  20  39  58  83 117 150 189 240 291 334
#     4  10  20  38  62  87 116 151 190 233 290 349
#     4  10  20  36  54  81 115 154 188 242 285 336
#     4  10  20  37  59  85 117 150 189 240 284 340
#     4  10  22  38  59  84 116 156 195 237 289 345
#     4  10  19  33  55  82 112 148 190 231 288 342
#     4   9  21  39  62  84 116 150 189 239 289 348
#
# _framework density 20.407699000000001
#
# number of rings (size 3 to 8) (size 9 to 14) (size 15 to 20)
#    0.000    2.000    1.250    2.250    0.000    1.500 
#    0.000   13.125    0.000    3.000    0.000    0.000 
#    0.000    0.000    0.000    0.000    0.000    0.000 
#
# Total GULP energy -396536.688487 kJ/mol
# GULP energy per Si atom -12391.771515 kJ/mol
# Density = 2.036125 g / cm^3
# Si number density = 20.407699 Si / 1000 Ang^3
#
#
#
# Elastic Constant Matrix: (Units=GPa)
#
#
# Indices 1 2 3 4 5 6 
#
# 1 95.0470 32.4141 31.8317 0.0000 -0.5240 0.0000
# 2 32.4141 123.4112 33.9477 0.0000 -4.4691 0.0000
# 3 31.8317 33.9477 84.3553 0.0000 -2.8039 0.0000
# 4 0.0000 0.0000 0.0000 20.4384 0.0000 -0.6876
# 5 -0.5240 -4.4691 -2.8039 0.0000 30.8927 0.0000
# 6 0.0000 0.0000 0.0000 -0.6876 0.0000 21.7215
#
#
#
# Elastic Compliance Matrix: (Units=1/GPa)
#
#
# Indices 1 2 3 4 5 6 
#
# 1 0.012580 -0.002261 -0.003852 0.000000 -0.000463 0.000000
# 2 -0.002261 0.009548 -0.002954 0.000000 0.001075 0.000000
# 3 -0.003852 -0.002954 0.014524 0.000000 0.000826 0.000000
# 4 0.000000 0.000000 0.000000 0.048980 0.000000 0.001551
# 5 -0.000463 0.001075 0.000826 0.000000 0.032593 0.000000
# 6 0.000000 0.000000 0.000000 0.001551 0.000000 0.046086
#
#
# Mechanical properties :
#
#
# Convention : Reuss Voigt Hill
#
# Bulk Modulus (GPa) = 54.00112 55.46671 54.73391
# Shear Modulus (GPa) = 26.50849 28.25184 27.38016
#
# Velocity S-wave (km/s) = 3.60800 3.72475 3.66684
# Velocity P-wave (km/s) = 6.62386 6.76289 6.69373
#
# Compressibility (1/GPa) = 0.01851813
#
# Stress axis : x y z
#
# Youngs Moduli (GPa) = 79.49185 104.73091 68.84942
#
# Poissons Ratio (x) = 0.23681 0.26524
# Poissons Ratio (y) = 0.17974 0.20335
# Poissons Ratio (z) = 0.30624 0.30933
#
# Static dielectric constant tensor:
#      x y z
#    x 3.719100 0.000000 -0.108120 
#    y 0.000000 3.544680 0.000000 
#    z -0.108120 0.000000 3.705030 
# 
# 
# High freq. dielectric constant tensor:
#      x y z
#    x 1.801380 0.000000 -0.012540 
#    y 0.000000 1.776150 0.000000 
#    z -0.012540 0.000000 1.797980 
# 
# From -- ./inp_files/72850.got.cif
#   From: 2010.06.25/outbox.cif.g09.slc.cpg/sg11_37_cif.got.tgz:72850.got - 2010.06.27 23:14:04.
