data_PCOD8071088
_publ_section_title
;
Structure prediction by ZEFSAII (Michael W. Deem and Ramdas Pophale) SiO2 
 PCOD8071088
Probable space group: P 21/M
;
_chemical_formula_sum "Si O2"
_cell_formula_units_Z 28
_cell_length_a 30.257546
_cell_length_b 8.824797
_cell_length_c 9.219777
_cell_angle_alpha 90.000000
_cell_angle_beta 140.120250
_cell_angle_gamma 90.000000
_cell_volume 1578.475198
_symmetry_space_group_name_H-M "P 21/M"
_symmetry_group_IT_number 11
_symmetry_cell_setting 'monoclinic'
loop_
_space_group_symop_operation_xyz
x,y,z
-x,1/2+y,-z
-x,-y,-z
x,1/2-y,z
loop_
_atom_site_type_symbol
_atom_site_label
_atom_site_fract_x
_atom_site_fract_y
_atom_site_fract_z
Si Si1 0.437420 0.072011 0.757276
Si Si2 0.316001 0.925914 0.622481
Si Si3 0.928521 0.078103 0.352349
Si Si4 0.795269 0.079792 0.875727
Si Si5 0.435349 0.070142 0.418739
Si Si6 0.307946 0.570414 0.932963
Si Si7 0.808123 0.927440 0.187852
O O1 0.445174 0.250000 0.786969
O O2 0.438861 0.018174 0.594459
O O3 0.366753 0.022601 0.652536
O O4 0.500000 0.000000 0.000000
O O5 0.336192 0.750000 0.661799
O O6 0.238976 0.958326 0.365204
O O7 0.319597 0.979963 0.796532
O O8 0.942837 0.250000 0.436529
O O9 0.879406 0.070479 0.083937
O O10 0.000000 0.000000 0.500000
O O11 0.886657 0.992715 0.376582
O O12 0.773428 0.250000 0.868364
O O13 0.768925 0.965986 0.936544
O O14 0.437316 0.250000 0.407686
O O15 0.500000 0.000000 0.500000
O O16 0.365130 0.008638 0.174514
O O17 0.312076 0.750000 0.961600
O O18 0.232421 0.510846 0.785725
O O19 0.809384 0.750000 0.220437
#
# Coordination Sequence:
#
# PCOD8071088 Si02
#       7
#     4   4   4   4   4   4   4
#     4  11  24  39  56  79 106 138 178 224 271 323
#     4  10  21  37  56  78 106 141 180 223 271 323
#     4   9  17  31  54  83 113 143 180 224 272 322
#     4   8  17  33  53  77 106 139 176 218 268 316
#     4  11  24  40  57  80 108 140 180 224 273 326
#     4  11  22  36  55  79 108 142 181 225 271 322
#     4  10  19  32  52  79 109 141 179 220 264 318
#
# _framework density 17.738637000000001
#
# number of rings (size 3 to 8) (size 9 to 14) (size 15 to 20)
#    0.857    1.143    0.000    4.286    0.000    9.714 
#    0.000    0.000    0.000    0.857    0.000    0.000 
#    0.000    0.000    0.000    0.000    0.000    0.000 
#
# Total GULP energy -347011.573812 kJ/mol
# GULP energy per Si atom -12393.270493 kJ/mol
# Density = 1.769826 g / cm^3
# Si number density = 17.738637 Si / 1000 Ang^3
#
#
#
# Elastic Constant Matrix: (Units=GPa)
#
#
# Indices 1 2 3 4 5 6 
#
# 1 139.1697 52.9727 65.6749 0.0000 1.4251 0.0000
# 2 52.9727 82.7003 41.0715 0.0000 -4.8621 0.0000
# 3 65.6749 41.0715 101.8052 0.0000 -2.1005 0.0000
# 4 0.0000 0.0000 0.0000 27.0995 0.0000 5.7918
# 5 1.4251 -4.8621 -2.1005 0.0000 33.1640 0.0000
# 6 0.0000 0.0000 0.0000 5.7918 0.0000 33.4992
#
#
#
# Elastic Compliance Matrix: (Units=1/GPa)
#
#
# Indices 1 2 3 4 5 6 
#
# 1 0.011680 -0.004771 -0.005642 0.000000 -0.001559 0.000000
# 2 -0.004771 0.017183 -0.003803 0.000000 0.002483 0.000000
# 3 -0.005642 -0.003803 0.015010 0.000000 0.000636 0.000000
# 4 0.000000 0.000000 0.000000 0.038317 0.000000 -0.006625
# 5 -0.001559 0.002483 0.000636 0.000000 0.030625 0.000000
# 6 0.000000 0.000000 0.000000 -0.006625 0.000000 0.030997
#
#
# Mechanical properties :
#
#
# Convention : Reuss Voigt Hill
#
# Bulk Modulus (GPa) = 64.76669 71.45704 68.11187
# Shear Modulus (GPa) = 28.18651 29.68293 28.93472
#
# Velocity S-wave (km/s) = 3.99054 4.09510 4.04315
# Velocity P-wave (km/s) = 7.60417 7.92026 7.76382
#
# Compressibility (1/GPa) = 0.01544003
#
# Stress axis : x y z
#
# Youngs Moduli (GPa) = 85.61603 58.19857 66.62307
#
# Poissons Ratio (x) = 0.27767 0.37590
# Poissons Ratio (y) = 0.40848 0.25336
# Poissons Ratio (z) = 0.48306 0.22132
#
# Static dielectric constant tensor:
#      x y z
#    x 3.272270 0.000000 0.016850 
#    y 0.000000 3.992340 0.000000 
#    z 0.016850 0.000000 3.333870 
# 
# 
# High freq. dielectric constant tensor:
#      x y z
#    x 1.675540 0.000000 0.006920 
#    y 0.000000 1.697310 0.000000 
#    z 0.006920 0.000000 1.677870 
# 
# From -- ./inp_files/29118.got.cif
#   From: 2010.06.25/outbox.cif.g09.slc.cpg/sg11_15_cif.got.tgz:29118.got - 2010.06.27 23:14:04.
