data_PCOD8071805
_publ_section_title
;
Structure prediction by ZEFSAII (Michael W. Deem and Ramdas Pophale) SiO2 
 PCOD8071805
Probable space group: P 21/M
;
_chemical_formula_sum "Si O2"
_cell_formula_units_Z 32
_cell_length_a 18.978608
_cell_length_b 13.051910
_cell_length_c 6.684741
_cell_angle_alpha 90.000000
_cell_angle_beta 89.023067
_cell_angle_gamma 90.000000
_cell_volume 1655.617002
_symmetry_space_group_name_H-M "P 21/M"
_symmetry_group_IT_number 11
_symmetry_cell_setting 'monoclinic'
loop_
_space_group_symop_operation_xyz
x,y,z
-x,1/2+y,-z
-x,-y,-z
x,1/2-y,z
loop_
_atom_site_type_symbol
_atom_site_label
_atom_site_fract_x
_atom_site_fract_y
_atom_site_fract_z
Si Si1 0.131729 0.637507 0.533475
Si Si2 0.651151 0.549032 0.931933
Si Si3 0.100963 0.475906 0.864902
Si Si4 0.448630 0.365620 0.393257
Si Si5 0.595009 0.456175 0.317537
Si Si6 0.042558 0.636834 0.155193
Si Si7 0.759029 0.867246 0.226083
Si Si8 0.726020 0.467358 0.551499
O O1 0.140241 0.750000 0.634456
O O2 0.103685 0.551517 0.679807
O O3 0.070398 0.645734 0.376073
O O4 0.207359 0.607030 0.438667
O O5 0.611303 0.469548 0.081129
O O6 0.695660 0.625156 0.070407
O O7 0.593702 0.610275 0.807261
O O8 0.702874 0.488412 0.779919
O O9 0.172612 0.413156 0.887253
O O10 0.038971 0.394425 0.840825
O O11 0.089916 0.548822 0.054661
O O12 0.433136 0.250000 0.459952
O O13 0.531293 0.377319 0.343178
O O14 0.424989 0.435089 0.580032
O O15 0.663197 0.411446 0.430816
O O16 0.048723 0.750000 0.051806
O O17 0.771702 0.750000 0.284958
O O18 0.743319 0.926911 0.433163
#
# Coordination Sequence:
#
# PCOD8071805 Si02
#       8
#     4   4   4   4   4   4   4   4
#     4  10  20  35  54  75 101 135 171 206 249 298
#     4  10  19  34  53  73 102 133 165 207 251 295
#     4  10  20  35  53  75 105 135 166 208 254 297
#     4  10  20  34  53  76 101 132 168 204 248 301
#     4   9  20  36  52  74 104 132 164 208 251 294
#     4  10  20  34  54  78 102 132 171 210 249 298
#     4  10  20  33  51  75 102 133 167 205 251 300
#     4   9  20  35  51  73 101 132 167 208 249 295
#
# _framework density 19.328142
#
# number of rings (size 3 to 8) (size 9 to 14) (size 15 to 20)
#    0.000    2.250    0.000    2.625    0.000    6.000 
#    0.000    0.625    0.000    8.250    0.000    0.000 
#    0.000    0.000    0.000    0.000    0.000    0.000 
#
# Total GULP energy -396733.264934 kJ/mol
# GULP energy per Si atom -12397.914529 kJ/mol
# Density = 1.928415 g / cm^3
# Si number density = 19.328142 Si / 1000 Ang^3
#
#
#
# Elastic Constant Matrix: (Units=GPa)
#
#
# Indices 1 2 3 4 5 6 
#
# 1 64.0110 8.0070 11.5544 0.0000 0.0218 0.0000
# 2 8.0070 65.0332 12.4650 0.0000 10.7448 0.0000
# 3 11.5544 12.4650 79.0295 0.0000 -8.1081 0.0000
# 4 0.0000 0.0000 0.0000 18.9130 0.0000 -2.6322
# 5 0.0218 10.7448 -8.1081 0.0000 28.8648 0.0000
# 6 0.0000 0.0000 0.0000 -2.6322 0.0000 13.4525
#
#
#
# Elastic Compliance Matrix: (Units=1/GPa)
#
#
# Indices 1 2 3 4 5 6 
#
# 1 0.016203 -0.001586 -0.002121 0.000000 -0.000018 0.000000
# 2 -0.001586 0.017423 -0.003276 0.000000 -0.007405 0.000000
# 3 -0.002121 -0.003276 0.014009 0.000000 0.005156 0.000000
# 4 0.000000 0.000000 0.000000 0.054354 0.000000 0.010635
# 5 -0.000018 -0.007405 0.005156 0.000000 0.038849 0.000000
# 6 0.000000 0.000000 0.000000 0.010635 0.000000 0.076417
#
#
# Mechanical properties :
#
#
# Convention : Reuss Voigt Hill
#
# Bulk Modulus (GPa) = 29.69877 30.23629 29.96753
# Shear Modulus (GPa) = 20.62330 23.98253 22.30292
#
# Velocity S-wave (km/s) = 3.27005 3.52633 3.40061
# Velocity P-wave (km/s) = 5.44579 5.67958 5.56391
#
# Compressibility (1/GPa) = 0.03367143
#
# Stress axis : x y z
#
# Youngs Moduli (GPa) = 61.71520 57.39439 71.38122
#
# Poissons Ratio (x) = 0.09100 0.15138
# Poissons Ratio (y) = 0.09785 0.23384
# Poissons Ratio (z) = 0.13088 0.18802
#
# Static dielectric constant tensor:
#      x y z
#    x 3.773560 0.000000 -0.077300 
#    y 0.000000 3.534460 0.000000 
#    z -0.077300 0.000000 3.401420 
# 
# 
# High freq. dielectric constant tensor:
#      x y z
#    x 1.770910 0.000000 -0.002220 
#    y 0.000000 1.739300 0.000000 
#    z -0.002220 0.000000 1.746490 
# 
# From -- ./inp_files/8111.got.cif
#   From: 2010.06.25/outbox.cif.g09.slc.cpg/sg11_5_cif.got.tgz:8111.got - 2010.06.27 23:14:04.
