data_PCOD8071543
_publ_section_title
;
Structure prediction by ZEFSAII (Michael W. Deem and Ramdas Pophale) SiO2 
 PCOD8071543
Probable space group: P 21/M
;
_chemical_formula_sum "Si O2"
_cell_formula_units_Z 28
_cell_length_a 21.816560
_cell_length_b 8.772692
_cell_length_c 14.859141
_cell_angle_alpha 90.000000
_cell_angle_beta 33.327431
_cell_angle_gamma 90.000000
_cell_volume 1562.498544
_symmetry_space_group_name_H-M "P 21/M"
_symmetry_group_IT_number 11
_symmetry_cell_setting 'monoclinic'
loop_
_space_group_symop_operation_xyz
x,y,z
-x,1/2+y,-z
-x,-y,-z
x,1/2-y,z
loop_
_atom_site_type_symbol
_atom_site_label
_atom_site_fract_x
_atom_site_fract_y
_atom_site_fract_z
Si Si1 0.306392 0.427414 0.408734
Si Si2 0.253944 0.925976 0.149308
Si Si3 0.140977 0.574227 0.473850
Si Si4 0.091023 0.927370 0.011542
Si Si5 0.109593 0.071228 0.175213
Si Si6 0.518453 0.571135 0.074557
Si Si7 0.849054 0.573419 0.238723
O O1 0.332792 0.250000 0.366431
O O2 0.222027 0.471047 0.433179
O O3 0.420744 0.520037 0.261748
O O4 0.253776 0.465594 0.570243
O O5 0.287882 0.750000 0.099636
O O6 0.168597 0.953164 0.335737
O O7 0.196329 0.979756 0.129032
O O8 0.364861 0.022924 0.026750
O O9 0.158300 0.750000 0.480676
O O10 0.014806 0.520779 0.644610
O O11 0.106957 0.750000 0.013151
O O12 0.164113 0.973033 0.834867
O O13 0.962265 0.970354 0.152010
O O14 0.133600 0.025718 0.043093
O O15 0.127959 0.250000 0.166602
O O16 0.514488 0.750000 0.067454
O O17 0.500000 0.500000 0.000000
O O18 0.852008 0.750000 0.207336
#
# Coordination Sequence:
#
# PCOD8071543 Si02
#       7
#     4   4   4   4   4   4   4
#     4  11  21  35  58  84 114 148 185 231 281 329
#     4  11  23  39  57  80 111 151 194 233 277 331
#     4  10  21  35  54  81 114 151 187 227 276 332
#     4  10  19  33  54  81 112 148 185 228 278 332
#     4  11  22  36  55  82 116 153 188 229 280 334
#     4  12  24  39  58  82 111 147 191 234 279 326
#     4   9  19  34  53  82 113 145 183 228 280 332
#
# _framework density 17.920014999999999
#
# number of rings (size 3 to 8) (size 9 to 14) (size 15 to 20)
#    0.000    1.429    2.857    3.429    0.000    2.857 
#    0.000    0.000    0.000    0.857    0.000    0.000 
#    0.000    0.000    0.000    0.000    0.000    0.000 
#
# Total GULP energy -347368.295796 kJ/mol
# GULP energy per Si atom -12406.010564 kJ/mol
# Density = 1.787923 g / cm^3
# Si number density = 17.920015 Si / 1000 Ang^3
#
#
#
# Elastic Constant Matrix: (Units=GPa)
#
#
# Indices 1 2 3 4 5 6 
#
# 1 92.8842 34.6688 48.4618 0.0000 6.5563 0.0000
# 2 34.6688 89.3830 44.1133 0.0000 5.9067 0.0000
# 3 48.4618 44.1133 99.0708 0.0000 6.4301 0.0000
# 4 0.0000 0.0000 0.0000 29.2918 0.0000 -0.4462
# 5 6.5563 5.9067 6.4301 0.0000 23.9841 0.0000
# 6 0.0000 0.0000 0.0000 -0.4462 0.0000 31.2716
#
#
#
# Elastic Compliance Matrix: (Units=1/GPa)
#
#
# Indices 1 2 3 4 5 6 
#
# 1 0.015065 -0.002748 -0.006027 0.000000 -0.001826 0.000000
# 2 -0.002748 0.014921 -0.005201 0.000000 -0.001529 0.000000
# 3 -0.006027 -0.005201 0.015436 0.000000 -0.001210 0.000000
# 4 0.000000 0.000000 0.000000 0.034147 0.000000 0.000487
# 5 -0.001826 -0.001529 -0.001210 0.000000 0.042894 0.000000
# 6 0.000000 0.000000 0.000000 0.000487 0.000000 0.031985
#
#
# Mechanical properties :
#
#
# Convention : Reuss Voigt Hill
#
# Bulk Modulus (GPa) = 57.23693 59.53621 58.38657
# Shear Modulus (GPa) = 26.56401 27.18243 26.87322
#
# Velocity S-wave (km/s) = 3.85433 3.89893 3.87669
# Velocity P-wave (km/s) = 7.19843 7.31877 7.25885
#
# Compressibility (1/GPa) = 0.01747124
#
# Stress axis : x y z
#
# Youngs Moduli (GPa) = 66.37741 67.01789 64.78236
#
# Poissons Ratio (x) = 0.18417 0.39046
# Poissons Ratio (y) = 0.18241 0.33690
# Poissons Ratio (z) = 0.40008 0.34853
#
# Static dielectric constant tensor:
#      x y z
#    x 3.180650 0.000000 0.058370 
#    y 0.000000 3.313000 0.000000 
#    z 0.058370 0.000000 3.510740 
# 
# 
# High freq. dielectric constant tensor:
#      x y z
#    x 1.680310 0.000000 0.011690 
#    y 0.000000 1.706250 0.000000 
#    z 0.011690 0.000000 1.689910 
# 
# From -- ./inp_files/37890.got.cif
#   From: 2010.06.25/outbox.cif.g09.slc.cpg/sg11_19_cif.got.tgz:37890.got - 2010.06.27 23:14:04.
