data_PCOD8071636
_publ_section_title
;
Structure prediction by ZEFSAII (Michael W. Deem and Ramdas Pophale) SiO2 
 PCOD8071636
Probable space group: P 21/M
;
_chemical_formula_sum "Si O2"
_cell_formula_units_Z 28
_cell_length_a 21.849640
_cell_length_b 8.456020
_cell_length_c 14.865102
_cell_angle_alpha 90.000000
_cell_angle_beta 33.363366
_cell_angle_gamma 90.000000
_cell_volume 1510.424047
_symmetry_space_group_name_H-M "P 21/M"
_symmetry_group_IT_number 11
_symmetry_cell_setting 'monoclinic'
loop_
_space_group_symop_operation_xyz
x,y,z
-x,1/2+y,-z
-x,-y,-z
x,1/2-y,z
loop_
_atom_site_type_symbol
_atom_site_label
_atom_site_fract_x
_atom_site_fract_y
_atom_site_fract_z
Si Si1 0.415558 0.435518 0.487800
Si Si2 0.803039 0.566282 0.917982
Si Si3 0.252533 0.567649 0.331348
Si Si4 0.660705 0.066046 0.242133
Si Si5 0.391765 0.433444 0.313444
Si Si6 0.979755 0.565483 0.425911
Si Si7 0.373213 0.066771 0.015535
O O1 0.404927 0.250000 0.518465
O O2 0.335959 0.525797 0.655927
O O3 0.542851 0.490151 0.345774
O O4 0.378536 0.484175 0.433540
O O5 0.831883 0.750000 0.871401
O O6 0.711841 0.511347 0.957109
O O7 0.913706 0.464937 0.767048
O O8 0.757483 0.530798 0.073414
O O9 0.266385 0.750000 0.287581
O O10 0.303870 0.537136 0.366381
O O11 0.123434 0.522909 0.492862
O O12 0.317301 0.460094 0.180444
O O13 0.681771 0.250000 0.200319
O O14 0.364000 0.250000 0.334286
O O15 0.516595 0.462642 0.126319
O O16 0.953283 0.750000 0.464425
O O17 0.000000 0.500000 0.500000
O O18 0.405085 0.250000 0.965798
#
# Coordination Sequence:
#
# PCOD8071636 Si02
#       7
#     4   4   4   4   4   4   4
#     4   9  19  34  54  81 114 150 186 230 282 337
#     4  11  22  36  58  85 117 151 188 234 283 335
#     4  12  25  40  58  81 114 153 195 236 282 339
#     4  10  19  33  55  84 115 148 187 233 283 336
#     4  11  22  38  58  82 117 154 193 235 284 341
#     4  12  24  40  61  84 112 148 192 237 284 332
#     4  11  22  36  56  83 116 153 192 232 282 339
#
# _framework density 18.537839999999999
#
# number of rings (size 3 to 8) (size 9 to 14) (size 15 to 20)
#    0.000    1.143    2.857    4.714    0.000    2.857 
#    0.000    0.000    0.000    0.857    0.000    0.000 
#    0.000    0.000    0.000    0.000    0.000    0.000 
#
# Total GULP energy -347407.400100 kJ/mol
# GULP energy per Si atom -12407.407146 kJ/mol
# Density = 1.849565 g / cm^3
# Si number density = 18.537840 Si / 1000 Ang^3
#
#
#
# Elastic Constant Matrix: (Units=GPa)
#
#
# Indices 1 2 3 4 5 6 
#
# 1 100.3098 21.9761 54.0931 0.0000 0.6420 0.0000
# 2 21.9761 59.9860 17.6776 0.0000 -0.7377 0.0000
# 3 54.0931 17.6776 101.3559 0.0000 8.5322 0.0000
# 4 0.0000 0.0000 0.0000 30.6822 0.0000 2.2373
# 5 0.6420 -0.7377 8.5322 0.0000 31.0656 0.0000
# 6 0.0000 0.0000 0.0000 2.2373 0.0000 27.0563
#
#
#
# Elastic Compliance Matrix: (Units=1/GPa)
#
#
# Indices 1 2 3 4 5 6 
#
# 1 0.014644 -0.003163 -0.007403 0.000000 0.001656 0.000000
# 2 -0.003163 0.018307 -0.001584 0.000000 0.000935 0.000000
# 3 -0.007403 -0.001584 0.014417 0.000000 -0.003844 0.000000
# 4 0.000000 0.000000 0.000000 0.032790 0.000000 -0.002711
# 5 0.001656 0.000935 -0.003844 0.000000 0.033234 0.000000
# 6 0.000000 0.000000 0.000000 -0.002711 0.000000 0.037184
#
#
# Mechanical properties :
#
#
# Convention : Reuss Voigt Hill
#
# Bulk Modulus (GPa) = 43.34815 49.90504 46.62660
# Shear Modulus (GPa) = 27.38760 28.95448 28.17104
#
# Velocity S-wave (km/s) = 3.84785 3.95639 3.90250
# Velocity P-wave (km/s) = 6.57082 6.91735 6.74631
#
# Compressibility (1/GPa) = 0.02306903
#
# Stress axis : x y z
#
# Youngs Moduli (GPa) = 68.28963 54.62248 69.36274
#
# Poissons Ratio (x) = 0.17276 0.51349
# Poissons Ratio (y) = 0.21598 0.10986
# Poissons Ratio (z) = 0.50554 0.08651
#
# Static dielectric constant tensor:
#      x y z
#    x 3.383030 0.000000 0.067790 
#    y 0.000000 3.411510 0.000000 
#    z 0.067790 0.000000 3.367600 
# 
# 
# High freq. dielectric constant tensor:
#      x y z
#    x 1.706160 0.000000 0.011130 
#    y 0.000000 1.730530 0.000000 
#    z 0.011130 0.000000 1.711630 
# 
# From -- ./inp_files/37707.got.cif
#   From: 2010.06.25/outbox.cif.g09.slc.cpg/sg11_19_cif.got.tgz:37707.got - 2010.06.27 23:14:04.
