data_PCOD8071369
_publ_section_title
;
Structure prediction by ZEFSAII (Michael W. Deem and Ramdas Pophale) SiO2 
 PCOD8071369
Probable space group: P 21/M
;
_chemical_formula_sum "Si O2"
_cell_formula_units_Z 24
_cell_length_a 20.802706
_cell_length_b 8.619007
_cell_length_c 11.671546
_cell_angle_alpha 90.000000
_cell_angle_beta 141.358995
_cell_angle_gamma 90.000000
_cell_volume 1306.758387
_symmetry_space_group_name_H-M "P 21/M"
_symmetry_group_IT_number 11
_symmetry_cell_setting 'monoclinic'
loop_
_space_group_symop_operation_xyz
x,y,z
-x,1/2+y,-z
-x,-y,-z
x,1/2-y,z
loop_
_atom_site_type_symbol
_atom_site_label
_atom_site_fract_x
_atom_site_fract_y
_atom_site_fract_z
Si Si1 0.924689 0.573503 0.035751
Si Si2 0.216515 0.074875 0.952831
Si Si3 0.611321 0.933975 0.630915
Si Si4 0.894297 0.068951 0.399939
Si Si5 0.247557 0.568484 0.355787
Si Si6 0.865813 0.932843 0.606918
O O1 0.922052 0.750000 0.984541
O O2 0.886104 0.570326 0.112810
O O3 0.038792 0.506221 0.191048
O O4 0.852704 0.465806 0.859386
O O5 0.236545 0.250000 0.937444
O O6 0.197596 0.964197 0.818029
O O7 0.313973 0.013529 0.161299
O O8 0.610300 0.750000 0.619310
O O9 0.500000 0.000000 0.500000
O O10 0.651545 0.001889 0.566691
O O11 0.909150 0.250000 0.439373
O O12 0.859236 0.993345 0.469306
O O13 0.000000 0.000000 0.500000
O O14 0.261429 0.750000 0.393789
O O15 0.235279 0.486201 0.462908
O O16 0.876891 0.750000 0.620154
#
# Coordination Sequence:
#
# PCOD8071369 Si02
#       6
#     4   4   4   4   4   4
#     4  10  19  33  52  76 110 147 186 227 272 327
#     4   9  19  35  55  80 112 146 186 230 271 323
#     4  10  21  39  63  88 113 141 181 231 284 334
#     4  12  23  35  53  78 112 152 193 230 270 325
#     4  11  22  36  54  79 111 144 184 229 280 333
#     4  12  23  35  52  75 109 151 190 227 274 328
#
# _framework density 18.366057000000001
#
# number of rings (size 3 to 8) (size 9 to 14) (size 15 to 20)
#    0.000    1.333    1.667    7.000    0.000    3.333 
#    0.000    0.000    0.000    1.000    0.000    0.000 
#    0.000    0.000    0.000    0.000    0.000    0.000 
#
# Total GULP energy -297664.813525 kJ/mol
# GULP energy per Si atom -12402.700564 kJ/mol
# Density = 1.832426 g / cm^3
# Si number density = 18.366057 Si / 1000 Ang^3
#
#
#
# Elastic Constant Matrix: (Units=GPa)
#
#
# Indices 1 2 3 4 5 6 
#
# 1 138.7288 41.6261 53.3994 0.0000 -2.3191 0.0000
# 2 41.6261 103.5825 27.4718 0.0000 0.4093 0.0000
# 3 53.3994 27.4718 57.1626 0.0000 3.6190 0.0000
# 4 0.0000 0.0000 0.0000 28.1415 0.0000 -1.7526
# 5 -2.3191 0.4093 3.6190 0.0000 27.8507 0.0000
# 6 0.0000 0.0000 0.0000 -1.7526 0.0000 33.8739
#
#
#
# Elastic Compliance Matrix: (Units=1/GPa)
#
#
# Indices 1 2 3 4 5 6 
#
# 1 0.011773 -0.002045 -0.010162 0.000000 0.002331 0.000000
# 2 -0.002045 0.011427 -0.003590 0.000000 0.000128 0.000000
# 3 -0.010162 -0.003590 0.029001 0.000000 -0.004562 0.000000
# 4 0.000000 0.000000 0.000000 0.035650 0.000000 0.001844
# 5 0.002331 0.000128 -0.004562 0.000000 0.036691 0.000000
# 6 0.000000 0.000000 0.000000 0.001844 0.000000 0.029617
#
#
# Mechanical properties :
#
#
# Convention : Reuss Voigt Hill
#
# Bulk Modulus (GPa) = 48.52649 60.49650 54.51150
# Shear Modulus (GPa) = 25.95768 29.77166 27.86467
#
# Velocity S-wave (km/s) = 3.76353 4.03055 3.89933
# Velocity P-wave (km/s) = 6.73534 7.39400 7.07234
#
# Compressibility (1/GPa) = 0.02060730
#
# Stress axis : x y z
#
# Youngs Moduli (GPa) = 84.94345 87.50837 34.48133
#
# Poissons Ratio (x) = 0.17895 0.35041
# Poissons Ratio (y) = 0.17371 0.12378
# Poissons Ratio (z) = 0.86322 0.31413
#
# Static dielectric constant tensor:
#      x y z
#    x 3.543140 0.000000 -0.158590 
#    y 0.000000 3.462560 0.000000 
#    z -0.158590 0.000000 3.152840 
# 
# 
# High freq. dielectric constant tensor:
#      x y z
#    x 1.713710 0.000000 -0.017170 
#    y 0.000000 1.726840 0.000000 
#    z -0.017170 0.000000 1.680970 
# 
# From -- ./inp_files/42661.got.cif
#   From: 2010.06.25/outbox.cif.g09.slc.cpg/sg11_22_cif.got.tgz:42661.got - 2010.06.27 23:14:04.
