data_PCOD8071598
_publ_section_title
;
Structure prediction by ZEFSAII (Michael W. Deem and Ramdas Pophale) SiO2 
 PCOD8071598
Probable space group: P 21/M
;
_chemical_formula_sum "Si O2"
_cell_formula_units_Z 32
_cell_length_a 25.215520
_cell_length_b 9.043231
_cell_length_c 20.518828
_cell_angle_alpha 90.000000
_cell_angle_beta 22.357460
_cell_angle_gamma 90.000000
_cell_volume 1779.779300
_symmetry_space_group_name_H-M "P 21/M"
_symmetry_group_IT_number 11
_symmetry_cell_setting 'monoclinic'
loop_
_space_group_symop_operation_xyz
x,y,z
-x,1/2+y,-z
-x,-y,-z
x,1/2-y,z
loop_
_atom_site_type_symbol
_atom_site_label
_atom_site_fract_x
_atom_site_fract_y
_atom_site_fract_z
Si Si1 0.853692 0.418660 0.101294
Si Si2 0.165993 0.078133 0.743120
Si Si3 0.553580 0.921820 0.118614
Si Si4 0.854783 0.922580 0.736438
Si Si5 0.125819 0.078635 0.433525
Si Si6 0.579259 0.923375 0.851005
Si Si7 0.430015 0.577024 0.399542
Si Si8 0.572438 0.078403 0.357209
O O1 0.850360 0.250000 0.131925
O O2 0.815670 0.528375 0.203035
O O3 0.740128 0.439741 0.173323
O O4 0.008165 0.454463 0.898085
O O5 0.203895 0.250000 0.695038
O O6 0.273027 0.986435 0.577121
O O7 0.537937 0.750000 0.117325
O O8 0.496227 0.957012 0.254775
O O9 0.467603 0.017208 0.165195
O O10 0.715523 0.969573 0.933008
O O11 0.879817 0.750000 0.712227
O O12 0.839114 0.976465 0.679513
O O13 0.988874 0.998176 0.617315
O O14 0.091385 0.250000 0.472098
O O15 0.256546 0.041120 0.330548
O O16 0.549829 0.750000 0.889761
O O17 0.500000 0.000000 0.000000
O O18 0.425766 0.750000 0.420411
O O19 0.525724 0.497052 0.343785
O O20 0.528875 0.250000 0.405864
O O21 0.500000 0.000000 0.500000
#
# Coordination Sequence:
#
# PCOD8071598 Si02
#       8
#     4   4   4   4   4   4   4   4
#     4   9  19  34  54  81 110 140 179 228 278 324
#     4  10  19  33  55  81 110 144 181 224 275 328
#     4  10  22  40  57  78 111 149 187 228 273 325
#     4   9  17  33  54  77 108 142 180 223 270 321
#     4   9  18  32  52  81 111 137 175 225 273 321
#     4  11  21  35  57  84 113 143 182 229 274 324
#     4  11  23  38  56  79 113 151 185 226 275 327
#     4  11  21  35  57  84 112 141 183 230 274 325
#
# _framework density 17.979758
#
# number of rings (size 3 to 8) (size 9 to 14) (size 15 to 20)
#    0.000    2.000    2.500    1.500    0.000    3.500 
#    0.000    1.250    0.000    6.000    0.000    0.000 
#    0.000    0.000    0.000    0.000    0.000    0.000 
#
# Total GULP energy -396829.694296 kJ/mol
# GULP energy per Si atom -12400.927947 kJ/mol
# Density = 1.793883 g / cm^3
# Si number density = 17.979758 Si / 1000 Ang^3
#
#
#
# Elastic Constant Matrix: (Units=GPa)
#
#
# Indices 1 2 3 4 5 6 
#
# 1 104.3298 64.1701 72.4151 0.0000 -11.7825 0.0000
# 2 64.1701 97.7036 68.7676 0.0000 -6.2500 0.0000
# 3 72.4151 68.7676 154.9965 0.0000 -14.0075 0.0000
# 4 0.0000 0.0000 0.0000 30.2705 0.0000 -3.3328
# 5 -11.7825 -6.2500 -14.0075 0.0000 26.5276 0.0000
# 6 0.0000 0.0000 0.0000 -3.3328 0.0000 28.9758
#
#
#
# Elastic Compliance Matrix: (Units=1/GPa)
#
#
# Indices 1 2 3 4 5 6 
#
# 1 0.018471 -0.008806 -0.004378 0.000000 0.003818 0.000000
# 2 -0.008806 0.019081 -0.004514 0.000000 -0.001799 0.000000
# 3 -0.004378 -0.004514 0.010740 0.000000 0.002663 0.000000
# 4 0.000000 0.000000 0.000000 0.033459 0.000000 0.003848
# 5 0.003818 -0.001799 0.002663 0.000000 0.040375 0.000000
# 6 0.000000 0.000000 0.000000 0.003848 0.000000 0.034954
#
#
# Mechanical properties :
#
#
# Convention : Reuss Voigt Hill
#
# Bulk Modulus (GPa) = 77.53897 85.30396 81.42146
# Shear Modulus (GPa) = 25.40976 27.26659 26.33818
#
# Velocity S-wave (km/s) = 3.76339 3.89847 3.83153
# Velocity P-wave (km/s) = 7.88058 8.23478 8.05962
#
# Compressibility (1/GPa) = 0.01289674
#
# Stress axis : x y z
#
# Youngs Moduli (GPa) = 54.13876 52.40896 93.10562
#
# Poissons Ratio (x) = 0.46152 0.40759
# Poissons Ratio (y) = 0.47675 0.42028
# Poissons Ratio (z) = 0.23701 0.23657
#
# Static dielectric constant tensor:
#      x y z
#    x 3.336900 0.000000 -0.310310 
#    y 0.000000 3.338110 0.000000 
#    z -0.310310 0.000000 3.520800 
# 
# 
# High freq. dielectric constant tensor:
#      x y z
#    x 1.674140 0.000000 -0.024660 
#    y 0.000000 1.704680 0.000000 
#    z -0.024660 0.000000 1.701560 
# 
# From -- ./inp_files/67016.got.cif
#   From: 2010.06.25/outbox.cif.g09.slc.cpg/sg11_34_cif.got.tgz:67016.got - 2010.06.27 23:14:04.
