data_PCOD8071712
_publ_section_title
;
Structure prediction by ZEFSAII (Michael W. Deem and Ramdas Pophale) SiO2 
 PCOD8071712
Probable space group: P 21/M
;
_chemical_formula_sum "Si O2"
_cell_formula_units_Z 32
_cell_length_a 12.196131
_cell_length_b 19.002914
_cell_length_c 11.437644
_cell_angle_alpha 90.000000
_cell_angle_beta 36.444032
_cell_angle_gamma 90.000000
_cell_volume 1574.680884
_symmetry_space_group_name_H-M "P 21/M"
_symmetry_group_IT_number 11
_symmetry_cell_setting 'monoclinic'
loop_
_space_group_symop_operation_xyz
x,y,z
-x,1/2+y,-z
-x,-y,-z
x,1/2-y,z
loop_
_atom_site_type_symbol
_atom_site_label
_atom_site_fract_x
_atom_site_fract_y
_atom_site_fract_z
Si Si1 0.843860 0.451852 0.495978
Si Si2 0.672719 0.331897 0.510004
Si Si3 0.745501 0.970452 0.817982
Si Si4 0.111735 0.669713 0.895942
Si Si5 0.540843 0.094082 0.083255
Si Si6 0.887562 0.332156 0.843466
Si Si7 0.703986 0.670309 0.275444
Si Si8 0.744345 0.592070 0.476466
O O1 0.745115 0.377376 0.556668
O O2 0.784191 0.478462 0.674245
O O3 0.780999 0.508541 0.452298
O O4 0.064177 0.439010 0.297684
O O5 0.723841 0.250000 0.487773
O O6 0.453651 0.343125 0.684959
O O7 0.765433 0.363717 0.311948
O O8 0.606915 0.907560 0.897085
O O9 0.642032 0.017530 0.004584
O O10 0.174054 0.750000 0.851193
O O11 0.897800 0.660890 0.042923
O O12 0.143900 0.637198 0.997630
O O13 0.430581 0.113050 0.294921
O O14 0.704076 0.151384 0.925204
O O15 0.930193 0.250000 0.807464
O O16 0.069244 0.369884 0.635231
O O17 0.688189 0.750000 0.340515
O O18 0.691217 0.615186 0.392053
#
# Coordination Sequence:
#
# PCOD8071712 Si02
#       8
#     4   4   4   4   4   4   4   4
#     4  10  20  38  60  77 109 148 188 239 284 332
#     4  10  20  36  57  79 107 149 187 221 274 333
#     4   9  20  39  58  76 103 145 190 234 290 326
#     4   8  16  32  52  77 110 145 174 212 269 333
#     4  10  19  35  59  80 103 144 188 224 276 347
#     4  10  19  33  56  86 117 143 177 227 280 333
#     4   9  18  34  54  80 116 148 177 220 275 334
#     4  10  19  33  57  85 113 144 185 221 279 340
#
# _framework density 20.321577999999999
#
# number of rings (size 3 to 8) (size 9 to 14) (size 15 to 20)
#    0.000    2.500    1.250    1.875    0.000    2.500 
#    6.750    3.750    0.000    0.000    0.000    0.000 
#    0.000    0.000    0.000    0.000    0.000    0.000 
#
# Total GULP energy -396616.878872 kJ/mol
# GULP energy per Si atom -12394.277465 kJ/mol
# Density = 2.027533 g / cm^3
# Si number density = 20.321578 Si / 1000 Ang^3
#
#
#
# Elastic Constant Matrix: (Units=GPa)
#
#
# Indices 1 2 3 4 5 6 
#
# 1 78.9431 36.9468 21.2636 0.0000 -28.3568 0.0000
# 2 36.9468 71.8905 10.6161 0.0000 -11.4813 0.0000
# 3 21.2636 10.6161 71.9514 0.0000 -23.9693 0.0000
# 4 0.0000 0.0000 0.0000 22.0573 0.0000 -4.3102
# 5 -28.3568 -11.4813 -23.9693 0.0000 35.7916 0.0000
# 6 0.0000 0.0000 0.0000 -4.3102 0.0000 34.1559
#
#
#
# Elastic Compliance Matrix: (Units=1/GPa)
#
#
# Indices 1 2 3 4 5 6 
#
# 1 0.022181 -0.009038 -0.000429 0.000000 0.014387 0.000000
# 2 -0.009038 0.018377 -0.000595 0.000000 -0.001664 0.000000
# 3 -0.000429 -0.000595 0.017938 0.000000 0.011482 0.000000
# 4 0.000000 0.000000 0.000000 0.046483 0.000000 0.005866
# 5 0.014387 -0.001664 0.011482 0.000000 0.046494 0.000000
# 6 0.000000 0.000000 0.000000 0.005866 0.000000 0.030018
#
#
# Mechanical properties :
#
#
# Convention : Reuss Voigt Hill
#
# Bulk Modulus (GPa) = 26.06062 40.04867 33.05464
# Shear Modulus (GPa) = 23.32041 28.66488 25.99265
#
# Velocity S-wave (km/s) = 3.39125 3.75982 3.58028
# Velocity P-wave (km/s) = 5.30906 6.21278 5.77861
#
# Compressibility (1/GPa) = 0.03837208
#
# Stress axis : x y z
#
# Youngs Moduli (GPa) = 45.08404 54.41515 55.74793
#
# Poissons Ratio (x) = 0.49183 0.02390
# Poissons Ratio (y) = 0.40749 0.03316
# Poissons Ratio (z) = 0.01933 0.03236
#
# Static dielectric constant tensor:
#      x y z
#    x 3.615340 0.000000 -0.293650 
#    y 0.000000 3.397850 0.000000 
#    z -0.293650 0.000000 3.894270 
# 
# 
# High freq. dielectric constant tensor:
#      x y z
#    x 1.777110 0.000000 -0.029360 
#    y 0.000000 1.761110 0.000000 
#    z -0.029360 0.000000 1.803570 
# 
# From -- ./inp_files/36336.got.cif
#   From: 2010.06.25/outbox.cif.g09.slc.cpg/sg11_19_cif.got.tgz:36336.got - 2010.06.27 23:14:04.
