data_PCOD8071896
_publ_section_title
;
Structure prediction by ZEFSAII (Michael W. Deem and Ramdas Pophale) SiO2 
 PCOD8071896
Probable space group: P 21/M
;
_chemical_formula_sum "Si O2"
_cell_formula_units_Z 28
_cell_length_a 21.045150
_cell_length_b 12.928497
_cell_length_c 5.285448
_cell_angle_alpha 90.000000
_cell_angle_beta 68.301773
_cell_angle_gamma 90.000000
_cell_volume 1336.179799
_symmetry_space_group_name_H-M "P 21/M"
_symmetry_group_IT_number 11
_symmetry_cell_setting 'monoclinic'
loop_
_space_group_symop_operation_xyz
x,y,z
-x,1/2+y,-z
-x,-y,-z
x,1/2-y,z
loop_
_atom_site_type_symbol
_atom_site_label
_atom_site_fract_x
_atom_site_fract_y
_atom_site_fract_z
Si Si1 0.836871 0.867057 0.230164
Si Si2 0.912038 0.512567 0.761228
Si Si3 0.984665 0.868021 0.256493
Si Si4 0.259684 0.542913 0.569189
Si Si5 0.412839 0.472823 0.375365
Si Si6 0.464367 0.127959 0.800653
Si Si7 0.199540 0.630853 0.179256
O O1 0.810746 0.750000 0.270982
O O2 0.913992 0.880851 0.215684
O O3 0.779650 0.936100 0.449161
O O4 0.848533 0.913386 0.935175
O O5 0.968294 0.590100 0.562276
O O6 0.871757 0.428674 0.647386
O O7 0.952298 0.443621 0.919832
O O8 0.009874 0.750000 0.220398
O O9 0.338012 0.519360 0.504094
O O10 0.252801 0.614894 0.331550
O O11 0.229575 0.595931 0.863907
O O12 0.463043 0.570792 0.299885
O O13 0.424616 0.400811 0.602417
O O14 0.420408 0.405314 0.109830
O O15 0.477712 0.250000 0.788348
O O16 0.181198 0.750000 0.185118
#
# Coordination Sequence:
#
# PCOD8071896 Si02
#       7
#     4   4   4   4   4   4   4
#     4  10  21  36  55  81 114 156 197 245 301 361
#     4  10  20  35  55  79 114 149 199 257 301 352
#     4  10  19  34  55  79 108 150 200 249 305 358
#     4  11  23  42  61  90 124 159 197 247 295 358
#     4  10  22  40  62  93 127 160 201 250 294 354
#     4  10  21  39  64  92 125 161 202 247 296 350
#     4  11  23  40  61  87 120 159 203 248 301 358
#
# _framework density 20.955262999999999
#
# number of rings (size 3 to 8) (size 9 to 14) (size 15 to 20)
#    0.000    1.714    1.429    3.000    0.000    2.286 
#    0.000    0.000    0.000    0.000    0.000    0.000 
#    0.000    0.000    0.000    0.000    0.000    0.000 
#
# Total GULP energy -346865.919385 kJ/mol
# GULP energy per Si atom -12388.068549 kJ/mol
# Density = 2.090757 g / cm^3
# Si number density = 20.955263 Si / 1000 Ang^3
#
#
#
# Elastic Constant Matrix: (Units=GPa)
#
#
# Indices 1 2 3 4 5 6 
#
# 1 80.5401 26.0725 18.2471 0.0000 1.1100 0.0000
# 2 26.0725 116.1485 31.4004 0.0000 6.4989 0.0000
# 3 18.2471 31.4004 87.6348 0.0000 17.1050 0.0000
# 4 0.0000 0.0000 0.0000 22.9240 0.0000 4.8099
# 5 1.1100 6.4989 17.1050 0.0000 29.0840 0.0000
# 6 0.0000 0.0000 0.0000 4.8099 0.0000 21.0014
#
#
#
# Elastic Compliance Matrix: (Units=1/GPa)
#
#
# Indices 1 2 3 4 5 6 
#
# 1 0.013726 -0.002561 -0.002203 0.000000 0.001344 0.000000
# 2 -0.002561 0.010011 -0.002978 0.000000 -0.000388 0.000000
# 3 -0.002203 -0.002978 0.014449 0.000000 -0.007748 0.000000
# 4 0.000000 0.000000 0.000000 0.045825 0.000000 -0.010495
# 5 0.001344 -0.000388 -0.007748 0.000000 0.038975 0.000000
# 6 0.000000 0.000000 0.000000 -0.010495 0.000000 0.050020
#
#
# Mechanical properties :
#
#
# Convention : Reuss Voigt Hill
#
# Bulk Modulus (GPa) = 44.04765 48.41817 46.23291
# Shear Modulus (GPa) = 25.50279 28.50875 27.00577
#
# Velocity S-wave (km/s) = 3.49235 3.69244 3.59379
# Velocity P-wave (km/s) = 6.10963 6.42919 6.27144
#
# Compressibility (1/GPa) = 0.02270269
#
# Stress axis : x y z
#
# Youngs Moduli (GPa) = 72.85616 99.88646 69.20832
#
# Poissons Ratio (x) = 0.25579 0.15244
# Poissons Ratio (y) = 0.18657 0.20612
# Poissons Ratio (z) = 0.16048 0.29749
#
# Static dielectric constant tensor:
#      x y z
#    x 3.806710 0.000000 0.096860 
#    y 0.000000 3.845090 0.000000 
#    z 0.096860 0.000000 3.840150 
# 
# 
# High freq. dielectric constant tensor:
#      x y z
#    x 1.819100 0.000000 0.005070 
#    y 0.000000 1.833340 0.000000 
#    z 0.005070 0.000000 1.809620 
# 
# From -- ./inp_files/8754.got.cif
#   From: 2010.06.25/outbox.cif.g09.slc.cpg/sg11_5_cif.got.tgz:8754.got - 2010.06.27 23:14:04.
