data_PCOD8071982
_publ_section_title
;
Structure prediction by ZEFSAII (Michael W. Deem and Ramdas Pophale) SiO2 
 PCOD8071982
Probable space group: P 21/M
;
_chemical_formula_sum "Si O2"
_cell_formula_units_Z 32
_cell_length_a 18.349457
_cell_length_b 9.138035
_cell_length_c 23.724361
_cell_angle_alpha 90.000000
_cell_angle_beta 155.339415
_cell_angle_gamma 90.000000
_cell_volume 1659.810734
_symmetry_space_group_name_H-M "P 21/M"
_symmetry_group_IT_number 11
_symmetry_cell_setting 'monoclinic'
loop_
_space_group_symop_operation_xyz
x,y,z
-x,1/2+y,-z
-x,-y,-z
x,1/2-y,z
loop_
_atom_site_type_symbol
_atom_site_label
_atom_site_fract_x
_atom_site_fract_y
_atom_site_fract_z
Si Si1 0.023050 0.410965 0.378326
Si Si2 0.347058 0.574554 0.926933
Si Si3 0.205404 0.411414 0.387853
Si Si4 0.490995 0.421461 0.354567
Si Si5 0.137030 0.919719 0.134147
Si Si6 0.611265 0.581948 0.925847
Si Si7 0.985769 0.913882 0.149992
Si Si8 0.665970 0.421084 0.359910
O O1 0.000056 0.250000 0.389258
O O2 0.128438 0.399077 0.395306
O O3 0.140716 0.506428 0.504014
O O4 0.832334 0.477656 0.229860
O O5 0.361486 0.750000 0.936859
O O6 0.357712 0.520011 0.998578
O O7 0.500000 0.500000 0.000000
O O8 0.268291 0.250000 0.412205
O O9 0.363644 0.526706 0.498368
O O10 0.053521 0.467118 0.241017
O O11 0.456215 0.250000 0.336955
O O12 0.322135 0.510314 0.252564
O O13 0.550843 0.463487 0.333552
O O14 0.143450 0.750000 0.122838
O O15 0.077085 0.945870 0.155447
O O16 0.000000 0.000000 0.000000
O O17 0.587624 0.750000 0.929343
O O18 0.440645 0.529837 0.770810
O O19 0.776087 0.568876 0.999249
O O20 0.031844 0.750000 0.203354
O O21 0.700183 0.250000 0.383737
#
# Coordination Sequence:
#
# PCOD8071982 Si02
#       8
#     4   4   4   4   4   4   4   4
#     4   9  19  36  57  84 118 148 185 233 280 334
#     4  11  23  40  61  89 119 150 186 229 281 340
#     4  10  19  34  56  83 111 143 187 238 287 336
#     4  10  20  36  56  80 113 151 192 237 287 342
#     4  11  23  38  54  76 108 148 191 239 291 345
#     4  10  20  37  60  87 116 147 188 238 284 337
#     4  10  21  36  56  80 110 147 190 235 286 340
#     4   9  19  35  59  87 115 151 195 237 283 338
#
# _framework density 19.279306999999999
#
# number of rings (size 3 to 8) (size 9 to 14) (size 15 to 20)
#    0.000    2.000    1.250    2.250    0.000    6.000 
#    0.000    1.875    0.000    0.000    0.000    0.000 
#    0.000    0.000    0.000    0.000    0.000    0.000 
#
# Total GULP energy -396717.537462 kJ/mol
# GULP energy per Si atom -12397.423046 kJ/mol
# Density = 1.923543 g / cm^3
# Si number density = 19.279307 Si / 1000 Ang^3
#
#
#
# Elastic Constant Matrix: (Units=GPa)
#
#
# Indices 1 2 3 4 5 6 
#
# 1 48.5422 31.7643 43.1894 0.0000 4.1316 0.0000
# 2 31.7643 80.9981 55.0016 0.0000 -1.3120 0.0000
# 3 43.1894 55.0016 164.2947 0.0000 0.6727 0.0000
# 4 0.0000 0.0000 0.0000 39.5701 0.0000 -0.2017
# 5 4.1316 -1.3120 0.6727 0.0000 22.2963 0.0000
# 6 0.0000 0.0000 0.0000 -0.2017 0.0000 27.3622
#
#
#
# Elastic Compliance Matrix: (Units=1/GPa)
#
#
# Indices 1 2 3 4 5 6 
#
# 1 0.031704 -0.008920 -0.005323 0.000000 -0.006239 0.000000
# 2 -0.008920 0.018515 -0.003865 0.000000 0.002859 0.000000
# 3 -0.005323 -0.003865 0.008778 0.000000 0.000494 0.000000
# 4 0.000000 0.000000 0.000000 0.025273 0.000000 0.000186
# 5 -0.006239 0.002859 0.000494 0.000000 0.046160 0.000000
# 6 0.000000 0.000000 0.000000 0.000186 0.000000 0.036548
#
#
# Mechanical properties :
#
#
# Convention : Reuss Voigt Hill
#
# Bulk Modulus (GPa) = 43.89524 61.52730 52.71127
# Shear Modulus (GPa) = 23.72061 28.77102 26.24582
#
# Velocity S-wave (km/s) = 3.51146 3.86726 3.69365
# Velocity P-wave (km/s) = 6.26562 7.20582 6.75210
#
# Compressibility (1/GPa) = 0.02278151
#
# Stress axis : x y z
#
# Youngs Moduli (GPa) = 31.54145 54.01036 113.92415
#
# Poissons Ratio (x) = 0.48177 0.60638
# Poissons Ratio (y) = 0.28135 0.44034
# Poissons Ratio (z) = 0.16788 0.20876
#
# Static dielectric constant tensor:
#      x y z
#    x 3.328920 0.000000 -0.080920 
#    y 0.000000 3.601630 0.000000 
#    z -0.080920 0.000000 3.886940 
# 
# 
# High freq. dielectric constant tensor:
#      x y z
#    x 1.727120 0.000000 0.002640 
#    y 0.000000 1.754910 0.000000 
#    z 0.002640 0.000000 1.765050 
# 
# From -- ./inp_files/72118.got.cif
#   From: 2010.06.25/outbox.cif.g09.slc.cpg/sg11_37_cif.got.tgz:72118.got - 2010.06.27 23:14:04.
