data_PCOD8071986
_publ_section_title
;
Structure prediction by ZEFSAII (Michael W. Deem and Ramdas Pophale) SiO2 
 PCOD8071986
Probable space group: P 21/M
;
_chemical_formula_sum "Si O2"
_cell_formula_units_Z 24
_cell_length_a 9.119572
_cell_length_b 8.813140
_cell_length_c 16.063922
_cell_angle_alpha 90.000000
_cell_angle_beta 74.462320
_cell_angle_gamma 90.000000
_cell_volume 1243.907026
_symmetry_space_group_name_H-M "P 21/M"
_symmetry_group_IT_number 11
_symmetry_cell_setting 'monoclinic'
loop_
_space_group_symop_operation_xyz
x,y,z
-x,1/2+y,-z
-x,-y,-z
x,1/2-y,z
loop_
_atom_site_type_symbol
_atom_site_label
_atom_site_fract_x
_atom_site_fract_y
_atom_site_fract_z
Si Si1 0.281820 0.919540 0.080493
Si Si2 0.056500 0.570459 0.576521
Si Si3 0.534802 0.072430 0.264424
Si Si4 0.373796 0.079648 0.910554
Si Si5 0.797678 0.925963 0.745932
Si Si6 0.374513 0.429736 0.578530
O O1 0.224782 0.750000 0.071493
O O2 0.456208 0.921757 0.081002
O O3 0.180340 0.987960 0.170111
O O4 0.261365 0.015009 0.998705
O O5 0.075457 0.750000 0.563824
O O6 0.213652 0.495304 0.576701
O O7 0.000000 0.500000 0.500000
O O8 0.935740 0.527979 0.665890
O O9 0.556848 0.250000 0.279888
O O10 0.358889 0.029272 0.276156
O O11 0.636012 0.026571 0.169222
O O12 0.592040 0.973590 0.332150
O O13 0.322541 0.250000 0.895510
O O14 0.795443 0.750000 0.768236
O O15 0.500000 0.500000 0.500000
O O16 0.374288 0.250000 0.567895
#
# Coordination Sequence:
#
# PCOD8071986 Si02
#       6
#     4   4   4   4   4   4
#     4   9  16  26  45  74 107 143 183 226 269 315
#     4  11  23  40  61  85 113 146 184 227 277 333
#     4  10  19  34  56  83 113 145 184 229 276 327
#     4   9  16  27  45  73 109 146 183 224 270 319
#     4   9  19  34  54  80 111 145 181 224 274 327
#     4  12  25  41  60  83 111 145 185 229 279 333
#
# _framework density 19.294046000000002
#
# number of rings (size 3 to 8) (size 9 to 14) (size 15 to 20)
#    0.000    2.000    0.000    4.500    0.000    7.333 
#    0.000    0.000    0.000    1.000    0.000    0.000 
#    0.000    0.000    0.000    0.000    0.000    0.000 
#
# Total GULP energy -297648.918792 kJ/mol
# GULP energy per Si atom -12402.038283 kJ/mol
# Density = 1.925013 g / cm^3
# Si number density = 19.294046 Si / 1000 Ang^3
#
#
#
# Elastic Constant Matrix: (Units=GPa)
#
#
# Indices 1 2 3 4 5 6 
#
# 1 87.4456 50.5606 67.2319 0.0000 -8.7584 0.0000
# 2 50.5606 124.7240 77.8883 0.0000 -14.3763 0.0000
# 3 67.2319 77.8883 161.7097 0.0000 -12.2336 0.0000
# 4 0.0000 0.0000 0.0000 43.5581 0.0000 1.3882
# 5 -8.7584 -14.3763 -12.2336 0.0000 16.9677 0.0000
# 6 0.0000 0.0000 0.0000 1.3882 0.0000 25.1982
#
#
#
# Elastic Compliance Matrix: (Units=1/GPa)
#
#
# Indices 1 2 3 4 5 6 
#
# 1 0.018029 -0.003539 -0.005621 0.000000 0.002256 0.000000
# 2 -0.003539 0.012783 -0.004236 0.000000 0.005950 0.000000
# 3 -0.005621 -0.004236 0.010651 0.000000 0.001189 0.000000
# 4 0.000000 0.000000 0.000000 0.022998 0.000000 -0.001267
# 5 0.002256 0.005950 0.001189 0.000000 0.065999 0.000000
# 6 0.000000 0.000000 0.000000 -0.001267 0.000000 0.039755
#
#
# Mechanical properties :
#
#
# Convention : Reuss Voigt Hill
#
# Bulk Modulus (GPa) = 68.15192 85.02679 76.58935
# Shear Modulus (GPa) = 24.76517 29.02469 26.89493
#
# Velocity S-wave (km/s) = 3.58658 3.88278 3.73761
# Velocity P-wave (km/s) = 7.24919 8.01660 7.64254
#
# Compressibility (1/GPa) = 0.01467310
#
# Stress axis : x y z
#
# Youngs Moduli (GPa) = 55.46619 78.22766 93.88894
#
# Poissons Ratio (x) = 0.27681 0.52772
# Poissons Ratio (y) = 0.19627 0.39769
# Poissons Ratio (z) = 0.31176 0.33135
#
# Static dielectric constant tensor:
#      x y z
#    x 2.669900 0.000000 0.254210 
#    y 0.000000 3.769480 0.000000 
#    z 0.254210 0.000000 3.596720 
# 
# 
# High freq. dielectric constant tensor:
#      x y z
#    x 1.710760 0.000000 -0.004850 
#    y 0.000000 1.765300 0.000000 
#    z -0.004850 0.000000 1.771200 
# 
# From -- ./inp_files/25946.got.cif
#   From: 2010.06.25/outbox.cif.g09.slc.cpg/sg11_13_cif.got.tgz:25946.got - 2010.06.27 23:14:04.
