data_PCOD8071379
_publ_section_title
;
Structure prediction by ZEFSAII (Michael W. Deem and Ramdas Pophale) SiO2 
 PCOD8071379
Probable space group: P 21/M
;
_chemical_formula_sum "Si O2"
_cell_formula_units_Z 32
_cell_length_a 12.228036
_cell_length_b 8.991003
_cell_length_c 20.071528
_cell_angle_alpha 90.000000
_cell_angle_beta 54.333967
_cell_angle_gamma 90.000000
_cell_volume 1792.796021
_symmetry_space_group_name_H-M "P 21/M"
_symmetry_group_IT_number 11
_symmetry_cell_setting 'monoclinic'
loop_
_space_group_symop_operation_xyz
x,y,z
-x,1/2+y,-z
-x,-y,-z
x,1/2-y,z
loop_
_atom_site_type_symbol
_atom_site_label
_atom_site_fract_x
_atom_site_fract_y
_atom_site_fract_z
Si Si1 0.366123 0.424207 0.020181
Si Si2 0.379281 0.926669 0.880035
Si Si3 0.328311 0.076973 0.765959
Si Si4 0.361623 0.422600 0.531650
Si Si5 0.858802 0.577630 0.288877
Si Si6 0.321161 0.424057 0.258784
Si Si7 0.594950 0.577909 0.631128
Si Si8 0.860565 0.577045 0.791124
O O1 0.394100 0.250000 0.001500
O O2 0.244780 0.455345 0.113271
O O3 0.500000 0.500000 0.000000
O O4 0.320483 0.496956 0.966757
O O5 0.363454 0.750000 0.890519
O O6 0.533621 0.980544 0.817689
O O7 0.299009 0.986071 0.843986
O O8 0.346353 0.250000 0.776385
O O9 0.202705 0.048823 0.762071
O O10 0.461553 0.021222 0.680661
O O11 0.500000 0.500000 0.500000
O O12 0.380574 0.250000 0.541844
O O13 0.240309 0.489072 0.618902
O O14 0.327395 0.448940 0.465734
O O15 0.880709 0.750000 0.295249
O O16 0.001392 0.500974 0.241261
O O17 0.317763 0.250000 0.247106
O O18 0.305020 0.464513 0.342967
O O19 0.201792 0.491449 0.255705
O O20 0.549848 0.750000 0.655209
O O21 0.891692 0.750000 0.772753
#
# Coordination Sequence:
#
# PCOD8071379 Si02
#       8
#     4   4   4   4   4   4   4   4
#     4  11  21  35  56  84 112 141 181 230 275 319
#     4  10  19  34  56  82 110 139 178 225 272 326
#     4  10  19  33  52  78 111 141 175 225 275 319
#     4  10  19  33  53  80 109 140 181 227 271 321
#     4  10  22  37  52  76 113 147 180 226 274 322
#     4   8  15  31  51  76 106 136 172 217 263 311
#     4   9  17  30  54  80 105 139 178 221 272 324
#     4  10  21  37  55  76 108 145 183 221 265 327
#
# _framework density 17.849214
#
# number of rings (size 3 to 8) (size 9 to 14) (size 15 to 20)
#    0.000    2.250    2.500    1.875    0.000    2.500 
#    0.000    1.875    0.000    0.000    0.000    0.000 
#    0.000    0.000    0.000    0.000    0.000    0.000 
#
# Total GULP energy -396722.788323 kJ/mol
# GULP energy per Si atom -12397.587135 kJ/mol
# Density = 1.780859 g / cm^3
# Si number density = 17.849214 Si / 1000 Ang^3
#
#
#
# Elastic Constant Matrix: (Units=GPa)
#
#
# Indices 1 2 3 4 5 6 
#
# 1 133.7337 55.9380 72.8652 0.0000 6.9124 0.0000
# 2 55.9380 70.9767 53.6193 0.0000 2.8181 0.0000
# 3 72.8652 53.6193 98.7925 0.0000 14.2672 0.0000
# 4 0.0000 0.0000 0.0000 25.6384 0.0000 0.8815
# 5 6.9124 2.8181 14.2672 0.0000 30.5850 0.0000
# 6 0.0000 0.0000 0.0000 0.8815 0.0000 28.1145
#
#
#
# Elastic Compliance Matrix: (Units=1/GPa)
#
#
# Indices 1 2 3 4 5 6 
#
# 1 0.013610 -0.005231 -0.007318 0.000000 0.000819 0.000000
# 2 -0.005231 0.026386 -0.011025 0.000000 0.003894 0.000000
# 3 -0.007318 -0.011025 0.022643 0.000000 -0.007893 0.000000
# 4 0.000000 0.000000 0.000000 0.039046 0.000000 -0.001224
# 5 0.000819 0.003894 -0.007893 0.000000 0.035834 0.000000
# 6 0.000000 0.000000 0.000000 -0.001224 0.000000 0.035607
#
#
# Mechanical properties :
#
#
# Convention : Reuss Voigt Hill
#
# Bulk Modulus (GPa) = 64.54962 74.26090 69.40526
# Shear Modulus (GPa) = 22.17907 24.93961 23.55934
#
# Velocity S-wave (km/s) = 3.52885 3.74202 3.63700
# Velocity P-wave (km/s) = 7.26953 7.76950 7.52367
#
# Compressibility (1/GPa) = 0.01549196
#
# Stress axis : x y z
#
# Youngs Moduli (GPa) = 73.47447 37.89870 44.16344
#
# Poissons Ratio (x) = 0.19824 0.32317
# Poissons Ratio (y) = 0.38434 0.48691
# Poissons Ratio (z) = 0.53766 0.41784
#
# Static dielectric constant tensor:
#      x y z
#    x 3.448180 0.000000 0.385350 
#    y 0.000000 3.240490 0.000000 
#    z 0.385350 0.000000 3.503210 
# 
# 
# High freq. dielectric constant tensor:
#      x y z
#    x 1.688400 0.000000 0.028650 
#    y 0.000000 1.682700 0.000000 
#    z 0.028650 0.000000 1.682700 
# 
# From -- ./inp_files/64189.got.cif
#   From: 2010.06.25/outbox.cif.g09.slc.cpg/sg11_33_cif.got.tgz:64189.got - 2010.06.27 23:14:04.
