data_PCOD8071619
_publ_section_title
;
Structure prediction by ZEFSAII (Michael W. Deem and Ramdas Pophale) SiO2 
 PCOD8071619
Probable space group: P 21/M
;
_chemical_formula_sum "Si O2"
_cell_formula_units_Z 32
_cell_length_a 7.951099
_cell_length_b 23.628631
_cell_length_c 11.432074
_cell_angle_alpha 90.000000
_cell_angle_beta 126.111149
_cell_angle_gamma 90.000000
_cell_volume 1735.142049
_symmetry_space_group_name_H-M "P 21/M"
_symmetry_group_IT_number 11
_symmetry_cell_setting 'monoclinic'
loop_
_space_group_symop_operation_xyz
x,y,z
-x,1/2+y,-z
-x,-y,-z
x,1/2-y,z
loop_
_atom_site_type_symbol
_atom_site_label
_atom_site_fract_x
_atom_site_fract_y
_atom_site_fract_z
Si Si1 0.755223 0.497227 0.401373
Si Si2 0.298907 0.814608 0.553448
Si Si3 0.490864 0.602442 0.314153
Si Si4 0.174422 0.582236 0.375445
Si Si5 0.832438 0.183690 0.235781
Si Si6 0.377943 0.910001 0.004294
Si Si7 0.242918 0.016161 0.850254
Si Si8 0.308568 0.184953 0.434805
O O1 0.671535 0.557317 0.408793
O O2 0.688789 0.449099 0.467209
O O3 0.673992 0.486053 0.236280
O O4 0.000000 0.500000 0.500000
O O5 0.240381 0.750000 0.499915
O O6 0.146127 0.853652 0.411829
O O7 0.257186 0.827652 0.671734
O O8 0.542187 0.826627 0.617161
O O9 0.289636 0.581237 0.300211
O O10 0.419052 0.610860 0.152169
O O11 0.584158 0.659656 0.405631
O O12 0.961556 0.550923 0.262270
O O13 0.808695 0.250000 0.192390
O O14 0.072293 0.162707 0.319316
O O15 0.693490 0.145738 0.093079
O O16 0.588336 0.937910 0.036001
O O17 0.212620 0.963109 0.927641
O O18 0.289369 0.250000 0.456843
#
# Coordination Sequence:
#
# PCOD8071619 Si02
#       8
#     4   4   4   4   4   4   4   4
#     4   9  18  31  53  77 104 138 178 226 265 316
#     4   9  19  36  57  84 110 135 180 234 274 320
#     4  10  21  34  53  82 111 140 180 226 275 325
#     4  10  19  33  55  83 106 139 184 225 276 323
#     4  10  21  37  61  83 106 148 187 223 272 327
#     4  10  21  37  51  76 114 145 181 217 270 333
#     4   9  20  35  53  74 108 149 177 220 273 324
#     4   9  20  37  58  83 110 138 181 233 275 319
#
# _framework density 18.442294
#
# number of rings (size 3 to 8) (size 9 to 14) (size 15 to 20)
#    0.000    2.500    0.000    1.125    8.750    1.000 
#    2.250    0.625    0.000    0.000    0.000    0.000 
#    0.000    0.000    0.000    0.000    0.000    0.000 
#
# Total GULP energy -396468.979249 kJ/mol
# GULP energy per Si atom -12389.655602 kJ/mol
# Density = 1.840032 g / cm^3
# Si number density = 18.442294 Si / 1000 Ang^3
#
#
#
# Elastic Constant Matrix: (Units=GPa)
#
#
# Indices 1 2 3 4 5 6 
#
# 1 87.8078 48.3149 51.2310 0.0000 -3.9519 0.0000
# 2 48.3149 87.2754 64.3405 0.0000 4.3504 0.0000
# 3 51.2310 64.3405 106.9209 0.0000 5.4314 0.0000
# 4 0.0000 0.0000 0.0000 38.2153 0.0000 3.6147
# 5 -3.9519 4.3504 5.4314 0.0000 19.3042 0.0000
# 6 0.0000 0.0000 0.0000 3.6147 0.0000 24.6291
#
#
#
# Elastic Compliance Matrix: (Units=1/GPa)
#
#
# Indices 1 2 3 4 5 6 
#
# 1 0.018373 -0.006766 -0.005073 0.000000 0.006714 0.000000
# 2 -0.006766 0.023112 -0.010481 0.000000 -0.003645 0.000000
# 3 -0.005073 -0.010481 0.018284 0.000000 -0.003821 0.000000
# 4 0.000000 0.000000 0.000000 0.026536 0.000000 -0.003895
# 5 0.006714 -0.003645 -0.003821 0.000000 0.055073 0.000000
# 6 0.000000 0.000000 0.000000 -0.003895 0.000000 0.041174
#
#
# Mechanical properties :
#
#
# Convention : Reuss Voigt Hill
#
# Bulk Modulus (GPa) = 66.09371 67.75301 66.92336
# Shear Modulus (GPa) = 21.52990 24.30423 22.91706
#
# Velocity S-wave (km/s) = 3.42046 3.63416 3.52893
# Velocity P-wave (km/s) = 7.17742 7.37747 7.27813
#
# Compressibility (1/GPa) = 0.01513003
#
# Stress axis : x y z
#
# Youngs Moduli (GPa) = 54.42627 43.26816 54.69164
#
# Poissons Ratio (x) = 0.29276 0.27746
# Poissons Ratio (y) = 0.36825 0.57320
# Poissons Ratio (z) = 0.27611 0.45347
#
# Static dielectric constant tensor:
#      x y z
#    x 3.589540 0.000000 -0.156590 
#    y 0.000000 3.584160 0.000000 
#    z -0.156590 0.000000 3.575910 
# 
# 
# High freq. dielectric constant tensor:
#      x y z
#    x 1.710420 0.000000 -0.003770 
#    y 0.000000 1.723440 0.000000 
#    z -0.003770 0.000000 1.705210 
# 
# From -- ./inp_files/32844.got.cif
#   From: 2010.06.25/outbox.cif.g09.slc.cpg/sg11_17_cif.got.tgz:32844.got - 2010.06.27 23:14:04.
