data_PCOD8071597
_publ_section_title
;
Structure prediction by ZEFSAII (Michael W. Deem and Ramdas Pophale) SiO2 
 PCOD8071597
Probable space group: P 21/M
;
_chemical_formula_sum "Si O2"
_cell_formula_units_Z 28
_cell_length_a 8.942946
_cell_length_b 14.616016
_cell_length_c 11.226859
_cell_angle_alpha 90.000000
_cell_angle_beta 109.834347
_cell_angle_gamma 90.000000
_cell_volume 1380.411790
_symmetry_space_group_name_H-M "P 21/M"
_symmetry_group_IT_number 11
_symmetry_cell_setting 'monoclinic'
loop_
_space_group_symop_operation_xyz
x,y,z
-x,1/2+y,-z
-x,-y,-z
x,1/2-y,z
loop_
_atom_site_type_symbol
_atom_site_label
_atom_site_fract_x
_atom_site_fract_y
_atom_site_fract_z
Si Si1 0.190161 0.642073 0.919636
Si Si2 0.193510 0.644653 0.193854
Si Si3 0.588150 0.996399 0.650592
Si Si4 0.900944 0.850823 0.264076
Si Si5 0.306679 0.529420 0.749915
Si Si6 0.036931 0.896502 0.534986
Si Si7 0.138271 0.352165 0.284842
O O1 0.215613 0.750000 0.902799
O O2 0.318851 0.581825 0.880122
O O3 0.012418 0.611619 0.831910
O O4 0.214727 0.615543 0.062927
O O5 0.236420 0.750000 0.224557
O O6 0.313161 0.589392 0.310249
O O7 0.009760 0.625185 0.179493
O O8 0.473329 0.987637 0.732711
O O9 0.707350 0.912233 0.693949
O O10 0.500000 0.000000 0.500000
O O11 0.819965 0.750000 0.225600
O O12 0.024760 0.841980 0.408445
O O13 0.772085 0.929356 0.252192
O O14 0.211222 0.601931 0.640665
O O15 0.907355 0.853656 0.588629
O O16 0.000000 0.000000 0.500000
O O17 0.182992 0.250000 0.257100
#
# Coordination Sequence:
#
# PCOD8071597 Si02
#       7
#     4   4   4   4   4   4   4
#     4   9  20  41  64  84 106 143 200 251 288 332
#     4  10  22  40  62  85 112 149 193 243 291 337
#     4  12  24  37  55  86 126 159 188 228 290 361
#     4  10  19  33  55  81 109 147 194 237 282 339
#     4  10  21  34  55  83 114 150 188 236 290 344
#     4   9  16  32  54  77 106 143 190 236 276 326
#     4  10  21  37  59  83 111 151 195 241 287 338
#
# _framework density 20.283804
#
# number of rings (size 3 to 8) (size 9 to 14) (size 15 to 20)
#    0.000    2.000    0.000    5.571    0.000    5.143 
#    0.000    0.000    0.000    3.429    0.000    0.000 
#    0.000    0.000    0.000    0.000    0.000    0.000 
#
# Total GULP energy -347077.306786 kJ/mol
# GULP energy per Si atom -12395.618099 kJ/mol
# Density = 2.023764 g / cm^3
# Si number density = 20.283804 Si / 1000 Ang^3
#
#
#
# Elastic Constant Matrix: (Units=GPa)
#
#
# Indices 1 2 3 4 5 6 
#
# 1 100.5955 47.7987 13.4597 0.0000 -11.1277 0.0000
# 2 47.7987 97.6915 32.1685 0.0000 -1.9791 0.0000
# 3 13.4597 32.1685 77.8811 0.0000 -10.6626 0.0000
# 4 0.0000 0.0000 0.0000 29.6353 0.0000 -6.1588
# 5 -11.1277 -1.9791 -10.6626 0.0000 24.7083 0.0000
# 6 0.0000 0.0000 0.0000 -6.1588 0.0000 24.9122
#
#
#
# Elastic Compliance Matrix: (Units=1/GPa)
#
#
# Indices 1 2 3 4 5 6 
#
# 1 0.013817 -0.007094 0.001399 0.000000 0.006258 0.000000
# 2 -0.007094 0.015526 -0.005796 0.000000 -0.004453 0.000000
# 3 0.001399 -0.005796 0.015958 0.000000 0.007052 0.000000
# 4 0.000000 0.000000 0.000000 0.035571 0.000000 0.008794
# 5 0.006258 -0.004453 0.007052 0.000000 0.045977 0.000000
# 6 0.000000 0.000000 0.000000 0.008794 0.000000 0.042315
#
#
# Mechanical properties :
#
#
# Convention : Reuss Voigt Hill
#
# Bulk Modulus (GPa) = 44.80773 51.44686 48.12730
# Shear Modulus (GPa) = 25.05184 28.03392 26.54288
#
# Velocity S-wave (km/s) = 3.51816 3.72167 3.62135
# Velocity P-wave (km/s) = 6.21624 6.62468 6.42371
#
# Compressibility (1/GPa) = 0.02231758
#
# Stress axis : x y z
#
# Youngs Moduli (GPa) = 72.37602 64.40865 62.66439
#
# Poissons Ratio (x) = 0.45693 -0.08768
# Poissons Ratio (y) = 0.51345 0.36323
# Poissons Ratio (z) = -0.10127 0.37334
#
# Static dielectric constant tensor:
#      x y z
#    x 3.500520 0.000000 -0.179690 
#    y 0.000000 3.842910 0.000000 
#    z -0.179690 0.000000 4.119540 
# 
# 
# High freq. dielectric constant tensor:
#      x y z
#    x 1.772230 0.000000 -0.021770 
#    y 0.000000 1.802710 0.000000 
#    z -0.021770 0.000000 1.788550 
# 
# From -- ./inp_files/31740.got.cif
#   From: 2010.06.25/outbox.cif.g09.slc.cpg/sg11_16_cif.got.tgz:31740.got - 2010.06.27 23:14:04.
