data_PCOD8071279
_publ_section_title
;
Structure prediction by ZEFSAII (Michael W. Deem and Ramdas Pophale) SiO2 
 PCOD8071279
Probable space group: P 21/M
;
_chemical_formula_sum "Si O2"
_cell_formula_units_Z 32
_cell_length_a 16.294944
_cell_length_b 8.920182
_cell_length_c 11.227566
_cell_angle_alpha 90.000000
_cell_angle_beta 86.566996
_cell_angle_gamma 90.000000
_cell_volume 1629.041556
_symmetry_space_group_name_H-M "P 21/M"
_symmetry_group_IT_number 11
_symmetry_cell_setting 'monoclinic'
loop_
_space_group_symop_operation_xyz
x,y,z
-x,1/2+y,-z
-x,-y,-z
x,1/2-y,z
loop_
_atom_site_type_symbol
_atom_site_label
_atom_site_fract_x
_atom_site_fract_y
_atom_site_fract_z
Si Si1 0.275387 0.073920 0.680053
Si Si2 0.659973 0.423537 0.731458
Si Si3 0.416809 0.427359 0.048237
Si Si4 0.411254 0.574604 0.518338
Si Si5 0.171514 0.921437 0.166327
Si Si6 0.268565 0.574854 0.926732
Si Si7 0.109699 0.423971 0.569467
Si Si8 0.041836 0.425587 0.323574
O O1 0.289519 0.250000 0.698181
O O2 0.204439 0.040483 0.589745
O O3 0.360990 0.000826 0.630337
O O4 0.244059 0.997910 0.803924
O O5 0.645898 0.250000 0.768004
O O6 0.598669 0.525037 0.814079
O O7 0.641172 0.454587 0.595924
O O8 0.753081 0.470712 0.754531
O O9 0.421196 0.250000 0.037654
O O10 0.500000 0.500000 0.000000
O O11 0.347714 0.489594 0.967302
O O12 0.500000 0.500000 0.500000
O O13 0.422424 0.750000 0.543530
O O14 0.149053 0.750000 0.192286
O O15 0.091571 0.018479 0.204108
O O16 0.194052 0.948878 0.026219
O O17 0.288991 0.750000 0.910039
O O18 0.090081 0.250000 0.584945
O O19 0.091137 0.479467 0.437192
O O20 0.050002 0.508181 0.667373
O O21 0.033812 0.250000 0.316198
#
# Coordination Sequence:
#
# PCOD8071279 Si02
#       8
#     4   4   4   4   4   4   4   4
#     4  11  23  40  61  84 116 154 193 238 292 349
#     4   9  20  38  57  80 110 146 190 234 281 338
#     4  11  22  36  58  83 110 144 186 238 289 338
#     4  11  24  40  59  83 115 152 192 237 286 344
#     4   9  18  35  58  82 111 146 185 235 289 338
#     4  10  22  40  59  82 112 151 196 237 287 347
#     4   9  20  37  56  84 119 154 188 230 285 343
#     4  10  19  32  57  89 118 147 188 237 282 338
#
# _framework density 19.643453000000001
#
# number of rings (size 3 to 8) (size 9 to 14) (size 15 to 20)
#    0.000    2.000    0.000    4.125    1.750    5.000 
#    0.000    0.625    0.000    0.000    0.000    0.000 
#    0.000    0.000    0.000    0.000    0.000    0.000 
#
# Total GULP energy -396897.074559 kJ/mol
# GULP energy per Si atom -12403.033580 kJ/mol
# Density = 1.959874 g / cm^3
# Si number density = 19.643453 Si / 1000 Ang^3
#
#
#
# Elastic Constant Matrix: (Units=GPa)
#
#
# Indices 1 2 3 4 5 6 
#
# 1 89.3719 48.6888 27.9140 0.0000 -30.1756 0.0000
# 2 48.6888 112.3440 41.1852 0.0000 -15.8800 0.0000
# 3 27.9140 41.1852 78.8226 0.0000 -13.4564 0.0000
# 4 0.0000 0.0000 0.0000 35.2849 0.0000 -5.2407
# 5 -30.1756 -15.8800 -13.4564 0.0000 29.8479 0.0000
# 6 0.0000 0.0000 0.0000 -5.2407 0.0000 33.9618
#
#
#
# Elastic Compliance Matrix: (Units=1/GPa)
#
#
# Indices 1 2 3 4 5 6 
#
# 1 0.020661 -0.006092 -0.001215 0.000000 0.017099 0.000000
# 2 -0.006092 0.013162 -0.004957 0.000000 -0.001391 0.000000
# 3 -0.001215 -0.004957 0.016302 0.000000 0.003484 0.000000
# 4 0.000000 0.000000 0.000000 0.029006 0.000000 0.004476
# 5 0.017099 -0.001391 0.003484 0.000000 0.051620 0.000000
# 6 0.000000 0.000000 0.000000 0.004476 0.000000 0.030136
#
#
# Mechanical properties :
#
#
# Convention : Reuss Voigt Hill
#
# Bulk Modulus (GPa) = 39.06726 57.34602 48.20664
# Shear Modulus (GPa) = 25.78038 30.66896 28.22467
#
# Velocity S-wave (km/s) = 3.62666 3.95559 3.79469
# Velocity P-wave (km/s) = 6.12113 7.07949 6.61768
#
# Compressibility (1/GPa) = 0.02559688
#
# Stress axis : x y z
#
# Youngs Moduli (GPa) = 48.40137 75.97542 61.34258
#
# Poissons Ratio (x) = 0.46283 0.07450
# Poissons Ratio (y) = 0.29486 0.30410
# Poissons Ratio (z) = 0.05879 0.37664
#
# Static dielectric constant tensor:
#      x y z
#    x 3.509260 0.000000 -0.140930 
#    y 0.000000 3.582300 0.000000 
#    z -0.140930 0.000000 3.785070 
# 
# 
# High freq. dielectric constant tensor:
#      x y z
#    x 1.761070 0.000000 -0.012140 
#    y 0.000000 1.772960 0.000000 
#    z -0.012140 0.000000 1.761250 
# 
# From -- ./inp_files/38160.got.cif
#   From: 2010.06.25/outbox.cif.g09.slc.cpg/sg11_20_cif.got.tgz:38160.got - 2010.06.27 23:14:04.
