data_PCOD8071724
_publ_section_title
;
Structure prediction by ZEFSAII (Michael W. Deem and Ramdas Pophale) SiO2 
 PCOD8071724
Probable space group: P 21/M
;
_chemical_formula_sum "Si O2"
_cell_formula_units_Z 32
_cell_length_a 11.405458
_cell_length_b 8.954973
_cell_length_c 21.139150
_cell_angle_alpha 90.000000
_cell_angle_beta 128.024811
_cell_angle_gamma 90.000000
_cell_volume 1700.786021
_symmetry_space_group_name_H-M "P 21/M"
_symmetry_group_IT_number 11
_symmetry_cell_setting 'monoclinic'
loop_
_space_group_symop_operation_xyz
x,y,z
-x,1/2+y,-z
-x,-y,-z
x,1/2-y,z
loop_
_atom_site_type_symbol
_atom_site_label
_atom_site_fract_x
_atom_site_fract_y
_atom_site_fract_z
Si Si1 0.315034 0.923835 0.735589
Si Si2 0.645279 0.580489 0.128370
Si Si3 0.577816 0.425345 0.617505
Si Si4 0.006415 0.924817 0.569214
Si Si5 0.153819 0.420377 0.062743
Si Si6 0.277979 0.074149 0.448652
Si Si7 0.397115 0.927495 0.229042
Si Si8 0.648353 0.916576 0.991049
O O1 0.354546 0.750000 0.744567
O O2 0.166954 0.966151 0.649375
O O3 0.281465 0.969688 0.796705
O O4 0.453955 0.015307 0.755177
O O5 0.661974 0.750000 0.157940
O O6 0.720618 0.556582 0.084608
O O7 0.470980 0.543386 0.063633
O O8 0.600178 0.250000 0.619235
O O9 0.700752 0.500991 0.613219
O O10 0.412498 0.472910 0.540102
O O11 0.600839 0.479310 0.697114
O O12 0.983951 0.750000 0.552741
O O13 0.875546 0.985697 0.571562
O O14 0.000000 0.000000 0.500000
O O15 0.131839 0.250000 0.077952
O O16 0.252069 0.503860 0.147955
O O17 0.224181 0.428158 0.017323
O O18 0.000000 0.500000 0.000000
O O19 0.272938 0.250000 0.436714
O O20 0.391971 0.750000 0.221303
O O21 0.574872 0.750000 0.965122
#
# Coordination Sequence:
#
# PCOD8071724 Si02
#       8
#     4   4   4   4   4   4   4   4
#     4  11  22  36  55  83 117 149 186 235 287 339
#     4  10  19  33  57  84 108 143 186 229 280 334
#     4   9  19  35  58  85 111 146 188 235 280 326
#     4  10  22  38  57  83 117 153 188 232 282 335
#     4  11  23  40  60  83 115 150 187 235 286 337
#     4   9  18  36  58  81 114 150 188 230 278 334
#     4  11  22  38  60  85 113 146 191 237 281 337
#     4   9  19  36  57  81 111 143 181 231 280 332
#
# _framework density 18.814829
#
# number of rings (size 3 to 8) (size 9 to 14) (size 15 to 20)
#    0.000    2.000    1.250    2.250    0.000    4.500 
#    2.250    2.500    0.000    0.000    0.000    0.000 
#    0.000    0.000    0.000    0.000    0.000    0.000 
#
# Total GULP energy -396785.165721 kJ/mol
# GULP energy per Si atom -12399.536429 kJ/mol
# Density = 1.877201 g / cm^3
# Si number density = 18.814829 Si / 1000 Ang^3
#
#
#
# Elastic Constant Matrix: (Units=GPa)
#
#
# Indices 1 2 3 4 5 6 
#
# 1 85.9268 37.7315 63.4999 0.0000 -6.3978 0.0000
# 2 37.7315 61.6035 57.0703 0.0000 -1.6395 0.0000
# 3 63.4999 57.0703 145.0386 0.0000 -12.7136 0.0000
# 4 0.0000 0.0000 0.0000 28.7215 0.0000 -4.1361
# 5 -6.3978 -1.6395 -12.7136 0.0000 32.9608 0.0000
# 6 0.0000 0.0000 0.0000 -4.1361 0.0000 30.1911
#
#
#
# Elastic Compliance Matrix: (Units=1/GPa)
#
#
# Indices 1 2 3 4 5 6 
#
# 1 0.018567 -0.006142 -0.005613 0.000000 0.001134 0.000000
# 2 -0.006142 0.027810 -0.008525 0.000000 -0.003097 0.000000
# 3 -0.005613 -0.008525 0.013014 0.000000 0.003506 0.000000
# 4 0.000000 0.000000 0.000000 0.035518 0.000000 0.004866
# 5 0.001134 -0.003097 0.003506 0.000000 0.031757 0.000000
# 6 0.000000 0.000000 0.000000 0.004866 0.000000 0.033789
#
#
# Mechanical properties :
#
#
# Convention : Reuss Voigt Hill
#
# Bulk Modulus (GPa) = 53.10407 67.68582 60.39495
# Shear Modulus (GPa) = 24.12040 27.32582 25.72311
#
# Velocity S-wave (km/s) = 3.58437 3.81511 3.70154
# Velocity P-wave (km/s) = 6.73915 7.44712 7.10196
#
# Compressibility (1/GPa) = 0.01883095
#
# Stress axis : x y z
#
# Youngs Moduli (GPa) = 53.85847 35.95767 76.84076
#
# Poissons Ratio (x) = 0.22087 0.43128
# Poissons Ratio (y) = 0.33082 0.65509
# Poissons Ratio (z) = 0.30229 0.30655
#
# Static dielectric constant tensor:
#      x y z
#    x 3.340590 0.000000 -0.152270 
#    y 0.000000 3.596300 0.000000 
#    z -0.152270 0.000000 3.605360 
# 
# 
# High freq. dielectric constant tensor:
#      x y z
#    x 1.727730 0.000000 -0.016720 
#    y 0.000000 1.735210 0.000000 
#    z -0.016720 0.000000 1.733420 
# 
# From -- ./inp_files/64415.got.cif
#   From: 2010.06.25/outbox.cif.g09.slc.cpg/sg11_33_cif.got.tgz:64415.got - 2010.06.27 23:14:04.
