data_PCOD8071990
_publ_section_title
;
Structure prediction by ZEFSAII (Michael W. Deem and Ramdas Pophale) SiO2 
 PCOD8071990
Probable space group: P 21/M
;
_chemical_formula_sum "Si O2"
_cell_formula_units_Z 32
_cell_length_a 31.325413
_cell_length_b 8.543327
_cell_length_c 11.306645
_cell_angle_alpha 90.000000
_cell_angle_beta 147.270476
_cell_angle_gamma 90.000000
_cell_volume 1636.036446
_symmetry_space_group_name_H-M "P 21/M"
_symmetry_group_IT_number 11
_symmetry_cell_setting 'monoclinic'
loop_
_space_group_symop_operation_xyz
x,y,z
-x,1/2+y,-z
-x,-y,-z
x,1/2-y,z
loop_
_atom_site_type_symbol
_atom_site_label
_atom_site_fract_x
_atom_site_fract_y
_atom_site_fract_z
Si Si1 0.862334 0.433365 0.667872
Si Si2 0.788179 0.433482 0.142517
Si Si3 0.556643 0.066865 0.973443
Si Si4 0.067166 0.432175 0.398328
Si Si5 0.095976 0.432667 0.986985
Si Si6 0.295658 0.934807 0.820879
Si Si7 0.754820 0.932090 0.816971
Si Si8 0.604075 0.430069 0.350222
O O1 0.867193 0.250000 0.709317
O O2 0.917876 0.468684 0.685543
O O3 0.891373 0.532281 0.846012
O O4 0.773604 0.488879 0.429547
O O5 0.804125 0.250000 0.194067
O O6 0.870968 0.522375 0.354895
O O7 0.724832 0.490640 0.093964
O O8 0.752315 0.471632 0.932298
O O9 0.539146 0.250000 0.915970
O O10 0.475659 0.973325 0.764845
O O11 0.619868 0.999420 0.025702
O O12 0.592460 0.032907 0.185611
O O13 0.074143 0.250000 0.385652
O O14 0.979568 0.474124 0.239295
O O15 0.081444 0.250000 0.935327
O O16 0.171627 0.490826 0.089635
O O17 0.300581 0.750000 0.826189
O O18 0.761803 0.750000 0.862911
O O19 0.674995 0.963039 0.560012
O O20 0.625165 0.250000 0.422459
#
# Coordination Sequence:
#
# PCOD8071990 Si02
#       8
#     4   4   4   4   4   4   4   4
#     4  10  19  34  56  83 115 146 179 222 274 325
#     4  10  21  39  60  80 106 141 184 231 275 321
#     4   9  17  33  57  84 114 143 174 214 264 322
#     4  11  22  37  57  81 110 144 182 223 272 325
#     4  11  23  37  54  79 109 142 183 228 275 328
#     4   8  16  32  56  82 106 139 179 219 266 320
#     4  11  24  40  57  78 107 144 185 228 275 326
#     4  10  20  34  55  84 115 145 176 215 267 324
#
# _framework density 19.559467999999999
#
# number of rings (size 3 to 8) (size 9 to 14) (size 15 to 20)
#    0.000    2.000    0.000    4.875    0.000    4.000 
#    0.000    4.375    0.000    0.000    0.000    0.000 
#    0.000    0.000    0.000    0.000    0.000    0.000 
#
# Total GULP energy -396892.299503 kJ/mol
# GULP energy per Si atom -12402.884359 kJ/mol
# Density = 1.951495 g / cm^3
# Si number density = 19.559468 Si / 1000 Ang^3
#
#
#
# Elastic Constant Matrix: (Units=GPa)
#
#
# Indices 1 2 3 4 5 6 
#
# 1 78.7784 20.0758 58.6963 0.0000 17.6019 0.0000
# 2 20.0758 51.5783 21.1867 0.0000 4.4112 0.0000
# 3 58.6963 21.1867 89.2031 0.0000 23.4106 0.0000
# 4 0.0000 0.0000 0.0000 32.9878 0.0000 -2.2679
# 5 17.6019 4.4112 23.4106 0.0000 32.9926 0.0000
# 6 0.0000 0.0000 0.0000 -2.2679 0.0000 25.0341
#
#
#
# Elastic Compliance Matrix: (Units=1/GPa)
#
#
# Indices 1 2 3 4 5 6 
#
# 1 0.025548 -0.003422 -0.015411 0.000000 -0.002238 0.000000
# 2 -0.003422 0.021965 -0.003285 0.000000 0.001220 0.000000
# 3 -0.015411 -0.003285 0.024402 0.000000 -0.008654 0.000000
# 4 0.000000 0.000000 0.000000 0.030504 0.000000 0.002763
# 5 -0.002238 0.001220 -0.008654 0.000000 0.037481 0.000000
# 6 0.000000 0.000000 0.000000 0.002763 0.000000 0.040196
#
#
# Mechanical properties :
#
#
# Convention : Reuss Voigt Hill
#
# Bulk Modulus (GPa) = 36.12879 46.60860 41.36870
# Shear Modulus (GPa) = 21.40771 26.17629 23.79200
#
# Velocity S-wave (km/s) = 3.31190 3.66224 3.49147
# Velocity P-wave (km/s) = 5.75641 6.46247 6.11963
#
# Compressibility (1/GPa) = 0.02767875
#
# Stress axis : x y z
#
# Youngs Moduli (GPa) = 39.14143 45.52652 40.97963
#
# Poissons Ratio (x) = 0.15581 0.63153
# Poissons Ratio (y) = 0.13396 0.13463
# Poissons Ratio (z) = 0.60321 0.14956
#
# Static dielectric constant tensor:
#      x y z
#    x 3.702380 0.000000 0.280520 
#    y 0.000000 3.418440 0.000000 
#    z 0.280520 0.000000 3.562600 
# 
# 
# High freq. dielectric constant tensor:
#      x y z
#    x 1.757730 0.000000 0.013470 
#    y 0.000000 1.756570 0.000000 
#    z 0.013470 0.000000 1.759430 
# 
# From -- ./inp_files/45350.got.cif
#   From: 2010.06.25/outbox.cif.g09.slc.cpg/sg11_23_cif.got.tgz:45350.got - 2010.06.27 23:14:04.
