data_PCOD8071660
_publ_section_title
;
Structure prediction by ZEFSAII (Michael W. Deem and Ramdas Pophale) SiO2 
 PCOD8071660
Probable space group: P 21/M
;
_chemical_formula_sum "Si O2"
_cell_formula_units_Z 28
_cell_length_a 9.363806
_cell_length_b 8.832616
_cell_length_c 29.461047
_cell_angle_alpha 90.000000
_cell_angle_beta 37.809566
_cell_angle_gamma 90.000000
_cell_volume 1493.750334
_symmetry_space_group_name_H-M "P 21/M"
_symmetry_group_IT_number 11
_symmetry_cell_setting 'monoclinic'
loop_
_space_group_symop_operation_xyz
x,y,z
-x,1/2+y,-z
-x,-y,-z
x,1/2-y,z
loop_
_atom_site_type_symbol
_atom_site_label
_atom_site_fract_x
_atom_site_fract_y
_atom_site_fract_z
Si Si1 0.458444 0.580563 0.785598
Si Si2 0.495330 0.925733 0.368618
Si Si3 0.821564 0.427967 0.636176
Si Si4 0.071950 0.070393 0.934702
Si Si5 0.859399 0.416997 0.222862
Si Si6 0.751623 0.571147 0.939315
Si Si7 0.647695 0.928603 0.502922
O O1 0.505941 0.750000 0.791758
O O2 0.703063 0.506208 0.709473
O O3 0.333633 0.484128 0.856394
O O4 0.290893 0.583476 0.784804
O O5 0.479931 0.750000 0.384652
O O6 0.304140 0.974785 0.379269
O O7 0.754667 0.962687 0.284699
O O8 0.454959 0.022405 0.423361
O O9 0.800858 0.250000 0.648576
O O10 0.086273 0.485070 0.567439
O O11 0.069200 0.250000 0.938108
O O12 0.886484 0.014268 0.944895
O O13 0.000000 0.000000 0.000000
O O14 0.852742 0.250000 0.246996
O O15 0.121346 0.459021 0.141270
O O16 0.743549 0.750000 0.951969
O O17 0.500000 0.500000 0.000000
O O18 0.633750 0.750000 0.502186
O O19 0.500000 0.000000 0.500000
#
# Coordination Sequence:
#
# PCOD8071660 Si02
#       7
#     4   4   4   4   4   4   4
#     4   9  17  31  53  80 107 136 173 218 266 315
#     4  10  19  33  56  82 104 131 173 218 261 309
#     4   9  19  35  56  81 105 134 174 218 261 310
#     4  11  21  35  55  79 110 145 181 223 269 320
#     4   8  16  31  51  76 106 137 171 213 260 309
#     4  10  20  35  55  81 111 144 182 223 269 320
#     4  11  23  38  54  75 108 143 174 211 260 315
#
# _framework density 18.744765999999998
#
# number of rings (size 3 to 8) (size 9 to 14) (size 15 to 20)
#    0.000    2.286    0.000    4.286    0.000    5.714 
#    0.000    1.429    0.000    6.857    0.000    0.000 
#    0.000    0.000    0.000    0.000    0.000    0.000 
#
# Total GULP energy -347171.097633 kJ/mol
# GULP energy per Si atom -12398.967773 kJ/mol
# Density = 1.870210 g / cm^3
# Si number density = 18.744766 Si / 1000 Ang^3
#
#
#
# Elastic Constant Matrix: (Units=GPa)
#
#
# Indices 1 2 3 4 5 6 
#
# 1 64.8271 38.0757 57.8285 0.0000 -0.8727 0.0000
# 2 38.0757 106.8936 64.8894 0.0000 5.1265 0.0000
# 3 57.8285 64.8894 165.0566 0.0000 -1.4627 0.0000
# 4 0.0000 0.0000 0.0000 38.2450 0.0000 1.8259
# 5 -0.8727 5.1265 -1.4627 0.0000 24.7434 0.0000
# 6 0.0000 0.0000 0.0000 1.8259 0.0000 26.7743
#
#
#
# Elastic Compliance Matrix: (Units=1/GPa)
#
#
# Indices 1 2 3 4 5 6 
#
# 1 0.024044 -0.004632 -0.006591 0.000000 0.001418 0.000000
# 2 -0.004632 0.013382 -0.003666 0.000000 -0.003153 0.000000
# 3 -0.006591 -0.003666 0.009819 0.000000 0.001107 0.000000
# 4 0.000000 0.000000 0.000000 0.026233 0.000000 -0.001789
# 5 0.001418 -0.003153 0.001107 0.000000 0.041183 0.000000
# 6 0.000000 0.000000 0.000000 -0.001789 0.000000 0.037471
#
#
# Mechanical properties :
#
#
# Convention : Reuss Voigt Hill
#
# Bulk Modulus (GPa) = 57.24819 73.15163 65.19991
# Shear Modulus (GPa) = 26.63389 29.68479 28.15934
#
# Velocity S-wave (km/s) = 3.77353 3.98380 3.88009
# Velocity P-wave (km/s) = 7.04225 7.76342 7.41161
#
# Compressibility (1/GPa) = 0.01746780
#
# Stress axis : x y z
#
# Youngs Moduli (GPa) = 41.58992 74.72994 101.84805
#
# Poissons Ratio (x) = 0.34614 0.67123
# Poissons Ratio (y) = 0.19264 0.37336
# Poissons Ratio (z) = 0.27410 0.27395
#
# Static dielectric constant tensor:
#      x y z
#    x 3.177230 0.000000 -0.136680 
#    y 0.000000 3.619510 0.000000 
#    z -0.136680 0.000000 3.848790 
# 
# 
# High freq. dielectric constant tensor:
#      x y z
#    x 1.687870 0.000000 -0.003850 
#    y 0.000000 1.738480 0.000000 
#    z -0.003850 0.000000 1.747840 
# 
# From -- ./inp_files/70827.got.cif
#   From: 2010.06.25/outbox.cif.g09.slc.cpg/sg11_36_cif.got.tgz:70827.got - 2010.06.27 23:14:04.
