data_PCOD8071056
_publ_section_title
;
Structure prediction by ZEFSAII (Michael W. Deem and Ramdas Pophale) SiO2 
 PCOD8071056
Probable space group: P 21/M
;
_chemical_formula_sum "Si O2"
_cell_formula_units_Z 32
_cell_length_a 22.849868
_cell_length_b 8.997528
_cell_length_c 12.567354
_cell_angle_alpha 90.000000
_cell_angle_beta 44.187097
_cell_angle_gamma 90.000000
_cell_volume 1800.884231
_symmetry_space_group_name_H-M "P 21/M"
_symmetry_group_IT_number 11
_symmetry_cell_setting 'monoclinic'
loop_
_space_group_symop_operation_xyz
x,y,z
-x,1/2+y,-z
-x,-y,-z
x,1/2-y,z
loop_
_atom_site_type_symbol
_atom_site_label
_atom_site_fract_x
_atom_site_fract_y
_atom_site_fract_z
Si Si1 0.186100 0.923199 0.666138
Si Si2 0.997607 0.076023 0.116209
Si Si3 0.840383 0.426573 0.059378
Si Si4 0.327593 0.924039 0.325277
Si Si5 0.475085 0.080101 0.638839
Si Si6 0.718611 0.580307 0.055716
Si Si7 0.674488 0.079717 0.909757
Si Si8 0.515101 0.576463 0.794252
O O1 0.203022 0.750000 0.653519
O O2 0.184979 0.986027 0.788953
O O3 0.260870 0.991836 0.497193
O O4 0.097820 0.951276 0.718622
O O5 0.017694 0.250000 0.080950
O O6 0.069461 0.996840 0.093209
O O7 0.000000 0.000000 0.000000
O O8 0.848315 0.250000 0.047051
O O9 0.772559 0.478971 0.063320
O O10 0.344667 0.750000 0.321673
O O11 0.291312 0.949801 0.253678
O O12 0.414981 0.010494 0.219074
O O13 0.504206 0.250000 0.596149
O O14 0.376335 0.064171 0.783170
O O15 0.500000 0.000000 0.500000
O O16 0.526076 0.001506 0.666184
O O17 0.750010 0.750000 0.019193
O O18 0.726320 0.521927 0.924534
O O19 0.687590 0.250000 0.927698
O O20 0.575771 0.039895 0.038796
O O21 0.530057 0.750000 0.760155
#
# Coordination Sequence:
#
# PCOD8071056 Si02
#       8
#     4   4   4   4   4   4   4   4
#     4   8  17  31  49  76 104 130 160 199 252 302
#     4   9  16  30  50  73 102 134 165 201 248 301
#     4  10  19  32  52  77 104 134 166 202 248 305
#     4  10  19  33  53  76 100 132 171 211 255 301
#     4  10  21  35  50  70  99 135 168 207 254 300
#     4  10  21  35  52  74  99 130 171 211 250 298
#     4   9  19  35  53  71  98 134 173 213 254 298
#     4  10  20  33  48  72 100 133 173 211 251 295
#
# _framework density 17.769048000000002
#
# number of rings (size 3 to 8) (size 9 to 14) (size 15 to 20)
#    0.000    2.500    0.000    3.000    1.750    2.500 
#    0.000    3.125    0.000    0.750    0.000    0.000 
#    0.000    0.000    0.000    0.000    0.000    0.000 
#
# Total GULP energy -396689.148681 kJ/mol
# GULP energy per Si atom -12396.535896 kJ/mol
# Density = 1.772861 g / cm^3
# Si number density = 17.769048 Si / 1000 Ang^3
#
#
#
# Elastic Constant Matrix: (Units=GPa)
#
#
# Indices 1 2 3 4 5 6 
#
# 1 87.8348 44.6176 42.3068 0.0000 9.7401 0.0000
# 2 44.6176 87.7591 29.4270 0.0000 1.9918 0.0000
# 3 42.3068 29.4270 62.9198 0.0000 6.3034 0.0000
# 4 0.0000 0.0000 0.0000 19.8522 0.0000 -0.9440
# 5 9.7401 1.9918 6.3034 0.0000 19.2247 0.0000
# 6 0.0000 0.0000 0.0000 -0.9440 0.0000 35.5282
#
#
#
# Elastic Compliance Matrix: (Units=1/GPa)
#
#
# Indices 1 2 3 4 5 6 
#
# 1 0.020312 -0.006899 -0.009794 0.000000 -0.006365 0.000000
# 2 -0.006899 0.015866 -0.003068 0.000000 0.002857 0.000000
# 3 -0.009794 -0.003068 0.024179 0.000000 -0.002648 0.000000
# 4 0.000000 0.000000 0.000000 0.050436 0.000000 0.001340
# 5 -0.006365 0.002857 -0.002648 0.000000 0.055813 0.000000
# 6 0.000000 0.000000 0.000000 0.001340 0.000000 0.028182
#
#
# Mechanical properties :
#
#
# Convention : Reuss Voigt Hill
#
# Bulk Modulus (GPa) = 47.99338 52.35737 50.17538
# Shear Modulus (GPa) = 20.72492 23.06517 21.89504
#
# Velocity S-wave (km/s) = 3.41889 3.60676 3.51408
# Velocity P-wave (km/s) = 6.53095 6.84649 6.69058
#
# Compressibility (1/GPa) = 0.02083621
#
# Stress axis : x y z
#
# Youngs Moduli (GPa) = 49.23079 63.02762 41.35857
#
# Poissons Ratio (x) = 0.43480 0.40506
# Poissons Ratio (y) = 0.33962 0.12689
# Poissons Ratio (z) = 0.48216 0.19338
#
# Static dielectric constant tensor:
#      x y z
#    x 3.385430 0.000000 -0.142170 
#    y 0.000000 3.374190 0.000000 
#    z -0.142170 0.000000 3.399930 
# 
# 
# High freq. dielectric constant tensor:
#      x y z
#    x 1.684120 0.000000 -0.001040 
#    y 0.000000 1.687340 0.000000 
#    z -0.001040 0.000000 1.666700 
# 
# From -- ./inp_files/38190.got.cif
#   From: 2010.06.25/outbox.cif.g09.slc.cpg/sg11_20_cif.got.tgz:38190.got - 2010.06.27 23:14:04.
