data_PCOD8071378
_publ_section_title
;
Structure prediction by ZEFSAII (Michael W. Deem and Ramdas Pophale) SiO2 
 PCOD8071378
Probable space group: P 21/M
;
_chemical_formula_sum "Si O2"
_cell_formula_units_Z 32
_cell_length_a 22.882346
_cell_length_b 8.876247
_cell_length_c 18.262205
_cell_angle_alpha 90.000000
_cell_angle_beta 152.365295
_cell_angle_gamma 90.000000
_cell_volume 1720.459840
_symmetry_space_group_name_H-M "P 21/M"
_symmetry_group_IT_number 11
_symmetry_cell_setting 'monoclinic'
loop_
_space_group_symop_operation_xyz
x,y,z
-x,1/2+y,-z
-x,-y,-z
x,1/2-y,z
loop_
_atom_site_type_symbol
_atom_site_label
_atom_site_fract_x
_atom_site_fract_y
_atom_site_fract_z
Si Si1 0.918888 0.418523 0.801946
Si Si2 0.852079 0.082821 0.897612
Si Si3 0.451111 0.930122 0.782622
Si Si4 0.238168 0.573472 0.656988
Si Si5 0.327836 0.428388 0.509769
Si Si6 0.034016 0.071289 0.614740
Si Si7 0.286567 0.570294 0.875925
Si Si8 0.615769 0.924442 0.592208
O O1 0.933155 0.250000 0.785445
O O2 0.896082 0.410225 0.862913
O O3 0.812174 0.504498 0.637465
O O4 0.045658 0.514754 0.932999
O O5 0.817576 0.250000 0.886834
O O6 0.734003 0.973767 0.771626
O O7 0.459551 0.750000 0.792759
O O8 0.338932 0.993633 0.710945
O O9 0.421449 0.989484 0.668906
O O10 0.584811 0.999239 0.952493
O O11 0.257108 0.750000 0.677724
O O12 0.272392 0.515323 0.776249
O O13 0.090718 0.535376 0.473331
O O14 0.325097 0.250000 0.520018
O O15 0.375611 0.473342 0.482463
O O16 0.053587 0.250000 0.629505
O O17 0.165275 0.994428 0.787228
O O18 0.000000 0.000000 0.500000
O O19 0.289920 0.750000 0.888309
O O20 0.600389 0.750000 0.582373
O O21 0.500000 0.000000 0.500000
#
# Coordination Sequence:
#
# PCOD8071378 Si02
#       8
#     4   4   4   4   4   4   4   4
#     4   9  16  28  48  73  99 127 162 201 243 296
#     4   9  16  27  47  75 102 127 157 199 247 295
#     4  11  21  34  53  77 106 143 181 222 269 321
#     4   8  17  32  52  78 107 137 177 225 269 314
#     4  10  21  36  52  74 104 138 170 210 262 317
#     4   9  16  30  51  76 104 135 172 218 267 316
#     4  10  19  33  52  78 109 142 180 224 268 318
#     4  10  20  34  54  77 103 133 170 213 258 309
#
# _framework density 18.599678999999998
#
# number of rings (size 3 to 8) (size 9 to 14) (size 15 to 20)
#    0.000    2.500    0.000    3.750    0.000    4.500 
#    0.000    6.875    2.750    0.000    0.000    0.000 
#    0.000    0.000    0.000    0.000    0.000    0.000 
#
# Total GULP energy -396565.750703 kJ/mol
# GULP energy per Si atom -12392.679709 kJ/mol
# Density = 1.855735 g / cm^3
# Si number density = 18.599679 Si / 1000 Ang^3
#
#
#
# Elastic Constant Matrix: (Units=GPa)
#
#
# Indices 1 2 3 4 5 6 
#
# 1 50.0727 42.5580 66.2541 0.0000 18.1383 0.0000
# 2 42.5580 74.8147 55.9519 0.0000 0.5436 0.0000
# 3 66.2541 55.9519 156.8071 0.0000 21.2331 0.0000
# 4 0.0000 0.0000 0.0000 39.2608 0.0000 4.1442
# 5 18.1383 0.5436 21.2331 0.0000 21.7268 0.0000
# 6 0.0000 0.0000 0.0000 4.1442 0.0000 20.0097
#
#
#
# Elastic Compliance Matrix: (Units=1/GPa)
#
#
# Indices 1 2 3 4 5 6 
#
# 1 0.123944 -0.053010 -0.022615 0.000000 -0.080045 0.000000
# 2 -0.053010 0.041820 0.001873 0.000000 0.041378 0.000000
# 3 -0.022615 0.001873 0.014653 0.000000 0.004513 0.000000
# 4 0.000000 0.000000 0.000000 0.026040 0.000000 -0.005393
# 5 -0.080045 0.041378 0.004513 0.000000 0.107405 0.000000
# 6 0.000000 0.000000 0.000000 -0.005393 0.000000 0.051093
#
#
# Mechanical properties :
#
#
# Convention : Reuss Voigt Hill
#
# Bulk Modulus (GPa) = 30.38372 67.91361 49.14866
# Shear Modulus (GPa) = 9.55237 23.99483 16.77360
#
# Velocity S-wave (km/s) = 2.26868 3.59565 3.00629
# Velocity P-wave (km/s) = 4.82013 7.33695 6.20743
#
# Compressibility (1/GPa) = 0.03291237
#
# Stress axis : x y z
#
# Youngs Moduli (GPa) = 8.06815 23.91217 68.24463
#
# Poissons Ratio (x) = 1.26759 1.54334
# Poissons Ratio (y) = 0.42770 -0.12781
# Poissons Ratio (z) = 0.18246 -0.04478
#
# Static dielectric constant tensor:
#      x y z
#    x 3.288480 0.000000 0.258870 
#    y 0.000000 3.544090 0.000000 
#    z 0.258870 0.000000 3.550620 
# 
# 
# High freq. dielectric constant tensor:
#      x y z
#    x 1.678900 0.000000 0.020190 
#    y 0.000000 1.729860 0.000000 
#    z 0.020190 0.000000 1.732280 
# 
# From -- ./inp_files/67176.got.cif
#   From: 2010.06.25/outbox.cif.g09.slc.cpg/sg11_34_cif.got.tgz:67176.got - 2010.06.27 23:14:04.
