data_PCOD8071190
_publ_section_title
;
Structure prediction by ZEFSAII (Michael W. Deem and Ramdas Pophale) SiO2 
 PCOD8071190
Probable space group: P 21/M
;
_chemical_formula_sum "Si O2"
_cell_formula_units_Z 32
_cell_length_a 11.628147
_cell_length_b 8.883386
_cell_length_c 23.829474
_cell_angle_alpha 90.000000
_cell_angle_beta 135.774722
_cell_angle_gamma 90.000000
_cell_volume 1716.864760
_symmetry_space_group_name_H-M "P 21/M"
_symmetry_group_IT_number 11
_symmetry_cell_setting 'monoclinic'
loop_
_space_group_symop_operation_xyz
x,y,z
-x,1/2+y,-z
-x,-y,-z
x,1/2-y,z
loop_
_atom_site_type_symbol
_atom_site_label
_atom_site_fract_x
_atom_site_fract_y
_atom_site_fract_z
Si Si1 0.417714 0.575128 0.726839
Si Si2 0.163769 0.425391 0.813814
Si Si3 0.357245 0.425669 0.985542
Si Si4 0.799846 0.429584 0.666036
Si Si5 0.057324 0.922466 0.576020
Si Si6 0.265786 0.424762 0.471071
Si Si7 0.512655 0.571968 0.136756
Si Si8 0.531451 0.925948 0.642659
O O1 0.417818 0.750000 0.743380
O O2 0.231261 0.510731 0.657430
O O3 0.509317 0.482231 0.807298
O O4 0.512727 0.546088 0.702225
O O5 0.158206 0.250000 0.799198
O O6 0.313691 0.491327 0.828328
O O7 0.986712 0.494223 0.734847
O O8 0.192166 0.454038 0.890722
O O9 0.391367 0.250000 0.005212
O O10 0.358433 0.504544 0.047022
O O11 0.500000 0.500000 0.000000
O O12 0.793872 0.250000 0.664614
O O13 0.708609 0.491128 0.578799
O O14 0.701019 0.494244 0.684472
O O15 0.084122 0.750000 0.569203
O O16 0.924611 0.945124 0.578531
O O17 0.000000 0.000000 0.500000
O O18 0.314727 0.250000 0.481999
O O19 0.377701 0.499758 0.557360
O O20 0.502660 0.750000 0.129720
O O21 0.535988 0.750000 0.629564
#
# Coordination Sequence:
#
# PCOD8071190 Si02
#       8
#     4   4   4   4   4   4   4   4
#     4  10  21  36  53  75 105 140 174 213 263 313
#     4   8  17  33  53  79 108 138 168 206 258 310
#     4   9  16  30  52  79 111 141 170 205 256 313
#     4  11  22  37  56  76 102 136 178 221 262 307
#     4  10  20  34  53  77 104 135 171 212 261 315
#     4  11  22  36  55  79 104 133 176 220 264 314
#     4  10  19  32  53  83 112 138 171 208 257 315
#     4  11  23  39  55  72 101 139 180 222 266 310
#
# _framework density 18.638625999999999
#
# number of rings (size 3 to 8) (size 9 to 14) (size 15 to 20)
#    0.000    2.000    1.250    3.750    0.000    2.000 
#    0.000    6.875    0.000    0.750    0.000    0.000 
#    0.000    0.000    0.000    0.000    0.000    0.000 
#
# Total GULP energy -396752.418490 kJ/mol
# GULP energy per Si atom -12398.513078 kJ/mol
# Density = 1.859620 g / cm^3
# Si number density = 18.638626 Si / 1000 Ang^3
#
#
#
# Elastic Constant Matrix: (Units=GPa)
#
#
# Indices 1 2 3 4 5 6 
#
# 1 61.9057 29.7044 26.2629 0.0000 -12.8174 0.0000
# 2 29.7044 89.3921 44.1420 0.0000 -12.8676 0.0000
# 3 26.2629 44.1420 107.5591 0.0000 -23.0319 0.0000
# 4 0.0000 0.0000 0.0000 31.5237 0.0000 -5.6744
# 5 -12.8174 -12.8676 -23.0319 0.0000 23.6968 0.0000
# 6 0.0000 0.0000 0.0000 -5.6744 0.0000 25.4892
#
#
#
# Elastic Compliance Matrix: (Units=1/GPa)
#
#
# Indices 1 2 3 4 5 6 
#
# 1 0.020686 -0.005158 -0.001437 0.000000 0.006991 0.000000
# 2 -0.005158 0.015439 -0.004899 0.000000 0.000833 0.000000
# 3 -0.001437 -0.004899 0.013793 0.000000 0.009969 0.000000
# 4 0.000000 0.000000 0.000000 0.033046 0.000000 0.007357
# 5 0.006991 0.000833 0.009969 0.000000 0.056123 0.000000
# 6 0.000000 0.000000 0.000000 0.007357 0.000000 0.040870
#
#
# Mechanical properties :
#
#
# Convention : Reuss Voigt Hill
#
# Bulk Modulus (GPa) = 37.13143 51.00841 44.06992
# Shear Modulus (GPa) = 23.59369 26.72511 25.15940
#
# Velocity S-wave (km/s) = 3.56174 3.79074 3.67802
# Velocity P-wave (km/s) = 6.07286 6.82540 6.46010
#
# Compressibility (1/GPa) = 0.02693136
#
# Stress axis : x y z
#
# Youngs Moduli (GPa) = 48.34279 64.76957 72.49990
#
# Poissons Ratio (x) = 0.33406 0.10419
# Poissons Ratio (y) = 0.24934 0.35515
# Poissons Ratio (z) = 0.06947 0.31728
#
# Static dielectric constant tensor:
#      x y z
#    x 3.420530 0.000000 0.065040 
#    y 0.000000 3.420000 0.000000 
#    z 0.065040 0.000000 3.748750 
# 
# 
# High freq. dielectric constant tensor:
#      x y z
#    x 1.700150 0.000000 -0.009910 
#    y 0.000000 1.722330 0.000000 
#    z -0.009910 0.000000 1.728050 
# 
# From -- ./inp_files/64408.got.cif
#   From: 2010.06.25/outbox.cif.g09.slc.cpg/sg11_33_cif.got.tgz:64408.got - 2010.06.27 23:14:04.
