data_PCOD8071273
_publ_section_title
;
Structure prediction by ZEFSAII (Michael W. Deem and Ramdas Pophale) SiO2 
 PCOD8071273
Probable space group: P 21/M
;
_chemical_formula_sum "Si O2"
_cell_formula_units_Z 28
_cell_length_a 29.773170
_cell_length_b 8.772643
_cell_length_c 10.131076
_cell_angle_alpha 90.000000
_cell_angle_beta 33.502638
_cell_angle_gamma 90.000000
_cell_volume 1460.598373
_symmetry_space_group_name_H-M "P 21/M"
_symmetry_group_IT_number 11
_symmetry_cell_setting 'monoclinic'
loop_
_space_group_symop_operation_xyz
x,y,z
-x,1/2+y,-z
-x,-y,-z
x,1/2-y,z
loop_
_atom_site_type_symbol
_atom_site_label
_atom_site_fract_x
_atom_site_fract_y
_atom_site_fract_z
Si Si1 0.168716 0.571925 0.834689
Si Si2 0.582437 0.575073 0.158184
Si Si3 0.756489 0.573012 0.096702
Si Si4 0.737948 0.573939 0.621982
Si Si5 0.993865 0.929001 0.871226
Si Si6 0.153146 0.426584 0.394648
Si Si7 0.399646 0.925107 0.610520
O O1 0.150802 0.750000 0.871634
O O2 0.197127 0.527357 0.910272
O O3 0.239146 0.529310 0.558304
O O4 0.086758 0.482354 0.004363
O O5 0.593433 0.750000 0.179849
O O6 0.604007 0.466411 0.226512
O O7 0.490773 0.545536 0.332242
O O8 0.643837 0.540709 0.887775
O O9 0.764240 0.750000 0.114542
O O10 0.661523 0.527796 0.324910
O O11 0.795478 0.533580 0.860357
O O12 0.751464 0.750000 0.551061
O O13 0.793675 0.527947 0.609219
O O14 0.990498 0.750000 0.896562
O O15 0.070931 0.975695 0.594056
O O16 0.000000 0.000000 0.000000
O O17 0.128952 0.250000 0.457643
O O18 0.373876 0.750000 0.657752
#
# Coordination Sequence:
#
# PCOD8071273 Si02
#       7
#     4   4   4   4   4   4   4
#     4  12  26  42  61  88 121 156 197 245 297 354
#     4   9  18  34  57  87 120 157 199 244 292 346
#     4  11  23  42  63  86 121 162 198 239 299 357
#     4  10  19  37  62  88 118 156 200 243 291 350
#     4  12  24  40  63  90 120 155 196 243 295 347
#     4  10  21  38  64  90 117 154 199 245 290 347
#     4  10  19  32  56  89 123 155 195 246 295 346
#
# _framework density 19.170226
#
# number of rings (size 3 to 8) (size 9 to 14) (size 15 to 20)
#    0.000    1.429    2.857    3.429    0.000    2.857 
#    0.000    0.714    0.000    0.000    0.000    0.000 
#    0.000    0.000    0.000    0.000    0.000    0.000 
#
# Total GULP energy -347339.751420 kJ/mol
# GULP energy per Si atom -12404.991122 kJ/mol
# Density = 1.912659 g / cm^3
# Si number density = 19.170226 Si / 1000 Ang^3
#
#
#
# Elastic Constant Matrix: (Units=GPa)
#
#
# Indices 1 2 3 4 5 6 
#
# 1 82.0686 31.5998 29.5608 0.0000 -9.6267 0.0000
# 2 31.5998 96.4456 44.2961 0.0000 -4.7978 0.0000
# 3 29.5608 44.2961 96.3486 0.0000 -19.7410 0.0000
# 4 0.0000 0.0000 0.0000 31.4742 0.0000 -1.9279
# 5 -9.6267 -4.7978 -19.7410 0.0000 32.0679 0.0000
# 6 0.0000 0.0000 0.0000 -1.9279 0.0000 33.6003
#
#
#
# Elastic Compliance Matrix: (Units=1/GPa)
#
#
# Indices 1 2 3 4 5 6 
#
# 1 0.014710 -0.003619 -0.002352 0.000000 0.002426 0.000000
# 2 -0.003619 0.014148 -0.005931 0.000000 -0.002621 0.000000
# 3 -0.002352 -0.005931 0.015450 0.000000 0.007917 0.000000
# 4 0.000000 0.000000 0.000000 0.031884 0.000000 0.001829
# 5 0.002426 -0.002621 0.007917 0.000000 0.036394 0.000000
# 6 0.000000 0.000000 0.000000 0.001829 0.000000 0.029867
#
#
# Mechanical properties :
#
#
# Convention : Reuss Voigt Hill
#
# Bulk Modulus (GPa) = 48.77252 53.97515 51.37384
# Shear Modulus (GPa) = 28.88644 30.72221 29.80432
#
# Velocity S-wave (km/s) = 3.88601 4.00759 3.94727
# Velocity P-wave (km/s) = 6.75513 7.04494 6.90156
#
# Compressibility (1/GPa) = 0.02050335
#
# Stress axis : x y z
#
# Youngs Moduli (GPa) = 67.98012 70.68189 64.72574
#
# Poissons Ratio (x) = 0.25577 0.15227
# Poissons Ratio (y) = 0.24599 0.38390
# Poissons Ratio (z) = 0.15992 0.41923
#
# Static dielectric constant tensor:
#      x y z
#    x 3.505160 0.000000 -0.290780 
#    y 0.000000 4.196680 0.000000 
#    z -0.290780 0.000000 3.780710 
# 
# 
# High freq. dielectric constant tensor:
#      x y z
#    x 1.732720 0.000000 -0.015860 
#    y 0.000000 1.749790 0.000000 
#    z -0.015860 0.000000 1.753860 
# 
# From -- ./inp_files/28401.got.cif
#   From: 2010.06.25/outbox.cif.g09.slc.cpg/sg11_15_cif.got.tgz:28401.got - 2010.06.27 23:14:04.
