data_PCOD8071250
_publ_section_title
;
Structure prediction by ZEFSAII (Michael W. Deem and Ramdas Pophale) SiO2 
 PCOD8071250
Probable space group: P 21/M
;
_chemical_formula_sum "Si O2"
_cell_formula_units_Z 32
_cell_length_a 19.767481
_cell_length_b 8.889514
_cell_length_c 12.133427
_cell_angle_alpha 90.000000
_cell_angle_beta 54.540552
_cell_angle_gamma 90.000000
_cell_volume 1736.672591
_symmetry_space_group_name_H-M "P 21/M"
_symmetry_group_IT_number 11
_symmetry_cell_setting 'monoclinic'
loop_
_space_group_symop_operation_xyz
x,y,z
-x,1/2+y,-z
-x,-y,-z
x,1/2-y,z
loop_
_atom_site_type_symbol
_atom_site_label
_atom_site_fract_x
_atom_site_fract_y
_atom_site_fract_z
Si Si1 0.492170 0.575327 0.181826
Si Si2 0.463351 0.927113 0.643107
Si Si3 0.375796 0.924636 0.095418
Si Si4 0.879348 0.577638 0.091502
Si Si5 0.992179 0.923473 0.182691
Si Si6 0.708990 0.577806 0.155880
Si Si7 0.224895 0.424528 0.148854
Si Si8 0.035659 0.426927 0.357717
O O1 0.504122 0.750000 0.197516
O O2 0.482796 0.485575 0.304306
O O3 0.410782 0.544808 0.184854
O O4 0.574193 0.521350 0.041031
O O5 0.472723 0.750000 0.626165
O O6 0.500000 0.000000 0.500000
O O7 0.367004 0.968826 0.747328
O O8 0.384461 0.750000 0.055964
O O9 0.280727 0.978827 0.180993
O O10 0.898706 0.750000 0.038060
O O11 0.780786 0.547210 0.178598
O O12 0.910028 0.546157 0.186778
O O13 0.926427 0.470916 0.961809
O O14 0.001071 0.750000 0.206019
O O15 0.982469 0.017632 0.303477
O O16 0.677750 0.750000 0.190774
O O17 0.747650 0.540139 0.001047
O O18 0.234873 0.250000 0.168984
O O19 0.130733 0.478243 0.252726
O O20 0.027119 0.250000 0.374906
O O21 0.000000 0.500000 0.500000
#
# Coordination Sequence:
#
# PCOD8071250 Si02
#       8
#     4   4   4   4   4   4   4   4
#     4  10  20  36  56  82 116 150 184 228 281 334
#     4  12  25  40  59  84 114 150 189 231 281 338
#     4  10  20  33  56  87 115 144 186 235 279 326
#     4   9  18  34  56  83 115 148 186 231 280 330
#     4  10  19  32  55  85 114 148 188 231 279 332
#     4  10  19  36  59  84 114 149 188 233 279 329
#     4  10  20  35  58  83 114 150 188 232 281 333
#     4  11  23  40  58  81 114 153 191 231 282 339
#
# _framework density 18.426041000000001
#
# number of rings (size 3 to 8) (size 9 to 14) (size 15 to 20)
#    0.000    1.750    2.500    2.625    0.000    3.500 
#    0.000    1.250    0.000    1.500    0.000    0.000 
#    0.000    0.000    0.000    0.000    0.000    0.000 
#
# Total GULP energy -396904.612397 kJ/mol
# GULP energy per Si atom -12403.269137 kJ/mol
# Density = 1.838410 g / cm^3
# Si number density = 18.426041 Si / 1000 Ang^3
#
#
#
# Elastic Constant Matrix: (Units=GPa)
#
#
# Indices 1 2 3 4 5 6 
#
# 1 132.6242 58.1323 55.4038 0.0000 13.0445 0.0000
# 2 58.1323 107.9560 57.4434 0.0000 9.6285 0.0000
# 3 55.4038 57.4434 106.5855 0.0000 13.4301 0.0000
# 4 0.0000 0.0000 0.0000 31.7911 0.0000 2.3966
# 5 13.0445 9.6285 13.4301 0.0000 25.6159 0.0000
# 6 0.0000 0.0000 0.0000 2.3966 0.0000 33.0160
#
#
#
# Elastic Compliance Matrix: (Units=1/GPa)
#
#
# Indices 1 2 3 4 5 6 
#
# 1 0.010832 -0.003904 -0.003230 0.000000 -0.002355 0.000000
# 2 -0.003904 0.014435 -0.005693 0.000000 -0.000453 0.000000
# 3 -0.003230 -0.005693 0.014618 0.000000 -0.003879 0.000000
# 4 0.000000 0.000000 0.000000 0.031628 0.000000 -0.002296
# 5 -0.002355 -0.000453 -0.003879 0.000000 0.042442 0.000000
# 6 0.000000 0.000000 0.000000 -0.002296 0.000000 0.030455
#
#
# Mechanical properties :
#
#
# Convention : Reuss Voigt Hill
#
# Bulk Modulus (GPa) = 70.26863 76.56940 73.41901
# Shear Modulus (GPa) = 28.60263 29.83034 29.21649
#
# Velocity S-wave (km/s) = 3.94419 4.02795 3.98629
# Velocity P-wave (km/s) = 7.67857 7.95473 7.81787
#
# Compressibility (1/GPa) = 0.01423110
#
# Stress axis : x y z
#
# Youngs Moduli (GPa) = 92.31590 69.27506 68.40864
#
# Poissons Ratio (x) = 0.27048 0.22094
# Poissons Ratio (y) = 0.36044 0.38946
# Poissons Ratio (z) = 0.29815 0.39439
#
# Static dielectric constant tensor:
#      x y z
#    x 3.811670 0.000000 0.052370 
#    y 0.000000 3.461270 0.000000 
#    z 0.052370 0.000000 3.190130 
# 
# 
# High freq. dielectric constant tensor:
#      x y z
#    x 1.731770 0.000000 0.009650 
#    y 0.000000 1.722540 0.000000 
#    z 0.009650 0.000000 1.682040 
# 
# From -- ./inp_files/42746.got.cif
#   From: 2010.06.25/outbox.cif.g09.slc.cpg/sg11_22_cif.got.tgz:42746.got - 2010.06.27 23:14:04.
