data_PCOD8071082
_publ_section_title
;
Structure prediction by ZEFSAII (Michael W. Deem and Ramdas Pophale) SiO2 
 PCOD8071082
Probable space group: P 21/M
;
_chemical_formula_sum "Si O2"
_cell_formula_units_Z 32
_cell_length_a 8.565514
_cell_length_b 12.795081
_cell_length_c 23.832490
_cell_angle_alpha 90.000000
_cell_angle_beta 142.040425
_cell_angle_gamma 90.000000
_cell_volume 1606.628205
_symmetry_space_group_name_H-M "P 21/M"
_symmetry_group_IT_number 11
_symmetry_cell_setting 'monoclinic'
loop_
_space_group_symop_operation_xyz
x,y,z
-x,1/2+y,-z
-x,-y,-z
x,1/2-y,z
loop_
_atom_site_type_symbol
_atom_site_label
_atom_site_fract_x
_atom_site_fract_y
_atom_site_fract_z
Si Si1 0.297192 0.043883 0.690463
Si Si2 0.689129 0.373961 0.098453
Si Si3 0.143137 0.371129 0.533864
Si Si4 0.738641 0.125724 0.888135
Si Si5 0.769984 0.543714 0.559751
Si Si6 0.138802 0.368470 0.298734
Si Si7 0.592062 0.126007 0.352853
Si Si8 0.199002 0.507490 0.979047
O O1 0.319823 0.100920 0.636523
O O2 0.460365 0.104389 0.783117
O O3 0.412550 0.927205 0.710760
O O4 0.999875 0.041323 0.624446
O O5 0.654976 0.250000 0.085040
O O6 0.418953 0.423592 0.033467
O O7 0.870655 0.412520 0.200644
O O8 0.819738 0.415308 0.078816
O O9 0.096657 0.250000 0.521579
O O10 0.268981 0.398907 0.510062
O O11 0.854377 0.418124 0.455874
O O12 0.794086 0.250000 0.903170
O O13 0.747436 0.082716 0.953468
O O14 0.944383 0.061217 0.910719
O O15 0.500000 0.500000 0.500000
O O16 0.845296 0.624119 0.630132
O O17 0.151363 0.250000 0.283161
O O18 0.375321 0.419988 0.332349
O O19 0.584756 0.250000 0.341807
#
# Coordination Sequence:
#
# PCOD8071082 Si02
#       8
#     4   4   4   4   4   4   4   4
#     4  11  21  36  56  79 109 149 192 233 279 335
#     4  10  20  37  61  87 115 146 184 233 291 351
#     4  10  20  35  53  75 107 149 188 222 267 325
#     4  11  23  40  60  84 115 150 194 244 289 343
#     4  11  21  34  53  79 112 144 182 230 278 326
#     4  10  19  32  52  79 107 136 174 223 274 326
#     4   9  18  33  54  79 108 144 186 228 274 329
#     4  10  22  39  60  85 114 150 189 235 295 354
#
# _framework density 19.917489
#
# number of rings (size 3 to 8) (size 9 to 14) (size 15 to 20)
#    0.000    1.750    0.000    6.000    0.000    0.500 
#    0.000    5.000    0.000    0.000    0.000    0.000 
#    0.000    0.000    0.000    0.000    0.000    0.000 
#
# Total GULP energy -396641.236876 kJ/mol
# GULP energy per Si atom -12395.038652 kJ/mol
# Density = 1.987216 g / cm^3
# Si number density = 19.917489 Si / 1000 Ang^3
#
#
#
# Elastic Constant Matrix: (Units=GPa)
#
#
# Indices 1 2 3 4 5 6 
#
# 1 94.7851 17.3435 34.1251 0.0000 10.1248 0.0000
# 2 17.3435 62.5834 26.7981 0.0000 1.7729 0.0000
# 3 34.1251 26.7981 99.3142 0.0000 -1.4544 0.0000
# 4 0.0000 0.0000 0.0000 28.0103 0.0000 -1.6659
# 5 10.1248 1.7729 -1.4544 0.0000 23.3954 0.0000
# 6 0.0000 0.0000 0.0000 -1.6659 0.0000 26.0608
#
#
#
# Elastic Compliance Matrix: (Units=1/GPa)
#
#
# Indices 1 2 3 4 5 6 
#
# 1 0.012936 -0.001677 -0.004076 0.000000 -0.005725 0.000000
# 2 -0.001677 0.018349 -0.004389 0.000000 -0.000937 0.000000
# 3 -0.004076 -0.004389 0.012696 0.000000 0.002886 0.000000
# 4 0.000000 0.000000 0.000000 0.035837 0.000000 0.002291
# 5 -0.005725 -0.000937 0.002886 0.000000 0.045471 0.000000
# 6 0.000000 0.000000 0.000000 0.002291 0.000000 0.038518
#
#
# Mechanical properties :
#
#
# Convention : Reuss Voigt Hill
#
# Bulk Modulus (GPa) = 42.19898 45.91288 44.05593
# Shear Modulus (GPa) = 26.04280 27.38772 26.71526
#
# Velocity S-wave (km/s) = 3.61991 3.71220 3.66634
# Velocity P-wave (km/s) = 6.22130 6.44015 6.33167
#
# Compressibility (1/GPa) = 0.02369726
#
# Stress axis : x y z
#
# Youngs Moduli (GPa) = 77.30289 54.49814 78.76439
#
# Poissons Ratio (x) = 0.09141 0.32106
# Poissons Ratio (y) = 0.12966 0.34566
# Poissons Ratio (z) = 0.31510 0.23917
#
# Static dielectric constant tensor:
#      x y z
#    x 3.768370 0.000000 0.037650 
#    y 0.000000 3.631520 0.000000 
#    z 0.037650 0.000000 3.734820 
# 
# 
# High freq. dielectric constant tensor:
#      x y z
#    x 1.783010 0.000000 0.001800 
#    y 0.000000 1.774220 0.000000 
#    z 0.001800 0.000000 1.779400 
# 
# From -- ./inp_files/68147.got.cif
#   From: 2010.06.25/outbox.cif.g09.slc.cpg/sg11_35_cif.got.tgz:68147.got - 2010.06.27 23:14:04.
