data_PCOD8071363
_publ_section_title
;
Structure prediction by ZEFSAII (Michael W. Deem and Ramdas Pophale) SiO2 
 PCOD8071363
Probable space group: P 21/M
;
_chemical_formula_sum "Si O2"
_cell_formula_units_Z 28
_cell_length_a 31.293313
_cell_length_b 8.709651
_cell_length_c 19.024596
_cell_angle_alpha 90.000000
_cell_angle_beta 17.820918
_cell_angle_gamma 90.000000
_cell_volume 1586.901762
_symmetry_space_group_name_H-M "P 21/M"
_symmetry_group_IT_number 11
_symmetry_cell_setting 'monoclinic'
loop_
_space_group_symop_operation_xyz
x,y,z
-x,1/2+y,-z
-x,-y,-z
x,1/2-y,z
loop_
_atom_site_type_symbol
_atom_site_label
_atom_site_fract_x
_atom_site_fract_y
_atom_site_fract_z
Si Si1 0.211356 0.428304 0.663981
Si Si2 0.981121 0.928361 0.641790
Si Si3 0.095454 0.929017 0.097240
Si Si4 0.604881 0.568414 0.391622
Si Si5 0.981706 0.426798 0.140349
Si Si6 0.789946 0.070733 0.828920
Si Si7 0.476169 0.431569 0.328914
O O1 0.209455 0.250000 0.645999
O O2 0.365605 0.488904 0.443436
O O3 0.159974 0.524967 0.677596
O O4 0.113627 0.458678 0.884119
O O5 0.969016 0.750000 0.679731
O O6 0.122903 0.965769 0.377548
O O7 0.847862 0.975466 0.803935
O O8 0.987763 0.027351 0.701992
O O9 0.129710 0.750000 0.042698
O O10 0.238166 0.023328 0.872447
O O11 0.997559 0.971823 0.185060
O O12 0.500000 0.500000 0.500000
O O13 0.591711 0.750000 0.410576
O O14 0.562994 0.500810 0.533430
O O15 0.971982 0.250000 0.177658
O O16 0.798590 0.250000 0.835261
O O17 0.631217 0.017237 0.063687
O O18 0.462704 0.250000 0.354552
#
# Coordination Sequence:
#
# PCOD8071363 Si02
#       7
#     4   4   4   4   4   4   4
#     4   9  17  32  52  75 103 136 167 205 257 318
#     4  10  20  34  53  77 105 137 176 222 263 305
#     4  12  23  35  52  74 103 142 181 218 259 308
#     4  11  21  34  50  76 110 142 171 208 258 315
#     4  10  19  33  52  76 104 134 169 215 260 311
#     4   9  18  34  56  79 103 136 176 215 259 314
#     4   9  17  32  53  75 103 135 168 206 255 312
#
# _framework density 17.644442999999999
#
# number of rings (size 3 to 8) (size 9 to 14) (size 15 to 20)
#    0.000    2.000    1.429    3.429    0.000    2.286 
#    0.000    1.429    0.000    0.857    0.000    0.000 
#    0.000    0.000    0.000    0.000    0.000    0.000 
#
# Total GULP energy -347271.158457 kJ/mol
# GULP energy per Si atom -12402.541373 kJ/mol
# Density = 1.760428 g / cm^3
# Si number density = 17.644443 Si / 1000 Ang^3
#
#
#
# Elastic Constant Matrix: (Units=GPa)
#
#
# Indices 1 2 3 4 5 6 
#
# 1 118.7785 32.8632 58.7739 0.0000 -14.3636 0.0000
# 2 32.8632 56.5540 21.9260 0.0000 -0.7935 0.0000
# 3 58.7739 21.9260 95.8014 0.0000 -13.8072 0.0000
# 4 0.0000 0.0000 0.0000 20.2892 0.0000 -1.8315
# 5 -14.3636 -0.7935 -13.8072 0.0000 27.6454 0.0000
# 6 0.0000 0.0000 0.0000 -1.8315 0.0000 31.8752
#
#
#
# Elastic Compliance Matrix: (Units=1/GPa)
#
#
# Indices 1 2 3 4 5 6 
#
# 1 0.013586 -0.005283 -0.006606 0.000000 0.003608 0.000000
# 2 -0.005283 0.021541 -0.002150 0.000000 -0.003200 0.000000
# 3 -0.006606 -0.002150 0.015602 0.000000 0.004299 0.000000
# 4 0.000000 0.000000 0.000000 0.049544 0.000000 0.002847
# 5 0.003608 -0.003200 0.004299 0.000000 0.040102 0.000000
# 6 0.000000 0.000000 0.000000 0.002847 0.000000 0.031536
#
#
# Mechanical properties :
#
#
# Convention : Reuss Voigt Hill
#
# Bulk Modulus (GPa) = 44.14756 55.36224 49.75490
# Shear Modulus (GPa) = 24.09184 26.46667 25.27925
#
# Velocity S-wave (km/s) = 3.69915 3.87719 3.78921
# Velocity P-wave (km/s) = 6.58179 7.17552 6.88506
#
# Compressibility (1/GPa) = 0.02265131
#
# Stress axis : x y z
#
# Youngs Moduli (GPa) = 73.60744 46.42353 64.09232
#
# Poissons Ratio (x) = 0.24525 0.42337
# Poissons Ratio (y) = 0.38886 0.13781
# Poissons Ratio (z) = 0.48623 0.09982
#
# Static dielectric constant tensor:
#      x y z
#    x 3.546690 0.000000 -0.312960 
#    y 0.000000 3.202470 0.000000 
#    z -0.312960 0.000000 3.549440 
# 
# 
# High freq. dielectric constant tensor:
#      x y z
#    x 1.683450 0.000000 -0.008420 
#    y 0.000000 1.677370 0.000000 
#    z -0.008420 0.000000 1.666830 
# 
# From -- ./inp_files/62279.got.cif
#   From: 2010.06.25/outbox.cif.g09.slc.cpg/sg11_32_cif.got.tgz:62279.got - 2010.06.27 23:14:04.
