data_PCOD8071563
_publ_section_title
;
Structure prediction by ZEFSAII (Michael W. Deem and Ramdas Pophale) SiO2 
 PCOD8071563
Probable space group: P 21/M
;
_chemical_formula_sum "Si O2"
_cell_formula_units_Z 28
_cell_length_a 8.143439
_cell_length_b 22.001784
_cell_length_c 11.673628
_cell_angle_alpha 90.000000
_cell_angle_beta 36.889312
_cell_angle_gamma 90.000000
_cell_volume 1255.506560
_symmetry_space_group_name_H-M "P 21/M"
_symmetry_group_IT_number 11
_symmetry_cell_setting 'monoclinic'
loop_
_space_group_symop_operation_xyz
x,y,z
-x,1/2+y,-z
-x,-y,-z
x,1/2-y,z
loop_
_atom_site_type_symbol
_atom_site_label
_atom_site_fract_x
_atom_site_fract_y
_atom_site_fract_z
Si Si1 0.542643 0.859693 0.191682
Si Si2 0.611149 0.181860 0.475115
Si Si3 0.336648 0.437512 0.560838
Si Si4 0.814623 0.453791 0.722800
Si Si5 0.469734 0.426086 0.142141
Si Si6 0.990873 0.430957 0.973989
Si Si7 0.758331 0.684734 0.847842
O O1 0.485215 0.822865 0.338895
O O2 0.295965 0.907724 0.311988
O O3 0.841737 0.892796 0.025648
O O4 0.560704 0.817776 0.069559
O O5 0.513353 0.250000 0.487588
O O6 0.516013 0.124409 0.449531
O O7 0.933211 0.178030 0.284665
O O8 0.500000 0.500000 0.500000
O O9 0.143614 0.446582 0.556835
O O10 0.138354 0.419498 0.773159
O O11 0.755233 0.521709 0.709687
O O12 0.654912 0.444178 0.930578
O O13 0.309827 0.364215 0.210239
O O14 0.667289 0.415060 0.142548
O O15 0.000000 0.500000 0.000000
O O16 0.707303 0.750000 0.818082
#
# Coordination Sequence:
#
# PCOD8071563 Si02
#       7
#     4   4   4   4   4   4   4
#     4  10  20  37  59  84 111 146 192 227 282 346
#     4  10  22  40  57  82 118 151 189 236 284 340
#     4  10  21  35  55  84 115 149 190 237 286 338
#     4   9  17  32  55  82 110 143 181 229 290 322
#     4   9  17  32  55  81 113 142 180 235 278 337
#     4  10  19  33  54  86 113 145 179 237 295 330
#     4  10  21  38  60  80 108 155 190 227 282 336
#
# _framework density 22.301756999999998
#
# number of rings (size 3 to 8) (size 9 to 14) (size 15 to 20)
#    0.000    2.286    1.429    1.286    4.000    0.000 
#    2.571   15.000    0.000    3.429    0.000    0.000 
#    0.000    0.000    0.000    0.000    0.000    0.000 
#
# Total GULP energy -346967.558658 kJ/mol
# GULP energy per Si atom -12391.698524 kJ/mol
# Density = 2.225100 g / cm^3
# Si number density = 22.301757 Si / 1000 Ang^3
#
#
#
# Elastic Constant Matrix: (Units=GPa)
#
#
# Indices 1 2 3 4 5 6 
#
# 1 92.5092 55.7763 18.7862 0.0000 -39.2482 0.0000
# 2 55.7763 187.2549 41.9313 0.0000 -37.8881 0.0000
# 3 18.7862 41.9313 44.9801 0.0000 -26.1842 0.0000
# 4 0.0000 0.0000 0.0000 26.9001 0.0000 -4.2926
# 5 -39.2482 -37.8881 -26.1842 0.0000 40.8758 0.0000
# 6 0.0000 0.0000 0.0000 -4.2926 0.0000 30.1987
#
#
#
# Elastic Compliance Matrix: (Units=1/GPa)
#
#
# Indices 1 2 3 4 5 6 
#
# 1 0.020194 -0.003346 0.006645 0.000000 0.020545 0.000000
# 2 -0.003346 0.007643 -0.005539 0.000000 0.000323 0.000000
# 3 0.006645 -0.005539 0.040418 0.000000 0.027137 0.000000
# 4 0.000000 0.000000 0.000000 0.038037 0.000000 0.005407
# 5 0.020545 0.000323 0.027137 0.000000 0.061874 0.000000
# 6 0.000000 0.000000 0.000000 0.005407 0.000000 0.033883
#
#
# Mechanical properties :
#
#
# Convention : Reuss Voigt Hill
#
# Bulk Modulus (GPa) = 15.68027 61.97020 38.82523
# Shear Modulus (GPa) = 21.95028 33.47830 27.71429
#
# Velocity S-wave (km/s) = 3.14066 3.87867 3.52901
# Velocity P-wave (km/s) = 4.49421 6.92143 5.83542
#
# Compressibility (1/GPa) = 0.06377442
#
# Stress axis : x y z
#
# Youngs Moduli (GPa) = 49.51858 130.84367 24.74168
#
# Poissons Ratio (x) = 0.43782 -0.16441
# Poissons Ratio (y) = 0.16570 0.13705
# Poissons Ratio (z) = -0.32906 0.72477
#
# Static dielectric constant tensor:
#      x y z
#    x 3.825800 0.000000 -0.197130 
#    y 0.000000 5.020240 0.000000 
#    z -0.197130 0.000000 3.797340 
# 
# 
# High freq. dielectric constant tensor:
#      x y z
#    x 1.868100 0.000000 -0.006230 
#    y 0.000000 1.872730 0.000000 
#    z -0.006230 0.000000 1.882750 
# 
# From -- ./inp_files/23195.got.cif
#   From: 2010.06.25/outbox.cif.g09.slc.cpg/sg11_12_cif.got.tgz:23195.got - 2010.06.27 23:14:04.
