data_PCOD8071851
_publ_section_title
;
Structure prediction by ZEFSAII (Michael W. Deem and Ramdas Pophale) SiO2 
 PCOD8071851
Probable space group: P 21/M
;
_chemical_formula_sum "Si O2"
_cell_formula_units_Z 28
_cell_length_a 6.582769
_cell_length_b 15.922264
_cell_length_c 17.025251
_cell_angle_alpha 90.000000
_cell_angle_beta 57.985691
_cell_angle_gamma 90.000000
_cell_volume 1513.072194
_symmetry_space_group_name_H-M "P 21/M"
_symmetry_group_IT_number 11
_symmetry_cell_setting 'monoclinic'
loop_
_space_group_symop_operation_xyz
x,y,z
-x,1/2+y,-z
-x,-y,-z
x,1/2-y,z
loop_
_atom_site_type_symbol
_atom_site_label
_atom_site_fract_x
_atom_site_fract_y
_atom_site_fract_z
Si Si1 0.857833 0.400023 0.644331
Si Si2 0.436514 0.653286 0.148679
Si Si3 0.247235 0.506250 0.879030
Si Si4 0.462418 0.448433 0.321374
Si Si5 0.254747 0.948791 0.046112
Si Si6 0.740202 0.473519 0.409120
Si Si7 0.022610 0.342561 0.449405
O O1 0.735060 0.348369 0.739707
O O2 0.676793 0.463894 0.638329
O O3 0.077327 0.450208 0.636795
O O4 0.961161 0.341010 0.554723
O O5 0.528441 0.750000 0.120583
O O6 0.654850 0.587355 0.116728
O O7 0.286566 0.629197 0.099778
O O8 0.442303 0.555093 0.787032
O O9 0.995441 0.497318 0.882557
O O10 0.216301 0.568482 0.960522
O O11 0.689891 0.443490 0.331473
O O12 0.293023 0.371269 0.377600
O O13 0.500000 0.000000 0.000000
O O14 0.500000 0.500000 0.500000
O O15 0.841643 0.398093 0.438247
O O16 0.996872 0.250000 0.421121
#
# Coordination Sequence:
#
# PCOD8071851 Si02
#       7
#     4   4   4   4   4   4   4
#     4  10  19  34  54  78 108 146 182 217 264 327
#     4  10  20  33  53  84 116 139 168 221 281 326
#     4   9  19  35  59  80 104 141 184 219 265 330
#     4  10  19  35  56  76 104 144 185 224 261 320
#     4   9  18  36  58  82 104 134 177 218 264 324
#     4  11  18  34  55  75 101 146 195 220 261 318
#     4  11  22  34  50  77 112 144 183 232 271 308
#
# _framework density 18.505395
#
# number of rings (size 3 to 8) (size 9 to 14) (size 15 to 20)
#    0.000    2.000    2.857    2.143    0.000    2.286 
#    0.000    0.714    0.000    3.429    0.000    0.000 
#    0.000    0.000    0.000    0.000    0.000    0.000 
#
# Total GULP energy -346907.646962 kJ/mol
# GULP energy per Si atom -12389.558820 kJ/mol
# Density = 1.846328 g / cm^3
# Si number density = 18.505395 Si / 1000 Ang^3
#
#
#
# Elastic Constant Matrix: (Units=GPa)
#
#
# Indices 1 2 3 4 5 6 
#
# 1 109.6322 21.4484 20.4144 0.0000 -2.8738 0.0000
# 2 21.4484 60.8938 21.5861 0.0000 0.8764 0.0000
# 3 20.4144 21.5861 91.6594 0.0000 -4.1290 0.0000
# 4 0.0000 0.0000 0.0000 15.3634 0.0000 2.8296
# 5 -2.8738 0.8764 -4.1290 0.0000 27.1181 0.0000
# 6 0.0000 0.0000 0.0000 2.8296 0.0000 9.8147
#
#
#
# Elastic Compliance Matrix: (Units=1/GPa)
#
#
# Indices 1 2 3 4 5 6 
#
# 1 0.010011 -0.003016 -0.001477 0.000000 0.000933 0.000000
# 2 -0.003016 0.018867 -0.003840 0.000000 -0.001514 0.000000
# 3 -0.001477 -0.003840 0.012226 0.000000 0.001829 0.000000
# 4 0.000000 0.000000 0.000000 0.068740 0.000000 -0.019818
# 5 0.000933 -0.001514 0.001829 0.000000 0.037302 0.000000
# 6 0.000000 0.000000 0.000000 -0.019818 0.000000 0.107602
#
#
# Mechanical properties :
#
#
# Convention : Reuss Voigt Hill
#
# Bulk Modulus (GPa) = 40.92012 43.23147 42.07580
# Shear Modulus (GPa) = 17.88525 23.70834 20.79680
#
# Velocity S-wave (km/s) = 3.11221 3.58321 3.35598
# Velocity P-wave (km/s) = 5.92242 6.36643 6.14843
#
# Compressibility (1/GPa) = 0.02443785
#
# Stress axis : x y z
#
# Youngs Moduli (GPa) = 99.89021 53.00190 81.79505
#
# Poissons Ratio (x) = 0.15985 0.12084
# Poissons Ratio (y) = 0.30125 0.31408
# Poissons Ratio (z) = 0.14757 0.20352
#
# Static dielectric constant tensor:
#      x y z
#    x 3.870900 0.000000 0.113750 
#    y 0.000000 3.117920 0.000000 
#    z 0.113750 0.000000 3.680360 
# 
# 
# High freq. dielectric constant tensor:
#      x y z
#    x 1.728570 0.000000 0.000310 
#    y 0.000000 1.675290 0.000000 
#    z 0.000310 0.000000 1.733250 
# 
# From -- ./inp_files/56996.got.cif
#   From: 2010.06.25/outbox.cif.g09.slc.cpg/sg11_29_cif.got.tgz:56996.got - 2010.06.27 23:14:04.
