data_PCOD8071401
_publ_section_title
;
Structure prediction by ZEFSAII (Michael W. Deem and Ramdas Pophale) SiO2 
 PCOD8071401
Probable space group: P 21/M
;
_chemical_formula_sum "Si O2"
_cell_formula_units_Z 32
_cell_length_a 17.078183
_cell_length_b 18.549908
_cell_length_c 11.323837
_cell_angle_alpha 90.000000
_cell_angle_beta 29.964951
_cell_angle_gamma 90.000000
_cell_volume 1791.787749
_symmetry_space_group_name_H-M "P 21/M"
_symmetry_group_IT_number 11
_symmetry_cell_setting 'monoclinic'
loop_
_space_group_symop_operation_xyz
x,y,z
-x,1/2+y,-z
-x,-y,-z
x,1/2-y,z
loop_
_atom_site_type_symbol
_atom_site_label
_atom_site_fract_x
_atom_site_fract_y
_atom_site_fract_z
Si Si1 0.513112 0.329406 0.345136
Si Si2 0.831842 0.335114 0.801828
Si Si3 0.257454 0.431085 0.587323
Si Si4 0.485277 0.902250 0.424889
Si Si5 0.955699 0.561852 0.343006
Si Si6 0.463772 0.949471 0.213460
Si Si7 0.756798 0.502281 0.159886
Si Si8 0.283057 0.547111 0.222991
O O1 0.465813 0.250000 0.370226
O O2 0.402913 0.377328 0.407386
O O3 0.481679 0.337066 0.527690
O O4 0.693798 0.345303 0.077891
O O5 0.857778 0.250000 0.737039
O O6 0.791224 0.381670 0.738333
O O7 0.989918 0.369658 0.650025
O O8 0.129491 0.403533 0.660468
O O9 0.322967 0.505634 0.453433
O O10 0.182005 0.444032 0.815696
O O11 0.491643 0.885031 0.274707
O O12 0.314259 0.931141 0.686436
O O13 0.616800 0.963604 0.267108
O O14 0.848682 0.507221 0.556767
O O15 0.102905 0.514403 0.111035
O O16 0.401338 0.921281 0.168965
O O17 0.617628 0.998960 0.998216
#
# Coordination Sequence:
#
# PCOD8071401 Si02
#       8
#     4   4   4   4   4   4   4   4
#     4  10  19  33  53  74 103 141 176 210 261 324
#     4  11  22  36  52  74 108 143 179 218 263 322
#     4   9  18  31  52  79 106 130 163 222 265 306
#     4   9  16  30  52  75 103 131 164 215 252 307
#     4  11  20  32  54  82 105 136 176 223 262 308
#     4   9  17  32  55  80 104 128 173 223 263 304
#     4   9  16  28  50  80 106 126 160 206 271 306
#     4  10  20  34  54  79 108 138 180 221 263 310
#
# _framework density 17.859259000000002
#
# number of rings (size 3 to 8) (size 9 to 14) (size 15 to 20)
#    0.000    2.250    2.500    2.250    0.000    0.500 
#    0.000    0.625    0.000    6.750    0.000    0.000 
#    0.000    0.000    0.000    0.000    0.000    0.000 
#
# Total GULP energy -396425.899926 kJ/mol
# GULP energy per Si atom -12388.309373 kJ/mol
# Density = 1.781861 g / cm^3
# Si number density = 17.859259 Si / 1000 Ang^3
#
#
#
# Elastic Constant Matrix: (Units=GPa)
#
#
# Indices 1 2 3 4 5 6 
#
# 1 111.5582 41.0916 18.3775 0.0000 1.2661 0.0000
# 2 41.0916 70.1662 16.3504 0.0000 -2.7561 0.0000
# 3 18.3775 16.3504 57.1588 0.0000 -0.3799 0.0000
# 4 0.0000 0.0000 0.0000 19.7681 0.0000 1.8260
# 5 1.2661 -2.7561 -0.3799 0.0000 25.8779 0.0000
# 6 0.0000 0.0000 0.0000 1.8260 0.0000 11.7763
#
#
#
# Elastic Compliance Matrix: (Units=1/GPa)
#
#
# Indices 1 2 3 4 5 6 
#
# 1 0.011665 -0.006435 -0.001918 0.000000 -0.001284 0.000000
# 2 -0.006435 0.018883 -0.003317 0.000000 0.002277 0.000000
# 3 -0.001918 -0.003317 0.019061 0.000000 0.000020 0.000000
# 4 0.000000 0.000000 0.000000 0.051322 0.000000 -0.007958
# 5 -0.001284 0.002277 0.000020 0.000000 0.038949 0.000000
# 6 0.000000 0.000000 0.000000 -0.007958 0.000000 0.086150
#
#
# Mechanical properties :
#
#
# Convention : Reuss Voigt Hill
#
# Bulk Modulus (GPa) = 38.06972 43.39135 40.73053
# Shear Modulus (GPa) = 19.37042 22.35538 20.86290
#
# Velocity S-wave (km/s) = 3.29692 3.54185 3.42158
# Velocity P-wave (km/s) = 5.98796 6.40900 6.20206
#
# Compressibility (1/GPa) = 0.02626760
#
# Stress axis : x y z
#
# Youngs Moduli (GPa) = 85.72908 52.95852 52.46320
#
# Poissons Ratio (x) = 0.34077 0.10064
# Poissons Ratio (y) = 0.55164 0.17404
# Poissons Ratio (z) = 0.16445 0.17569
#
# Static dielectric constant tensor:
#      x y z
#    x 3.738150 0.000000 0.092990 
#    y 0.000000 2.973720 0.000000 
#    z 0.092990 0.000000 3.269660 
# 
# 
# High freq. dielectric constant tensor:
#      x y z
#    x 1.708520 0.000000 0.003770 
#    y 0.000000 1.642900 0.000000 
#    z 0.003770 0.000000 1.685960 
# 
# From -- ./inp_files/36337.got.cif
#   From: 2010.06.25/outbox.cif.g09.slc.cpg/sg11_19_cif.got.tgz:36337.got - 2010.06.27 23:14:04.
