data_PCOD8071385
_publ_section_title
;
Structure prediction by ZEFSAII (Michael W. Deem and Ramdas Pophale) SiO2 
 PCOD8071385
Probable space group: P 21/M
;
_chemical_formula_sum "Si O2"
_cell_formula_units_Z 32
_cell_length_a 12.009780
_cell_length_b 13.259352
_cell_length_c 10.776787
_cell_angle_alpha 90.000000
_cell_angle_beta 99.173032
_cell_angle_gamma 90.000000
_cell_volume 1694.169336
_symmetry_space_group_name_H-M "P 21/M"
_symmetry_group_IT_number 11
_symmetry_cell_setting 'monoclinic'
loop_
_space_group_symop_operation_xyz
x,y,z
-x,1/2+y,-z
-x,-y,-z
x,1/2-y,z
loop_
_atom_site_type_symbol
_atom_site_label
_atom_site_fract_x
_atom_site_fract_y
_atom_site_fract_z
Si Si1 0.556170 0.132018 0.522631
Si Si2 0.860704 0.864714 0.780121
Si Si3 0.414311 0.447684 0.893502
Si Si4 0.390190 0.637686 0.198047
Si Si5 0.883033 0.133440 0.205824
Si Si6 0.697398 0.869331 0.528259
Si Si7 0.223831 0.003718 0.018909
Si Si8 0.709321 0.461567 0.347946
O O1 0.538627 0.250000 0.530163
O O2 0.599373 0.091192 0.662601
O O3 0.430510 0.088765 0.470541
O O4 0.648452 0.109307 0.436120
O O5 0.837489 0.750000 0.816381
O O6 0.770354 0.898517 0.661184
O O7 0.984331 0.876921 0.743895
O O8 0.852438 0.932509 0.901549
O O9 0.483625 0.357307 0.841148
O O10 0.376581 0.526609 0.781311
O O11 0.500000 0.500000 0.000000
O O12 0.300963 0.418522 0.950262
O O13 0.340534 0.750000 0.191355
O O14 0.305727 0.569196 0.107838
O O15 0.849582 0.250000 0.173673
O O16 0.821419 0.093942 0.318903
O O17 0.854094 0.065103 0.081766
O O18 0.704557 0.750000 0.500642
O O19 0.743068 0.930766 0.416319
#
# Coordination Sequence:
#
# PCOD8071385 Si02
#       8
#     4   4   4   4   4   4   4   4
#     4  10  20  32  53  83 113 144 181 224 276 336
#     4  10  22  39  59  81 109 146 191 237 281 324
#     4   9  20  31  47  76 108 140 176 215 265 329
#     4  10  19  33  52  80 115 146 175 221 276 330
#     4  10  22  40  58  81 111 144 187 240 283 327
#     4  10  21  35  54  82 113 149 187 230 275 328
#     4  10  20  36  58  81 106 145 190 226 279 333
#     4  11  20  34  58  79 111 149 184 224 281 335
#
# _framework density 18.888314000000001
#
# number of rings (size 3 to 8) (size 9 to 14) (size 15 to 20)
#    0.000    2.000    1.250    2.250    3.500    1.000 
#    0.000    2.500    0.000    1.500    0.000    0.000 
#    0.000    0.000    0.000    0.000    0.000    0.000 
#
# Total GULP energy -396658.180407 kJ/mol
# GULP energy per Si atom -12395.568138 kJ/mol
# Density = 1.884532 g / cm^3
# Si number density = 18.888314 Si / 1000 Ang^3
#
#
#
# Elastic Constant Matrix: (Units=GPa)
#
#
# Indices 1 2 3 4 5 6 
#
# 1 97.3420 32.9426 49.6448 0.0000 -7.9343 0.0000
# 2 32.9426 57.2648 35.1618 0.0000 -6.5243 0.0000
# 3 49.6448 35.1618 115.1298 0.0000 -7.2467 0.0000
# 4 0.0000 0.0000 0.0000 27.7067 0.0000 -3.7987
# 5 -7.9343 -6.5243 -7.2467 0.0000 31.3212 0.0000
# 6 0.0000 0.0000 0.0000 -3.7987 0.0000 23.8593
#
#
#
# Elastic Compliance Matrix: (Units=1/GPa)
#
#
# Indices 1 2 3 4 5 6 
#
# 1 0.014532 -0.005414 -0.004518 0.000000 0.001508 0.000000
# 2 -0.005414 0.023792 -0.004776 0.000000 0.002480 0.000000
# 3 -0.004518 -0.004776 0.012135 0.000000 0.000668 0.000000
# 4 0.000000 0.000000 0.000000 0.036898 0.000000 0.005875
# 5 0.001508 0.002480 0.000668 0.000000 0.032980 0.000000
# 6 0.000000 0.000000 0.000000 0.005875 0.000000 0.042848
#
#
# Mechanical properties :
#
#
# Convention : Reuss Voigt Hill
#
# Bulk Modulus (GPa) = 47.52022 56.13720 51.82871
# Shear Modulus (GPa) = 25.04816 26.70993 25.87904
#
# Velocity S-wave (km/s) = 3.64554 3.76453 3.70551
# Velocity P-wave (km/s) = 6.55234 6.97715 6.76808
#
# Compressibility (1/GPa) = 0.02104368
#
# Stress axis : x y z
#
# Youngs Moduli (GPa) = 68.81157 42.03063 82.40838
#
# Poissons Ratio (x) = 0.22755 0.37233
# Poissons Ratio (y) = 0.37255 0.39356
# Poissons Ratio (z) = 0.31089 0.20073
#
# Static dielectric constant tensor:
#      x y z
#    x 3.490120 0.000000 -0.079130 
#    y 0.000000 3.424990 0.000000 
#    z -0.079130 0.000000 3.649070 
# 
# 
# High freq. dielectric constant tensor:
#      x y z
#    x 1.727420 0.000000 0.000550 
#    y 0.000000 1.728180 0.000000 
#    z 0.000550 0.000000 1.743740 
# 
# From -- ./inp_files/18051.got.cif
#   From: 2010.06.25/outbox.cif.g09.slc.cpg/sg11_10_cif.got.tgz:18051.got - 2010.06.27 23:14:04.
