data_PCOD8071787
_publ_section_title
;
Structure prediction by ZEFSAII (Michael W. Deem and Ramdas Pophale) SiO2 
 PCOD8071787
Probable space group: P 21/M
;
_chemical_formula_sum "Si O2"
_cell_formula_units_Z 32
_cell_length_a 23.848012
_cell_length_b 9.368301
_cell_length_c 17.412741
_cell_angle_alpha 90.000000
_cell_angle_beta 149.561888
_cell_angle_gamma 90.000000
_cell_volume 1970.841365
_symmetry_space_group_name_H-M "P 21/M"
_symmetry_group_IT_number 11
_symmetry_cell_setting 'monoclinic'
loop_
_space_group_symop_operation_xyz
x,y,z
-x,1/2+y,-z
-x,-y,-z
x,1/2-y,z
loop_
_atom_site_type_symbol
_atom_site_label
_atom_site_fract_x
_atom_site_fract_y
_atom_site_fract_z
Si Si1 0.359604 0.083612 0.952837
Si Si2 0.322738 0.412013 0.154363
Si Si3 0.393013 0.415146 0.399705
Si Si4 0.744624 0.915339 0.332157
Si Si5 0.980428 0.913958 0.553682
Si Si6 0.422331 0.914007 0.573664
Si Si7 0.604472 0.415816 0.283403
Si Si8 0.212179 0.584903 0.898250
O O1 0.346210 0.250000 0.958585
O O2 0.331568 0.053407 0.831472
O O3 0.276598 0.995048 0.907118
O O4 0.483876 0.029950 0.114595
O O5 0.296306 0.250000 0.098118
O O6 0.305596 0.429508 0.226328
O O7 0.447519 0.450820 0.276237
O O8 0.239511 0.518161 0.013369
O O9 0.500000 0.500000 0.500000
O O10 0.422277 0.250000 0.448887
O O11 0.352499 0.487556 0.431446
O O12 0.742794 0.750000 0.352029
O O13 0.869293 0.969014 0.463705
O O14 0.699468 0.001093 0.351147
O O15 0.964960 0.750000 0.510715
O O16 0.081411 0.934231 0.731527
O O17 0.000000 0.000000 0.500000
O O18 0.403622 0.750000 0.528210
O O19 0.377880 0.946744 0.605849
O O20 0.616561 0.250000 0.278461
O O21 0.247104 0.750000 0.938544
#
# Coordination Sequence:
#
# PCOD8071787 Si02
#       8
#     4   4   4   4   4   4   4   4
#     4  10  19  34  51  67  96 134 162 195 245 290
#     4   9  17  31  47  66  98 133 159 189 240 293
#     4   9  17  28  44  67  96 129 161 193 233 285
#     4  10  21  35  51  69  93 129 167 203 246 288
#     4  10  21  36  52  71  95 124 163 208 249 288
#     4   9  17  30  47  68  97 131 160 191 237 288
#     4  10  20  33  49  71 100 130 164 200 237 288
#     4  11  21  30  48  76  98 123 164 207 241 282
#
# _framework density 16.236719000000001
#
# number of rings (size 3 to 8) (size 9 to 14) (size 15 to 20)
#    0.000    2.250    2.500    1.875    0.000    5.000 
#    0.000    0.000    0.000    0.000    0.000    0.875 
#    0.000    0.000    0.000    0.000    0.000    0.000 
#
# Total GULP energy -396781.755839 kJ/mol
# GULP energy per Si atom -12399.429870 kJ/mol
# Density = 1.619976 g / cm^3
# Si number density = 16.236719 Si / 1000 Ang^3
#
#
#
# Elastic Constant Matrix: (Units=GPa)
#
#
# Indices 1 2 3 4 5 6 
#
# 1 103.7043 51.7453 50.6923 0.0000 -3.5835 0.0000
# 2 51.7453 76.9577 40.5645 0.0000 -8.4527 0.0000
# 3 50.6923 40.5645 59.5312 0.0000 -5.3169 0.0000
# 4 0.0000 0.0000 0.0000 22.7844 0.0000 -4.4731
# 5 -3.5835 -8.4527 -5.3169 0.0000 25.8567 0.0000
# 6 0.0000 0.0000 0.0000 -4.4731 0.0000 32.5086
#
#
#
# Elastic Compliance Matrix: (Units=1/GPa)
#
#
# Indices 1 2 3 4 5 6 
#
# 1 0.018430 -0.006619 -0.011357 0.000000 -0.001945 0.000000
# 2 -0.006619 0.023039 -0.009649 0.000000 0.004630 0.000000
# 3 -0.011357 -0.009649 0.033231 0.000000 0.002105 0.000000
# 4 0.000000 0.000000 0.000000 0.045108 0.000000 0.006207
# 5 -0.001945 0.004630 0.002105 0.000000 0.040352 0.000000
# 6 0.000000 0.000000 0.000000 0.006207 0.000000 0.031615
#
#
# Mechanical properties :
#
#
# Convention : Reuss Voigt Hill
#
# Bulk Modulus (GPa) = 51.41283 58.46637 54.93960
# Shear Modulus (GPa) = 19.72317 22.70936 21.21626
#
# Velocity S-wave (km/s) = 3.48907 3.74390 3.61873
# Velocity P-wave (km/s) = 6.92566 7.40108 7.16731
#
# Compressibility (1/GPa) = 0.01945040
#
# Stress axis : x y z
#
# Youngs Moduli (GPa) = 54.25985 43.40375 30.09227
#
# Poissons Ratio (x) = 0.28731 0.34175
# Poissons Ratio (y) = 0.35917 0.29036
# Poissons Ratio (z) = 0.61621 0.41880
#
# Static dielectric constant tensor:
#      x y z
#    x 3.081170 0.000000 -0.281860 
#    y 0.000000 3.191030 0.000000 
#    z -0.281860 0.000000 3.193650 
# 
# 
# High freq. dielectric constant tensor:
#      x y z
#    x 1.610060 0.000000 -0.023110 
#    y 0.000000 1.630130 0.000000 
#    z -0.023110 0.000000 1.606620 
# 
# From -- ./inp_files/42483.got.cif
#   From: 2010.06.25/outbox.cif.g09.slc.cpg/sg11_22_cif.got.tgz:42483.got - 2010.06.27 23:14:04.
