data_PCOD8071103
_publ_section_title
;
Structure prediction by ZEFSAII (Michael W. Deem and Ramdas Pophale) SiO2 
 PCOD8071103
Probable space group: P 21/M
;
_chemical_formula_sum "Si O2"
_cell_formula_units_Z 32
_cell_length_a 21.079705
_cell_length_b 9.289912
_cell_length_c 11.648675
_cell_angle_alpha 90.000000
_cell_angle_beta 133.223882
_cell_angle_gamma 90.000000
_cell_volume 1662.231213
_symmetry_space_group_name_H-M "P 21/M"
_symmetry_group_IT_number 11
_symmetry_cell_setting 'monoclinic'
loop_
_space_group_symop_operation_xyz
x,y,z
-x,1/2+y,-z
-x,-y,-z
x,1/2-y,z
loop_
_atom_site_type_symbol
_atom_site_label
_atom_site_fract_x
_atom_site_fract_y
_atom_site_fract_z
Si Si1 0.259282 0.583601 0.307742
Si Si2 0.285400 0.591974 0.794157
Si Si3 0.869513 0.501643 0.257517
Si Si4 0.186877 0.920773 0.461048
Si Si5 0.536229 0.081294 0.434096
Si Si6 0.257032 0.412546 0.087458
Si Si7 0.050327 0.095286 0.412988
Si Si8 0.401758 0.924074 0.135048
O O1 0.237759 0.750000 0.254156
O O2 0.211553 0.531347 0.364470
O O3 0.361524 0.560191 0.451489
O O4 0.221003 0.482201 0.160580
O O5 0.317505 0.750000 0.801633
O O6 0.200937 0.604973 0.772555
O O7 0.258144 0.513522 0.641192
O O8 0.365115 0.521741 0.965079
O O9 0.912035 0.596286 0.410884
O O10 0.946145 0.418454 0.287206
O O11 0.819368 0.597428 0.101268
O O12 0.184940 0.750000 0.471784
O O13 0.091768 0.977276 0.379486
O O14 0.511119 0.250000 0.407512
O O15 0.500000 0.000000 0.500000
O O16 0.493868 0.002331 0.270252
O O17 0.290963 0.250000 0.150934
O O18 0.336421 0.517029 0.151323
O O19 0.072483 0.250000 0.386587
O O20 0.407662 0.750000 0.152256
#
# Coordination Sequence:
#
# PCOD8071103 Si02
#       8
#     4   4   4   4   4   4   4   4
#     4  10  22  38  55  74 103 142 180 217 261 317
#     4   8  15  30  53  77 103 137 174 210 255 312
#     4   9  19  32  51  81 113 137 166 213 268 312
#     4   9  19  37  56  74 102 143 181 215 262 316
#     4  11  21  34  53  78 106 138 177 222 267 311
#     4  11  21  33  53  79 107 137 173 218 263 309
#     4  10  19  33  56  83 109 137 173 217 263 313
#     4  10  19  32  52  80 110 136 168 215 268 318
#
# _framework density 19.251232999999999
#
# number of rings (size 3 to 8) (size 9 to 14) (size 15 to 20)
#    0.000    2.250    1.250    1.875    0.000    6.000 
#    0.000    1.875    0.000    0.000    0.000    0.000 
#    0.000    0.000    0.000    0.000    0.000    0.000 
#
# Total GULP energy -396509.585659 kJ/mol
# GULP energy per Si atom -12390.924552 kJ/mol
# Density = 1.920742 g / cm^3
# Si number density = 19.251233 Si / 1000 Ang^3
#
#
#
# Elastic Constant Matrix: (Units=GPa)
#
#
# Indices 1 2 3 4 5 6 
#
# 1 67.9359 20.8264 19.0811 0.0000 -11.7283 0.0000
# 2 20.8264 85.6348 21.3835 0.0000 -5.0672 0.0000
# 3 19.0811 21.3835 64.1437 0.0000 -1.2110 0.0000
# 4 0.0000 0.0000 0.0000 19.0399 0.0000 1.7706
# 5 -11.7283 -5.0672 -1.2110 0.0000 27.6662 0.0000
# 6 0.0000 0.0000 0.0000 1.7706 0.0000 18.9765
#
#
#
# Elastic Compliance Matrix: (Units=1/GPa)
#
#
# Indices 1 2 3 4 5 6 
#
# 1 0.017999 -0.002906 -0.004255 0.000000 0.006912 0.000000
# 2 -0.002906 0.013336 -0.003561 0.000000 0.001055 0.000000
# 3 -0.004255 -0.003561 0.018012 0.000000 -0.001668 0.000000
# 4 0.000000 0.000000 0.000000 0.052981 0.000000 -0.004943
# 5 0.006912 0.001055 -0.001668 0.000000 0.039195 0.000000
# 6 0.000000 0.000000 0.000000 -0.004943 0.000000 0.053158
#
#
# Mechanical properties :
#
#
# Convention : Reuss Voigt Hill
#
# Bulk Modulus (GPa) = 35.84004 37.81072 36.82538
# Shear Modulus (GPa) = 22.18024 23.56475 22.87249
#
# Velocity S-wave (km/s) = 3.39801 3.50246 3.45063
# Velocity P-wave (km/s) = 5.83547 6.00330 5.91998
#
# Compressibility (1/GPa) = 0.02790175
#
# Stress axis : x y z
#
# Youngs Moduli (GPa) = 55.55897 74.98539 55.51994
#
# Poissons Ratio (x) = 0.21790 0.23624
# Poissons Ratio (y) = 0.16145 0.19773
# Poissons Ratio (z) = 0.23640 0.26706
#
# Static dielectric constant tensor:
#      x y z
#    x 3.316980 0.000000 -0.035810 
#    y 0.000000 3.390790 0.000000 
#    z -0.035810 0.000000 3.814440 
# 
# 
# High freq. dielectric constant tensor:
#      x y z
#    x 1.717360 0.000000 -0.000730 
#    y 0.000000 1.736980 0.000000 
#    z -0.000730 0.000000 1.756830 
# 
# From -- ./inp_files/42852.got.cif
#   From: 2010.06.25/outbox.cif.g09.slc.cpg/sg11_22_cif.got.tgz:42852.got - 2010.06.27 23:14:04.
