data_PCOD8071102
_publ_section_title
;
Structure prediction by ZEFSAII (Michael W. Deem and Ramdas Pophale) SiO2 
 PCOD8071102
Probable space group: P 21/M
;
_chemical_formula_sum "Si O2"
_cell_formula_units_Z 24
_cell_length_a 14.793262
_cell_length_b 8.840348
_cell_length_c 15.068274
_cell_angle_alpha 90.000000
_cell_angle_beta 139.583802
_cell_angle_gamma 90.000000
_cell_volume 1277.604402
_symmetry_space_group_name_H-M "P 21/M"
_symmetry_group_IT_number 11
_symmetry_cell_setting 'monoclinic'
loop_
_space_group_symop_operation_xyz
x,y,z
-x,1/2+y,-z
-x,-y,-z
x,1/2-y,z
loop_
_atom_site_type_symbol
_atom_site_label
_atom_site_fract_x
_atom_site_fract_y
_atom_site_fract_z
Si Si1 0.674233 0.076724 0.064331
Si Si2 0.306256 0.428800 0.201374
Si Si3 0.790011 0.570734 0.678561
Si Si4 0.599563 0.571191 0.377951
Si Si5 0.399695 0.924617 0.798479
Si Si6 0.104415 0.926037 0.913581
O O1 0.623270 0.250000 0.013977
O O2 0.692090 0.040310 0.182338
O O3 0.820772 0.048621 0.125292
O O4 0.560049 0.968122 0.935815
O O5 0.324857 0.250000 0.210445
O O6 0.276442 0.484987 0.278972
O O7 0.444766 0.507435 0.270291
O O8 0.177116 0.478020 0.044599
O O9 0.790966 0.750000 0.674504
O O10 0.697061 0.504676 0.528816
O O11 0.947799 0.511085 0.786937
O O12 0.592518 0.750000 0.376926
O O13 0.662244 0.519620 0.330029
O O14 0.394655 0.750000 0.768327
O O15 0.107307 0.750000 0.943367
#
# Coordination Sequence:
#
# PCOD8071102 Si02
#       6
#     4   4   4   4   4   4
#     4   9  18  32  54  80 106 137 173 214 266 319
#     4  11  21  35  55  81 107 137 179 227 267 308
#     4   9  21  37  54  77 109 143 178 218 265 318
#     4  11  21  36  55  77 106 145 183 217 262 317
#     4  10  19  32  52  80 109 135 172 224 266 307
#     4  10  19  36  58  80 106 140 177 215 264 324
#
# _framework density 18.785157000000002
#
# number of rings (size 3 to 8) (size 9 to 14) (size 15 to 20)
#    0.000    2.000    1.667    2.500    0.000    0.667 
#    0.000    5.833    0.000    0.000    0.000    0.000 
#    0.000    0.000    0.000    0.000    0.000    0.000 
#
# Total GULP energy -297640.422868 kJ/mol
# GULP energy per Si atom -12401.684286 kJ/mol
# Density = 1.874240 g / cm^3
# Si number density = 18.785157 Si / 1000 Ang^3
#
#
#
# Elastic Constant Matrix: (Units=GPa)
#
#
# Indices 1 2 3 4 5 6 
#
# 1 93.6478 29.8845 50.4844 0.0000 -29.9240 0.0000
# 2 29.8845 57.6873 29.0783 0.0000 -8.7751 0.0000
# 3 50.4844 29.0783 112.5981 0.0000 -18.8704 0.0000
# 4 0.0000 0.0000 0.0000 18.5543 0.0000 -8.0814
# 5 -29.9240 -8.7751 -18.8704 0.0000 29.8734 0.0000
# 6 0.0000 0.0000 0.0000 -8.0814 0.0000 22.2405
#
#
#
# Elastic Compliance Matrix: (Units=1/GPa)
#
#
# Indices 1 2 3 4 5 6 
#
# 1 0.020010 -0.005531 -0.004984 0.000000 0.015271 0.000000
# 2 -0.005531 0.021687 -0.003335 0.000000 -0.001276 0.000000
# 3 -0.004984 -0.003335 0.012276 0.000000 0.001782 0.000000
# 4 0.000000 0.000000 0.000000 0.064030 0.000000 0.023266
# 5 0.015271 -0.001276 0.001782 0.000000 0.049522 0.000000
# 6 0.000000 0.000000 0.000000 0.023266 0.000000 0.053417
#
#
# Mechanical properties :
#
#
# Convention : Reuss Voigt Hill
#
# Bulk Modulus (GPa) = 38.06159 53.64750 45.85455
# Shear Modulus (GPa) = 19.42526 24.43273 21.92899
#
# Velocity S-wave (km/s) = 3.21919 3.61035 3.42037
# Velocity P-wave (km/s) = 5.84150 6.78233 6.32942
#
# Compressibility (1/GPa) = 0.02627320
#
# Stress axis : x y z
#
# Youngs Moduli (GPa) = 49.97617 46.11113 81.46215
#
# Poissons Ratio (x) = 0.25503 0.40600
# Poissons Ratio (y) = 0.27640 0.27165
# Poissons Ratio (z) = 0.24908 0.15377
#
# Static dielectric constant tensor:
#      x y z
#    x 3.701980 0.000000 -0.230490 
#    y 0.000000 3.319580 0.000000 
#    z -0.230490 0.000000 3.534030 
# 
# 
# High freq. dielectric constant tensor:
#      x y z
#    x 1.741490 0.000000 -0.017810 
#    y 0.000000 1.718180 0.000000 
#    z -0.017810 0.000000 1.716390 
# 
# From -- ./inp_files/20406.got.cif
#   From: 2010.06.25/outbox.cif.g09.slc.cpg/sg11_11_cif.got.tgz:20406.got - 2010.06.27 23:14:04.
