data_PCOD8071940
_publ_section_title
;
Structure prediction by ZEFSAII (Michael W. Deem and Ramdas Pophale) SiO2 
 PCOD8071940
Probable space group: P 21/M
;
_chemical_formula_sum "Si O2"
_cell_formula_units_Z 28
_cell_length_a 13.899731
_cell_length_b 8.703556
_cell_length_c 16.373543
_cell_angle_alpha 90.000000
_cell_angle_beta 48.826254
_cell_angle_gamma 90.000000
_cell_volume 1490.998865
_symmetry_space_group_name_H-M "P 21/M"
_symmetry_group_IT_number 11
_symmetry_cell_setting 'monoclinic'
loop_
_space_group_symop_operation_xyz
x,y,z
-x,1/2+y,-z
-x,-y,-z
x,1/2-y,z
loop_
_atom_site_type_symbol
_atom_site_label
_atom_site_fract_x
_atom_site_fract_y
_atom_site_fract_z
Si Si1 0.533326 0.932580 0.728469
Si Si2 0.445175 0.431058 0.612153
Si Si3 0.992315 0.930464 0.380222
Si Si4 0.185904 0.930000 0.801902
Si Si5 0.799176 0.069940 0.604641
Si Si6 0.042783 0.932486 0.167731
Si Si7 0.733772 0.429369 0.065492
O O1 0.534048 0.750000 0.724841
O O2 0.410745 0.997552 0.848702
O O3 0.523782 0.994888 0.642257
O O4 0.663124 0.991451 0.696814
O O5 0.500000 0.500000 0.500000
O O6 0.464009 0.250000 0.603948
O O7 0.296376 0.473221 0.696777
O O8 0.967398 0.750000 0.398045
O O9 0.112508 0.978322 0.368562
O O10 0.022101 0.986377 0.272069
O O11 0.864372 0.012872 0.484110
O O12 0.210849 0.750000 0.773661
O O13 0.186282 0.971024 0.897755
O O14 0.053141 0.980012 0.837704
O O15 0.778480 0.250000 0.610408
O O16 0.024576 0.750000 0.168311
O O17 0.185040 0.985103 0.058648
O O18 0.715222 0.250000 0.069592
#
# Coordination Sequence:
#
# PCOD8071940 Si02
#       7
#     4   4   4   4   4   4   4
#     4  10  20  36  57  79 106 141 178 217 268 324
#     4  11  22  36  53  77 108 142 179 220 262 314
#     4   9  20  36  55  79 106 137 178 227 273 323
#     4  10  20  34  51  77 111 145 179 216 264 318
#     4  10  20  36  56  78 106 140 178 222 275 328
#     4  10  19  34  56  79 105 140 184 227 270 315
#     4   8  17  34  54  77 106 142 180 220 264 318
#
# _framework density 18.779357000000001
#
# number of rings (size 3 to 8) (size 9 to 14) (size 15 to 20)
#    0.000    2.286    0.000    3.857    2.000    1.143 
#    0.000    4.286    0.000    0.000    0.000    0.000 
#    0.000    0.000    0.000    0.000    0.000    0.000 
#
# Total GULP energy -347153.274633 kJ/mol
# GULP energy per Si atom -12398.331237 kJ/mol
# Density = 1.873661 g / cm^3
# Si number density = 18.779357 Si / 1000 Ang^3
#
#
#
# Elastic Constant Matrix: (Units=GPa)
#
#
# Indices 1 2 3 4 5 6 
#
# 1 82.6930 28.1938 55.3661 0.0000 -17.1922 0.0000
# 2 28.1938 61.2831 29.9224 0.0000 -6.0833 0.0000
# 3 55.3661 29.9224 107.5251 0.0000 -2.7164 0.0000
# 4 0.0000 0.0000 0.0000 22.1492 0.0000 -4.4322
# 5 -17.1922 -6.0833 -2.7164 0.0000 28.2531 0.0000
# 6 0.0000 0.0000 0.0000 -4.4322 0.0000 30.0787
#
#
#
# Elastic Compliance Matrix: (Units=1/GPa)
#
#
# Indices 1 2 3 4 5 6 
#
# 1 0.022996 -0.004339 -0.010329 0.000000 0.012066 0.000000
# 2 -0.004339 0.020068 -0.003316 0.000000 0.001362 0.000000
# 3 -0.010329 -0.003316 0.015402 0.000000 -0.005518 0.000000
# 4 0.000000 0.000000 0.000000 0.046520 0.000000 0.006855
# 5 0.012066 0.001362 -0.005518 0.000000 0.042499 0.000000
# 6 0.000000 0.000000 0.000000 0.006855 0.000000 0.034256
#
#
# Mechanical properties :
#
#
# Convention : Reuss Voigt Hill
#
# Bulk Modulus (GPa) = 44.44633 53.16285 48.80459
# Shear Modulus (GPa) = 22.20157 25.29749 23.74953
#
# Velocity S-wave (km/s) = 3.44209 3.67425 3.56007
# Velocity P-wave (km/s) = 6.28620 6.80961 6.55314
#
# Compressibility (1/GPa) = 0.02249905
#
# Stress axis : x y z
#
# Youngs Moduli (GPa) = 43.48506 49.83028 64.92634
#
# Poissons Ratio (x) = 0.21620 0.67062
# Poissons Ratio (y) = 0.18867 0.21531
# Poissons Ratio (z) = 0.44915 0.16524
#
# Static dielectric constant tensor:
#      x y z
#    x 3.181420 0.000000 0.807130 
#    y 0.000000 3.357790 0.000000 
#    z 0.807130 0.000000 -0.341860 
# 
# 
# High freq. dielectric constant tensor:
#      x y z
#    x 1.716630 0.000000 -0.010190 
#    y 0.000000 1.722520 0.000000 
#    z -0.010190 0.000000 1.739380 
# 
# From -- ./inp_files/37196.got.cif
#   From: 2010.06.25/outbox.cif.g09.slc.cpg/sg11_19_cif.got.tgz:37196.got - 2010.06.27 23:14:04.
