data_PCOD8071226
_publ_section_title
;
Structure prediction by ZEFSAII (Michael W. Deem and Ramdas Pophale) SiO2 
 PCOD8071226
Probable space group: P 21/M
;
_chemical_formula_sum "Si O2"
_cell_formula_units_Z 32
_cell_length_a 9.709432
_cell_length_b 19.050517
_cell_length_c 16.280865
_cell_angle_alpha 90.000000
_cell_angle_beta 148.071550
_cell_angle_gamma 90.000000
_cell_volume 1592.643749
_symmetry_space_group_name_H-M "P 21/M"
_symmetry_group_IT_number 11
_symmetry_cell_setting 'monoclinic'
loop_
_space_group_symop_operation_xyz
x,y,z
-x,1/2+y,-z
-x,-y,-z
x,1/2-y,z
loop_
_atom_site_type_symbol
_atom_site_label
_atom_site_fract_x
_atom_site_fract_y
_atom_site_fract_z
Si Si1 0.561311 0.474614 0.831543
Si Si2 0.535347 0.538317 0.390148
Si Si3 0.897380 0.083277 0.380493
Si Si4 0.731576 0.540986 0.069785
Si Si5 0.079949 0.672324 0.443045
Si Si6 0.408585 0.830126 0.901783
Si Si7 0.482666 0.673831 0.122336
Si Si8 0.268480 0.919627 0.403700
O O1 0.642110 0.484448 0.777677
O O2 0.282783 0.513229 0.710901
O O3 0.567905 0.390308 0.843219
O O4 0.773995 0.505656 0.001935
O O5 0.545294 0.470007 0.450800
O O6 0.395416 0.596752 0.377985
O O7 0.806655 0.563493 0.488781
O O8 0.879388 0.119202 0.460706
O O9 0.818787 0.138446 0.270098
O O10 0.994767 0.538252 0.255135
O O11 0.500000 0.500000 0.000000
O O12 0.664648 0.622418 0.018905
O O13 0.170202 0.750000 0.516566
O O14 0.246112 0.650032 0.447094
O O15 0.789598 0.673707 0.261085
O O16 0.468020 0.750000 0.906154
O O17 0.330981 0.835273 0.958823
O O18 0.402708 0.750000 0.120847
#
# Coordination Sequence:
#
# PCOD8071226 Si02
#       8
#     4   4   4   4   4   4   4   4
#     4  11  20  35  59  86 113 151 195 247 289 338
#     4  11  23  37  58  83 122 153 189 247 292 350
#     4  11  21  35  61  88 114 150 198 246 289 343
#     4  11  20  34  61  85 112 148 198 242 289 343
#     4  11  20  36  60  85 116 152 196 242 290 349
#     4  10  20  33  54  86 115 141 187 246 292 341
#     4  10  19  32  54  85 113 141 188 243 293 338
#     4  11  23  39  54  87 119 155 195 237 300 352
#
# _framework density 20.092376999999999
#
# number of rings (size 3 to 8) (size 9 to 14) (size 15 to 20)
#    0.000    1.250    5.000    3.000    0.000    0.500 
#    0.000    1.875    0.000    0.000    0.000    0.000 
#    0.000    0.000    0.000    0.000    0.000    0.000 
#
# Total GULP energy -396475.375570 kJ/mol
# GULP energy per Si atom -12389.855487 kJ/mol
# Density = 2.004665 g / cm^3
# Si number density = 20.092377 Si / 1000 Ang^3
#
#
#
# Elastic Constant Matrix: (Units=GPa)
#
#
# Indices 1 2 3 4 5 6 
#
# 1 84.0139 27.0437 19.9614 0.0000 -24.4908 0.0000
# 2 27.0437 119.7503 20.6367 0.0000 -15.3509 0.0000
# 3 19.9614 20.6367 66.9093 0.0000 -31.8397 0.0000
# 4 0.0000 0.0000 0.0000 26.0313 0.0000 -8.6479
# 5 -24.4908 -15.3509 -31.8397 0.0000 33.1092 0.0000
# 6 0.0000 0.0000 0.0000 -8.6479 0.0000 23.5250
#
#
#
# Elastic Compliance Matrix: (Units=1/GPa)
#
#
# Indices 1 2 3 4 5 6 
#
# 1 0.015830 -0.002306 0.001939 0.000000 0.012505 0.000000
# 2 -0.002306 0.009290 -0.001732 0.000000 0.000936 0.000000
# 3 0.001939 -0.001732 0.028028 0.000000 0.027585 0.000000
# 4 0.000000 0.000000 0.000000 0.043759 0.000000 0.016086
# 5 0.012505 0.000936 0.027585 0.000000 0.066414 0.000000
# 6 0.000000 0.000000 0.000000 0.016086 0.000000 0.048421
#
#
# Mechanical properties :
#
#
# Convention : Reuss Voigt Hill
#
# Bulk Modulus (GPa) = 20.42897 45.10636 32.76766
# Shear Modulus (GPa) = 21.52797 30.06855 25.79826
#
# Velocity S-wave (km/s) = 3.27685 3.87268 3.58716
# Velocity P-wave (km/s) = 4.95041 6.51882 5.78799
#
# Compressibility (1/GPa) = 0.04895010
#
# Stress axis : x y z
#
# Youngs Moduli (GPa) = 63.17272 107.64339 35.67893
#
# Poissons Ratio (x) = 0.24823 -0.06919
# Poissons Ratio (y) = 0.14568 0.06179
# Poissons Ratio (z) = -0.12252 0.18643
#
# Static dielectric constant tensor:
#      x y z
#    x 3.507870 0.000000 -0.416580 
#    y 0.000000 3.868140 0.000000 
#    z -0.416580 0.000000 3.896190 
# 
# 
# High freq. dielectric constant tensor:
#      x y z
#    x 1.751650 0.000000 -0.040340 
#    y 0.000000 1.781980 0.000000 
#    z -0.040340 0.000000 1.790510 
# 
# From -- ./inp_files/48255.got.cif
#   From: 2010.06.25/outbox.cif.g09.slc.cpg/sg11_25_cif.got.tgz:48255.got - 2010.06.27 23:14:04.
