data_PCOD8071869
_publ_section_title
;
Structure prediction by ZEFSAII (Michael W. Deem and Ramdas Pophale) SiO2 
 PCOD8071869
Probable space group: P 21/M
;
_chemical_formula_sum "Si O2"
_cell_formula_units_Z 24
_cell_length_a 19.643205
_cell_length_b 13.556221
_cell_length_c 5.258631
_cell_angle_alpha 90.000000
_cell_angle_beta 59.609565
_cell_angle_gamma 90.000000
_cell_volume 1207.903394
_symmetry_space_group_name_H-M "P 21/M"
_symmetry_group_IT_number 11
_symmetry_cell_setting 'monoclinic'
loop_
_space_group_symop_operation_xyz
x,y,z
-x,1/2+y,-z
-x,-y,-z
x,1/2-y,z
loop_
_atom_site_type_symbol
_atom_site_label
_atom_site_fract_x
_atom_site_fract_y
_atom_site_fract_z
Si Si1 0.072610 0.997588 0.048952
Si Si2 0.962430 0.138747 0.487023
Si Si3 0.514645 0.634327 0.222611
Si Si4 0.591639 0.948278 0.574941
Si Si5 0.793789 0.136284 0.673994
Si Si6 0.756773 0.469621 0.265865
O O1 0.043899 0.079191 0.307085
O O2 0.075319 0.888138 0.167480
O O3 0.161926 0.026138 0.803462
O O4 0.000000 0.000000 0.000000
O O5 0.988761 0.250000 0.425243
O O6 0.888057 0.115205 0.435811
O O7 0.489091 0.750000 0.271695
O O8 0.438821 0.562002 0.374594
O O9 0.567160 0.611893 0.370794
O O10 0.562665 0.610812 0.876196
O O11 0.686254 0.952001 0.405091
O O12 0.782272 0.250000 0.766305
O O13 0.743957 0.111083 0.514724
O O14 0.761180 0.075022 0.975077
#
# Coordination Sequence:
#
# PCOD8071869 Si02
#       6
#     4   4   4   4   4   4
#     4  10  19  34  55  76 108 156 190 230 286 330
#     4   9  19  34  51  75 106 147 198 237 278 335
#     4  10  21  41  65  87 118 155 191 235 293 357
#     4  10  22  39  62  93 119 152 193 238 292 347
#     4  10  20  33  53  81 113 152 192 240 292 334
#     4  11  21  36  57  83 120 148 189 242 285 337
#
# _framework density 19.869140000000002
#
# number of rings (size 3 to 8) (size 9 to 14) (size 15 to 20)
#    0.000    2.000    1.667    2.000    0.000    2.667 
#    0.000    1.667    0.000    0.000    0.000    0.000 
#    0.000    0.000    0.000    0.000    0.000    0.000 
#
# Total GULP energy -297324.489169 kJ/mol
# GULP energy per Si atom -12388.520382 kJ/mol
# Density = 1.982392 g / cm^3
# Si number density = 19.869140 Si / 1000 Ang^3
#
#
#
# Elastic Constant Matrix: (Units=GPa)
#
#
# Indices 1 2 3 4 5 6 
#
# 1 99.3486 24.9985 50.5948 0.0000 -0.1806 0.0000
# 2 24.9985 83.4233 18.6565 0.0000 -2.8581 0.0000
# 3 50.5948 18.6565 73.5391 0.0000 9.6963 0.0000
# 4 0.0000 0.0000 0.0000 18.7176 0.0000 2.4374
# 5 -0.1806 -2.8581 9.6963 0.0000 35.3209 0.0000
# 6 0.0000 0.0000 0.0000 2.4374 0.0000 26.0930
#
#
#
# Elastic Compliance Matrix: (Units=1/GPa)
#
#
# Indices 1 2 3 4 5 6 
#
# 1 0.016239 -0.002314 -0.010969 0.000000 0.002907 0.000000
# 2 -0.002314 0.013173 -0.001960 0.000000 0.001592 0.000000
# 3 -0.010969 -0.001960 0.022484 0.000000 -0.006387 0.000000
# 4 0.000000 0.000000 0.000000 0.054084 0.000000 -0.005052
# 5 0.002907 0.001592 -0.006387 0.000000 0.030209 0.000000
# 6 0.000000 0.000000 0.000000 -0.005052 0.000000 0.038796
#
#
# Mechanical properties :
#
#
# Convention : Reuss Voigt Hill
#
# Bulk Modulus (GPa) = 46.70420 49.42341 48.06380
# Shear Modulus (GPa) = 23.51750 26.83037 25.17394
#
# Velocity S-wave (km/s) = 3.44411 3.67870 3.56334
# Velocity P-wave (km/s) = 6.27477 6.55532 6.41658
#
# Compressibility (1/GPa) = 0.02141135
#
# Stress axis : x y z
#
# Youngs Moduli (GPa) = 61.58006 75.91138 44.47577
#
# Poissons Ratio (x) = 0.17562 0.48785
# Poissons Ratio (y) = 0.14247 0.08718
# Poissons Ratio (z) = 0.67546 0.14880
#
# Static dielectric constant tensor:
#      x y z
#    x 3.216410 0.000000 0.682160 
#    y 0.000000 2.979410 0.000000 
#    z 0.682160 0.000000 2.824650 
# 
# 
# High freq. dielectric constant tensor:
#      x y z
#    x 1.777090 0.000000 0.012830 
#    y 0.000000 1.751040 0.000000 
#    z 0.012830 0.000000 1.783070 
# 
# From -- ./inp_files/8945.got.cif
#   From: 2010.06.25/outbox.cif.g09.slc.cpg/sg11_5_cif.got.tgz:8945.got - 2010.06.27 23:14:04.
