data_PCOD8071642
_publ_section_title
;
Structure prediction by ZEFSAII (Michael W. Deem and Ramdas Pophale) SiO2 
 PCOD8071642
Probable space group: P 21/M
;
_chemical_formula_sum "Si O2"
_cell_formula_units_Z 20
_cell_length_a 14.390327
_cell_length_b 8.855044
_cell_length_c 23.702084
_cell_angle_alpha 90.000000
_cell_angle_beta 20.200720
_cell_angle_gamma 90.000000
_cell_volume 1042.934575
_symmetry_space_group_name_H-M "P 21/M"
_symmetry_group_IT_number 11
_symmetry_cell_setting 'monoclinic'
loop_
_space_group_symop_operation_xyz
x,y,z
-x,1/2+y,-z
-x,-y,-z
x,1/2-y,z
loop_
_atom_site_type_symbol
_atom_site_label
_atom_site_fract_x
_atom_site_fract_y
_atom_site_fract_z
Si Si1 0.252072 0.427284 0.254718
Si Si2 0.268493 0.071366 0.473303
Si Si3 0.368804 0.928873 0.629234
Si Si4 0.356273 0.578065 0.305824
Si Si5 0.233508 0.419491 0.018523
O O1 0.231911 0.250000 0.260336
O O2 0.177193 0.482075 0.361937
O O3 0.027422 0.505254 0.343251
O O4 0.552281 0.482788 0.066422
O O5 0.252329 0.250000 0.476690
O O6 0.467172 0.018694 0.409476
O O7 0.380212 0.000903 0.352130
O O8 0.372356 0.750000 0.621678
O O9 0.063562 0.990486 0.809096
O O10 0.500000 0.000000 0.500000
O O11 0.245185 0.750000 0.374647
O O12 0.660631 0.580762 0.106581
O O13 0.231827 0.250000 0.044231
#
# Coordination Sequence:
#
# PCOD8071642 Si02
#       5
#     4   4   4   4   4
#     4  10  19  33  55  85 115 145 181 219 268 328
#     4  11  21  34  55  84 115 146 181 221 271 325
#     4  10  23  42  60  79 107 144 186 232 276 321
#     4   9  18  33  56  83 116 146 176 219 272 327
#     4   8  18  37  57  79 112 145 177 223 276 320
#
# _framework density 19.176658
#
# number of rings (size 3 to 8) (size 9 to 14) (size 15 to 20)
#    1.200    1.200    0.000    3.000    0.000    3.200 
#    0.000    1.000    0.000    0.000    0.000    0.000 
#    0.000    0.000    0.000    0.000    0.000    0.000 
#
# Total GULP energy -247854.112540 kJ/mol
# GULP energy per Si atom -12392.705627 kJ/mol
# Density = 1.913301 g / cm^3
# Si number density = 19.176658 Si / 1000 Ang^3
#
#
#
# Elastic Constant Matrix: (Units=GPa)
#
#
# Indices 1 2 3 4 5 6 
#
# 1 38.9621 27.6546 37.0744 0.0000 -13.1875 0.0000
# 2 27.6546 95.2978 32.6377 0.0000 -9.6392 0.0000
# 3 37.0744 32.6377 100.1021 0.0000 -32.3725 0.0000
# 4 0.0000 0.0000 0.0000 24.2432 0.0000 4.1044
# 5 -13.1875 -9.6392 -32.3725 0.0000 27.2123 0.0000
# 6 0.0000 0.0000 0.0000 4.1044 0.0000 23.2982
#
#
#
# Elastic Compliance Matrix: (Units=1/GPa)
#
#
# Indices 1 2 3 4 5 6 
#
# 1 0.044930 -0.008301 -0.012747 0.000000 0.003668 0.000000
# 2 -0.008301 0.013353 -0.001707 0.000000 -0.001324 0.000000
# 3 -0.012747 -0.001707 0.021249 0.000000 0.018496 0.000000
# 4 0.000000 0.000000 0.000000 0.042517 0.000000 -0.007490
# 5 0.003668 -0.001324 0.018496 0.000000 0.060061 0.000000
# 6 0.000000 0.000000 0.000000 -0.007490 0.000000 0.044241
#
#
# Mechanical properties :
#
#
# Convention : Reuss Voigt Hill
#
# Bulk Modulus (GPa) = 29.39476 47.67725 38.53601
# Shear Modulus (GPa) = 17.65518 24.08378 20.86948
#
# Velocity S-wave (km/s) = 3.03753 3.54770 3.30248
# Velocity P-wave (km/s) = 5.25964 6.45737 5.88903
#
# Compressibility (1/GPa) = 0.03401967
#
# Stress axis : x y z
#
# Youngs Moduli (GPa) = 22.25706 74.88830 47.06026
#
# Poissons Ratio (x) = 0.62167 0.59990
# Poissons Ratio (y) = 0.18476 0.08035
# Poissons Ratio (z) = 0.28372 0.12787
#
# Static dielectric constant tensor:
#      x y z
#    x 3.316400 0.000000 -0.238860 
#    y 0.000000 3.416690 0.000000 
#    z -0.238860 0.000000 3.624850 
# 
# 
# High freq. dielectric constant tensor:
#      x y z
#    x 1.716260 0.000000 -0.015790 
#    y 0.000000 1.748730 0.000000 
#    z -0.015790 0.000000 1.750400 
# 
# From -- ./inp_files/56057.got.cif
#   From: 2010.06.25/outbox.cif.g09.slc.cpg/sg11_29_cif.got.tgz:56057.got - 2010.06.27 23:14:04.
