data_PCOD8071066
_publ_section_title
;
Structure prediction by ZEFSAII (Michael W. Deem and Ramdas Pophale) SiO2 
 PCOD8071066
Probable space group: P 21/M
;
_chemical_formula_sum "Si O2"
_cell_formula_units_Z 32
_cell_length_a 25.297373
_cell_length_b 9.193657
_cell_length_c 20.551449
_cell_angle_alpha 90.000000
_cell_angle_beta 22.262130
_cell_angle_gamma 90.000000
_cell_volume 1810.786370
_symmetry_space_group_name_H-M "P 21/M"
_symmetry_group_IT_number 11
_symmetry_cell_setting 'monoclinic'
loop_
_space_group_symop_operation_xyz
x,y,z
-x,1/2+y,-z
-x,-y,-z
x,1/2-y,z
loop_
_atom_site_type_symbol
_atom_site_label
_atom_site_fract_x
_atom_site_fract_y
_atom_site_fract_z
Si Si1 0.851538 0.417572 0.102291
Si Si2 0.159999 0.081869 0.754525
Si Si3 0.551319 0.922064 0.122537
Si Si4 0.856520 0.918985 0.734133
Si Si5 0.124182 0.082189 0.435865
Si Si6 0.577758 0.921818 0.852661
Si Si7 0.442865 0.419821 0.370888
Si Si8 0.573147 0.081895 0.358145
O O1 0.853939 0.250000 0.119459
O O2 0.800920 0.500814 0.223884
O O3 0.740462 0.446231 0.171272
O O4 0.006993 0.467145 0.902543
O O5 0.161958 0.250000 0.770834
O O6 0.277025 0.050224 0.566923
O O7 0.526288 0.750000 0.141840
O O8 0.468143 0.009252 0.162604
O O9 0.497558 0.975421 0.252855
O O10 0.714987 0.960703 0.932469
O O11 0.887548 0.750000 0.703460
O O12 0.839232 0.969601 0.679000
O O13 0.988169 0.998413 0.617592
O O14 0.084764 0.250000 0.481397
O O15 0.256742 0.049624 0.330112
O O16 0.544329 0.750000 0.893035
O O17 0.500000 0.000000 0.000000
O O18 0.472656 0.250000 0.321041
O O19 0.520608 0.471134 0.347956
O O20 0.535131 0.250000 0.410185
O O21 0.500000 0.000000 0.500000
#
# Coordination Sequence:
#
# PCOD8071066 Si02
#       8
#     4   4   4   4   4   4   4   4
#     4   9  17  29  50  78 103 132 172 219 267 313
#     4   9  17  31  50  74 106 138 170 214 265 316
#     4  11  23  39  56  79 112 148 185 226 272 326
#     4   9  18  34  53  78 110 141 178 222 269 319
#     4   9  18  33  54  82 110 137 176 223 270 319
#     4  11  21  36  58  85 114 143 182 227 270 320
#     4  10  21  36  52  74 107 146 181 218 270 327
#     4  10  19  32  52  78 106 134 175 222 264 314
#
# _framework density 17.671880999999999
#
# number of rings (size 3 to 8) (size 9 to 14) (size 15 to 20)
#    0.000    2.250    2.500    0.750    0.000    3.000 
#    0.000    1.250    0.000    3.000    0.000    0.000 
#    0.000    0.000    0.000    0.000    0.000    0.000 
#
# Total GULP energy -396739.420646 kJ/mol
# GULP energy per Si atom -12398.106895 kJ/mol
# Density = 1.763166 g / cm^3
# Si number density = 17.671881 Si / 1000 Ang^3
#
#
#
# Elastic Constant Matrix: (Units=GPa)
#
#
# Indices 1 2 3 4 5 6 
#
# 1 106.7929 49.5279 64.3741 0.0000 -6.3627 0.0000
# 2 49.5279 69.1729 55.6070 0.0000 -5.1899 0.0000
# 3 64.3741 55.6070 126.9774 0.0000 -10.1721 0.0000
# 4 0.0000 0.0000 0.0000 31.1282 0.0000 1.0810
# 5 -6.3627 -5.1899 -10.1721 0.0000 26.6707 0.0000
# 6 0.0000 0.0000 0.0000 1.0810 0.0000 28.1867
#
#
#
# Elastic Compliance Matrix: (Units=1/GPa)
#
#
# Indices 1 2 3 4 5 6 
#
# 1 0.015632 -0.007433 -0.004628 0.000000 0.000518 0.000000
# 2 -0.007433 0.025856 -0.007524 0.000000 0.000389 0.000000
# 3 -0.004628 -0.007524 0.013730 0.000000 0.002669 0.000000
# 4 0.000000 0.000000 0.000000 0.032168 0.000000 -0.001234
# 5 0.000518 0.000389 0.002669 0.000000 0.038711 0.000000
# 6 0.000000 0.000000 0.000000 -0.001234 0.000000 0.035525
#
#
# Mechanical properties :
#
#
# Convention : Reuss Voigt Hill
#
# Bulk Modulus (GPa) = 62.31172 71.32903 66.82038
# Shear Modulus (GPa) = 24.25517 26.09274 25.17396
#
# Velocity S-wave (km/s) = 3.70879 3.84671 3.77838
# Velocity P-wave (km/s) = 7.32646 7.75759 7.54511
#
# Compressibility (1/GPa) = 0.01604835
#
# Stress axis : x y z
#
# Youngs Moduli (GPa) = 63.97150 38.67609 72.83096
#
# Poissons Ratio (x) = 0.28748 0.33709
# Poissons Ratio (y) = 0.47550 0.54795
# Poissons Ratio (z) = 0.29609 0.29098
#
# Static dielectric constant tensor:
#      x y z
#    x 3.453970 0.000000 -0.372450 
#    y 0.000000 3.300260 0.000000 
#    z -0.372450 0.000000 3.520130 
# 
# 
# High freq. dielectric constant tensor:
#      x y z
#    x 1.665360 0.000000 -0.024800 
#    y 0.000000 1.684550 0.000000 
#    z -0.024800 0.000000 1.687500 
# 
# From -- ./inp_files/67015.got.cif
#   From: 2010.06.25/outbox.cif.g09.slc.cpg/sg11_34_cif.got.tgz:67015.got - 2010.06.27 23:14:04.
