data_PCOD8071630
_publ_section_title
;
Structure prediction by ZEFSAII (Michael W. Deem and Ramdas Pophale) SiO2 
 PCOD8071630
Probable space group: P 21/M
;
_chemical_formula_sum "Si O2"
_cell_formula_units_Z 28
_cell_length_a 5.143440
_cell_length_b 17.050250
_cell_length_c 16.759211
_cell_angle_alpha 90.000000
_cell_angle_beta 75.060372
_cell_angle_gamma 90.000000
_cell_volume 1420.051629
_symmetry_space_group_name_H-M "P 21/M"
_symmetry_group_IT_number 11
_symmetry_cell_setting 'monoclinic'
loop_
_space_group_symop_operation_xyz
x,y,z
-x,1/2+y,-z
-x,-y,-z
x,1/2-y,z
loop_
_atom_site_type_symbol
_atom_site_label
_atom_site_fract_x
_atom_site_fract_y
_atom_site_fract_z
Si Si1 0.306642 0.959954 0.686131
Si Si2 0.202467 0.664774 0.309200
Si Si3 0.228909 0.452168 0.938023
Si Si4 0.742797 0.838633 0.933164
Si Si5 0.108808 0.504361 0.403046
Si Si6 0.663525 0.104692 0.152379
Si Si7 0.793560 0.881701 0.219475
O O1 0.337343 0.891786 0.750608
O O2 0.590269 0.971612 0.620453
O O3 0.198058 0.033218 0.742868
O O4 0.078370 0.947290 0.636678
O O5 0.180745 0.750000 0.354695
O O6 0.108107 0.595567 0.375865
O O7 0.501585 0.655297 0.252888
O O8 0.014414 0.670254 0.246251
O O9 0.406332 0.516790 0.876290
O O10 0.122388 0.390258 0.880111
O O11 0.386862 0.399512 0.991604
O O12 0.000000 0.500000 0.000000
O O13 0.726105 0.750000 0.966705
O O14 0.579714 0.843111 0.862883
O O15 0.053633 0.861462 0.898876
O O16 0.000000 0.500000 0.500000
#
# Coordination Sequence:
#
# PCOD8071630 Si02
#       7
#     4   4   4   4   4   4   4
#     4   9  18  33  55  78 100 132 172 214 255 304
#     4  10  20  34  52  75 107 143 171 207 268 328
#     4   9  20  36  55  77 105 142 184 224 267 318
#     4  11  22  34  51  77 106 138 178 231 278 303
#     4  10  19  33  55  84 109 130 168 218 261 310
#     4  10  20  37  56  73 101 143 185 217 258 324
#     4   9  19  33  51  76 102 134 178 215 254 313
#
# _framework density 19.717592
#
# number of rings (size 3 to 8) (size 9 to 14) (size 15 to 20)
#    0.000    2.286    0.000    2.571    0.000   10.286 
#    0.000    0.000    0.000    5.143    0.000    0.000 
#    0.000    0.000    0.000    0.000    0.000    0.000 
#
# Total GULP energy -346941.418006 kJ/mol
# GULP energy per Si atom -12390.764929 kJ/mol
# Density = 1.967271 g / cm^3
# Si number density = 19.717592 Si / 1000 Ang^3
#
#
#
# Elastic Constant Matrix: (Units=GPa)
#
#
# Indices 1 2 3 4 5 6 
#
# 1 109.5085 21.3077 21.5789 0.0000 17.9229 0.0000
# 2 21.3077 75.7016 26.2872 0.0000 6.0921 0.0000
# 3 21.5789 26.2872 94.2679 0.0000 14.2203 0.0000
# 4 0.0000 0.0000 0.0000 14.4551 0.0000 1.9003
# 5 17.9229 6.0921 14.2203 0.0000 20.0286 0.0000
# 6 0.0000 0.0000 0.0000 1.9003 0.0000 28.6661
#
#
#
# Elastic Compliance Matrix: (Units=1/GPa)
#
#
# Indices 1 2 3 4 5 6 
#
# 1 0.011130 -0.002213 -0.000593 0.000000 -0.008866 0.000000
# 2 -0.002213 0.015120 -0.003712 0.000000 0.000017 0.000000
# 3 -0.000593 -0.003712 0.012912 0.000000 -0.007507 0.000000
# 4 0.000000 0.000000 0.000000 0.069788 0.000000 -0.004626
# 5 -0.008866 0.000017 -0.007507 0.000000 0.063187 0.000000
# 6 0.000000 0.000000 0.000000 -0.004626 0.000000 0.035191
#
#
# Mechanical properties :
#
#
# Convention : Reuss Voigt Hill
#
# Bulk Modulus (GPa) = 38.27852 46.42507 42.35179
# Shear Modulus (GPa) = 21.82696 26.65023 24.23860
#
# Velocity S-wave (km/s) = 3.33074 3.68040 3.50992
# Velocity P-wave (km/s) = 5.85212 6.45419 6.16051
#
# Compressibility (1/GPa) = 0.02612431
#
# Stress axis : x y z
#
# Youngs Moduli (GPa) = 89.84481 66.13546 77.45022
#
# Poissons Ratio (x) = 0.14638 0.04595
# Poissons Ratio (y) = 0.19886 0.28752
# Poissons Ratio (z) = 0.05330 0.24552
#
# Static dielectric constant tensor:
#      x y z
#    x 3.647080 0.000000 0.437530 
#    y 0.000000 3.726850 0.000000 
#    z 0.437530 0.000000 3.595420 
# 
# 
# High freq. dielectric constant tensor:
#      x y z
#    x 1.775730 0.000000 0.012050 
#    y 0.000000 1.745690 0.000000 
#    z 0.012050 0.000000 1.752150 
# 
# From -- ./inp_files/45896.got.cif
#   From: 2010.06.25/outbox.cif.g09.slc.cpg/sg11_23_cif.got.tgz:45896.got - 2010.06.27 23:14:04.
