data_PCOD8071241
_publ_section_title
;
Structure prediction by ZEFSAII (Michael W. Deem and Ramdas Pophale) SiO2 
 PCOD8071241
Probable space group: P 21/M
;
_chemical_formula_sum "Si O2"
_cell_formula_units_Z 32
_cell_length_a 12.242205
_cell_length_b 8.981278
_cell_length_c 28.792501
_cell_angle_alpha 90.000000
_cell_angle_beta 145.662499
_cell_angle_gamma 90.000000
_cell_volume 1785.696222
_symmetry_space_group_name_H-M "P 21/M"
_symmetry_group_IT_number 11
_symmetry_cell_setting 'monoclinic'
loop_
_space_group_symop_operation_xyz
x,y,z
-x,1/2+y,-z
-x,-y,-z
x,1/2-y,z
loop_
_atom_site_type_symbol
_atom_site_label
_atom_site_fract_x
_atom_site_fract_y
_atom_site_fract_z
Si Si1 0.410125 0.574125 0.773142
Si Si2 0.838833 0.920692 0.499576
Si Si3 0.180735 0.075480 0.040213
Si Si4 0.686631 0.923070 0.544481
Si Si5 0.763153 0.923010 0.369945
Si Si6 0.682743 0.575542 0.008266
Si Si7 0.285960 0.078941 0.878780
Si Si8 0.071895 0.423521 0.713081
O O1 0.375745 0.750000 0.764503
O O2 0.620844 0.526702 0.865110
O O3 0.392593 0.518770 0.713660
O O4 0.247423 0.491136 0.745666
O O5 0.914660 0.750000 0.526322
O O6 0.692060 0.948424 0.490647
O O7 0.728925 0.955185 0.412644
O O8 0.021307 0.028793 0.569605
O O9 0.151354 0.250000 0.034142
O O10 0.184295 0.020816 0.987693
O O11 0.000000 0.000000 0.000000
O O12 0.679237 0.750000 0.554291
O O13 0.500000 0.000000 0.500000
O O14 0.875201 0.992064 0.633893
O O15 0.737110 0.750000 0.348977
O O16 0.656614 0.750000 0.994655
O O17 0.775638 0.528471 0.090527
O O18 0.469442 0.512217 0.926161
O O19 0.350774 0.250000 0.902516
O O20 0.110398 0.053131 0.781620
O O21 0.051429 0.250000 0.693308
#
# Coordination Sequence:
#
# PCOD8071241 Si02
#       8
#     4   4   4   4   4   4   4   4
#     4  11  21  35  54  81 112 144 181 228 276 322
#     4   9  19  35  54  79 111 144 179 223 274 321
#     4  10  22  37  55  77 108 147 184 223 271 326
#     4  11  23  39  58  80 111 149 184 224 274 328
#     4  10  19  32  55  84 109 139 181 227 272 322
#     4   9  17  33  53  77 108 143 178 217 271 323
#     4   9  18  31  53  82 109 136 175 226 270 315
#     4  11  21  34  55  85 112 140 182 229 272 324
#
# _framework density 17.920179999999998
#
# number of rings (size 3 to 8) (size 9 to 14) (size 15 to 20)
#    0.000    2.000    2.500    1.500    0.000    3.000 
#    0.000    1.250    0.000    6.000    0.000    0.000 
#    0.000    0.000    0.000    0.000    0.000    0.000 
#
# Total GULP energy -396751.572590 kJ/mol
# GULP energy per Si atom -12398.486643 kJ/mol
# Density = 1.787939 g / cm^3
# Si number density = 17.920180 Si / 1000 Ang^3
#
#
#
# Elastic Constant Matrix: (Units=GPa)
#
#
# Indices 1 2 3 4 5 6 
#
# 1 149.4937 55.5872 80.8809 0.0000 -1.5218 0.0000
# 2 55.5872 76.6489 50.7362 0.0000 0.1913 0.0000
# 3 80.8809 50.7362 112.5316 0.0000 -2.7882 0.0000
# 4 0.0000 0.0000 0.0000 30.1781 0.0000 2.3568
# 5 -1.5218 0.1913 -2.7882 0.0000 29.4254 0.0000
# 6 0.0000 0.0000 0.0000 2.3568 0.0000 28.7573
#
#
#
# Elastic Compliance Matrix: (Units=1/GPa)
#
#
# Indices 1 2 3 4 5 6 
#
# 1 0.011826 -0.004205 -0.006603 0.000000 0.000013 0.000000
# 2 -0.004205 0.020117 -0.006070 0.000000 -0.000923 0.000000
# 3 -0.006603 -0.006070 0.016400 0.000000 0.001252 0.000000
# 4 0.000000 0.000000 0.000000 0.033350 0.000000 -0.002733
# 5 0.000013 -0.000923 0.001252 0.000000 0.034110 0.000000
# 6 0.000000 0.000000 0.000000 -0.002733 0.000000 0.034998
#
#
# Mechanical properties :
#
#
# Convention : Reuss Voigt Hill
#
# Bulk Modulus (GPa) = 68.56332 79.23144 73.89738
# Shear Modulus (GPa) = 26.39653 27.77014 27.08334
#
# Velocity S-wave (km/s) = 3.84214 3.94084 3.89180
# Velocity P-wave (km/s) = 7.61749 8.06328 7.84355
#
# Compressibility (1/GPa) = 0.01458506
#
# Stress axis : x y z
#
# Youngs Moduli (GPa) = 84.56218 49.71020 60.97494
#
# Poissons Ratio (x) = 0.20905 0.40263
# Poissons Ratio (y) = 0.35561 0.37013
# Poissons Ratio (z) = 0.55838 0.30175
#
# Static dielectric constant tensor:
#      x y z
#    x 3.756400 0.000000 -0.390490 
#    y 0.000000 3.416450 0.000000 
#    z -0.390490 0.000000 3.384830 
# 
# 
# High freq. dielectric constant tensor:
#      x y z
#    x 1.693130 0.000000 -0.029430 
#    y 0.000000 1.701490 0.000000 
#    z -0.029430 0.000000 1.681090 
# 
# From -- ./inp_files/64406.got.cif
#   From: 2010.06.25/outbox.cif.g09.slc.cpg/sg11_33_cif.got.tgz:64406.got - 2010.06.27 23:14:04.
