data_PCOD8071173
_publ_section_title
;
Structure prediction by ZEFSAII (Michael W. Deem and Ramdas Pophale) SiO2 
 PCOD8071173
Probable space group: P 21/M
;
_chemical_formula_sum "Si O2"
_cell_formula_units_Z 32
_cell_length_a 19.172602
_cell_length_b 9.663476
_cell_length_c 14.379717
_cell_angle_alpha 90.000000
_cell_angle_beta 37.853791
_cell_angle_gamma 90.000000
_cell_volume 1634.874874
_symmetry_space_group_name_H-M "P 21/M"
_symmetry_group_IT_number 11
_symmetry_cell_setting 'monoclinic'
loop_
_space_group_symop_operation_xyz
x,y,z
-x,1/2+y,-z
-x,-y,-z
x,1/2-y,z
loop_
_atom_site_type_symbol
_atom_site_label
_atom_site_fract_x
_atom_site_fract_y
_atom_site_fract_z
Si Si1 0.838079 0.589799 0.900930
Si Si2 0.765983 0.904294 0.179791
Si Si3 0.734432 0.411421 0.586196
Si Si4 0.728539 0.405489 0.378439
Si Si5 0.457428 0.403179 0.124724
Si Si6 0.360887 0.900748 0.918828
Si Si7 0.034245 0.590365 0.553661
Si Si8 0.531529 0.902861 0.334860
O O1 0.801940 0.750000 0.929767
O O2 0.957004 0.559875 0.725696
O O3 0.834122 0.548238 0.014682
O O4 0.747165 0.495218 0.943703
O O5 0.803789 0.750000 0.166366
O O6 0.629270 0.912136 0.310000
O O7 0.799321 0.999967 0.232016
O O8 0.697363 0.250000 0.634405
O O9 0.760453 0.445100 0.450779
O O10 0.635975 0.515488 0.718136
O O11 0.839788 0.443717 0.543266
O O12 0.768468 0.250000 0.317154
O O13 0.595237 0.423357 0.493593
O O14 0.411293 0.250000 0.141872
O O15 0.572381 0.375125 0.058106
O O16 0.500000 0.500000 0.000000
O O17 0.323549 0.750000 0.917446
O O18 0.447788 0.975984 0.759158
O O19 0.022575 0.750000 0.535555
O O20 0.000000 0.500000 0.500000
O O21 0.538917 0.750000 0.279396
#
# Coordination Sequence:
#
# PCOD8071173 Si02
#       8
#     4   4   4   4   4   4   4   4
#     4   9  20  39  59  81 114 153 191 234 289 343
#     4   9  18  31  51  79 112 152 194 232 275 335
#     4  10  22  41  62  85 117 153 193 241 291 348
#     4  10  19  32  53  80 113 153 191 231 284 340
#     4  11  24  38  56  84 118 153 189 233 290 350
#     4  10  20  33  53  83 113 145 186 235 281 331
#     4  10  23  43  66  88 111 146 193 243 293 345
#     4   9  17  31  50  75 112 156 191 222 275 339
#
# _framework density 19.573363000000001
#
# number of rings (size 3 to 8) (size 9 to 14) (size 15 to 20)
#    0.000    2.250    1.250    1.875    1.750    5.500 
#    0.000    0.625    0.000    0.000    0.000    0.000 
#    0.000    0.000    0.000    0.000    0.000    0.000 
#
# Total GULP energy -396519.009706 kJ/mol
# GULP energy per Si atom -12391.219053 kJ/mol
# Density = 1.952881 g / cm^3
# Si number density = 19.573363 Si / 1000 Ang^3
#
#
#
# Elastic Constant Matrix: (Units=GPa)
#
#
# Indices 1 2 3 4 5 6 
#
# 1 67.8090 43.4996 33.3998 0.0000 15.2402 0.0000
# 2 43.4996 124.9296 51.8701 0.0000 17.6552 0.0000
# 3 33.3998 51.8701 75.5250 0.0000 16.1657 0.0000
# 4 0.0000 0.0000 0.0000 21.4626 0.0000 9.7761
# 5 15.2402 17.6552 16.1657 0.0000 26.9281 0.0000
# 6 0.0000 0.0000 0.0000 9.7761 0.0000 28.3197
#
#
#
# Elastic Compliance Matrix: (Units=1/GPa)
#
#
# Indices 1 2 3 4 5 6 
#
# 1 0.021543 -0.004507 -0.005111 0.000000 -0.006169 0.000000
# 2 -0.004507 0.012375 -0.006099 0.000000 -0.001901 0.000000
# 3 -0.005111 -0.006099 0.020900 0.000000 -0.005656 0.000000
# 4 0.000000 0.000000 0.000000 0.055286 0.000000 -0.019085
# 5 -0.006169 -0.001901 -0.005656 0.000000 0.045269 0.000000
# 6 0.000000 0.000000 0.000000 -0.019085 0.000000 0.041899
#
#
# Mechanical properties :
#
#
# Convention : Reuss Voigt Hill
#
# Bulk Modulus (GPa) = 42.76490 58.42251 50.59370
# Shear Modulus (GPa) = 21.14166 24.64168 22.89167
#
# Velocity S-wave (km/s) = 3.29009 3.55200 3.42355
# Velocity P-wave (km/s) = 6.02734 6.83630 6.44453
#
# Compressibility (1/GPa) = 0.02338366
#
# Stress axis : x y z
#
# Youngs Moduli (GPa) = 46.41973 80.81011 47.84674
#
# Poissons Ratio (x) = 0.36422 0.24455
# Poissons Ratio (y) = 0.20922 0.29180
# Poissons Ratio (z) = 0.23725 0.49284
#
# Static dielectric constant tensor:
#      x y z
#    x 3.385930 0.000000 0.027310 
#    y 0.000000 3.423950 0.000000 
#    z 0.027310 0.000000 3.468430 
# 
# 
# High freq. dielectric constant tensor:
#      x y z
#    x 1.743120 0.000000 0.008720 
#    y 0.000000 1.772960 0.000000 
#    z 0.008720 0.000000 1.750060 
# 
# From -- ./inp_files/54277.got.cif
#   From: 2010.06.25/outbox.cif.g09.slc.cpg/sg11_28_cif.got.tgz:54277.got - 2010.06.27 23:14:04.
