data_PCOD8071609
_publ_section_title
;
Structure prediction by ZEFSAII (Michael W. Deem and Ramdas Pophale) SiO2 
 PCOD8071609
Probable space group: P 21/M
;
_chemical_formula_sum "Si O2"
_cell_formula_units_Z 32
_cell_length_a 20.632530
_cell_length_b 8.845355
_cell_length_c 16.369545
_cell_angle_alpha 90.000000
_cell_angle_beta 146.214342
_cell_angle_gamma 90.000000
_cell_volume 1661.298084
_symmetry_space_group_name_H-M "P 21/M"
_symmetry_group_IT_number 11
_symmetry_cell_setting 'monoclinic'
loop_
_space_group_symop_operation_xyz
x,y,z
-x,1/2+y,-z
-x,-y,-z
x,1/2-y,z
loop_
_atom_site_type_symbol
_atom_site_label
_atom_site_fract_x
_atom_site_fract_y
_atom_site_fract_z
Si Si1 0.653104 0.423571 0.710544
Si Si2 0.564918 0.072027 0.447753
Si Si3 0.710077 0.575104 0.044848
Si Si4 0.051259 0.078510 0.630928
Si Si5 0.677063 0.429633 0.399454
Si Si6 0.508309 0.570166 0.098679
Si Si7 0.944001 0.071555 0.684599
Si Si8 0.159433 0.575476 0.967962
O O1 0.612486 0.250000 0.671919
O O2 0.565948 0.516502 0.676712
O O3 0.646142 0.480997 0.609298
O O4 0.782754 0.444639 0.881868
O O5 0.566237 0.250000 0.441693
O O6 0.612026 0.007010 0.411699
O O7 0.672953 0.750000 0.993995
O O8 0.809157 0.560485 0.218394
O O9 0.761105 0.514255 0.013509
O O10 0.599781 0.479660 0.958401
O O11 0.012238 0.250000 0.583949
O O12 0.990954 0.008795 0.647573
O O13 0.000000 0.000000 0.500000
O O14 0.665306 0.250000 0.374802
O O15 0.625960 0.511597 0.265828
O O16 0.810795 0.477507 0.553471
O O17 0.511451 0.750000 0.094070
O O18 0.500000 0.500000 0.000000
O O19 0.960807 0.250000 0.711915
O O20 0.028477 0.991001 0.839172
O O21 0.155599 0.750000 0.937497
#
# Coordination Sequence:
#
# PCOD8071609 Si02
#       8
#     4   4   4   4   4   4   4   4
#     4   9  18  32  52  81 115 143 180 230 277 326
#     4   9  18  33  55  82 110 146 184 225 276 330
#     4  10  21  38  56  79 109 141 181 225 274 327
#     4   9  19  33  52  76 101 131 172 222 271 318
#     4  10  21  39  60  80 109 148 188 228 278 334
#     4  12  26  41  58  82 111 145 183 226 276 330
#     4   9  20  37  54  76 106 144 185 227 276 332
#     4  10  19  33  55  82 111 146 185 229 277 324
#
# _framework density 19.262048
#
# number of rings (size 3 to 8) (size 9 to 14) (size 15 to 20)
#    0.000    2.250    0.000    3.375    1.750    6.500 
#    0.000    0.625    0.000    0.000    0.000    0.000 
#    0.000    0.000    0.000    0.000    0.000    0.000 
#
# Total GULP energy -396738.023718 kJ/mol
# GULP energy per Si atom -12398.063241 kJ/mol
# Density = 1.921821 g / cm^3
# Si number density = 19.262048 Si / 1000 Ang^3
#
#
#
# Elastic Constant Matrix: (Units=GPa)
#
#
# Indices 1 2 3 4 5 6 
#
# 1 70.6261 25.9795 47.5542 0.0000 0.8586 0.0000
# 2 25.9795 72.1114 47.7485 0.0000 -1.4776 0.0000
# 3 47.5542 47.7485 145.6317 0.0000 -5.8972 0.0000
# 4 0.0000 0.0000 0.0000 34.3485 0.0000 2.4276
# 5 0.8586 -1.4776 -5.8972 0.0000 26.3710 0.0000
# 6 0.0000 0.0000 0.0000 2.4276 0.0000 22.2473
#
#
#
# Elastic Compliance Matrix: (Units=1/GPa)
#
#
# Indices 1 2 3 4 5 6 
#
# 1 0.018901 -0.003462 -0.005116 0.000000 -0.001953 0.000000
# 2 -0.003462 0.018350 -0.004884 0.000000 0.000049 0.000000
# 3 -0.005116 -0.004884 0.010227 0.000000 0.002180 0.000000
# 4 0.000000 0.000000 0.000000 0.029340 0.000000 -0.003202
# 5 -0.001953 0.000049 0.002180 0.000000 0.038474 0.000000
# 6 0.000000 0.000000 0.000000 -0.003202 0.000000 0.045299
#
#
# Mechanical properties :
#
#
# Convention : Reuss Voigt Hill
#
# Bulk Modulus (GPa) = 48.65295 58.99263 53.82279
# Shear Modulus (GPa) = 25.72490 27.73251 26.72870
#
# Velocity S-wave (km/s) = 3.65845 3.79852 3.72914
# Velocity P-wave (km/s) = 6.56954 7.06620 6.82239
#
# Compressibility (1/GPa) = 0.02055374
#
# Stress axis : x y z
#
# Youngs Moduli (GPa) = 52.90746 54.49740 97.78327
#
# Poissons Ratio (x) = 0.18867 0.50025
# Poissons Ratio (y) = 0.18316 0.47756
# Poissons Ratio (z) = 0.27067 0.26616
#
# Static dielectric constant tensor:
#      x y z
#    x 3.355180 0.000000 -0.027950 
#    y 0.000000 2.471340 0.000000 
#    z -0.027950 0.000000 3.779050 
# 
# 
# High freq. dielectric constant tensor:
#      x y z
#    x 1.728320 0.000000 -0.004860 
#    y 0.000000 1.744320 0.000000 
#    z -0.004860 0.000000 1.766420 
# 
# From -- ./inp_files/61797.got.cif
#   From: 2010.06.25/outbox.cif.g09.slc.cpg/sg11_31_cif.got.tgz:61797.got - 2010.06.27 23:14:04.
