data_PCOD8071978
_publ_section_title
;
Structure prediction by ZEFSAII (Michael W. Deem and Ramdas Pophale) SiO2 
 PCOD8071978
Probable space group: P 21/M
;
_chemical_formula_sum "Si O2"
_cell_formula_units_Z 32
_cell_length_a 31.223686
_cell_length_b 8.665783
_cell_length_c 14.279355
_cell_angle_alpha 90.000000
_cell_angle_beta 27.143601
_cell_angle_gamma 90.000000
_cell_volume 1762.694281
_symmetry_space_group_name_H-M "P 21/M"
_symmetry_group_IT_number 11
_symmetry_cell_setting 'monoclinic'
loop_
_space_group_symop_operation_xyz
x,y,z
-x,1/2+y,-z
-x,-y,-z
x,1/2-y,z
loop_
_atom_site_type_symbol
_atom_site_label
_atom_site_fract_x
_atom_site_fract_y
_atom_site_fract_z
Si Si1 0.155164 0.431906 0.880820
Si Si2 0.693519 0.568084 0.274191
Si Si3 0.444853 0.430979 0.298429
Si Si4 0.299208 0.930672 0.456734
Si Si5 0.401373 0.066396 0.725192
Si Si6 0.768883 0.931460 0.594854
Si Si7 0.644742 0.068746 0.985111
Si Si8 0.978966 0.569269 0.141665
O O1 0.140089 0.250000 0.907634
O O2 0.054216 0.512036 0.071658
O O3 0.206708 0.487914 0.876665
O O4 0.218853 0.476846 0.668292
O O5 0.690644 0.750000 0.284495
O O6 0.608789 0.507624 0.504479
O O7 0.676507 0.514619 0.200771
O O8 0.427821 0.250000 0.315661
O O9 0.402801 0.522276 0.291409
O O10 0.553803 0.470074 0.099120
O O11 0.282584 0.750000 0.502043
O O12 0.292727 0.976429 0.360999
O O13 0.409169 0.250000 0.718870
O O14 0.500000 0.000000 0.500000
O O15 0.367986 0.993319 0.886107
O O16 0.755989 0.750000 0.605375
O O17 0.877143 0.981971 0.375998
O O18 0.732933 0.982667 0.767012
O O19 0.663352 0.250000 0.953870
O O20 0.986684 0.750000 0.116384
O O21 0.000000 0.500000 0.000000
#
# Coordination Sequence:
#
# PCOD8071978 Si02
#       8
#     4   4   4   4   4   4   4   4
#     4  10  19  34  56  82 113 146 181 227 279 329
#     4   8  16  32  54  80 111 145 178 221 277 326
#     4   9  18  35  54  75 110 150 186 225 273 327
#     4  11  21  33  53  81 111 146 189 229 270 327
#     4  11  20  35  58  85 114 148 189 231 277 331
#     4  11  24  40  56  78 111 151 187 228 282 336
#     4  11  23  39  57  81 112 149 190 235 282 333
#     4  11  22  36  58  84 111 144 185 232 281 332
#
# _framework density 18.154026999999999
#
# number of rings (size 3 to 8) (size 9 to 14) (size 15 to 20)
#    0.000    1.750    2.500    3.750    0.000    3.000 
#    0.000    1.875    0.000    0.750    0.000    0.000 
#    0.000    0.000    0.000    0.000    0.000    0.000 
#
# Total GULP energy -396795.739058 kJ/mol
# GULP energy per Si atom -12399.866846 kJ/mol
# Density = 1.811271 g / cm^3
# Si number density = 18.154027 Si / 1000 Ang^3
#
#
#
# Elastic Constant Matrix: (Units=GPa)
#
#
# Indices 1 2 3 4 5 6 
#
# 1 124.2230 36.4996 64.4367 0.0000 -5.4946 0.0000
# 2 36.4996 66.1988 39.4767 0.0000 -7.9134 0.0000
# 3 64.4367 39.4767 114.6439 0.0000 -2.7951 0.0000
# 4 0.0000 0.0000 0.0000 27.0821 0.0000 -1.1320
# 5 -5.4946 -7.9134 -2.7951 0.0000 22.2466 0.0000
# 6 0.0000 0.0000 0.0000 -1.1320 0.0000 30.1786
#
#
#
# Elastic Compliance Matrix: (Units=1/GPa)
#
#
# Indices 1 2 3 4 5 6 
#
# 1 0.011916 -0.003091 -0.005605 0.000000 0.001139 0.000000
# 2 -0.003091 0.020633 -0.005223 0.000000 0.005920 0.000000
# 3 -0.005605 -0.005223 0.013634 0.000000 -0.001529 0.000000
# 4 0.000000 0.000000 0.000000 0.036983 0.000000 0.001387
# 5 0.001139 0.005920 -0.001529 0.000000 0.047146 0.000000
# 6 0.000000 0.000000 0.000000 0.001387 0.000000 0.033188
#
#
# Mechanical properties :
#
#
# Convention : Reuss Voigt Hill
#
# Bulk Modulus (GPa) = 54.51319 65.09906 59.80612
# Shear Modulus (GPa) = 25.32234 26.87830 26.10032
#
# Velocity S-wave (km/s) = 3.73884 3.85199 3.79583
# Velocity P-wave (km/s) = 6.98082 7.46464 7.22678
#
# Compressibility (1/GPa) = 0.01834419
#
# Stress axis : x y z
#
# Youngs Moduli (GPa) = 83.91797 48.46680 73.34372
#
# Poissons Ratio (x) = 0.14983 0.41113
# Poissons Ratio (y) = 0.25942 0.38306
# Poissons Ratio (z) = 0.47040 0.25314
#
# Static dielectric constant tensor:
#      x y z
#    x 3.758280 0.000000 -0.113300 
#    y 0.000000 3.329980 0.000000 
#    z -0.113300 0.000000 3.192510 
# 
# 
# High freq. dielectric constant tensor:
#      x y z
#    x 1.709910 0.000000 -0.006840 
#    y 0.000000 1.705590 0.000000 
#    z -0.006840 0.000000 1.678180 
# 
# From -- ./inp_files/45121.got.cif
#   From: 2010.06.25/outbox.cif.g09.slc.cpg/sg11_23_cif.got.tgz:45121.got - 2010.06.27 23:14:04.
