data_PCOD8071323
_publ_section_title
;
Structure prediction by ZEFSAII (Michael W. Deem and Ramdas Pophale) SiO2 
 PCOD8071323
Probable space group: P 21/M
;
_chemical_formula_sum "Si O2"
_cell_formula_units_Z 32
_cell_length_a 14.560484
_cell_length_b 13.173058
_cell_length_c 15.327097
_cell_angle_alpha 90.000000
_cell_angle_beta 38.461057
_cell_angle_gamma 90.000000
_cell_volume 1828.523447
_symmetry_space_group_name_H-M "P 21/M"
_symmetry_group_IT_number 11
_symmetry_cell_setting 'monoclinic'
loop_
_space_group_symop_operation_xyz
x,y,z
-x,1/2+y,-z
-x,-y,-z
x,1/2-y,z
loop_
_atom_site_type_symbol
_atom_site_label
_atom_site_fract_x
_atom_site_fract_y
_atom_site_fract_z
Si Si1 0.055647 0.634695 0.751144
Si Si2 0.616817 0.135121 0.436992
Si Si3 0.972485 0.495057 0.661390
Si Si4 0.159766 0.131368 0.389363
Si Si5 0.800390 0.366044 0.924326
Si Si6 0.522515 0.636344 0.779077
Si Si7 0.119194 0.488277 0.987389
Si Si8 0.559819 0.498881 0.315597
O O1 0.026874 0.750000 0.742739
O O2 0.208121 0.622554 0.688643
O O3 0.064857 0.563364 0.659832
O O4 0.926152 0.602354 0.913800
O O5 0.567420 0.250000 0.464978
O O6 0.560967 0.080935 0.392519
O O7 0.538967 0.093865 0.582263
O O8 0.887642 0.571984 0.661468
O O9 0.854311 0.427052 0.800175
O O10 0.082467 0.419078 0.530512
O O11 0.114431 0.250000 0.416916
O O12 0.335644 0.118441 0.265949
O O13 0.853062 0.250000 0.878525
O O14 0.623456 0.376050 0.053779
O O15 0.867360 0.408540 0.965637
O O16 0.526752 0.750000 0.735271
O O17 0.522464 0.553626 0.703322
O O18 0.277139 0.461037 0.828807
O O19 0.000000 0.500000 0.000000
#
# Coordination Sequence:
#
# PCOD8071323 Si02
#       8
#     4   4   4   4   4   4   4   4
#     4  10  20  34  52  73 102 135 169 206 252 306
#     4  10  20  32  49  71  97 134 168 204 251 300
#     4  10  20  34  53  76 104 132 167 209 257 304
#     4  10  20  34  54  77 102 132 168 211 254 305
#     4   9  19  34  53  75 102 134 169 212 252 300
#     4   9  18  33  53  75  98 131 169 206 252 298
#     4  10  19  33  51  75 101 134 172 206 254 297
#     4  10  19  33  52  70 103 130 167 215 245 305
#
# _framework density 17.500458999999999
#
# number of rings (size 3 to 8) (size 9 to 14) (size 15 to 20)
#    0.000    2.250    1.250    1.875    0.000    2.000 
#    0.000    0.000    0.000    0.750    0.000    0.000 
#    0.000    0.000    0.000    0.000    0.000    0.000 
#
# Total GULP energy -396819.698678 kJ/mol
# GULP energy per Si atom -12400.615584 kJ/mol
# Density = 1.746063 g / cm^3
# Si number density = 17.500459 Si / 1000 Ang^3
#
#
#
# Elastic Constant Matrix: (Units=GPa)
#
#
# Indices 1 2 3 4 5 6 
#
# 1 60.6796 32.4404 17.6090 0.0000 -2.2344 0.0000
# 2 32.4404 110.1505 48.4983 0.0000 -1.3935 0.0000
# 3 17.6090 48.4983 87.0566 0.0000 0.1427 0.0000
# 4 0.0000 0.0000 0.0000 25.7465 0.0000 -1.4322
# 5 -2.2344 -1.3935 0.1427 0.0000 26.1818 0.0000
# 6 0.0000 0.0000 0.0000 -1.4322 0.0000 24.3436
#
#
#
# Elastic Compliance Matrix: (Units=1/GPa)
#
#
# Indices 1 2 3 4 5 6 
#
# 1 0.019676 -0.005331 -0.001012 0.000000 0.001401 0.000000
# 2 -0.005331 0.013486 -0.006435 0.000000 0.000298 0.000000
# 3 -0.001012 -0.006435 0.015277 0.000000 -0.000512 0.000000
# 4 0.000000 0.000000 0.000000 0.038968 0.000000 0.002293
# 5 0.001401 0.000298 -0.000512 0.000000 0.038333 0.000000
# 6 0.000000 0.000000 0.000000 0.002293 0.000000 0.041213
#
#
# Mechanical properties :
#
#
# Convention : Reuss Voigt Hill
#
# Bulk Modulus (GPa) = 43.70279 50.55357 47.12818
# Shear Modulus (GPa) = 24.98308 25.87700 25.43004
#
# Velocity S-wave (km/s) = 3.78242 3.84949 3.81610
# Velocity P-wave (km/s) = 6.64094 6.97910 6.81212
#
# Compressibility (1/GPa) = 0.02288184
#
# Stress axis : x y z
#
# Youngs Moduli (GPa) = 50.82463 74.15349 65.45763
#
# Poissons Ratio (x) = 0.39534 0.06625
# Poissons Ratio (y) = 0.27096 0.42120
# Poissons Ratio (z) = 0.05144 0.47716
#
# Static dielectric constant tensor:
#      x y z
#    x 3.131990 0.000000 -0.025270 
#    y 0.000000 3.346250 0.000000 
#    z -0.025270 0.000000 3.347630 
# 
# 
# High freq. dielectric constant tensor:
#      x y z
#    x 1.671590 0.000000 -0.001290 
#    y 0.000000 1.681400 0.000000 
#    z -0.001290 0.000000 1.682650 
# 
# From -- ./inp_files/26559.got.cif
#   From: 2010.06.25/outbox.cif.g09.slc.cpg/sg11_14_cif.got.tgz:26559.got - 2010.06.27 23:14:04.
