data_PCOD8071336
_publ_section_title
;
Structure prediction by ZEFSAII (Michael W. Deem and Ramdas Pophale) SiO2 
 PCOD8071336
Probable space group: P 21/M
;
_chemical_formula_sum "Si O2"
_cell_formula_units_Z 32
_cell_length_a 14.990680
_cell_length_b 8.972279
_cell_length_c 30.430049
_cell_angle_alpha 90.000000
_cell_angle_beta 28.722980
_cell_angle_gamma 90.000000
_cell_volume 1966.926657
_symmetry_space_group_name_H-M "P 21/M"
_symmetry_group_IT_number 11
_symmetry_cell_setting 'monoclinic'
loop_
_space_group_symop_operation_xyz
x,y,z
-x,1/2+y,-z
-x,-y,-z
x,1/2-y,z
loop_
_atom_site_type_symbol
_atom_site_label
_atom_site_fract_x
_atom_site_fract_y
_atom_site_fract_z
Si Si1 0.234339 0.078257 0.596295
Si Si2 0.757566 0.078255 0.073067
Si Si3 0.467543 0.924556 0.914031
Si Si4 0.822824 0.424555 0.795602
Si Si5 0.777353 0.426604 0.240881
Si Si6 0.852448 0.073035 0.882517
Si Si7 0.458279 0.077494 0.586924
Si Si8 0.177338 0.077493 0.867872
O O1 0.265265 0.250000 0.569998
O O2 0.310768 0.048468 0.612037
O O3 0.018938 0.033257 0.688976
O O4 0.338202 0.975720 0.516066
O O5 0.740517 0.250000 0.094737
O O6 0.604818 0.033246 0.103100
O O7 0.724595 0.975726 0.129668
O O8 0.957656 0.048463 0.965156
O O9 0.493375 0.750000 0.907974
O O10 0.665191 0.999996 0.834810
O O11 0.322245 0.981177 0.013366
O O12 0.789315 0.250000 0.809327
O O13 0.815433 0.481177 0.848966
O O14 0.790293 0.250000 0.236567
O O15 0.603386 0.481382 0.344721
O O16 0.740922 0.481387 0.207177
O O17 0.965027 0.495849 0.178322
O O18 0.885121 0.250000 0.871626
O O19 0.467232 0.250000 0.596289
O O20 0.223334 0.250000 0.840193
#
# Coordination Sequence:
#
# PCOD8071336 Si02
#       8
#     4   4   4   4   4   4   4   4
#     4   9  18  33  50  71  98 129 165 208 251 290
#     4   9  18  33  50  71  98 129 165 208 251 290
#     4  10  20  33  50  70 100 136 172 210 246 289
#     4  10  20  33  50  70 100 136 172 210 246 289
#     4  12  22  31  49  76 102 131 168 205 246 303
#     4  10  19  35  49  66 100 139 173 209 248 283
#     4  10  19  33  52  71  98 130 163 204 253 301
#     4  10  19  33  52  71  98 130 163 204 253 301
#
# _framework density 16.269036
#
# number of rings (size 3 to 8) (size 9 to 14) (size 15 to 20)
#    0.000    2.000    2.500    2.250    0.000    3.000 
#    0.000    0.000    0.000    0.000    0.000    0.875 
#    0.000    0.000    0.000    0.000    0.000    0.000 
#
# Total GULP energy -396908.692681 kJ/mol
# GULP energy per Si atom -12403.396646 kJ/mol
# Density = 1.623201 g / cm^3
# Si number density = 16.269036 Si / 1000 Ang^3
#
#
#
# Elastic Constant Matrix: (Units=GPa)
#
#
# Indices 1 2 3 4 5 6 
#
# 1 89.4911 36.7764 53.5949 0.0000 0.4378 0.0000
# 2 36.7764 61.9707 39.5772 0.0000 5.0647 0.0000
# 3 53.5949 39.5772 90.5741 0.0000 1.5409 0.0000
# 4 0.0000 0.0000 0.0000 27.0493 0.0000 -0.7745
# 5 0.4378 5.0647 1.5409 0.0000 20.0535 0.0000
# 6 0.0000 0.0000 0.0000 -0.7745 0.0000 27.4789
#
#
#
# Elastic Compliance Matrix: (Units=1/GPa)
#
#
# Indices 1 2 3 4 5 6 
#
# 1 0.018649 -0.005743 -0.008555 0.000000 0.001701 0.000000
# 2 -0.005743 0.024644 -0.007276 0.000000 -0.005540 0.000000
# 3 -0.008555 -0.007276 0.019273 0.000000 0.000544 0.000000
# 4 0.000000 0.000000 0.000000 0.036999 0.000000 0.001043
# 5 0.001701 -0.005540 0.000544 0.000000 0.051187 0.000000
# 6 0.000000 0.000000 0.000000 0.001043 0.000000 0.036421
#
#
# Mechanical properties :
#
#
# Convention : Reuss Voigt Hill
#
# Bulk Modulus (GPa) = 51.49610 55.77032 53.63321
# Shear Modulus (GPa) = 21.11535 22.38884 21.75209
#
# Velocity S-wave (km/s) = 3.60653 3.71369 3.66050
# Velocity P-wave (km/s) = 7.00459 7.26245 7.13468
#
# Compressibility (1/GPa) = 0.01941895
#
# Stress axis : x y z
#
# Youngs Moduli (GPa) = 53.62111 40.57713 51.88639
#
# Poissons Ratio (x) = 0.23303 0.44388
# Poissons Ratio (y) = 0.30794 0.37753
# Poissons Ratio (z) = 0.45872 0.29524
#
# Static dielectric constant tensor:
#      x y z
#    x 3.010530 0.000000 0.123760 
#    y 0.000000 3.054850 0.000000 
#    z 0.123760 0.000000 3.079080 
# 
# 
# High freq. dielectric constant tensor:
#      x y z
#    x 1.609010 0.000000 0.010300 
#    y 0.000000 1.628950 0.000000 
#    z 0.010300 0.000000 1.614720 
# 
# From -- ./inp_files/51396.got.cif
#   From: 2010.06.25/outbox.cif.g09.slc.cpg/sg11_26_cif.got.tgz:51396.got - 2010.06.27 23:14:04.
