data_PCOD8071690
_publ_section_title
;
Structure prediction by ZEFSAII (Michael W. Deem and Ramdas Pophale) SiO2 
 PCOD8071690
Probable space group: P 21/M
;
_chemical_formula_sum "Si O2"
_cell_formula_units_Z 28
_cell_length_a 9.915816
_cell_length_b 8.882048
_cell_length_c 28.278995
_cell_angle_alpha 90.000000
_cell_angle_beta 37.092537
_cell_angle_gamma 90.000000
_cell_volume 1502.096461
_symmetry_space_group_name_H-M "P 21/M"
_symmetry_group_IT_number 11
_symmetry_cell_setting 'monoclinic'
loop_
_space_group_symop_operation_xyz
x,y,z
-x,1/2+y,-z
-x,-y,-z
x,1/2-y,z
loop_
_atom_site_type_symbol
_atom_site_label
_atom_site_fract_x
_atom_site_fract_y
_atom_site_fract_z
Si Si1 0.535510 0.574325 0.195126
Si Si2 0.851301 0.073089 0.627642
Si Si3 0.296715 0.424003 0.031682
Si Si4 0.812426 0.078848 0.193757
Si Si5 0.358586 0.072042 0.497234
Si Si6 0.561101 0.925330 0.630466
Si Si7 0.229234 0.572393 0.951821
O O1 0.543333 0.750000 0.181535
O O2 0.303990 0.525599 0.284717
O O3 0.739546 0.533515 0.172755
O O4 0.564803 0.483384 0.138362
O O5 0.843370 0.250000 0.621148
O O6 0.100056 0.019036 0.571418
O O7 0.761571 0.000560 0.604149
O O8 0.344420 0.250000 0.006217
O O9 0.078002 0.439207 0.126430
O O10 0.500000 0.500000 0.000000
O O11 0.271703 0.520971 0.992324
O O12 0.753823 0.250000 0.194590
O O13 0.680997 0.038499 0.278771
O O14 0.379294 0.250000 0.497162
O O15 0.450149 0.016546 0.420478
O O16 0.500000 0.000000 0.500000
O O17 0.617622 0.750000 0.614492
O O18 0.209675 0.750000 0.953879
O O19 0.000000 0.500000 0.000000
#
# Coordination Sequence:
#
# PCOD8071690 Si02
#       7
#     4   4   4   4   4   4   4
#     4  10  19  33  56  84 113 143 184 232 280 328
#     4   9  19  35  56  83 113 143 181 230 275 325
#     4  11  23  39  57  80 114 153 191 232 279 332
#     4   9  18  34  56  80 110 143 184 232 276 326
#     4  10  21  37  55  79 115 149 181 223 272 329
#     4   9  18  34  58  84 107 139 184 229 272 324
#     4  12  23  37  59  85 113 147 189 233 281 332
#
# _framework density 18.640612999999998
#
# number of rings (size 3 to 8) (size 9 to 14) (size 15 to 20)
#    0.000    2.000    1.429    2.571    0.000    2.286 
#    2.571    0.000    0.000    0.000    0.000    0.000 
#    0.000    0.000    0.000    0.000    0.000    0.000 
#
# Total GULP energy -347158.076268 kJ/mol
# GULP energy per Si atom -12398.502724 kJ/mol
# Density = 1.859819 g / cm^3
# Si number density = 18.640613 Si / 1000 Ang^3
#
#
#
# Elastic Constant Matrix: (Units=GPa)
#
#
# Indices 1 2 3 4 5 6 
#
# 1 139.2955 45.6364 79.5807 0.0000 0.4250 0.0000
# 2 45.6364 83.4033 47.3881 0.0000 2.8614 0.0000
# 3 79.5807 47.3881 139.7073 0.0000 3.6634 0.0000
# 4 0.0000 0.0000 0.0000 25.2379 0.0000 1.9504
# 5 0.4250 2.8614 3.6634 0.0000 28.3965 0.0000
# 6 0.0000 0.0000 0.0000 1.9504 0.0000 34.9082
#
#
#
# Elastic Compliance Matrix: (Units=1/GPa)
#
#
# Indices 1 2 3 4 5 6 
#
# 1 0.011281 -0.003144 -0.005382 0.000000 0.000842 0.000000
# 2 -0.003144 0.015749 -0.003523 0.000000 -0.001085 0.000000
# 3 -0.005382 -0.003523 0.011446 0.000000 -0.001041 0.000000
# 4 0.000000 0.000000 0.000000 0.039795 0.000000 -0.002223
# 5 0.000842 -0.001085 -0.001041 0.000000 0.035447 0.000000
# 6 0.000000 0.000000 0.000000 -0.002223 0.000000 0.028771
#
#
# Mechanical properties :
#
#
# Convention : Reuss Voigt Hill
#
# Bulk Modulus (GPa) = 69.54547 78.62406 74.08477
# Shear Modulus (GPa) = 29.17543 30.36191 29.76867
#
# Velocity S-wave (km/s) = 3.96049 4.04022 4.00056
# Velocity P-wave (km/s) = 7.63568 8.00219 7.82108
#
# Compressibility (1/GPa) = 0.01437908
#
# Stress axis : x y z
#
# Youngs Moduli (GPa) = 88.64471 63.49629 87.37050
#
# Poissons Ratio (x) = 0.19962 0.47020
# Poissons Ratio (y) = 0.27869 0.30778
# Poissons Ratio (z) = 0.47705 0.22368
#
# Static dielectric constant tensor:
#      x y z
#    x 3.118730 0.000000 0.081490 
#    y 0.000000 3.514400 0.000000 
#    z 0.081490 0.000000 3.925450 
# 
# 
# High freq. dielectric constant tensor:
#      x y z
#    x 1.701120 0.000000 0.004980 
#    y 0.000000 1.725140 0.000000 
#    z 0.004980 0.000000 1.742470 
# 
# From -- ./inp_files/70781.got.cif
#   From: 2010.06.25/outbox.cif.g09.slc.cpg/sg11_36_cif.got.tgz:70781.got - 2010.06.27 23:14:04.
