data_PCOD8071926
_publ_section_title
;
Structure prediction by ZEFSAII (Michael W. Deem and Ramdas Pophale) SiO2 
 PCOD8071926
Probable space group: P 21/M
;
_chemical_formula_sum "Si O2"
_cell_formula_units_Z 28
_cell_length_a 22.822590
_cell_length_b 8.894749
_cell_length_c 21.331687
_cell_angle_alpha 90.000000
_cell_angle_beta 160.145373
_cell_angle_gamma 90.000000
_cell_volume 1470.740456
_symmetry_space_group_name_H-M "P 21/M"
_symmetry_group_IT_number 11
_symmetry_cell_setting 'monoclinic'
loop_
_space_group_symop_operation_xyz
x,y,z
-x,1/2+y,-z
-x,-y,-z
x,1/2-y,z
loop_
_atom_site_type_symbol
_atom_site_label
_atom_site_fract_x
_atom_site_fract_y
_atom_site_fract_z
Si Si1 0.311116 0.426190 0.243864
Si Si2 0.987996 0.928841 0.274322
Si Si3 0.700433 0.073386 0.325862
Si Si4 0.977329 0.071630 0.831767
Si Si5 0.681709 0.926015 0.049508
Si Si6 0.335701 0.073728 0.412679
Si Si7 0.186230 0.071670 0.685122
O O1 0.342001 0.250000 0.265174
O O2 0.475342 0.511228 0.380043
O O3 0.288212 0.468366 0.293547
O O4 0.140176 0.482718 0.036529
O O5 0.983799 0.750000 0.268598
O O6 0.817548 0.996744 0.136709
O O7 0.155768 0.985186 0.481116
O O8 0.995505 0.989990 0.211223
O O9 0.721926 0.250000 0.333770
O O10 0.710541 0.986801 0.270762
O O11 0.513458 0.036324 0.167695
O O12 0.958882 0.250000 0.815530
O O13 0.802466 0.001917 0.681467
O O14 0.716006 0.750000 0.084019
O O15 0.714222 0.984906 0.152611
O O16 0.334051 0.250000 0.422501
O O17 0.169962 0.250000 0.665713
O O18 0.000000 0.000000 0.500000
#
# Coordination Sequence:
#
# PCOD8071926 Si02
#       7
#     4   4   4   4   4   4   4
#     4   9  19  35  55  81 109 140 181 223 264 316
#     4   9  18  33  52  77 104 134 174 216 257 304
#     4  10  19  34  56  78 103 133 167 213 266 312
#     4  10  20  34  56  81 106 140 183 225 264 314
#     4   9  18  32  52  77 102 131 169 211 257 308
#     4  10  20  34  54  80 112 144 174 219 274 321
#     4  11  20  33  54  78 105 134 169 214 261 310
#
# _framework density 19.038029000000002
#
# number of rings (size 3 to 8) (size 9 to 14) (size 15 to 20)
#    0.000    2.286    1.429    1.714    0.000    2.286 
#    0.000    5.714    0.000    0.000    0.000    0.000 
#    0.000    0.000    0.000    0.000    0.000    0.000 
#
# Total GULP energy -347208.575526 kJ/mol
# GULP energy per Si atom -12400.306269 kJ/mol
# Density = 1.899470 g / cm^3
# Si number density = 19.038029 Si / 1000 Ang^3
#
#
#
# Elastic Constant Matrix: (Units=GPa)
#
#
# Indices 1 2 3 4 5 6 
#
# 1 146.0590 29.6001 70.0307 0.0000 14.8088 0.0000
# 2 29.6001 35.0856 19.7955 0.0000 6.8889 0.0000
# 3 70.0307 19.7955 98.5253 0.0000 24.8873 0.0000
# 4 0.0000 0.0000 0.0000 19.4656 0.0000 1.5898
# 5 14.8088 6.8889 24.8873 0.0000 29.8340 0.0000
# 6 0.0000 0.0000 0.0000 1.5898 0.0000 24.0910
#
#
#
# Elastic Compliance Matrix: (Units=1/GPa)
#
#
# Indices 1 2 3 4 5 6 
#
# 1 0.011376 -0.005792 -0.007391 0.000000 0.001856 0.000000
# 2 -0.005792 0.035252 -0.002073 0.000000 -0.003536 0.000000
# 3 -0.007391 -0.002073 0.018716 0.000000 -0.011465 0.000000
# 4 0.000000 0.000000 0.000000 0.051651 0.000000 -0.003408
# 5 0.001856 -0.003536 -0.011465 0.000000 0.042978 0.000000
# 6 0.000000 0.000000 0.000000 -0.003408 0.000000 0.041734
#
#
# Mechanical properties :
#
#
# Convention : Reuss Voigt Hill
#
# Bulk Modulus (GPa) = 28.70926 57.61362 43.16144
# Shear Modulus (GPa) = 20.50624 25.36103 22.93363
#
# Velocity S-wave (km/s) = 3.28551 3.65379 3.47453
# Velocity P-wave (km/s) = 5.43189 6.93746 6.23032
#
# Compressibility (1/GPa) = 0.03483197
#
# Stress axis : x y z
#
# Youngs Moduli (GPa) = 87.90549 28.36747 53.43107
#
# Poissons Ratio (x) = 0.16429 0.39491
# Poissons Ratio (y) = 0.50912 0.11076
# Poissons Ratio (z) = 0.64971 0.05880
#
# Static dielectric constant tensor:
#      x y z
#    x 3.455610 0.000000 -0.002250 
#    y 0.000000 3.198160 0.000000 
#    z -0.002250 0.000000 3.649800 
# 
# 
# High freq. dielectric constant tensor:
#      x y z
#    x 1.743710 0.000000 0.009210 
#    y 0.000000 1.705700 0.000000 
#    z 0.009210 0.000000 1.751610 
# 
# From -- ./inp_files/66731.got.cif
#   From: 2010.06.25/outbox.cif.g09.slc.cpg/sg11_34_cif.got.tgz:66731.got - 2010.06.27 23:14:04.
