data_PCOD8071964
_publ_section_title
;
Structure prediction by ZEFSAII (Michael W. Deem and Ramdas Pophale) SiO2 
 PCOD8071964
Probable space group: P 21/M
;
_chemical_formula_sum "Si O2"
_cell_formula_units_Z 32
_cell_length_a 12.402537
_cell_length_b 8.600121
_cell_length_c 31.246565
_cell_angle_alpha 90.000000
_cell_angle_beta 151.034497
_cell_angle_gamma 90.000000
_cell_volume 1614.048353
_symmetry_space_group_name_H-M "P 21/M"
_symmetry_group_IT_number 11
_symmetry_cell_setting 'monoclinic'
loop_
_space_group_symop_operation_xyz
x,y,z
-x,1/2+y,-z
-x,-y,-z
x,1/2-y,z
loop_
_atom_site_type_symbol
_atom_site_label
_atom_site_fract_x
_atom_site_fract_y
_atom_site_fract_z
Si Si1 0.977657 0.065833 0.945613
Si Si2 0.336635 0.570176 0.009158
Si Si3 0.207870 0.573321 0.814558
Si Si4 0.944929 0.568081 0.156681
Si Si5 0.655532 0.067502 0.763362
Si Si6 0.763177 0.934211 0.432133
Si Si7 0.803497 0.929615 0.618027
Si Si8 0.609745 0.431217 0.469504
O O1 0.019072 0.250000 0.958356
O O2 0.736215 0.025032 0.839853
O O3 0.000000 0.000000 0.000000
O O4 0.171352 0.978046 0.988802
O O5 0.309941 0.750000 0.988376
O O6 0.583666 0.541226 0.112504
O O7 0.283326 0.468519 0.948402
O O8 0.292337 0.750000 0.846573
O O9 0.046552 0.533117 0.797808
O O10 0.058701 0.546569 0.720728
O O11 0.954407 0.750000 0.170563
O O12 0.153714 0.505812 0.202159
O O13 0.644535 0.250000 0.754200
O O14 0.416085 0.000781 0.665440
O O15 0.779720 0.750000 0.436578
O O16 0.681676 0.981108 0.451206
O O17 0.000000 0.000000 0.500000
O O18 0.750747 0.750000 0.589342
O O19 0.633166 0.984008 0.596773
O O20 0.781798 0.029252 0.567332
O O21 0.618881 0.250000 0.462028
#
# Coordination Sequence:
#
# PCOD8071964 Si02
#       8
#     4   4   4   4   4   4   4   4
#     4  10  20  39  62  85 110 144 187 235 283 336
#     4  11  22  36  53  78 111 148 186 228 277 331
#     4  11  21  34  52  80 115 148 184 228 276 332
#     4  10  19  34  56  81 110 146 185 229 279 335
#     4   8  18  36  59  83 109 143 187 230 277 334
#     4  11  22  39  60  85 116 152 192 242 294 344
#     4   9  20  37  58  84 114 150 191 235 284 343
#     4  10  20  37  60  85 113 147 188 237 290 347
#
# _framework density 19.825923
#
# number of rings (size 3 to 8) (size 9 to 14) (size 15 to 20)
#    0.000    2.000    0.000    4.875    0.000    1.500 
#    2.250    6.875    0.000    0.000    0.000    0.000 
#    0.000    0.000    0.000    0.000    0.000    0.000 
#
# Total GULP energy -396637.323527 kJ/mol
# GULP energy per Si atom -12394.916360 kJ/mol
# Density = 1.978080 g / cm^3
# Si number density = 19.825923 Si / 1000 Ang^3
#
#
#
# Elastic Constant Matrix: (Units=GPa)
#
#
# Indices 1 2 3 4 5 6 
#
# 1 69.4173 17.9903 48.1678 0.0000 -9.6498 0.0000
# 2 17.9903 55.7842 31.7261 0.0000 -0.4232 0.0000
# 3 48.1678 31.7261 145.0102 0.0000 -0.8996 0.0000
# 4 0.0000 0.0000 0.0000 28.6661 0.0000 -1.4355
# 5 -9.6498 -0.4232 -0.8996 0.0000 27.1114 0.0000
# 6 0.0000 0.0000 0.0000 -1.4355 0.0000 34.6843
#
#
#
# Elastic Compliance Matrix: (Units=1/GPa)
#
#
# Indices 1 2 3 4 5 6 
#
# 1 0.020376 -0.003076 -0.006052 0.000000 0.007003 0.000000
# 2 -0.003076 0.020939 -0.003565 0.000000 -0.000886 0.000000
# 3 -0.006052 -0.003565 0.009674 0.000000 -0.001889 0.000000
# 4 0.000000 0.000000 0.000000 0.034957 0.000000 0.001447
# 5 0.007003 -0.000886 -0.001889 0.000000 0.039301 0.000000
# 6 0.000000 0.000000 0.000000 0.001447 0.000000 0.028891
#
#
# Mechanical properties :
#
#
# Convention : Reuss Voigt Hill
#
# Bulk Modulus (GPa) = 39.05695 51.77558 45.41627
# Shear Modulus (GPa) = 26.58751 29.58087 28.08419
#
# Velocity S-wave (km/s) = 3.66600 3.86687 3.76778
# Velocity P-wave (km/s) = 6.13695 6.79034 6.47190
#
# Compressibility (1/GPa) = 0.02560364
#
# Stress axis : x y z
#
# Youngs Moduli (GPa) = 49.07828 47.75783 103.36510
#
# Poissons Ratio (x) = 0.14691 0.62553
# Poissons Ratio (y) = 0.15098 0.36848
# Poissons Ratio (z) = 0.29700 0.17025
#
# Static dielectric constant tensor:
#      x y z
#    x 3.478600 0.000000 -0.088700 
#    y 0.000000 3.674220 0.000000 
#    z -0.088700 0.000000 3.947900 
# 
# 
# High freq. dielectric constant tensor:
#      x y z
#    x 1.754890 0.000000 -0.007520 
#    y 0.000000 1.769800 0.000000 
#    z -0.007520 0.000000 1.785940 
# 
# From -- ./inp_files/73180.got.cif
#   From: 2010.06.25/outbox.cif.g09.slc.cpg/sg11_37_cif.got.tgz:73180.got - 2010.06.27 23:14:04.
