data_PCOD8071697
_publ_section_title
;
Structure prediction by ZEFSAII (Michael W. Deem and Ramdas Pophale) SiO2 
 PCOD8071697
Probable space group: P 21/M
;
_chemical_formula_sum "Si O2"
_cell_formula_units_Z 28
_cell_length_a 10.166217
_cell_length_b 9.245320
_cell_length_c 30.021783
_cell_angle_alpha 90.000000
_cell_angle_beta 146.768397
_cell_angle_gamma 90.000000
_cell_volume 1546.386044
_symmetry_space_group_name_H-M "P 21/M"
_symmetry_group_IT_number 11
_symmetry_cell_setting 'monoclinic'
loop_
_space_group_symop_operation_xyz
x,y,z
-x,1/2+y,-z
-x,-y,-z
x,1/2-y,z
loop_
_atom_site_type_symbol
_atom_site_label
_atom_site_fract_x
_atom_site_fract_y
_atom_site_fract_z
Si Si1 0.903449 0.418463 0.257333
Si Si2 0.822180 0.916724 0.324866
Si Si3 0.443421 0.915245 0.919131
Si Si4 0.887888 0.084079 0.508966
Si Si5 0.360388 0.416834 0.332023
Si Si6 0.143844 0.917491 0.921491
Si Si7 0.323853 0.581653 0.230349
O O1 0.926888 0.250000 0.273918
O O2 0.873203 0.497713 0.294844
O O3 0.673492 0.451911 0.161374
O O4 0.143153 0.474350 0.300749
O O5 0.874406 0.750000 0.329857
O O6 0.549748 0.942294 0.262482
O O7 0.002733 0.976032 0.413998
O O8 0.533875 0.750000 0.947293
O O9 0.241475 0.941928 0.899354
O O10 0.668251 0.020624 0.989428
O O11 0.966485 0.250000 0.525301
O O12 0.601550 0.066160 0.429157
O O13 0.000000 0.000000 0.500000
O O14 0.316459 0.250000 0.305132
O O15 0.381726 0.512712 0.294260
O O16 0.099776 0.750000 0.919775
O O17 0.896802 0.003392 0.856387
O O18 0.264357 0.750000 0.220289
#
# Coordination Sequence:
#
# PCOD8071697 Si02
#       7
#     4   4   4   4   4   4   4
#     4  10  21  38  57  82 114 150 187 227 279 336
#     4  10  23  39  54  81 117 150 186 231 280 333
#     4   9  18  34  54  81 115 144 180 231 279 328
#     4  10  20  36  58  83 114 146 185 235 280 326
#     4  10  20  36  59  84 111 145 188 235 278 328
#     4  10  19  33  56  85 113 142 185 232 278 330
#     4  11  21  35  56  83 114 147 187 232 278 329
#
# _framework density 18.106735
#
# number of rings (size 3 to 8) (size 9 to 14) (size 15 to 20)
#    0.000    2.000    2.857    0.857    0.000    4.000 
#    0.000    0.714    0.000    0.000    0.000    0.000 
#    0.000    0.000    0.000    0.000    0.000    0.000 
#
# Total GULP energy -347302.905354 kJ/mol
# GULP energy per Si atom -12403.675191 kJ/mol
# Density = 1.806552 g / cm^3
# Si number density = 18.106735 Si / 1000 Ang^3
#
#
#
# Elastic Constant Matrix: (Units=GPa)
#
#
# Indices 1 2 3 4 5 6 
#
# 1 78.6355 38.6411 37.7952 0.0000 -14.0825 0.0000
# 2 38.6411 76.7850 44.1749 0.0000 -1.8581 0.0000
# 3 37.7952 44.1749 99.7674 0.0000 -2.8549 0.0000
# 4 0.0000 0.0000 0.0000 32.6985 0.0000 -3.4234
# 5 -14.0825 -1.8581 -2.8549 0.0000 30.3510 0.0000
# 6 0.0000 0.0000 0.0000 -3.4234 0.0000 31.2990
#
#
#
# Elastic Compliance Matrix: (Units=1/GPa)
#
#
# Indices 1 2 3 4 5 6 
#
# 1 0.019786 -0.007488 -0.003941 0.000000 0.008351 0.000000
# 2 -0.007488 0.020312 -0.006238 0.000000 -0.002817 0.000000
# 3 -0.003941 -0.006238 0.014253 0.000000 -0.000870 0.000000
# 4 0.000000 0.000000 0.000000 0.030937 0.000000 0.003384
# 5 0.008351 -0.002817 -0.000870 0.000000 0.036568 0.000000
# 6 0.000000 0.000000 0.000000 0.003384 0.000000 0.032320
#
#
# Mechanical properties :
#
#
# Convention : Reuss Voigt Hill
#
# Bulk Modulus (GPa) = 52.58120 55.15669 53.86895
# Shear Modulus (GPa) = 25.52979 27.84149 26.68564
#
# Velocity S-wave (km/s) = 3.75902 3.92552 3.84317
# Velocity P-wave (km/s) = 6.92408 7.14663 7.03624
#
# Compressibility (1/GPa) = 0.01901820
#
# Stress axis : x y z
#
# Youngs Moduli (GPa) = 50.54010 49.23233 70.15836
#
# Poissons Ratio (x) = 0.36863 0.27652
# Poissons Ratio (y) = 0.37842 0.43763
# Poissons Ratio (z) = 0.19920 0.30710
#
# Static dielectric constant tensor:
#      x y z
#    x 3.152460 0.000000 0.141770 
#    y 0.000000 3.375070 0.000000 
#    z 0.141770 0.000000 3.578810 
# 
# 
# High freq. dielectric constant tensor:
#      x y z
#    x 1.682240 0.000000 0.007970 
#    y 0.000000 1.702220 0.000000 
#    z 0.007970 0.000000 1.717690 
# 
# From -- ./inp_files/70890.got.cif
#   From: 2010.06.25/outbox.cif.g09.slc.cpg/sg11_36_cif.got.tgz:70890.got - 2010.06.27 23:14:04.
