data_PCOD8071524
_publ_section_title
;
Structure prediction by ZEFSAII (Michael W. Deem and Ramdas Pophale) SiO2 
 PCOD8071524
Probable space group: P 21/M
;
_chemical_formula_sum "Si O2"
_cell_formula_units_Z 32
_cell_length_a 23.956944
_cell_length_b 8.916989
_cell_length_c 14.325903
_cell_angle_alpha 90.000000
_cell_angle_beta 147.211341
_cell_angle_gamma 90.000000
_cell_volume 1657.309634
_symmetry_space_group_name_H-M "P 21/M"
_symmetry_group_IT_number 11
_symmetry_cell_setting 'monoclinic'
loop_
_space_group_symop_operation_xyz
x,y,z
-x,1/2+y,-z
-x,-y,-z
x,1/2-y,z
loop_
_atom_site_type_symbol
_atom_site_label
_atom_site_fract_x
_atom_site_fract_y
_atom_site_fract_z
Si Si1 0.720410 0.572946 0.188923
Si Si2 0.812362 0.427497 0.497977
Si Si3 0.304730 0.571876 0.484801
Si Si4 0.534826 0.927442 0.807150
Si Si5 0.951693 0.573683 0.176199
Si Si6 0.405295 0.071704 0.313300
Si Si7 0.095477 0.424862 0.682804
Si Si8 0.225196 0.572154 0.172537
O O1 0.725216 0.750000 0.211407
O O2 0.744533 0.493310 0.319450
O O3 0.800452 0.522413 0.221322
O O4 0.607616 0.519870 0.994909
O O5 0.806109 0.250000 0.481761
O O6 0.764833 0.487815 0.528005
O O7 0.930201 0.482160 0.657425
O O8 0.309284 0.750000 0.492789
O O9 0.420181 0.503974 0.657045
O O10 0.254850 0.517276 0.317869
O O11 0.526557 0.750000 0.795638
O O12 0.585785 0.978050 0.781622
O O13 0.944902 0.750000 0.144870
O O14 0.899860 0.531282 0.202024
O O15 0.891076 0.482303 0.011278
O O16 0.407653 0.250000 0.328678
O O17 0.500000 0.000000 0.500000
O O18 0.298805 0.007799 0.201847
O O19 0.077785 0.250000 0.647464
O O20 0.000000 0.500000 0.500000
O O21 0.234903 0.750000 0.176184
#
# Coordination Sequence:
#
# PCOD8071524 Si02
#       8
#     4   4   4   4   4   4   4   4
#     4  10  20  34  56  82 109 144 185 227 275 334
#     4  10  21  38  59  79 108 148 190 235 280 330
#     4   9  19  37  58  80 108 148 191 228 278 338
#     4   9  18  35  58  81 112 150 181 217 278 342
#     4  10  21  37  56  82 113 147 185 230 287 338
#     4  11  20  35  60  87 117 151 186 226 278 337
#     4  10  19  33  54  80 110 144 181 222 279 340
#     4  11  22  37  58  85 113 148 190 232 279 336
#
# _framework density 19.308402000000001
#
# number of rings (size 3 to 8) (size 9 to 14) (size 15 to 20)
#    0.000    2.000    2.500    1.500    0.000    4.000 
#    0.000    3.750    0.000    0.000    0.000    0.000 
#    0.000    0.000    0.000    0.000    0.000    0.000 
#
# Total GULP energy -396820.366765 kJ/mol
# GULP energy per Si atom -12400.636461 kJ/mol
# Density = 1.926446 g / cm^3
# Si number density = 19.308402 Si / 1000 Ang^3
#
#
#
# Elastic Constant Matrix: (Units=GPa)
#
#
# Indices 1 2 3 4 5 6 
#
# 1 125.5778 25.6055 55.2229 0.0000 -10.8319 0.0000
# 2 25.6055 35.5687 31.7108 0.0000 -2.5290 0.0000
# 3 55.2229 31.7108 156.0915 0.0000 -18.4902 0.0000
# 4 0.0000 0.0000 0.0000 33.3352 0.0000 -2.4185
# 5 -10.8319 -2.5290 -18.4902 0.0000 17.9795 0.0000
# 6 0.0000 0.0000 0.0000 -2.4185 0.0000 20.9842
#
#
#
# Elastic Compliance Matrix: (Units=1/GPa)
#
#
# Indices 1 2 3 4 5 6 
#
# 1 0.010266 -0.005205 -0.002196 0.000000 0.003194 0.000000
# 2 -0.005205 0.037085 -0.006202 0.000000 -0.004297 0.000000
# 3 -0.002196 -0.006202 0.009318 0.000000 0.007388 0.000000
# 4 0.000000 0.000000 0.000000 0.030251 0.000000 0.003487
# 5 0.003194 -0.004297 0.007388 0.000000 0.064536 0.000000
# 6 0.000000 0.000000 0.000000 0.003487 0.000000 0.048057
#
#
# Mechanical properties :
#
#
# Convention : Reuss Voigt Hill
#
# Bulk Modulus (GPa) = 33.94006 60.25738 47.09872
# Shear Modulus (GPa) = 21.13802 28.10636 24.62219
#
# Velocity S-wave (km/s) = 3.31230 3.81944 3.57488
# Velocity P-wave (km/s) = 5.67842 7.12225 6.44092
#
# Compressibility (1/GPa) = 0.02946371
#
# Stress axis : x y z
#
# Youngs Moduli (GPa) = 97.41096 26.96494 107.31417
#
# Poissons Ratio (x) = 0.14036 0.23567
# Poissons Ratio (y) = 0.50705 0.66551
# Poissons Ratio (z) = 0.21392 0.16722
#
# Static dielectric constant tensor:
#      x y z
#    x 3.781140 0.000000 0.119580 
#    y 0.000000 3.257070 0.000000 
#    z 0.119580 0.000000 3.797290 
# 
# 
# High freq. dielectric constant tensor:
#      x y z
#    x 1.752510 0.000000 -0.000440 
#    y 0.000000 1.720100 0.000000 
#    z -0.000440 0.000000 1.768820 
# 
# From -- ./inp_files/55770.got.cif
#   From: 2010.06.25/outbox.cif.g09.slc.cpg/sg11_28_cif.got.tgz:55770.got - 2010.06.27 23:14:04.
