data_PCOD8071235
_publ_section_title
;
Structure prediction by ZEFSAII (Michael W. Deem and Ramdas Pophale) SiO2 
 PCOD8071235
Probable space group: P 21/M
;
_chemical_formula_sum "Si O2"
_cell_formula_units_Z 28
_cell_length_a 28.095985
_cell_length_b 8.996256
_cell_length_c 9.843364
_cell_angle_alpha 90.000000
_cell_angle_beta 37.697124
_cell_angle_gamma 90.000000
_cell_volume 1521.377788
_symmetry_space_group_name_H-M "P 21/M"
_symmetry_group_IT_number 11
_symmetry_cell_setting 'monoclinic'
loop_
_space_group_symop_operation_xyz
x,y,z
-x,1/2+y,-z
-x,-y,-z
x,1/2-y,z
loop_
_atom_site_type_symbol
_atom_site_label
_atom_site_fract_x
_atom_site_fract_y
_atom_site_fract_z
Si Si1 0.192481 0.078804 0.348104
Si Si2 0.047886 0.575474 0.776228
Si Si3 0.372415 0.422125 0.952227
Si Si4 0.043902 0.075763 0.280405
Si Si5 0.374243 0.073482 0.638465
Si Si6 0.506369 0.427298 0.134089
Si Si7 0.796003 0.925743 0.980808
O O1 0.167619 0.250000 0.416510
O O2 0.281569 0.057105 0.191053
O O3 0.181218 0.017347 0.220769
O O4 0.136143 0.984197 0.572402
O O5 0.050461 0.750000 0.791648
O O6 0.999016 0.524864 0.756628
O O7 0.000000 0.500000 0.000000
O O8 0.396807 0.250000 0.913924
O O9 0.392060 0.477944 0.753820
O O10 0.415465 0.521959 0.966697
O O11 0.039702 0.250000 0.313677
O O12 0.135422 0.025612 0.070762
O O13 0.000000 0.000000 0.500000
O O14 0.374774 0.250000 0.636863
O O15 0.436196 0.013577 0.389208
O O16 0.289014 0.011108 0.784941
O O17 0.505386 0.250000 0.119962
O O18 0.500000 0.500000 0.000000
O O19 0.786770 0.750000 0.992323
#
# Coordination Sequence:
#
# PCOD8071235 Si02
#       7
#     4   4   4   4   4   4   4
#     4   9  17  33  58  81 104 137 176 221 273 325
#     4  11  23  36  51  77 112 148 185 223 266 320
#     4   9  18  35  60  85 104 132 179 224 269 328
#     4  10  19  32  55  81 105 137 179 223 267 318
#     4   8  16  32  56  82 105 135 178 222 264 318
#     4  11  22  36  54  79 113 147 179 218 268 320
#     4   8  14  29  54  81 104 129 171 224 269 313
#
# _framework density 18.404368999999999
#
# number of rings (size 3 to 8) (size 9 to 14) (size 15 to 20)
#    0.000    2.571    1.429    3.000    0.000    1.143 
#    2.571    0.714    0.000    3.429    0.000    0.000 
#    0.000    0.000    0.000    0.000    0.000    0.000 
#
# Total GULP energy -347020.320008 kJ/mol
# GULP energy per Si atom -12393.582857 kJ/mol
# Density = 1.836248 g / cm^3
# Si number density = 18.404369 Si / 1000 Ang^3
#
#
#
# Elastic Constant Matrix: (Units=GPa)
#
#
# Indices 1 2 3 4 5 6 
#
# 1 115.0092 41.7270 68.0635 0.0000 -2.0590 0.0000
# 2 41.7270 48.6931 46.4323 0.0000 3.5229 0.0000
# 3 68.0635 46.4323 140.9152 0.0000 -0.0030 0.0000
# 4 0.0000 0.0000 0.0000 27.9509 0.0000 -1.2745
# 5 -2.0590 3.5229 -0.0030 0.0000 27.2023 0.0000
# 6 0.0000 0.0000 0.0000 -1.2745 0.0000 26.3985
#
#
#
# Elastic Compliance Matrix: (Units=1/GPa)
#
#
# Indices 1 2 3 4 5 6 
#
# 1 0.014214 -0.008444 -0.004083 0.000000 0.002169 0.000000
# 2 -0.008444 0.035377 -0.007579 0.000000 -0.005222 0.000000
# 3 -0.004083 -0.007579 0.011566 0.000000 0.000674 0.000000
# 4 0.000000 0.000000 0.000000 0.035856 0.000000 0.001731
# 5 0.002169 -0.005222 0.000674 0.000000 0.037602 0.000000
# 6 0.000000 0.000000 0.000000 0.001731 0.000000 0.037965
#
#
# Mechanical properties :
#
#
# Convention : Reuss Voigt Hill
#
# Bulk Modulus (GPa) = 47.74227 68.56258 58.15243
# Shear Modulus (GPa) = 22.75084 26.20331 24.47707
#
# Velocity S-wave (km/s) = 3.51973 3.77736 3.65082
# Velocity P-wave (km/s) = 6.52035 7.50726 7.03114
#
# Compressibility (1/GPa) = 0.02094580
#
# Stress axis : x y z
#
# Youngs Moduli (GPa) = 70.35477 28.26683 86.46135
#
# Poissons Ratio (x) = 0.23868 0.35303
# Poissons Ratio (y) = 0.59405 0.65526
# Poissons Ratio (z) = 0.28726 0.21423
#
# Static dielectric constant tensor:
#      x y z
#    x 3.429730 0.000000 -0.191430 
#    y 0.000000 3.100140 0.000000 
#    z -0.191430 0.000000 3.619660 
# 
# 
# High freq. dielectric constant tensor:
#      x y z
#    x 1.715030 0.000000 -0.016790 
#    y 0.000000 1.685250 0.000000 
#    z -0.016790 0.000000 1.715780 
# 
# From -- ./inp_files/28385.got.cif
#   From: 2010.06.25/outbox.cif.g09.slc.cpg/sg11_15_cif.got.tgz:28385.got - 2010.06.27 23:14:04.
