data_PCOD8071233
_publ_section_title
;
Structure prediction by ZEFSAII (Michael W. Deem and Ramdas Pophale) SiO2 
 PCOD8071233
Probable space group: P 21/M
;
_chemical_formula_sum "Si O2"
_cell_formula_units_Z 32
_cell_length_a 17.727411
_cell_length_b 12.857523
_cell_length_c 14.792920
_cell_angle_alpha 90.000000
_cell_angle_beta 149.972966
_cell_angle_gamma 90.000000
_cell_volume 1687.257103
_symmetry_space_group_name_H-M "P 21/M"
_symmetry_group_IT_number 11
_symmetry_cell_setting 'monoclinic'
loop_
_space_group_symop_operation_xyz
x,y,z
-x,1/2+y,-z
-x,-y,-z
x,1/2-y,z
loop_
_atom_site_type_symbol
_atom_site_label
_atom_site_fract_x
_atom_site_fract_y
_atom_site_fract_z
Si Si1 0.411288 0.962378 0.048354
Si Si2 0.585563 0.365832 0.131525
Si Si3 0.844271 0.370672 0.529805
Si Si4 0.354337 0.134840 0.223244
Si Si5 0.133424 0.005881 0.884123
Si Si6 0.898749 0.371619 0.976135
Si Si7 0.622493 0.013537 0.418825
Si Si8 0.217203 0.440284 0.249348
O O1 0.449486 0.068091 0.033456
O O2 0.544931 0.943923 0.259798
O O3 0.248457 0.967415 0.926398
O O4 0.410173 0.871547 0.972977
O O5 0.546062 0.250000 0.120655
O O6 0.752171 0.395462 0.342012
O O7 0.895178 0.250000 0.588360
O O8 0.729803 0.395486 0.492782
O O9 0.985425 0.448959 0.681364
O O10 0.394277 0.250000 0.233253
O O11 0.324090 0.131200 0.298873
O O12 0.492449 0.062181 0.343841
O O13 0.204007 0.099203 0.015203
O O14 0.094760 0.911216 0.912803
O O15 0.849055 0.250000 0.922736
O O16 0.056779 0.384703 0.089293
O O17 0.785898 0.443876 0.799732
O O18 0.718202 0.939588 0.582648
#
# Coordination Sequence:
#
# PCOD8071233 Si02
#       8
#     4   4   4   4   4   4   4   4
#     4   9  20  36  58  78 109 142 168 225 270 319
#     4   9  19  37  58  81 106 139 178 217 270 325
#     4  10  19  32  55  80 106 138 179 225 268 323
#     4  10  20  33  52  79 110 142 180 227 273 315
#     4  10  20  35  54  81 110 143 179 219 270 324
#     4  10  21  36  53  77 111 147 182 227 274 318
#     4  10  19  35  53  77 109 140 184 219 271 319
#     4  10  20  36  53  76 107 147 186 228 268 322
#
# _framework density 18.965693000000002
#
# number of rings (size 3 to 8) (size 9 to 14) (size 15 to 20)
#    0.000    2.250    1.250    1.500    0.000    5.500 
#    0.000    1.250    0.000    0.750    0.000    0.000 
#    0.000    0.000    0.000    0.000    0.000    0.000 
#
# Total GULP energy -396677.576683 kJ/mol
# GULP energy per Si atom -12396.174271 kJ/mol
# Density = 1.892253 g / cm^3
# Si number density = 18.965693 Si / 1000 Ang^3
#
#
#
# Elastic Constant Matrix: (Units=GPa)
#
#
# Indices 1 2 3 4 5 6 
#
# 1 93.6445 3.3396 23.9985 0.0000 -6.1143 0.0000
# 2 3.3396 51.9713 12.8644 0.0000 -2.5610 0.0000
# 3 23.9985 12.8644 74.0134 0.0000 -5.1286 0.0000
# 4 0.0000 0.0000 0.0000 17.6926 0.0000 -2.2690
# 5 -6.1143 -2.5610 -5.1286 0.0000 31.7322 0.0000
# 6 0.0000 0.0000 0.0000 -2.2690 0.0000 17.6562
#
#
#
# Elastic Compliance Matrix: (Units=1/GPa)
#
#
# Indices 1 2 3 4 5 6 
#
# 1 0.011736 0.000253 -0.003733 0.000000 0.001678 0.000000
# 2 0.000253 0.020148 -0.003507 0.000000 0.001108 0.000000
# 3 -0.003733 -0.003507 0.015434 0.000000 0.001492 0.000000
# 4 0.000000 0.000000 0.000000 0.057468 0.000000 0.007385
# 5 0.001678 0.001108 0.001492 0.000000 0.032168 0.000000
# 6 0.000000 0.000000 0.000000 0.007385 0.000000 0.057586
#
#
# Mechanical properties :
#
#
# Convention : Reuss Voigt Hill
#
# Bulk Modulus (GPa) = 29.99096 33.33713 31.66405
# Shear Modulus (GPa) = 22.76562 25.37798 24.07180
#
# Velocity S-wave (km/s) = 3.46838 3.66197 3.56649
# Velocity P-wave (km/s) = 5.64687 5.95784 5.80443
#
# Compressibility (1/GPa) = 0.03334338
#
# Stress axis : x y z
#
# Youngs Moduli (GPa) = 85.20865 49.63302 64.79030
#
# Poissons Ratio (x) = -0.01254 0.24186
# Poissons Ratio (y) = -0.02152 0.22722
# Poissons Ratio (z) = 0.31808 0.17407
#
# Static dielectric constant tensor:
#      x y z
#    x 3.548160 0.000000 -0.118260 
#    y 0.000000 3.253310 0.000000 
#    z -0.118260 0.000000 3.561080 
# 
# 
# High freq. dielectric constant tensor:
#      x y z
#    x 1.743920 0.000000 -0.001600 
#    y 0.000000 1.712950 0.000000 
#    z -0.001600 0.000000 1.733960 
# 
# From -- ./inp_files/21553.got.cif
#   From: 2010.06.25/outbox.cif.g09.slc.cpg/sg11_11_cif.got.tgz:21553.got - 2010.06.27 23:14:04.
