data_PCOD8071089
_publ_section_title
;
Structure prediction by ZEFSAII (Michael W. Deem and Ramdas Pophale) SiO2 
 PCOD8071089
Probable space group: P 21/M
;
_chemical_formula_sum "Si O2"
_cell_formula_units_Z 32
_cell_length_a 24.716639
_cell_length_b 9.026484
_cell_length_c 19.826120
_cell_angle_alpha 90.000000
_cell_angle_beta 156.394879
_cell_angle_gamma 90.000000
_cell_volume 1771.223565
_symmetry_space_group_name_H-M "P 21/M"
_symmetry_group_IT_number 11
_symmetry_cell_setting 'monoclinic'
loop_
_space_group_symop_operation_xyz
x,y,z
-x,1/2+y,-z
-x,-y,-z
x,1/2-y,z
loop_
_atom_site_type_symbol
_atom_site_label
_atom_site_fract_x
_atom_site_fract_y
_atom_site_fract_z
Si Si1 0.182368 0.422465 0.765198
Si Si2 0.112777 0.420271 0.048328
Si Si3 0.861555 0.921594 0.074891
Si Si4 0.642947 0.576505 0.433252
Si Si5 0.189025 0.576442 0.264079
Si Si6 0.911889 0.918881 0.485578
Si Si7 0.341459 0.925221 0.056314
Si Si8 0.865303 0.580267 0.581042
O O1 0.200041 0.250000 0.800367
O O2 0.185165 0.458761 0.688343
O O3 0.040565 0.474045 0.635009
O O4 0.303491 0.509221 0.939789
O O5 0.123026 0.250000 0.082664
O O6 0.199239 0.517703 0.199158
O O7 0.173909 0.445726 0.044173
O O8 0.955577 0.469683 0.869620
O O9 0.849988 0.750000 0.082051
O O10 0.013523 0.973321 0.260836
O O11 0.758031 0.016289 0.999918
O O12 0.647794 0.750000 0.453007
O O13 0.692929 0.495550 0.557335
O O14 0.492074 0.522136 0.245471
O O15 0.734034 0.532590 0.473039
O O16 0.212408 0.750000 0.290514
O O17 0.964687 0.750000 0.537624
O O18 0.829399 0.938644 0.460725
O O19 0.328778 0.750000 0.038320
O O20 0.906899 0.750000 0.644282
#
# Coordination Sequence:
#
# PCOD8071089 Si02
#       8
#     4   4   4   4   4   4   4   4
#     4  10  19  32  52  79 110 142 179 225 274 321
#     4   9  19  34  53  81 113 139 171 222 274 323
#     4  11  21  35  56  84 111 138 179 229 273 317
#     4  10  22  38  56  78 110 149 184 222 271 325
#     4  10  19  33  55  82 110 141 179 222 269 321
#     4   9  18  32  53  81 109 138 177 226 276 324
#     4  11  23  38  54  77 111 150 187 221 267 327
#     4  10  19  34  57  82 107 140 181 226 272 321
#
# _framework density 18.066607000000001
#
# number of rings (size 3 to 8) (size 9 to 14) (size 15 to 20)
#    0.000    2.000    2.500    1.500    0.000    3.000 
#    0.000    1.250    0.000    0.000    0.000    0.000 
#    0.000    0.000    0.000    0.000    0.000    0.000 
#
# Total GULP energy -396865.091330 kJ/mol
# GULP energy per Si atom -12402.034104 kJ/mol
# Density = 1.802549 g / cm^3
# Si number density = 18.066607 Si / 1000 Ang^3
#
#
#
# Elastic Constant Matrix: (Units=GPa)
#
#
# Indices 1 2 3 4 5 6 
#
# 1 77.0318 29.6689 52.5954 0.0000 -15.1634 0.0000
# 2 29.6689 68.5873 56.8231 0.0000 -8.5817 0.0000
# 3 52.5954 56.8231 136.6972 0.0000 -15.7402 0.0000
# 4 0.0000 0.0000 0.0000 26.3228 0.0000 -9.2198
# 5 -15.1634 -8.5817 -15.7402 0.0000 27.5023 0.0000
# 6 0.0000 0.0000 0.0000 -9.2198 0.0000 21.6912
#
#
#
# Elastic Compliance Matrix: (Units=1/GPa)
#
#
# Indices 1 2 3 4 5 6 
#
# 1 0.019067 -0.003014 -0.005332 0.000000 0.006520 0.000000
# 2 -0.003014 0.022795 -0.008231 0.000000 0.000740 0.000000
# 3 -0.005332 -0.008231 0.013012 0.000000 0.001939 0.000000
# 4 0.000000 0.000000 0.000000 0.044635 0.000000 0.018972
# 5 0.006520 0.000740 0.001939 0.000000 0.041296 0.000000
# 6 0.000000 0.000000 0.000000 0.018972 0.000000 0.054166
#
#
# Mechanical properties :
#
#
# Convention : Reuss Voigt Hill
#
# Bulk Modulus (GPa) = 46.04183 62.27677 54.15930
# Shear Modulus (GPa) = 21.24357 24.65186 22.94771
#
# Velocity S-wave (km/s) = 3.43278 3.69792 3.56781
# Velocity P-wave (km/s) = 6.42276 7.26487 6.85675
#
# Compressibility (1/GPa) = 0.02171938
#
# Stress axis : x y z
#
# Youngs Moduli (GPa) = 52.44695 43.86839 76.85356
#
# Poissons Ratio (x) = 0.13223 0.40981
# Poissons Ratio (y) = 0.15809 0.63256
# Poissons Ratio (z) = 0.27967 0.36107
#
# Static dielectric constant tensor:
#      x y z
#    x 3.446390 0.000000 -0.212460 
#    y 0.000000 3.372270 0.000000 
#    z -0.212460 0.000000 3.252370 
# 
# 
# High freq. dielectric constant tensor:
#      x y z
#    x 1.700880 0.000000 -0.024780 
#    y 0.000000 1.706620 0.000000 
#    z -0.024780 0.000000 1.680080 
# 
# From -- ./inp_files/67291.got.cif
#   From: 2010.06.25/outbox.cif.g09.slc.cpg/sg11_34_cif.got.tgz:67291.got - 2010.06.27 23:14:04.
