data_PCOD8071669
_publ_section_title
;
Structure prediction by ZEFSAII (Michael W. Deem and Ramdas Pophale) SiO2 
 PCOD8071669
Probable space group: P 21/M
;
_chemical_formula_sum "Si O2"
_cell_formula_units_Z 32
_cell_length_a 28.791334
_cell_length_b 9.327229
_cell_length_c 11.332350
_cell_angle_alpha 90.000000
_cell_angle_beta 34.024978
_cell_angle_gamma 90.000000
_cell_volume 1702.850884
_symmetry_space_group_name_H-M "P 21/M"
_symmetry_group_IT_number 11
_symmetry_cell_setting 'monoclinic'
loop_
_space_group_symop_operation_xyz
x,y,z
-x,1/2+y,-z
-x,-y,-z
x,1/2-y,z
loop_
_atom_site_type_symbol
_atom_site_label
_atom_site_fract_x
_atom_site_fract_y
_atom_site_fract_z
Si Si1 0.323926 0.913409 0.127533
Si Si2 0.585922 0.083503 0.826806
Si Si3 0.579472 0.410406 0.305577
Si Si4 0.259824 0.583771 0.646362
Si Si5 0.886716 0.583150 0.151091
Si Si6 0.813851 0.916913 0.718433
Si Si7 0.963059 0.587068 0.240819
Si Si8 0.747398 0.418811 0.067656
O O1 0.290458 0.750000 0.208167
O O2 0.360301 0.969242 0.174431
O O3 0.249168 0.013673 0.242731
O O4 0.399613 0.920698 0.876289
O O5 0.563332 0.250000 0.887538
O O6 0.643676 0.054673 0.590327
O O7 0.500000 0.000000 0.000000
O O8 0.500000 0.500000 0.500000
O O9 0.559215 0.250000 0.387764
O O10 0.656092 0.468938 0.220915
O O11 0.238894 0.750000 0.668615
O O12 0.201558 0.489527 0.685979
O O13 0.241701 0.540069 0.819262
O O14 0.880277 0.750000 0.135643
O O15 0.908442 0.551295 0.240791
O O16 0.957301 0.515505 0.918069
O O17 0.791003 0.750000 0.779970
O O18 0.906891 0.937247 0.474142
O O19 0.811955 0.994087 0.850105
O O20 0.995649 0.750000 0.165557
O O21 0.759916 0.250000 0.017398
#
# Coordination Sequence:
#
# PCOD8071669 Si02
#       8
#     4   4   4   4   4   4   4   4
#     4   9  19  35  51  73 106 138 172 215 267 321
#     4  10  22  37  55  79 106 141 180 220 268 322
#     4   9  18  31  49  71  97 130 171 218 263 307
#     4  10  21  38  57  76 108 149 181 215 271 328
#     4  10  20  34  56  86 112 141 179 219 264 316
#     4  10  19  33  56  83 106 136 179 224 267 311
#     4   9  19  35  55  82 116 142 171 219 270 320
#     4   9  20  37  53  73 105 144 181 219 267 324
#
# _framework density 18.792016
#
# number of rings (size 3 to 8) (size 9 to 14) (size 15 to 20)
#    0.000    2.500    0.000    2.250    1.750    5.000 
#    0.000    0.625    0.000    0.000    0.000    0.000 
#    0.000    0.000    0.000    0.000    0.000    0.000 
#
# Total GULP energy -396823.868745 kJ/mol
# GULP energy per Si atom -12400.745898 kJ/mol
# Density = 1.874924 g / cm^3
# Si number density = 18.792016 Si / 1000 Ang^3
#
#
#
# Elastic Constant Matrix: (Units=GPa)
#
#
# Indices 1 2 3 4 5 6 
#
# 1 63.3518 32.0766 30.5801 0.0000 6.6659 0.0000
# 2 32.0766 78.6794 51.3586 0.0000 -2.6207 0.0000
# 3 30.5801 51.3586 103.3574 0.0000 -0.1519 0.0000
# 4 0.0000 0.0000 0.0000 36.4833 0.0000 -4.3042
# 5 6.6659 -2.6207 -0.1519 0.0000 23.4677 0.0000
# 6 0.0000 0.0000 0.0000 -4.3042 0.0000 29.0692
#
#
#
# Elastic Compliance Matrix: (Units=1/GPa)
#
#
# Indices 1 2 3 4 5 6 
#
# 1 0.021495 -0.007158 -0.002813 0.000000 -0.006923 0.000000
# 2 -0.007158 0.021293 -0.008456 0.000000 0.004356 0.000000
# 3 -0.002813 -0.008456 0.014710 0.000000 -0.000050 0.000000
# 4 0.000000 0.000000 0.000000 0.027897 0.000000 0.004131
# 5 -0.006923 0.004356 -0.000050 0.000000 0.045064 0.000000
# 6 0.000000 0.000000 0.000000 0.004131 0.000000 0.035012
#
#
# Mechanical properties :
#
#
# Convention : Reuss Voigt Hill
#
# Bulk Modulus (GPa) = 48.44221 52.60213 50.52217
# Shear Modulus (GPa) = 23.89970 26.56225 25.23098
#
# Velocity S-wave (km/s) = 3.57010 3.76371 3.66819
# Velocity P-wave (km/s) = 6.54433 6.85127 6.69956
#
# Compressibility (1/GPa) = 0.02064315
#
# Stress axis : x y z
#
# Youngs Moduli (GPa) = 46.52155 46.96384 67.98316
#
# Poissons Ratio (x) = 0.33615 0.19126
# Poissons Ratio (y) = 0.33298 0.57490
# Poissons Ratio (z) = 0.13088 0.39715
#
# Static dielectric constant tensor:
#      x y z
#    x 3.419570 0.000000 0.208730 
#    y 0.000000 3.028140 0.000000 
#    z 0.208730 0.000000 3.491760 
# 
# 
# High freq. dielectric constant tensor:
#      x y z
#    x 1.714940 0.000000 0.009240 
#    y 0.000000 1.727260 0.000000 
#    z 0.009240 0.000000 1.734820 
# 
# From -- ./inp_files/45168.got.cif
#   From: 2010.06.25/outbox.cif.g09.slc.cpg/sg11_23_cif.got.tgz:45168.got - 2010.06.27 23:14:04.
