data_PCOD8071708
_publ_section_title
;
Structure prediction by ZEFSAII (Michael W. Deem and Ramdas Pophale) SiO2 
 PCOD8071708
Probable space group: P 21/M
;
_chemical_formula_sum "Si O2"
_cell_formula_units_Z 32
_cell_length_a 12.731715
_cell_length_b 9.491146
_cell_length_c 31.799634
_cell_angle_alpha 90.000000
_cell_angle_beta 27.286469
_cell_angle_gamma 90.000000
_cell_volume 1761.610498
_symmetry_space_group_name_H-M "P 21/M"
_symmetry_group_IT_number 11
_symmetry_cell_setting 'monoclinic'
loop_
_space_group_symop_operation_xyz
x,y,z
-x,1/2+y,-z
-x,-y,-z
x,1/2-y,z
loop_
_atom_site_type_symbol
_atom_site_label
_atom_site_fract_x
_atom_site_fract_y
_atom_site_fract_z
Si Si1 0.801973 0.096775 0.055055
Si Si2 0.802152 0.410918 0.793006
Si Si3 0.494109 0.097197 0.244617
Si Si4 0.837836 0.417121 0.192167
Si Si5 0.302131 0.090956 0.982832
Si Si6 0.119929 0.081734 0.318647
Si Si7 0.402464 0.588299 0.496649
Si Si8 0.786857 0.586962 0.294225
O O1 0.894121 0.250000 0.007611
O O2 0.628563 0.118446 0.154003
O O3 0.680543 0.019469 0.060423
O O4 0.000000 0.000000 0.000000
O O5 0.851656 0.250000 0.761210
O O6 0.791449 0.505889 0.755060
O O7 0.005036 0.466179 0.750611
O O8 0.566043 0.415923 0.904980
O O9 0.432853 0.250000 0.285715
O O10 0.657322 0.021266 0.221222
O O11 0.258272 0.024905 0.311457
O O12 0.811234 0.250000 0.206571
O O13 0.776639 0.492507 0.256768
O O14 0.102639 0.454421 0.086290
O O15 0.244340 0.250000 0.987474
O O16 0.157408 0.250000 0.299976
O O17 0.856723 0.042796 0.420806
O O18 0.500000 0.500000 0.500000
O O19 0.417272 0.750000 0.505428
O O20 0.548453 0.561376 0.402828
O O21 0.820630 0.750000 0.269673
#
# Coordination Sequence:
#
# PCOD8071708 Si02
#       8
#     4   4   4   4   4   4   4   4
#     4  11  19  30  50  77 108 143 181 226 270 316
#     4  10  20  34  54  80 114 143 169 223 281 319
#     4   9  18  33  52  77 110 141 175 222 268 310
#     4  10  21  38  55  73 105 151 191 221 257 316
#     4  10  20  34  52  79 110 143 183 225 271 318
#     4  10  19  33  56  86 111 136 174 221 273 328
#     4  10  20  35  59  85 110 137 172 222 275 326
#     4  10  22  39  54  77 111 144 179 224 274 321
#
# _framework density 18.165195000000001
#
# number of rings (size 3 to 8) (size 9 to 14) (size 15 to 20)
#    0.000    2.000    3.750    0.375    0.000    2.000 
#    0.000    1.250    0.000    0.000    0.000    0.000 
#    0.000    0.000    0.000    0.000    0.000    0.000 
#
# Total GULP energy -396436.051308 kJ/mol
# GULP energy per Si atom -12388.626603 kJ/mol
# Density = 1.812385 g / cm^3
# Si number density = 18.165195 Si / 1000 Ang^3
#
#
#
# Elastic Constant Matrix: (Units=GPa)
#
#
# Indices 1 2 3 4 5 6 
#
# 1 96.5151 33.9964 61.0922 0.0000 -7.2534 0.0000
# 2 33.9964 53.4123 31.7979 0.0000 0.2394 0.0000
# 3 61.0922 31.7979 120.4204 0.0000 -18.5294 0.0000
# 4 0.0000 0.0000 0.0000 22.7877 0.0000 6.5423
# 5 -7.2534 0.2394 -18.5294 0.0000 32.2359 0.0000
# 6 0.0000 0.0000 0.0000 6.5423 0.0000 19.0204
#
#
#
# Elastic Compliance Matrix: (Units=1/GPa)
#
#
# Indices 1 2 3 4 5 6 
#
# 1 0.017114 -0.006784 -0.006901 0.000000 -0.000066 0.000000
# 2 -0.006784 0.025355 -0.003859 0.000000 -0.003933 0.000000
# 3 -0.006901 -0.003859 0.013811 0.000000 0.006415 0.000000
# 4 0.000000 0.000000 0.000000 0.048692 0.000000 -0.016748
# 5 -0.000066 -0.003933 0.006415 0.000000 0.034723 0.000000
# 6 0.000000 0.000000 0.000000 -0.016748 0.000000 0.058336
#
#
# Mechanical properties :
#
#
# Convention : Reuss Voigt Hill
#
# Bulk Modulus (GPa) = 47.18592 58.23563 52.71077
# Shear Modulus (GPa) = 20.81750 24.37290 22.59520
#
# Velocity S-wave (km/s) = 3.38895 3.66695 3.53068
# Velocity P-wave (km/s) = 6.43006 7.07511 6.76028
#
# Compressibility (1/GPa) = 0.02119276
#
# Stress axis : x y z
#
# Youngs Moduli (GPa) = 58.43164 39.43977 72.40499
#
# Poissons Ratio (x) = 0.26757 0.49967
# Poissons Ratio (y) = 0.39641 0.27938
# Poissons Ratio (z) = 0.40324 0.15218
#
# Static dielectric constant tensor:
#      x y z
#    x 3.203210 0.000000 -0.320500 
#    y 0.000000 3.312000 0.000000 
#    z -0.320500 0.000000 3.454260 
# 
# 
# High freq. dielectric constant tensor:
#      x y z
#    x 1.695200 0.000000 -0.025600 
#    y 0.000000 1.692080 0.000000 
#    z -0.025600 0.000000 1.703250 
# 
# From -- ./inp_files/38281.got.cif
#   From: 2010.06.25/outbox.cif.g09.slc.cpg/sg11_20_cif.got.tgz:38281.got - 2010.06.27 23:14:04.
