data_PCOD8071616
_publ_section_title
;
Structure prediction by ZEFSAII (Michael W. Deem and Ramdas Pophale) SiO2 
 PCOD8071616
Probable space group: P 21/M
;
_chemical_formula_sum "Si O2"
_cell_formula_units_Z 28
_cell_length_a 31.474193
_cell_length_b 8.532355
_cell_length_c 32.319006
_cell_angle_alpha 90.000000
_cell_angle_beta 170.782318
_cell_angle_gamma 90.000000
_cell_volume 1390.290587
_symmetry_space_group_name_H-M "P 21/M"
_symmetry_group_IT_number 11
_symmetry_cell_setting 'monoclinic'
loop_
_space_group_symop_operation_xyz
x,y,z
-x,1/2+y,-z
-x,-y,-z
x,1/2-y,z
loop_
_atom_site_type_symbol
_atom_site_label
_atom_site_fract_x
_atom_site_fract_y
_atom_site_fract_z
Si Si1 0.860969 0.434032 0.453745
Si Si2 0.716265 0.566087 0.738779
Si Si3 0.280325 0.436198 0.594091
Si Si4 0.856807 0.064522 0.119277
Si Si5 0.570856 0.064730 0.023567
Si Si6 0.998692 0.435860 0.165914
Si Si7 0.425318 0.936088 0.308926
O O1 0.872931 0.250000 0.457643
O O2 0.786665 0.471282 0.429098
O O3 0.642344 0.507922 0.214175
O O4 0.142515 0.507776 0.714362
O O5 0.500000 0.500000 0.500000
O O6 0.724525 0.750000 0.741521
O O7 0.642797 0.521427 0.714430
O O8 0.000000 0.500000 0.000000
O O9 0.267848 0.250000 0.590242
O O10 0.072288 0.491697 0.359574
O O11 0.568033 0.492613 0.855638
O O12 0.860069 0.250000 0.119088
O O13 0.927790 0.992165 0.142672
O O14 0.568749 0.250000 0.022937
O O15 0.500000 0.000000 0.000000
O O16 0.995331 0.250000 0.165451
O O17 0.287174 0.494451 0.429419
O O18 0.783544 0.494006 0.926051
O O19 0.414757 0.750000 0.305528
#
# Coordination Sequence:
#
# PCOD8071616 Si02
#       7
#     4   4   4   4   4   4   4
#     4  12  25  42  63  91 126 164 205 250 303 361
#     4  12  25  42  63  88 120 157 200 247 300 358
#     4  10  19  33  55  82 113 152 198 246 292 343
#     4   9  17  30  52  82 113 147 194 245 290 340
#     4  12  25  44  67  93 124 160 203 250 303 361
#     4   9  17  30  52  82 113 147 190 241 289 343
#     4  10  19  33  55  82 113 149 192 239 292 350
#
# _framework density 20.139673999999999
#
# number of rings (size 3 to 8) (size 9 to 14) (size 15 to 20)
#    0.000    1.429    0.000    6.857    0.000    5.714 
#    0.000    0.000    0.000    5.143    0.000    0.000 
#    0.000    0.000    0.000    0.000    0.000    0.000 
#
# Total GULP energy -347314.191142 kJ/mol
# GULP energy per Si atom -12404.078255 kJ/mol
# Density = 2.009384 g / cm^3
# Si number density = 20.139674 Si / 1000 Ang^3
#
#
#
# Elastic Constant Matrix: (Units=GPa)
#
#
# Indices 1 2 3 4 5 6 
#
# 1 197.9766 55.2871 110.1361 0.0000 6.2710 0.0000
# 2 55.2871 114.9094 55.9224 0.0000 0.4139 0.0000
# 3 110.1361 55.9224 225.1266 0.0000 7.2736 0.0000
# 4 0.0000 0.0000 0.0000 21.0428 0.0000 0.0961
# 5 6.2710 0.4139 7.2736 0.0000 29.2010 0.0000
# 6 0.0000 0.0000 0.0000 0.0961 0.0000 32.6923
#
#
#
# Elastic Compliance Matrix: (Units=1/GPa)
#
#
# Indices 1 2 3 4 5 6 
#
# 1 0.007351 -0.002043 -0.003063 0.000000 -0.000787 0.000000
# 2 -0.002043 0.010474 -0.001625 0.000000 0.000695 0.000000
# 3 -0.003063 -0.001625 0.006373 0.000000 -0.000907 0.000000
# 4 0.000000 0.000000 0.000000 0.047523 0.000000 -0.000140
# 5 -0.000787 0.000695 -0.000907 0.000000 0.034630 0.000000
# 6 0.000000 0.000000 0.000000 -0.000140 0.000000 0.030589
#
#
# Mechanical properties :
#
#
# Convention : Reuss Voigt Hill
#
# Bulk Modulus (GPa) = 93.14540 108.96710 101.05625
# Shear Modulus (GPa) = 32.47179 37.69835 35.08507
#
# Velocity S-wave (km/s) = 4.01974 4.33118 4.17836
# Velocity P-wave (km/s) = 8.23981 8.90142 8.57700
#
# Compressibility (1/GPa) = 0.01073590
#
# Stress axis : x y z
#
# Youngs Moduli (GPa) = 136.04290 95.47751 156.90346
#
# Poissons Ratio (x) = 0.19507 0.48062
# Poissons Ratio (y) = 0.27795 0.25491
# Poissons Ratio (z) = 0.41672 0.15512
#
# Static dielectric constant tensor:
#      x y z
#    x 3.896450 0.000000 0.006740 
#    y 0.000000 3.431760 0.000000 
#    z 0.006740 0.000000 4.157920 
# 
# 
# High freq. dielectric constant tensor:
#      x y z
#    x 1.809750 0.000000 0.000080 
#    y 0.000000 1.759030 0.000000 
#    z 0.000080 0.000000 1.811290 
# 
# From -- ./inp_files/73849.got.cif
#   From: 2010.06.25/outbox.cif.g09.slc.cpg/sg11_37_cif.got.tgz:73849.got - 2010.06.27 23:14:04.
