data_PCOD8071736
_publ_section_title
;
Structure prediction by ZEFSAII (Michael W. Deem and Ramdas Pophale) SiO2 
 PCOD8071736
Probable space group: P 21/M
;
_chemical_formula_sum "Si O2"
_cell_formula_units_Z 32
_cell_length_a 20.971464
_cell_length_b 9.042308
_cell_length_c 26.717906
_cell_angle_alpha 90.000000
_cell_angle_beta 160.611792
_cell_angle_gamma 90.000000
_cell_volume 1681.920166
_symmetry_space_group_name_H-M "P 21/M"
_symmetry_group_IT_number 11
_symmetry_cell_setting 'monoclinic'
loop_
_space_group_symop_operation_xyz
x,y,z
-x,1/2+y,-z
-x,-y,-z
x,1/2-y,z
loop_
_atom_site_type_symbol
_atom_site_label
_atom_site_fract_x
_atom_site_fract_y
_atom_site_fract_z
Si Si1 0.110351 0.920106 0.820501
Si Si2 0.867193 0.923236 0.060658
Si Si3 0.206065 0.422201 0.266537
Si Si4 0.511822 0.077518 0.955977
Si Si5 0.292382 0.418848 0.524768
Si Si6 0.204071 0.075897 0.645806
Si Si7 0.485890 0.078836 0.564153
Si Si8 0.425654 0.576778 0.720412
O O1 0.134764 0.750000 0.855996
O O2 0.934053 0.936511 0.652064
O O3 0.070079 0.018215 0.838899
O O4 0.300614 0.980477 0.934224
O O5 0.902507 0.750000 0.084778
O O6 0.648313 0.966353 0.887778
O O7 0.999131 0.999197 0.116074
O O8 0.172378 0.250000 0.233666
O O9 0.323980 0.484103 0.306474
O O10 0.319256 0.459538 0.401311
O O11 0.531638 0.250000 0.980733
O O12 0.324469 0.039035 0.784783
O O13 0.500000 0.000000 0.000000
O O14 0.339322 0.250000 0.575136
O O15 0.411032 0.463654 0.563395
O O16 0.348097 0.532475 0.608924
O O17 0.176609 0.250000 0.618279
O O18 0.313058 0.014145 0.678595
O O19 0.000000 0.000000 0.500000
O O20 0.541187 0.250000 0.601078
O O21 0.391363 0.750000 0.704033
#
# Coordination Sequence:
#
# PCOD8071736 Si02
#       8
#     4   4   4   4   4   4   4   4
#     4  10  20  39  62  87 116 150 198 246 293 349
#     4  11  22  37  59  87 117 155 198 245 293 342
#     4  10  19  33  57  86 118 154 194 242 294 352
#     4  10  23  40  62  90 121 154 193 242 292 347
#     4  10  21  38  61  88 119 156 195 244 299 349
#     4  11  24  43  65  89 119 159 199 239 293 354
#     4   9  18  34  55  85 120 151 191 243 297 352
#     4  11  25  42  60  87 121 157 200 245 289 349
#
# _framework density 19.025874000000002
#
# number of rings (size 3 to 8) (size 9 to 14) (size 15 to 20)
#    0.000    1.750    2.500    1.500    1.750    4.500 
#    0.000    0.625    0.000    0.000    0.000    0.000 
#    0.000    0.000    0.000    0.000    0.000    0.000 
#
# Total GULP energy -396950.654894 kJ/mol
# GULP energy per Si atom -12404.707965 kJ/mol
# Density = 1.898257 g / cm^3
# Si number density = 19.025874 Si / 1000 Ang^3
#
#
#
# Elastic Constant Matrix: (Units=GPa)
#
#
# Indices 1 2 3 4 5 6 
#
# 1 89.5994 62.2589 65.9123 0.0000 13.7835 0.0000
# 2 62.2589 80.0429 60.9382 0.0000 15.1674 0.0000
# 3 65.9123 60.9382 112.4863 0.0000 22.8774 0.0000
# 4 0.0000 0.0000 0.0000 30.8488 0.0000 1.5776
# 5 13.7835 15.1674 22.8774 0.0000 37.9590 0.0000
# 6 0.0000 0.0000 0.0000 1.5776 0.0000 38.5186
#
#
#
# Elastic Compliance Matrix: (Units=1/GPa)
#
#
# Indices 1 2 3 4 5 6 
#
# 1 0.027820 -0.015765 -0.007964 0.000000 0.000997 0.000000
# 2 -0.015765 0.030302 -0.006701 0.000000 -0.002344 0.000000
# 3 -0.007964 -0.006701 0.018297 0.000000 -0.005458 0.000000
# 4 0.000000 0.000000 0.000000 0.032484 0.000000 -0.001330
# 5 0.000997 -0.002344 -0.005458 0.000000 0.030208 0.000000
# 6 0.000000 0.000000 0.000000 -0.001330 0.000000 0.026016
#
#
# Mechanical properties :
#
#
# Convention : Reuss Voigt Hill
#
# Bulk Modulus (GPa) = 64.27247 73.37192 68.82220
# Shear Modulus (GPa) = 21.62881 27.66656 24.64768
#
# Velocity S-wave (km/s) = 3.37532 3.81747 3.60319
# Velocity P-wave (km/s) = 7.00324 7.62095 7.31861
#
# Compressibility (1/GPa) = 0.01555876
#
# Stress axis : x y z
#
# Youngs Moduli (GPa) = 35.94494 33.00152 54.65495
#
# Poissons Ratio (x) = 0.52027 0.43526
# Poissons Ratio (y) = 0.56668 0.36625
# Poissons Ratio (z) = 0.28625 0.22114
#
# Static dielectric constant tensor:
#      x y z
#    x 3.509650 0.000000 0.201280 
#    y 0.000000 3.539680 0.000000 
#    z 0.201280 0.000000 3.450860 
# 
# 
# High freq. dielectric constant tensor:
#      x y z
#    x 1.741540 0.000000 0.016710 
#    y 0.000000 1.742200 0.000000 
#    z 0.016710 0.000000 1.740930 
# 
# From -- ./inp_files/66979.got.cif
#   From: 2010.06.25/outbox.cif.g09.slc.cpg/sg11_34_cif.got.tgz:66979.got - 2010.06.27 23:14:04.
