data_PCOD8071095
_publ_section_title
;
Structure prediction by ZEFSAII (Michael W. Deem and Ramdas Pophale) SiO2 
 PCOD8071095
Probable space group: P 21/M
;
_chemical_formula_sum "Si O2"
_cell_formula_units_Z 32
_cell_length_a 14.236344
_cell_length_b 8.845634
_cell_length_c 20.640713
_cell_angle_alpha 90.000000
_cell_angle_beta 42.858279
_cell_angle_gamma 90.000000
_cell_volume 1767.993389
_symmetry_space_group_name_H-M "P 21/M"
_symmetry_group_IT_number 11
_symmetry_cell_setting 'monoclinic'
loop_
_space_group_symop_operation_xyz
x,y,z
-x,1/2+y,-z
-x,-y,-z
x,1/2-y,z
loop_
_atom_site_type_symbol
_atom_site_label
_atom_site_fract_x
_atom_site_fract_y
_atom_site_fract_z
Si Si1 0.851502 0.076584 0.191609
Si Si2 0.569102 0.924322 0.903745
Si Si3 0.158833 0.578073 0.650672
Si Si4 0.575131 0.572291 0.523118
Si Si5 0.853700 0.924057 0.815786
Si Si6 0.584159 0.572329 0.279240
Si Si7 0.577767 0.425340 0.149766
Si Si8 0.132721 0.923535 0.057900
O O1 0.835634 0.250000 0.177836
O O2 0.822800 0.056193 0.281995
O O3 0.742698 0.976667 0.207556
O O4 0.005004 0.021628 0.096278
O O5 0.527438 0.750000 0.928328
O O6 0.734825 0.948518 0.822370
O O7 0.510949 0.990372 0.865855
O O8 0.500000 0.000000 0.000000
O O9 0.192588 0.750000 0.613629
O O10 0.262537 0.467715 0.560698
O O11 0.002277 0.532883 0.709912
O O12 0.500000 0.500000 0.500000
O O13 0.552858 0.750000 0.531282
O O14 0.512434 0.511311 0.620867
O O15 0.860413 0.750000 0.836382
O O16 0.819115 0.025831 0.895184
O O17 0.569219 0.750000 0.296334
O O18 0.533744 0.524155 0.233557
O O19 0.542751 0.250000 0.180540
O O20 0.740282 0.447147 0.054718
O O21 0.086313 0.750000 0.084925
#
# Coordination Sequence:
#
# PCOD8071095 Si02
#       8
#     4   4   4   4   4   4   4   4
#     4  10  20  35  55  78 111 149 184 227 273 325
#     4  10  19  34  57  84 112 148 188 231 278 326
#     4   9  18  33  54  82 112 143 179 225 275 324
#     4  12  23  37  59  84 111 144 181 227 276 330
#     4   9  18  32  54  82 114 146 182 227 277 324
#     4  12  25  39  57  80 108 146 189 233 279 333
#     4  10  22  38  54  78 114 152 188 231 281 330
#     4  10  19  32  52  79 112 149 188 227 269 325
#
# _framework density 18.099616999999999
#
# number of rings (size 3 to 8) (size 9 to 14) (size 15 to 20)
#    0.000    1.750    2.500    3.750    0.000    4.000 
#    0.000    0.000    0.000    0.750    0.000    0.000 
#    0.000    0.000    0.000    0.000    0.000    0.000 
#
# Total GULP energy -396884.405438 kJ/mol
# GULP energy per Si atom -12402.637670 kJ/mol
# Density = 1.805842 g / cm^3
# Si number density = 18.099617 Si / 1000 Ang^3
#
#
#
# Elastic Constant Matrix: (Units=GPa)
#
#
# Indices 1 2 3 4 5 6 
#
# 1 108.0642 39.4809 55.3396 0.0000 0.4527 0.0000
# 2 39.4809 107.3403 50.8737 0.0000 2.8673 0.0000
# 3 55.3396 50.8737 97.2213 0.0000 1.4074 0.0000
# 4 0.0000 0.0000 0.0000 30.3813 0.0000 0.0114
# 5 0.4527 2.8673 1.4074 0.0000 24.0913 0.0000
# 6 0.0000 0.0000 0.0000 0.0114 0.0000 25.2746
#
#
#
# Elastic Compliance Matrix: (Units=1/GPa)
#
#
# Indices 1 2 3 4 5 6 
#
# 1 0.013302 -0.001743 -0.006665 0.000000 0.000347 0.000000
# 2 -0.001743 0.012646 -0.005609 0.000000 -0.001145 0.000000
# 3 -0.006665 -0.005609 0.017017 0.000000 -0.000201 0.000000
# 4 0.000000 0.000000 0.000000 0.032915 0.000000 -0.000015
# 5 0.000347 -0.001145 -0.000201 0.000000 0.041650 0.000000
# 6 0.000000 0.000000 0.000000 -0.000015 0.000000 0.039565
#
#
# Mechanical properties :
#
#
# Convention : Reuss Voigt Hill
#
# Bulk Modulus (GPa) = 66.96770 67.11271 67.04020
# Shear Modulus (GPa) = 26.30108 27.07821 26.68964
#
# Velocity S-wave (km/s) = 3.81613 3.87210 3.84421
# Velocity P-wave (km/s) = 7.51645 7.55983 7.53817
#
# Compressibility (1/GPa) = 0.01493257
#
# Stress axis : x y z
#
# Youngs Moduli (GPa) = 75.17609 79.07579 58.76448
#
# Poissons Ratio (x) = 0.13785 0.39164
# Poissons Ratio (y) = 0.13105 0.32958
# Poissons Ratio (z) = 0.50101 0.44350
#
# Static dielectric constant tensor:
#      x y z
#    x 3.467120 0.000000 -0.221880 
#    y 0.000000 3.450260 0.000000 
#    z -0.221880 0.000000 3.328090 
# 
# 
# High freq. dielectric constant tensor:
#      x y z
#    x 1.691780 0.000000 -0.016210 
#    y 0.000000 1.704700 0.000000 
#    z -0.016210 0.000000 1.689360 
# 
# From -- ./inp_files/65194.got.cif
#   From: 2010.06.25/outbox.cif.g09.slc.cpg/sg11_33_cif.got.tgz:65194.got - 2010.06.27 23:14:04.
