data_PCOD8071868
_publ_section_title
;
Structure prediction by ZEFSAII (Michael W. Deem and Ramdas Pophale) SiO2 
 PCOD8071868
Probable space group: P 21/M
;
_chemical_formula_sum "Si O2"
_cell_formula_units_Z 28
_cell_length_a 9.473832
_cell_length_b 9.132402
_cell_length_c 26.189851
_cell_angle_alpha 90.000000
_cell_angle_beta 39.784560
_cell_angle_gamma 90.000000
_cell_volume 1449.965367
_symmetry_space_group_name_H-M "P 21/M"
_symmetry_group_IT_number 11
_symmetry_cell_setting 'monoclinic'
loop_
_space_group_symop_operation_xyz
x,y,z
-x,1/2+y,-z
-x,-y,-z
x,1/2-y,z
loop_
_atom_site_type_symbol
_atom_site_label
_atom_site_fract_x
_atom_site_fract_y
_atom_site_fract_z
Si Si1 0.554973 0.084837 0.933433
Si Si2 0.787496 0.919757 0.579785
Si Si3 0.366005 0.414031 0.673033
Si Si4 0.678203 0.578536 0.726830
Si Si5 0.081535 0.416427 0.026461
Si Si6 0.091985 0.923539 0.245722
Si Si7 0.751008 0.584225 0.177470
O O1 0.609794 0.250000 0.934841
O O2 0.759246 0.021150 0.843596
O O3 0.344523 0.077340 0.954978
O O4 0.500000 0.000000 0.000000
O O5 0.808385 0.750000 0.561493
O O6 0.771404 0.950981 0.644414
O O7 0.572595 0.978148 0.609264
O O8 0.000000 0.000000 0.500000
O O9 0.444483 0.250000 0.637249
O O10 0.277489 0.418057 0.754701
O O11 0.163903 0.462585 0.693202
O O12 0.648569 0.750000 0.745850
O O13 0.847524 0.509275 0.719791
O O14 0.443718 0.499317 0.798174
O O15 0.996172 0.250000 0.049598
O O16 0.979396 0.500040 0.103615
O O17 0.000000 0.500000 0.000000
O O18 0.127429 0.750000 0.243630
O O19 0.760764 0.750000 0.153549
#
# Coordination Sequence:
#
# PCOD8071868 Si02
#       7
#     4   4   4   4   4   4   4
#     4  10  22  37  53  76 107 144 187 231 276 323
#     4  10  21  38  61  87 114 141 176 219 265 323
#     4   9  19  35  57  82 108 141 180 220 266 320
#     4  10  21  36  56  84 113 143 180 224 271 323
#     4  11  22  34  50  75 105 139 182 232 280 326
#     4  10  20  36  56  80 111 146 185 227 271 326
#     4  10  19  34  55  76 102 140 183 227 274 325
#
# _framework density 19.310807
#
# number of rings (size 3 to 8) (size 9 to 14) (size 15 to 20)
#    0.000    2.000    0.000    3.429    0.000    6.857 
#    0.000    0.714    0.000    0.000    0.000    0.000 
#    0.000    0.000    0.000    0.000    0.000    0.000 
#
# Total GULP energy -347247.969360 kJ/mol
# GULP energy per Si atom -12401.713191 kJ/mol
# Density = 1.926685 g / cm^3
# Si number density = 19.310807 Si / 1000 Ang^3
#
#
#
# Elastic Constant Matrix: (Units=GPa)
#
#
# Indices 1 2 3 4 5 6 
#
# 1 99.2548 48.0970 22.0706 0.0000 -12.7328 0.0000
# 2 48.0970 119.8631 50.2548 0.0000 -10.0250 0.0000
# 3 22.0706 50.2548 87.8272 0.0000 -19.0902 0.0000
# 4 0.0000 0.0000 0.0000 35.1880 0.0000 -0.4279
# 5 -12.7328 -10.0250 -19.0902 0.0000 22.9298 0.0000
# 6 0.0000 0.0000 0.0000 -0.4279 0.0000 34.2183
#
#
#
# Elastic Compliance Matrix: (Units=1/GPa)
#
#
# Indices 1 2 3 4 5 6 
#
# 1 0.013116 -0.005163 0.000917 0.000000 0.005789 0.000000
# 2 -0.005163 0.013014 -0.006759 0.000000 -0.002804 0.000000
# 3 0.000917 -0.006759 0.017693 0.000000 0.012285 0.000000
# 4 0.000000 0.000000 0.000000 0.028423 0.000000 0.000355
# 5 0.005789 -0.002804 0.012285 0.000000 0.055828 0.000000
# 6 0.000000 0.000000 0.000000 0.000355 0.000000 0.029229
#
#
# Mechanical properties :
#
#
# Convention : Reuss Voigt Hill
#
# Bulk Modulus (GPa) = 45.84477 60.86556 53.35516
# Shear Modulus (GPa) = 26.79775 30.90203 28.84989
#
# Velocity S-wave (km/s) = 3.72924 4.00465 3.86939
# Velocity P-wave (km/s) = 6.50653 7.27807 6.90309
#
# Compressibility (1/GPa) = 0.02181274
#
# Stress axis : x y z
#
# Youngs Moduli (GPa) = 76.24376 76.84186 56.51929
#
# Poissons Ratio (x) = 0.39674 -0.05181
# Poissons Ratio (y) = 0.39365 0.38199
# Poissons Ratio (z) = -0.06989 0.51934
#
# Static dielectric constant tensor:
#      x y z
#    x 3.522090 0.000000 -0.194530 
#    y 0.000000 3.739570 0.000000 
#    z -0.194530 0.000000 3.710080 
# 
# 
# High freq. dielectric constant tensor:
#      x y z
#    x 1.752520 0.000000 -0.010290 
#    y 0.000000 1.757050 0.000000 
#    z -0.010290 0.000000 1.742500 
# 
# From -- ./inp_files/28161.got.cif
#   From: 2010.06.25/outbox.cif.g09.slc.cpg/sg11_15_cif.got.tgz:28161.got - 2010.06.27 23:14:04.
