data_PCOD8071172
_publ_section_title
;
Structure prediction by ZEFSAII (Michael W. Deem and Ramdas Pophale) SiO2 
 PCOD8071172
Probable space group: P 21/M
;
_chemical_formula_sum "Si O2"
_cell_formula_units_Z 32
_cell_length_a 14.186533
_cell_length_b 9.308802
_cell_length_c 14.239138
_cell_angle_alpha 90.000000
_cell_angle_beta 118.780434
_cell_angle_gamma 90.000000
_cell_volume 1648.129704
_symmetry_space_group_name_H-M "P 21/M"
_symmetry_group_IT_number 11
_symmetry_cell_setting 'monoclinic'
loop_
_space_group_symop_operation_xyz
x,y,z
-x,1/2+y,-z
-x,-y,-z
x,1/2-y,z
loop_
_atom_site_type_symbol
_atom_site_label
_atom_site_fract_x
_atom_site_fract_y
_atom_site_fract_z
Si Si1 0.321947 0.416926 0.665694
Si Si2 0.398502 0.419934 0.909445
Si Si3 0.892350 0.085922 0.425845
Si Si4 0.960304 0.090467 0.255493
Si Si5 0.106931 0.415961 0.078510
Si Si6 0.186691 0.418232 0.315889
Si Si7 0.802911 0.913325 0.070074
Si Si8 0.405208 0.418081 0.506204
O O1 0.287463 0.250000 0.653583
O O2 0.377551 0.463436 0.790484
O O3 0.214663 0.506783 0.590610
O O4 0.404453 0.444171 0.618906
O O5 0.416318 0.250000 0.927444
O O6 0.301426 0.477178 0.928457
O O7 0.500000 0.500000 0.000000
O O8 0.897661 0.250000 0.467386
O O9 0.885780 0.086762 0.310407
O O10 0.000000 0.000000 0.500000
O O11 0.963540 0.250000 0.213416
O O12 0.084635 0.043368 0.334394
O O13 0.911949 0.989167 0.153791
O O14 0.074076 0.250000 0.074830
O O15 0.160023 0.477955 0.199065
O O16 0.200210 0.431763 0.043886
O O17 0.000000 0.500000 0.000000
O O18 0.207580 0.250000 0.322082
O O19 0.294830 0.485314 0.410815
O O20 0.813604 0.750000 0.107483
O O21 0.500000 0.500000 0.500000
O O22 0.418388 0.250000 0.490973
#
# Coordination Sequence:
#
# PCOD8071172 Si02
#       8
#     4   4   4   4   4   4   4   4
#     4  10  21  40  62  84 116 154 193 244 301 351
#     4  10  22  39  59  84 117 155 194 242 293 344
#     4  11  22  34  55  87 119 155 196 237 286 350
#     4  10  19  33  55  81 110 147 187 226 279 346
#     4  10  19  32  53  80 112 150 189 228 282 343
#     4   9  18  34  55  80 112 149 187 231 285 342
#     4  10  20  34  53  80 112 148 186 231 287 336
#     4  10  22  41  63  84 112 151 195 245 294 345
#
# _framework density 19.415948
#
# number of rings (size 3 to 8) (size 9 to 14) (size 15 to 20)
#    0.000    2.000    2.500    1.125    0.000    5.000 
#    0.000    2.500    0.000    0.000    0.000    0.000 
#    0.000    0.000    0.000    0.000    0.000    0.000 
#
# Total GULP energy -396630.403892 kJ/mol
# GULP energy per Si atom -12394.700122 kJ/mol
# Density = 1.937176 g / cm^3
# Si number density = 19.415948 Si / 1000 Ang^3
#
#
#
# Elastic Constant Matrix: (Units=GPa)
#
#
# Indices 1 2 3 4 5 6 
#
# 1 138.2939 39.4561 51.5390 0.0000 -2.1822 0.0000
# 2 39.4561 61.6064 29.1548 0.0000 6.6573 0.0000
# 3 51.5390 29.1548 96.5509 0.0000 4.0061 0.0000
# 4 0.0000 0.0000 0.0000 26.3121 0.0000 6.7110
# 5 -2.1822 6.6573 4.0061 0.0000 35.3382 0.0000
# 6 0.0000 0.0000 0.0000 6.7110 0.0000 31.3125
#
#
#
# Elastic Compliance Matrix: (Units=1/GPa)
#
#
# Indices 1 2 3 4 5 6 
#
# 1 0.010138 -0.004792 -0.004047 0.000000 0.001988 0.000000
# 2 -0.004792 0.021511 -0.003775 0.000000 -0.003920 0.000000
# 3 -0.004047 -0.003775 0.013703 0.000000 -0.001092 0.000000
# 4 0.000000 0.000000 0.000000 0.040203 0.000000 -0.008616
# 5 0.001988 -0.003920 -0.001092 0.000000 0.029283 0.000000
# 6 0.000000 0.000000 0.000000 -0.008616 0.000000 0.033783
#
#
# Mechanical properties :
#
#
# Convention : Reuss Voigt Hill
#
# Bulk Modulus (GPa) = 49.69276 59.63899 54.66588
# Shear Modulus (GPa) = 27.69208 30.34599 29.01903
#
# Velocity S-wave (km/s) = 3.78068 3.95769 3.87020
# Velocity P-wave (km/s) = 6.68636 7.18802 6.94172
#
# Compressibility (1/GPa) = 0.02012365
#
# Stress axis : x y z
#
# Youngs Moduli (GPa) = 98.64028 46.48690 72.97861
#
# Poissons Ratio (x) = 0.22279 0.29534
# Poissons Ratio (y) = 0.47273 0.27548
# Poissons Ratio (z) = 0.39919 0.17548
#
# Static dielectric constant tensor:
#      x y z
#    x 3.711480 0.000000 -0.206100 
#    y 0.000000 3.398770 0.000000 
#    z -0.206100 0.000000 3.675410 
# 
# 
# High freq. dielectric constant tensor:
#      x y z
#    x 1.760980 0.000000 -0.015040 
#    y 0.000000 1.735420 0.000000 
#    z -0.015040 0.000000 1.756070 
# 
# From -- ./inp_files/51745.got.cif
#   From: 2010.06.25/outbox.cif.g09.slc.cpg/sg11_26_cif.got.tgz:51745.got - 2010.06.27 23:14:04.
