data_PCOD8071570
_publ_section_title
;
Structure prediction by ZEFSAII (Michael W. Deem and Ramdas Pophale) SiO2 
 PCOD8071570
Probable space group: P 21/M
;
_chemical_formula_sum "Si O2"
_cell_formula_units_Z 32
_cell_length_a 25.247393
_cell_length_b 9.191323
_cell_length_c 18.566389
_cell_angle_alpha 90.000000
_cell_angle_beta 156.246979
_cell_angle_gamma 90.000000
_cell_volume 1735.425727
_symmetry_space_group_name_H-M "P 21/M"
_symmetry_group_IT_number 11
_symmetry_cell_setting 'monoclinic'
loop_
_space_group_symop_operation_xyz
x,y,z
-x,1/2+y,-z
-x,-y,-z
x,1/2-y,z
loop_
_atom_site_type_symbol
_atom_site_label
_atom_site_fract_x
_atom_site_fract_y
_atom_site_fract_z
Si Si1 0.379238 0.577545 0.055007
Si Si2 0.612719 0.580047 0.597351
Si Si3 0.854163 0.582738 0.996125
Si Si4 0.614915 0.078331 0.100851
Si Si5 0.151923 0.584065 0.355540
Si Si6 0.131060 0.580961 0.493953
Si Si7 0.372072 0.077379 0.546897
Si Si8 0.134158 0.577219 0.843129
O O1 0.384459 0.750000 0.062123
O O2 0.504438 0.515346 0.254298
O O3 0.384024 0.519432 0.979424
O O4 0.245193 0.524554 0.925424
O O5 0.500000 0.500000 0.500000
O O6 0.581156 0.750000 0.560331
O O7 0.614605 0.521518 0.518198
O O8 0.753342 0.543913 0.807463
O O9 0.841207 0.750000 0.005546
O O10 0.824740 0.481076 0.027504
O O11 0.999885 0.554305 0.146987
O O12 0.590422 0.250000 0.074530
O O13 0.753974 0.035806 0.308809
O O14 0.500000 0.000000 0.000000
O O15 0.191431 0.750000 0.388818
O O16 0.177855 0.545292 0.471312
O O17 0.237364 0.480411 0.412237
O O18 0.092982 0.750000 0.453181
O O19 0.003348 0.487777 0.355490
O O20 0.366192 0.250000 0.542174
O O21 0.122926 0.750000 0.833032
#
# Coordination Sequence:
#
# PCOD8071570 Si02
#       8
#     4   4   4   4   4   4   4   4
#     4   9  19  34  51  74 105 135 165 211 263 301
#     4  10  21  36  54  76 103 136 172 211 256 304
#     4   9  19  36  54  74 105 139 168 207 258 304
#     4  10  20  35  54  75 103 139 175 212 256 303
#     4   9  18  33  51  72 100 133 168 207 253 304
#     4   9  19  35  53  75 106 139 169 209 259 303
#     4  10  20  34  52  75 103 133 168 212 258 301
#     4  10  19  33  55  79 102 133 173 211 251 306
#
# _framework density 18.43928
#
# number of rings (size 3 to 8) (size 9 to 14) (size 15 to 20)
#    0.000    2.500    0.000    2.625    0.000    5.500 
#    0.000    2.500    0.000    0.000    0.000    0.000 
#    0.000    0.000    0.000    0.000    0.000    0.000 
#
# Total GULP energy -396871.565765 kJ/mol
# GULP energy per Si atom -12402.236430 kJ/mol
# Density = 1.839731 g / cm^3
# Si number density = 18.439280 Si / 1000 Ang^3
#
#
#
# Elastic Constant Matrix: (Units=GPa)
#
#
# Indices 1 2 3 4 5 6 
#
# 1 159.2134 46.8972 101.2455 0.0000 3.9003 0.0000
# 2 46.8972 46.1016 46.6648 0.0000 5.8528 0.0000
# 3 101.2455 46.6648 157.9667 0.0000 -10.4364 0.0000
# 4 0.0000 0.0000 0.0000 27.4942 0.0000 8.0505
# 5 3.9003 5.8528 -10.4364 0.0000 36.4856 0.0000
# 6 0.0000 0.0000 0.0000 8.0505 0.0000 27.1714
#
#
#
# Elastic Compliance Matrix: (Units=1/GPa)
#
#
# Indices 1 2 3 4 5 6 
#
# 1 0.011855 -0.005653 -0.006067 0.000000 -0.002096 0.000000
# 2 -0.005653 0.035934 -0.007474 0.000000 -0.007298 0.000000
# 3 -0.006067 -0.007474 0.012791 0.000000 0.005506 0.000000
# 4 0.000000 0.000000 0.000000 0.039826 0.000000 -0.011800
# 5 -0.002096 -0.007298 0.005506 0.000000 0.030378 0.000000
# 6 0.000000 0.000000 0.000000 -0.011800 0.000000 0.040300
#
#
# Mechanical properties :
#
#
# Convention : Reuss Voigt Hill
#
# Bulk Modulus (GPa) = 45.06208 83.65520 64.35864
# Shear Modulus (GPa) = 23.05543 29.46186 26.25865
#
# Velocity S-wave (km/s) = 3.53986 4.00156 3.77777
# Velocity P-wave (km/s) = 6.41861 8.17413 7.34898
#
# Compressibility (1/GPa) = 0.02219161
#
# Stress axis : x y z
#
# Youngs Moduli (GPa) = 84.35002 27.82916 78.18138
#
# Poissons Ratio (x) = 0.15731 0.47433
# Poissons Ratio (y) = 0.47680 0.58435
# Poissons Ratio (z) = 0.51176 0.20800
#
# Static dielectric constant tensor:
#      x y z
#    x 3.458730 0.000000 -0.156760 
#    y 0.000000 3.209060 0.000000 
#    z -0.156760 0.000000 3.739520 
# 
# 
# High freq. dielectric constant tensor:
#      x y z
#    x 1.716290 0.000000 -0.001310 
#    y 0.000000 1.697380 0.000000 
#    z -0.001310 0.000000 1.729830 
# 
# From -- ./inp_files/67281.got.cif
#   From: 2010.06.25/outbox.cif.g09.slc.cpg/sg11_34_cif.got.tgz:67281.got - 2010.06.27 23:14:04.
