data_PCOD8071112
_publ_section_title
;
Structure prediction by ZEFSAII (Michael W. Deem and Ramdas Pophale) SiO2 
 PCOD8071112
Probable space group: P 21/M
;
_chemical_formula_sum "Si O2"
_cell_formula_units_Z 28
_cell_length_a 15.513796
_cell_length_b 8.896393
_cell_length_c 19.376165
_cell_angle_alpha 90.000000
_cell_angle_beta 143.034576
_cell_angle_gamma 90.000000
_cell_volume 1608.106742
_symmetry_space_group_name_H-M "P 21/M"
_symmetry_group_IT_number 11
_symmetry_cell_setting 'monoclinic'
loop_
_space_group_symop_operation_xyz
x,y,z
-x,1/2+y,-z
-x,-y,-z
x,1/2-y,z
loop_
_atom_site_type_symbol
_atom_site_label
_atom_site_fract_x
_atom_site_fract_y
_atom_site_fract_z
Si Si1 0.432403 0.572451 0.123186
Si Si2 0.119325 0.426771 0.122430
Si Si3 0.810620 0.926357 0.127045
Si Si4 0.384377 0.077832 0.880785
Si Si5 0.571856 0.571675 0.731727
Si Si6 0.093040 0.075123 0.262055
Si Si7 0.586067 0.926384 0.492350
O O1 0.412054 0.750000 0.123277
O O2 0.582423 0.535527 0.177836
O O3 0.451570 0.485872 0.206395
O O4 0.293296 0.513267 0.992690
O O5 0.106424 0.250000 0.107626
O O6 0.273083 0.481930 0.194775
O O7 0.097212 0.480967 0.186109
O O8 0.000000 0.500000 0.000000
O O9 0.800275 0.750000 0.103087
O O10 0.768989 0.959223 0.181595
O O11 0.972815 0.981249 0.224780
O O12 0.419218 0.250000 0.911711
O O13 0.500000 0.000000 0.000000
O O14 0.554217 0.750000 0.717492
O O15 0.456103 0.496727 0.607678
O O16 0.054034 0.250000 0.241645
O O17 0.245716 0.040738 0.393449
O O18 0.553342 0.750000 0.473140
O O19 0.500000 0.000000 0.500000
#
# Coordination Sequence:
#
# PCOD8071112 Si02
#       7
#     4   4   4   4   4   4   4
#     4  10  19  33  53  79 109 144 176 212 263 318
#     4  10  21  35  49  71 104 137 167 205 255 307
#     4  10  19  32  52  81 110 140 175 217 263 311
#     4   8  16  30  49  74 107 139 173 212 257 312
#     4  11  22  37  54  77 106 137 176 223 263 309
#     4  10  21  37  53  73 104 139 175 216 259 312
#     4  11  22  39  59  77 100 137 182 223 264 310
#
# _framework density 17.411778999999999
#
# number of rings (size 3 to 8) (size 9 to 14) (size 15 to 20)
#    0.000    2.000    1.429    2.571    0.000    6.286 
#    0.000    0.000    0.000    0.857    0.000    0.000 
#    0.000    0.000    0.000    0.000    0.000    0.000 
#
# Total GULP energy -347031.760346 kJ/mol
# GULP energy per Si atom -12393.991441 kJ/mol
# Density = 1.737215 g / cm^3
# Si number density = 17.411779 Si / 1000 Ang^3
#
#
#
# Elastic Constant Matrix: (Units=GPa)
#
#
# Indices 1 2 3 4 5 6 
#
# 1 152.3807 50.6161 56.8663 0.0000 9.9650 0.0000
# 2 50.6161 62.3463 40.6846 0.0000 7.4825 0.0000
# 3 56.8663 40.6846 100.8188 0.0000 9.3219 0.0000
# 4 0.0000 0.0000 0.0000 30.3070 0.0000 -0.6446
# 5 9.9650 7.4825 9.3219 0.0000 3.4617 0.0000
# 6 0.0000 0.0000 0.0000 -0.6446 0.0000 28.8561
#
#
#
# Elastic Compliance Matrix: (Units=1/GPa)
#
#
# Indices 1 2 3 4 5 6 
#
# 1 0.009902 -0.005104 -0.002543 0.000000 -0.010622 0.000000
# 2 -0.005104 0.027260 -0.005369 0.000000 -0.029772 0.000000
# 3 -0.002543 -0.005369 0.015672 0.000000 -0.023277 0.000000
# 4 0.000000 0.000000 0.000000 0.033011 0.000000 0.000737
# 5 -0.010622 -0.029772 -0.023277 0.000000 0.446486 0.000000
# 6 0.000000 0.000000 0.000000 0.000737 0.000000 0.034671
#
#
# Mechanical properties :
#
#
# Convention : Reuss Voigt Hill
#
# Bulk Modulus (GPa) = 37.31155 67.98663 52.64909
# Shear Modulus (GPa) = 8.30609 23.68355 15.99482
#
# Velocity S-wave (km/s) = 2.18649 3.69209 3.03416
# Velocity P-wave (km/s) = 5.27729 7.57011 6.52519
#
# Compressibility (1/GPa) = 0.02680135
#
# Stress axis : x y z
#
# Youngs Moduli (GPa) = 100.99273 36.68382 63.80856
#
# Poissons Ratio (x) = 0.18725 0.16227
# Poissons Ratio (y) = 0.51551 0.34256
# Poissons Ratio (z) = 0.25683 0.19694
#
# Static dielectric constant tensor:
#      x y z
#    x 3.318670 0.000000 -0.129450 
#    y 0.000000 3.325410 0.000000 
#    z -0.129450 0.000000 3.051510 
# 
# 
# High freq. dielectric constant tensor:
#      x y z
#    x 1.688620 0.000000 -0.001790 
#    y 0.000000 1.683860 0.000000 
#    z -0.001790 0.000000 1.647160 
# 
# From -- ./inp_files/37938.got.cif
#   From: 2010.06.25/outbox.cif.g09.slc.cpg/sg11_19_cif.got.tgz:37938.got - 2010.06.27 23:14:04.
