data_PCOD8071802
_publ_section_title
;
Structure prediction by ZEFSAII (Michael W. Deem and Ramdas Pophale) SiO2 
 PCOD8071802
Probable space group: P 21/M
;
_chemical_formula_sum "Si O2"
_cell_formula_units_Z 32
_cell_length_a 20.782465
_cell_length_b 8.764565
_cell_length_c 14.220953
_cell_angle_alpha 90.000000
_cell_angle_beta 47.958264
_cell_angle_gamma 90.000000
_cell_volume 1923.731820
_symmetry_space_group_name_H-M "P 21/M"
_symmetry_group_IT_number 11
_symmetry_cell_setting 'monoclinic'
loop_
_space_group_symop_operation_xyz
x,y,z
-x,1/2+y,-z
-x,-y,-z
x,1/2-y,z
loop_
_atom_site_type_symbol
_atom_site_label
_atom_site_fract_x
_atom_site_fract_y
_atom_site_fract_z
Si Si1 0.014330 0.572688 0.586024
Si Si2 0.506937 0.069233 0.095180
Si Si3 0.186641 0.070755 0.418872
Si Si4 0.823374 0.924369 0.790800
Si Si5 0.349190 0.570865 0.359586
Si Si6 0.601369 0.427594 0.310388
Si Si7 0.671117 0.429624 0.046833
Si Si8 0.600200 0.573576 0.504945
O O1 0.038146 0.750000 0.552652
O O2 0.922550 0.552131 0.729694
O O3 0.000000 0.500000 0.500000
O O4 0.094861 0.483416 0.554523
O O5 0.508174 0.250000 0.086245
O O6 0.594822 0.003920 0.055777
O O7 0.426143 0.021328 0.236469
O O8 0.500000 0.000000 0.000000
O O9 0.198981 0.250000 0.423566
O O10 0.188400 0.027614 0.306606
O O11 0.260045 0.976090 0.398641
O O12 0.794875 0.750000 0.829969
O O13 0.764169 0.024163 0.916628
O O14 0.363900 0.750000 0.332674
O O15 0.346771 0.525983 0.471616
O O16 0.615621 0.250000 0.318861
O O17 0.658576 0.486206 0.166379
O O18 0.631267 0.524226 0.371027
O O19 0.501494 0.459538 0.382874
O O20 0.662439 0.250000 0.055340
O O21 0.622374 0.750000 0.498991
#
# Coordination Sequence:
#
# PCOD8071802 Si02
#       8
#     4   4   4   4   4   4   4   4
#     4   9  17  31  49  71  99 130 166 209 252 295
#     4  11  22  36  48  67  99 137 174 209 244 288
#     4  10  20  34  51  72 100 133 169 213 253 294
#     4   9  19  32  48  72 101 131 165 205 246 290
#     4  12  23  34  50  73  99 134 170 205 250 302
#     4   9  18  34  51  71  96 125 163 209 254 295
#     4  10  20  33  49  69  98 132 166 204 245 290
#     4  10  19  34  53  72  96 126 162 210 255 296
#
# _framework density 16.634335
#
# number of rings (size 3 to 8) (size 9 to 14) (size 15 to 20)
#    0.000    2.000    1.250    4.125    0.000    7.000 
#    0.000    0.000    0.000    0.000    0.000    0.875 
#    0.000    0.000    0.000    0.000    0.000    0.000 
#
# Total GULP energy -396770.628302 kJ/mol
# GULP energy per Si atom -12399.082134 kJ/mol
# Density = 1.659647 g / cm^3
# Si number density = 16.634335 Si / 1000 Ang^3
#
#
#
# Elastic Constant Matrix: (Units=GPa)
#
#
# Indices 1 2 3 4 5 6 
#
# 1 46.9439 22.0311 51.6626 0.0000 3.5877 0.0000
# 2 22.0311 53.3706 22.3353 0.0000 4.0814 0.0000
# 3 51.6626 22.3353 91.4048 0.0000 1.1327 0.0000
# 4 0.0000 0.0000 0.0000 30.0811 0.0000 -0.7810
# 5 3.5877 4.0814 1.1327 0.0000 26.0504 0.0000
# 6 0.0000 0.0000 0.0000 -0.7810 0.0000 27.4159
#
#
#
# Elastic Compliance Matrix: (Units=1/GPa)
#
#
# Indices 1 2 3 4 5 6 
#
# 1 0.063659 -0.012066 -0.032965 0.000000 -0.005443 0.000000
# 2 -0.012066 0.023403 0.001127 0.000000 -0.002054 0.000000
# 3 -0.032965 0.001127 0.029259 0.000000 0.003091 0.000000
# 4 0.000000 0.000000 0.000000 0.033268 0.000000 0.000948
# 5 -0.005443 -0.002054 0.003091 0.000000 0.039324 0.000000
# 6 0.000000 0.000000 0.000000 0.000948 0.000000 0.036502
#
#
# Mechanical properties :
#
#
# Convention : Reuss Voigt Hill
#
# Bulk Modulus (GPa) = 35.07236 42.64192 38.85714
# Shear Modulus (GPa) = 15.49291 23.08884 19.29088
#
# Velocity S-wave (km/s) = 3.05517 3.72966 3.40913
# Velocity P-wave (km/s) = 5.79443 6.65114 6.23751
#
# Compressibility (1/GPa) = 0.02851248
#
# Stress axis : x y z
#
# Youngs Moduli (GPa) = 15.70867 42.72885 34.17802
#
# Poissons Ratio (x) = 0.51558 1.12667
# Poissons Ratio (y) = 0.18955 -0.03851
# Poissons Ratio (z) = 0.51783 -0.04814
#
# Static dielectric constant tensor:
#      x y z
#    x 3.178930 0.000000 -0.173410 
#    y 0.000000 3.083960 0.000000 
#    z -0.173410 0.000000 3.132030 
# 
# 
# High freq. dielectric constant tensor:
#      x y z
#    x 1.624870 0.000000 -0.004940 
#    y 0.000000 1.650310 0.000000 
#    z -0.004940 0.000000 1.626880 
# 
# From -- ./inp_files/51277.got.cif
#   From: 2010.06.25/outbox.cif.g09.slc.cpg/sg11_26_cif.got.tgz:51277.got - 2010.06.27 23:14:04.
