data_PCOD8071465
_publ_section_title
;
Structure prediction by ZEFSAII (Michael W. Deem and Ramdas Pophale) SiO2 
 PCOD8071465
Probable space group: P 21/M
;
_chemical_formula_sum "Si O2"
_cell_formula_units_Z 28
_cell_length_a 14.727246
_cell_length_b 8.582910
_cell_length_c 21.646369
_cell_angle_alpha 90.000000
_cell_angle_beta 148.852222
_cell_angle_gamma 90.000000
_cell_volume 1415.269950
_symmetry_space_group_name_H-M "P 21/M"
_symmetry_group_IT_number 11
_symmetry_cell_setting 'monoclinic'
loop_
_space_group_symop_operation_xyz
x,y,z
-x,1/2+y,-z
-x,-y,-z
x,1/2-y,z
loop_
_atom_site_type_symbol
_atom_site_label
_atom_site_fract_x
_atom_site_fract_y
_atom_site_fract_z
Si Si1 0.356688 0.067082 0.142326
Si Si2 0.072625 0.934167 0.894050
Si Si3 0.434556 0.565843 0.525521
Si Si4 0.958236 0.431576 0.378259
Si Si5 0.264344 0.432337 0.647679
Si Si6 0.960504 0.067165 0.700578
Si Si7 0.752569 0.933311 0.789185
O O1 0.396041 0.250000 0.162920
O O2 0.238226 0.021822 0.133250
O O3 0.538825 0.977113 0.254493
O O4 0.253025 0.012857 0.021432
O O5 0.089549 0.750000 0.911087
O O6 0.914272 0.004171 0.844070
O O7 0.046459 0.977243 0.807730
O O8 0.500000 0.500000 0.500000
O O9 0.436456 0.750000 0.523392
O O10 0.238491 0.506183 0.424625
O O11 0.566725 0.502885 0.655068
O O12 0.954847 0.250000 0.360991
O O13 0.792566 0.474990 0.324202
O O14 0.138235 0.481341 0.517502
O O15 0.936818 0.525706 0.302097
O O16 0.247102 0.250000 0.651148
O O17 0.970643 0.250000 0.719901
O O18 0.759118 0.750000 0.783376
#
# Coordination Sequence:
#
# PCOD8071465 Si02
#       7
#     4   4   4   4   4   4   4
#     4  11  22  38  59  83 114 152 196 241 289 341
#     4  11  22  38  57  79 115 157 199 242 284 338
#     4  10  19  33  53  80 113 148 186 230 281 333
#     4  10  21  38  63  91 118 150 186 231 287 344
#     4  10  21  39  62  90 119 147 187 235 286 342
#     4  11  22  36  57  86 119 155 193 236 289 344
#     4   9  19  35  56  81 113 152 192 237 287 337
#
# _framework density 19.784212
#
# number of rings (size 3 to 8) (size 9 to 14) (size 15 to 20)
#    0.000    1.714    1.429    3.429    0.000    3.429 
#    0.000    4.286    0.000    0.000    0.000    0.000 
#    0.000    0.000    0.000    0.000    0.000    0.000 
#
# Total GULP energy -347279.322718 kJ/mol
# GULP energy per Si atom -12402.832954 kJ/mol
# Density = 1.973918 g / cm^3
# Si number density = 19.784212 Si / 1000 Ang^3
#
#
#
# Elastic Constant Matrix: (Units=GPa)
#
#
# Indices 1 2 3 4 5 6 
#
# 1 96.5240 8.7451 30.0400 0.0000 -11.2403 0.0000
# 2 8.7451 34.8916 18.8616 0.0000 -1.2409 0.0000
# 3 30.0400 18.8616 89.5791 0.0000 -11.2036 0.0000
# 4 0.0000 0.0000 0.0000 27.3126 0.0000 -1.0561
# 5 -11.2403 -1.2409 -11.2036 0.0000 27.0391 0.0000
# 6 0.0000 0.0000 0.0000 -1.0561 0.0000 31.9592
#
#
#
# Elastic Compliance Matrix: (Units=1/GPa)
#
#
# Indices 1 2 3 4 5 6 
#
# 1 0.011902 -0.001059 -0.003328 0.000000 0.003520 0.000000
# 2 -0.001059 0.032487 -0.006701 0.000000 -0.001726 0.000000
# 3 -0.003328 -0.006701 0.014216 0.000000 0.004199 0.000000
# 4 0.000000 0.000000 0.000000 0.036660 0.000000 0.001211
# 5 0.003520 -0.001726 0.004199 0.000000 0.040108 0.000000
# 6 0.000000 0.000000 0.000000 0.001211 0.000000 0.031330
#
#
# Mechanical properties :
#
#
# Convention : Reuss Voigt Hill
#
# Bulk Modulus (GPa) = 27.45134 37.36533 32.40833
# Shear Modulus (GPa) = 24.87319 28.15206 26.51262
#
# Velocity S-wave (km/s) = 3.54958 3.77630 3.66470
# Velocity P-wave (km/s) = 5.54120 6.15966 5.85859
#
# Compressibility (1/GPa) = 0.03642809
#
# Stress axis : x y z
#
# Youngs Moduli (GPa) = 84.02174 30.78188 70.34564
#
# Poissons Ratio (x) = 0.03259 0.23411
# Poissons Ratio (y) = 0.08896 0.47139
# Poissons Ratio (z) = 0.27962 0.20627
#
# Static dielectric constant tensor:
#      x y z
#    x 3.563060 0.000000 0.033590 
#    y 0.000000 3.502850 0.000000 
#    z 0.033590 0.000000 3.703200 
# 
# 
# High freq. dielectric constant tensor:
#      x y z
#    x 1.771150 0.000000 -0.006390 
#    y 0.000000 1.764100 0.000000 
#    z -0.006390 0.000000 1.768930 
# 
# From -- ./inp_files/48911.got.cif
#   From: 2010.06.25/outbox.cif.g09.slc.cpg/sg11_25_cif.got.tgz:48911.got - 2010.06.27 23:14:04.
