data_PCOD8071499
_publ_section_title
;
Structure prediction by ZEFSAII (Michael W. Deem and Ramdas Pophale) SiO2 
 PCOD8071499
Probable space group: P 21/M
;
_chemical_formula_sum "Si O2"
_cell_formula_units_Z 24
_cell_length_a 8.918167
_cell_length_b 9.203644
_cell_length_c 19.575398
_cell_angle_alpha 90.000000
_cell_angle_beta 129.443828
_cell_angle_gamma 90.000000
_cell_volume 1240.802618
_symmetry_space_group_name_H-M "P 21/M"
_symmetry_group_IT_number 11
_symmetry_cell_setting 'monoclinic'
loop_
_space_group_symop_operation_xyz
x,y,z
-x,1/2+y,-z
-x,-y,-z
x,1/2-y,z
loop_
_atom_site_type_symbol
_atom_site_label
_atom_site_fract_x
_atom_site_fract_y
_atom_site_fract_z
Si Si1 0.008059 0.086642 0.758326
Si Si2 0.616293 0.074073 0.094010
Si Si3 0.521819 0.408795 0.212218
Si Si4 0.919706 0.505665 0.368623
Si Si5 0.627715 0.923799 0.691767
Si Si6 0.268377 0.093043 0.550422
O O1 0.003714 0.250000 0.787746
O O2 0.806485 0.004522 0.710227
O O3 0.166780 0.989782 0.844012
O O4 0.047573 0.102959 0.689060
O O5 0.622630 0.250000 0.089872
O O6 0.511380 0.018694 0.134046
O O7 0.500000 0.000000 0.000000
O O8 0.433719 0.250000 0.178260
O O9 0.746637 0.393786 0.300841
O O10 0.396264 0.483335 0.236419
O O11 0.853470 0.600268 0.414296
O O12 0.120048 0.425372 0.444583
O O13 0.650495 0.750000 0.694441
O O14 0.431554 0.968145 0.594715
O O15 0.370332 0.250000 0.571295
#
# Coordination Sequence:
#
# PCOD8071499 Si02
#       6
#     4   4   4   4   4   4
#     4  11  22  37  56  79 108 140 176 218 266 316
#     4  10  20  37  61  87 110 134 169 213 262 316
#     4   8  16  33  55  77 105 140 176 215 261 312
#     4   9  19  32  52  78 107 139 179 225 268 310
#     4  10  21  36  53  76 108 145 180 218 265 313
#     4  10  19  33  54  78 105 140 184 226 265 312
#
# _framework density 19.342320000000001
#
# number of rings (size 3 to 8) (size 9 to 14) (size 15 to 20)
#    0.000    2.333    0.000    2.500    0.000    7.333 
#    0.000    3.333    0.000    0.000    0.000    0.000 
#    0.000    0.000    0.000    0.000    0.000    0.000 
#
# Total GULP energy -297323.268249 kJ/mol
# GULP energy per Si atom -12388.469510 kJ/mol
# Density = 1.929830 g / cm^3
# Si number density = 19.342320 Si / 1000 Ang^3
#
#
#
# Elastic Constant Matrix: (Units=GPa)
#
#
# Indices 1 2 3 4 5 6 
#
# 1 73.5097 26.8039 34.1713 0.0000 10.0224 0.0000
# 2 26.8039 112.8797 30.8811 0.0000 4.6236 0.0000
# 3 34.1713 30.8811 115.4680 0.0000 -6.3023 0.0000
# 4 0.0000 0.0000 0.0000 25.0770 0.0000 5.7369
# 5 10.0224 4.6236 -6.3023 0.0000 21.2969 0.0000
# 6 0.0000 0.0000 0.0000 5.7369 0.0000 20.3201
#
#
#
# Elastic Compliance Matrix: (Units=1/GPa)
#
#
# Indices 1 2 3 4 5 6 
#
# 1 0.018274 -0.002506 -0.005263 0.000000 -0.009613 0.000000
# 2 -0.002506 0.010079 -0.002042 0.000000 -0.001613 0.000000
# 3 -0.005263 -0.002042 0.011103 0.000000 0.006205 0.000000
# 4 0.000000 0.000000 0.000000 0.042631 0.000000 -0.012036
# 5 -0.009613 -0.001613 0.006205 0.000000 0.053666 0.000000
# 6 0.000000 0.000000 0.000000 -0.012036 0.000000 0.052610
#
#
# Mechanical properties :
#
#
# Convention : Reuss Voigt Hill
#
# Bulk Modulus (GPa) = 50.41620 53.95222 52.18421
# Shear Modulus (GPa) = 23.29970 27.33887 25.31928
#
# Velocity S-wave (km/s) = 3.47450 3.76363 3.62195
# Velocity P-wave (km/s) = 6.49754 6.84401 6.67302
#
# Compressibility (1/GPa) = 0.01983490
#
# Stress axis : x y z
#
# Youngs Moduli (GPa) = 54.72134 99.21895 90.06890
#
# Poissons Ratio (x) = 0.24863 0.47400
# Poissons Ratio (y) = 0.13712 0.18392
# Poissons Ratio (z) = 0.28798 0.20260
#
# Static dielectric constant tensor:
#      x y z
#    x 3.576390 0.000000 -0.163570 
#    y 0.000000 3.418100 0.000000 
#    z -0.163570 0.000000 3.456800 
# 
# 
# High freq. dielectric constant tensor:
#      x y z
#    x 1.746220 0.000000 -0.009270 
#    y 0.000000 1.744540 0.000000 
#    z -0.009270 0.000000 1.739720 
# 
# From -- ./inp_files/25932.got.cif
#   From: 2010.06.25/outbox.cif.g09.slc.cpg/sg11_13_cif.got.tgz:25932.got - 2010.06.27 23:14:04.
