data_PCOD8071754
_publ_section_title
;
Structure prediction by ZEFSAII (Michael W. Deem and Ramdas Pophale) SiO2 
 PCOD8071754
Probable space group: P 21/M
;
_chemical_formula_sum "Si O2"
_cell_formula_units_Z 26
_cell_length_a 16.478563
_cell_length_b 10.537344
_cell_length_c 9.505577
_cell_angle_alpha 90.000000
_cell_angle_beta 54.753250
_cell_angle_gamma 90.000000
_cell_volume 1347.962665
_symmetry_space_group_name_H-M "P 21/M"
_symmetry_group_IT_number 11
_symmetry_cell_setting 'monoclinic'
loop_
_space_group_symop_operation_xyz
x,y,z
-x,1/2+y,-z
-x,-y,-z
x,1/2-y,z
loop_
_atom_site_type_symbol
_atom_site_label
_atom_site_fract_x
_atom_site_fract_y
_atom_site_fract_z
Si Si1 0.458574 0.895936 0.812584
Si Si2 0.136917 0.985970 0.086615
Si Si3 0.670205 0.997804 0.579020
Si Si4 0.693265 0.394139 0.263839
Si Si5 0.904277 0.750000 0.984413
Si Si6 0.217693 0.250000 0.631542
Si Si7 0.001870 0.750000 0.166859
Si Si8 0.725193 0.397030 0.813400
O O1 0.491254 0.750000 0.767675
O O2 0.556089 0.979732 0.737752
O O3 0.403523 0.941855 0.724800
O O4 0.385876 0.917577 0.017257
O O5 0.209391 0.971185 0.879972
O O6 0.088699 0.125707 0.121849
O O7 0.053327 0.877855 0.169379
O O8 0.197150 0.977256 0.171979
O O9 0.718562 0.869907 0.476167
O O10 0.674603 0.098351 0.448086
O O11 0.731200 0.053384 0.648589
O O12 0.714077 0.250000 0.196086
O O13 0.801934 0.750000 0.179604
O O14 0.997786 0.750000 0.999304
O O15 0.110819 0.250000 0.659411
O O16 0.755648 0.250000 0.790154
#
# Coordination Sequence:
#
# PCOD8071754 Si02
#       8
#     4   4   4   4   2   2   2   4
#     4   9  19  35  56  82 114 154 202 240 294 343
#     4  11  19  40  65  86 121 150 198 252 290 348
#     4  12  20  37  55  82 127 154 187 251 294 350
#     4  10  19  33  58  87 109 157 203 242 292 346
#     4  10  22  35  61  98 113 143 201 245 296 353
#     4  10  24  35  58  89 118 150 190 240 312 349
#     4  10  20  40  65  87 117 155 193 249 306 344
#     4  10  22  38  61  85 114 161 203 234 289 358
#
# _framework density 19.288367999999998
#
# number of rings (size 3 to 8) (size 9 to 14) (size 15 to 20)
#    0.462    1.231    3.846    2.769    0.000    0.615 
#    0.000    0.769    8.462    0.000    0.000    0.000 
#    0.000    0.000    0.000    0.000    0.000    0.000 
#
# Total GULP energy -322382.323667 kJ/mol
# GULP energy per Si atom -12399.320141 kJ/mol
# Density = 1.924447 g / cm^3
# Si number density = 19.288368 Si / 1000 Ang^3
#
#
#
# Elastic Constant Matrix: (Units=GPa)
#
#
# Indices 1 2 3 4 5 6 
#
# 1 82.0434 25.9992 16.1029 0.0000 6.6876 0.0000
# 2 25.9992 95.0814 9.9152 0.0000 1.6105 0.0000
# 3 16.1029 9.9152 43.5733 0.0000 20.7638 0.0000
# 4 0.0000 0.0000 0.0000 6.3168 0.0000 2.6472
# 5 6.6876 1.6105 20.7638 0.0000 36.1344 0.0000
# 6 0.0000 0.0000 0.0000 2.6472 0.0000 30.3847
#
#
#
# Elastic Compliance Matrix: (Units=1/GPa)
#
#
# Indices 1 2 3 4 5 6 
#
# 1 0.014141 -0.003398 -0.004514 0.000000 0.000128 0.000000
# 2 -0.003398 0.011633 -0.001988 0.000000 0.001253 0.000000
# 3 -0.004514 -0.001988 0.033917 0.000000 -0.018566 0.000000
# 4 0.000000 0.000000 0.000000 0.164308 0.000000 -0.014315
# 5 0.000128 0.001253 -0.018566 0.000000 0.038263 0.000000
# 6 0.000000 0.000000 0.000000 -0.014315 0.000000 0.034158
#
#
# Mechanical properties :
#
#
# Convention : Reuss Voigt Hill
#
# Bulk Modulus (GPa) = 25.06840 36.08141 30.57490
# Shear Modulus (GPa) = 15.17367 25.81256 20.49311
#
# Velocity S-wave (km/s) = 2.80781 3.66217 3.26308
# Velocity P-wave (km/s) = 4.85146 6.05218 5.48478
#
# Compressibility (1/GPa) = 0.03989087
#
# Stress axis : x y z
#
# Youngs Moduli (GPa) = 70.71624 85.96509 29.48335
#
# Poissons Ratio (x) = 0.29213 0.13308
# Poissons Ratio (y) = 0.24031 0.05862
# Poissons Ratio (z) = 0.31919 0.17092
#
# Static dielectric constant tensor:
#      x y z
#    x 3.473790 0.000000 0.019280 
#    y 0.000000 3.353280 0.000000 
#    z 0.019280 0.000000 3.271420 
# 
# 
# High freq. dielectric constant tensor:
#      x y z
#    x 1.752590 0.000000 0.002380 
#    y 0.000000 1.747350 0.000000 
#    z 0.002380 0.000000 1.729520 
# 
# From -- ./inp_files/21135.got.cif
#   From: 2010.06.25/outbox.cif.g09.slc.cpg/sg11_11_cif.got.tgz:21135.got - 2010.06.27 23:14:04.
