data_PCOD8071515
_publ_section_title
;
Structure prediction by ZEFSAII (Michael W. Deem and Ramdas Pophale) SiO2 
 PCOD8071515
Probable space group: P 21/M
;
_chemical_formula_sum "Si O2"
_cell_formula_units_Z 28
_cell_length_a 16.130638
_cell_length_b 9.189018
_cell_length_c 21.399004
_cell_angle_alpha 90.000000
_cell_angle_beta 26.044524
_cell_angle_gamma 90.000000
_cell_volume 1392.667485
_symmetry_space_group_name_H-M "P 21/M"
_symmetry_group_IT_number 11
_symmetry_cell_setting 'monoclinic'
loop_
_space_group_symop_operation_xyz
x,y,z
-x,1/2+y,-z
-x,-y,-z
x,1/2-y,z
loop_
_atom_site_type_symbol
_atom_site_label
_atom_site_fract_x
_atom_site_fract_y
_atom_site_fract_z
Si Si1 0.308192 0.592011 0.682203
Si Si2 0.769217 0.416666 0.796281
Si Si3 0.263731 0.091744 0.604187
Si Si4 0.207484 0.080220 0.502613
Si Si5 0.534340 0.419210 0.074690
Si Si6 0.804310 0.918053 0.128935
Si Si7 0.480971 0.080379 0.786910
O O1 0.214409 0.750000 0.761232
O O2 0.523141 0.618691 0.517338
O O3 0.183078 0.520840 0.710539
O O4 0.323418 0.486853 0.730972
O O5 0.719729 0.250000 0.812442
O O6 0.658380 0.523902 0.825704
O O7 0.988587 0.449131 0.636998
O O8 0.709625 0.445859 0.908727
O O9 0.158231 0.250000 0.677611
O O10 0.249031 0.025289 0.544822
O O11 0.260589 0.250000 0.460502
O O12 0.331532 0.990542 0.369582
O O13 0.508460 0.250000 0.108159
O O14 0.574389 0.506358 0.110625
O O15 0.836559 0.750000 0.121506
O O16 0.700626 0.943809 0.133696
O O17 0.000000 0.000000 0.000000
O O18 0.524094 0.250000 0.767928
#
# Coordination Sequence:
#
# PCOD8071515 Si02
#       7
#     4   4   4   4   4   4   4
#     4  10  19  33  54  79 109 146 190 235 284 339
#     4   9  20  39  63  90 118 151 196 245 291 347
#     4   9  18  32  53  80 111 146 186 233 286 341
#     4  10  20  37  61  89 120 155 198 246 297 350
#     4  10  21  39  63  89 120 158 196 236 293 354
#     4  11  24  40  58  81 113 152 196 242 292 348
#     4  11  24  40  60  88 121 155 195 243 296 352
#
# _framework density 20.105301000000001
#
# number of rings (size 3 to 8) (size 9 to 14) (size 15 to 20)
#    0.000    2.000    1.429    1.714    0.000    5.714 
#    0.000    1.429    0.000    0.000    0.000    0.000 
#    0.000    0.000    0.000    0.000    0.000    0.000 
#
# Total GULP energy -347132.018298 kJ/mol
# GULP energy per Si atom -12397.572082 kJ/mol
# Density = 2.005954 g / cm^3
# Si number density = 20.105301 Si / 1000 Ang^3
#
#
#
# Elastic Constant Matrix: (Units=GPa)
#
#
# Indices 1 2 3 4 5 6 
#
# 1 100.8123 69.7182 36.3648 0.0000 19.9273 0.0000
# 2 69.7182 143.8396 53.5397 0.0000 9.7678 0.0000
# 3 36.3648 53.5397 67.4057 0.0000 -5.4659 0.0000
# 4 0.0000 0.0000 0.0000 28.7604 0.0000 6.0709
# 5 19.9273 9.7678 -5.4659 0.0000 26.2082 0.0000
# 6 0.0000 0.0000 0.0000 6.0709 0.0000 35.0491
#
#
#
# Elastic Compliance Matrix: (Units=1/GPa)
#
#
# Indices 1 2 3 4 5 6 
#
# 1 0.019113 -0.005781 -0.006839 0.000000 -0.013804 0.000000
# 2 -0.005781 0.012434 -0.006893 0.000000 -0.001676 0.000000
# 3 -0.006839 -0.006893 0.025054 0.000000 0.012994 0.000000
# 4 0.000000 0.000000 0.000000 0.036090 0.000000 -0.006251
# 5 -0.013804 -0.001676 0.012994 0.000000 0.051987 0.000000
# 6 0.000000 0.000000 0.000000 -0.006251 0.000000 0.029614
#
#
# Mechanical properties :
#
#
# Convention : Reuss Voigt Hill
#
# Bulk Modulus (GPa) = 56.90029 70.14479 63.52254
# Shear Modulus (GPa) = 22.81284 28.16586 25.48935
#
# Velocity S-wave (km/s) = 3.37214 3.74694 3.56447
# Velocity P-wave (km/s) = 6.59730 7.32693 6.97166
#
# Compressibility (1/GPa) = 0.01757460
#
# Stress axis : x y z
#
# Youngs Moduli (GPa) = 52.32098 80.42617 39.91394
#
# Poissons Ratio (x) = 0.46494 0.27296
# Poissons Ratio (y) = 0.30246 0.27513
# Poissons Ratio (z) = 0.35781 0.55439
#
# Static dielectric constant tensor:
#      x y z
#    x 3.721680 0.000000 0.294990 
#    y 0.000000 4.147920 0.000000 
#    z 0.294990 0.000000 3.681040 
# 
# 
# High freq. dielectric constant tensor:
#      x y z
#    x 1.784750 0.000000 0.007790 
#    y 0.000000 1.795310 0.000000 
#    z 0.007790 0.000000 1.769030 
# 
# From -- ./inp_files/65351.got.cif
#   From: 2010.06.25/outbox.cif.g09.slc.cpg/sg11_33_cif.got.tgz:65351.got - 2010.06.27 23:14:04.
