data_PCOD8071010
_publ_section_title
;
Structure prediction by ZEFSAII (Michael W. Deem and Ramdas Pophale) SiO2 
 PCOD8071010
Probable space group: P 21/M
;
_chemical_formula_sum "Si O2"
_cell_formula_units_Z 32
_cell_length_a 5.092050
_cell_length_b 20.255625
_cell_length_c 14.969100
_cell_angle_alpha 90.000000
_cell_angle_beta 99.543751
_cell_angle_gamma 90.000000
_cell_volume 1522.583310
_symmetry_space_group_name_H-M "P 21/M"
_symmetry_group_IT_number 11
_symmetry_cell_setting 'monoclinic'
loop_
_space_group_symop_operation_xyz
x,y,z
-x,1/2+y,-z
-x,-y,-z
x,1/2-y,z
loop_
_atom_site_type_symbol
_atom_site_label
_atom_site_fract_x
_atom_site_fract_y
_atom_site_fract_z
Si Si1 0.731364 0.173192 0.564990
Si Si2 0.745976 0.366837 0.004856
Si Si3 0.166178 0.945972 0.835706
Si Si4 0.180284 0.176934 0.904766
Si Si5 0.067057 0.990375 0.645232
Si Si6 0.840681 0.391104 0.743064
Si Si7 0.673260 0.475836 0.876994
Si Si8 0.216298 0.408840 0.516287
O O1 0.701328 0.250000 0.537163
O O2 0.731890 0.167455 0.673717
O O3 0.003061 0.144296 0.539949
O O4 0.488036 0.130220 0.512467
O O5 0.443938 0.348145 0.967877
O O6 0.802393 0.441192 0.970952
O O7 0.952361 0.318148 0.968577
O O8 0.796616 0.373713 0.115266
O O9 0.208725 0.945672 0.730157
O O10 0.395699 0.992488 0.888887
O O11 0.874830 0.972093 0.844640
O O12 0.227773 0.250000 0.869691
O O13 0.096432 0.131738 0.815962
O O14 0.876089 0.940447 0.581833
O O15 0.901773 0.047634 0.682968
O O16 0.264649 0.029770 0.588411
O O17 0.618982 0.416273 0.801356
#
# Coordination Sequence:
#
# PCOD8071010 Si02
#       8
#     4   4   4   4   4   4   4   4
#     4  11  22  38  59  83 113 150 193 229 270 339
#     4  11  21  35  54  78 108 147 185 220 269 321
#     4  11  20  33  55  81 110 143 179 221 270 333
#     4  11  23  39  56  78 113 152 192 234 278 332
#     4   9  20  37  59  87 118 144 183 236 295 349
#     4   9  20  36  58  87 114 146 182 229 289 346
#     4  10  19  32  51  82 116 139 169 216 276 335
#     4  10  22  38  59  85 116 151 182 233 297 340
#
# _framework density 21.016912000000001
#
# number of rings (size 3 to 8) (size 9 to 14) (size 15 to 20)
#    0.000    1.750    0.000    5.625    0.000    9.500 
#    0.000    6.250    0.000    4.500    0.000    0.000 
#    0.000    0.000    0.000    0.000    0.000    0.000 
#
# Total GULP energy -396509.800777 kJ/mol
# GULP energy per Si atom -12390.931274 kJ/mol
# Density = 2.096908 g / cm^3
# Si number density = 21.016912 Si / 1000 Ang^3
#
#
#
# Elastic Constant Matrix: (Units=GPa)
#
#
# Indices 1 2 3 4 5 6 
#
# 1 73.3115 16.8789 11.9710 0.0000 14.0840 0.0000
# 2 16.8789 80.8980 43.4602 0.0000 8.2238 0.0000
# 3 11.9710 43.4602 88.2385 0.0000 3.0783 0.0000
# 4 0.0000 0.0000 0.0000 24.3972 0.0000 0.2577
# 5 14.0840 8.2238 3.0783 0.0000 21.1895 0.0000
# 6 0.0000 0.0000 0.0000 0.2577 0.0000 25.0600
#
#
#
# Elastic Compliance Matrix: (Units=1/GPa)
#
#
# Indices 1 2 3 4 5 6 
#
# 1 0.016113 -0.001864 -0.000924 0.000000 -0.009852 0.000000
# 2 -0.001864 0.017650 -0.008286 0.000000 -0.004407 0.000000
# 3 -0.000924 -0.008286 0.015485 0.000000 0.001581 0.000000
# 4 0.000000 0.000000 0.000000 0.040993 0.000000 -0.000422
# 5 -0.009852 -0.004407 0.001581 0.000000 0.055223 0.000000
# 6 0.000000 0.000000 0.000000 -0.000422 0.000000 0.039909
#
#
# Mechanical properties :
#
#
# Convention : Reuss Voigt Hill
#
# Bulk Modulus (GPa) = 36.90261 43.00756 39.95509
# Shear Modulus (GPa) = 23.08896 25.47185 24.28041
#
# Velocity S-wave (km/s) = 3.31809 3.48511 3.40263
# Velocity P-wave (km/s) = 5.68122 6.05825 5.87276
#
# Compressibility (1/GPa) = 0.02709836
#
# Stress axis : x y z
#
# Youngs Moduli (GPa) = 62.06089 56.65772 64.58064
#
# Poissons Ratio (x) = 0.10560 0.05969
# Poissons Ratio (y) = 0.11567 0.53515
# Poissons Ratio (z) = 0.05736 0.46949
#
# Static dielectric constant tensor:
#      x y z
#    x 3.616690 0.000000 -0.158400 
#    y 0.000000 3.697790 0.000000 
#    z -0.158400 0.000000 4.247790 
# 
# 
# High freq. dielectric constant tensor:
#      x y z
#    x 1.821210 0.000000 -0.000960 
#    y 0.000000 1.794310 0.000000 
#    z -0.000960 0.000000 1.822750 
# 
# From -- ./inp_files/46224.got.cif
#   From: 2010.06.25/outbox.cif.g09.slc.cpg/sg11_24_cif.got.tgz:46224.got - 2010.06.27 23:14:04.
