data_PCOD8071310
_publ_section_title
;
Structure prediction by ZEFSAII (Michael W. Deem and Ramdas Pophale) SiO2 
 PCOD8071310
Probable space group: P 21/M
;
_chemical_formula_sum "Si O2"
_cell_formula_units_Z 28
_cell_length_a 23.002913
_cell_length_b 9.157913
_cell_length_c 7.668496
_cell_angle_alpha 90.000000
_cell_angle_beta 90.000445
_cell_angle_gamma 90.000000
_cell_volume 1615.435214
_symmetry_space_group_name_H-M "P 21/M"
_symmetry_group_IT_number 11
_symmetry_cell_setting 'monoclinic'
loop_
_space_group_symop_operation_xyz
x,y,z
-x,1/2+y,-z
-x,-y,-z
x,1/2-y,z
loop_
_atom_site_type_symbol
_atom_site_label
_atom_site_fract_x
_atom_site_fract_y
_atom_site_fract_z
Si Si1 0.267177 0.076885 0.999983
Si Si2 0.358303 0.914094 0.809905
Si Si3 0.641691 0.414094 0.809962
Si Si4 0.941524 0.080109 0.697416
Si Si5 0.561285 0.077151 0.500021
Si Si6 0.145679 0.920952 0.000022
Si Si7 0.941542 0.419900 0.302483
O O1 0.267981 0.250000 0.999989
O O2 0.300637 0.015612 0.826725
O O3 0.300642 0.015608 0.173233
O O4 0.202260 0.019516 0.999989
O O5 0.338660 0.750000 0.756295
O O6 0.403008 0.976860 0.668792
O O7 0.389892 0.911749 0.999968
O O8 0.661331 0.250000 0.756344
O O9 0.596980 0.476860 0.668858
O O10 0.955093 0.250000 0.712860
O O11 0.889961 0.035680 0.827139
O O12 0.923490 0.036403 0.499943
O O13 0.999978 0.999970 0.756268
O O14 0.551390 0.250000 0.500015
O O15 0.500000 0.000000 0.500000
O O16 0.162340 0.750000 0.999931
O O17 0.109992 0.964418 0.827305
O O18 0.955074 0.250000 0.286986
#
# Coordination Sequence:
#
# PCOD8071310 Si02
#       7
#     4   4   4   4   4   4   4
#     4  10  20  35  54  75 101 134 174 216 259 298
#     4   8  17  36  55  72 102 138 168 202 249 303
#     4   8  17  36  55  72 102 138 168 202 249 303
#     4   9  18  32  50  73  99 129 165 205 253 304
#     4  10  20  34  56  84 106 134 171 206 251 304
#     4  10  19  33  51  71  99 134 169 206 250 306
#     4   9  18  32  50  73  99 129 165 205 253 304
#
# _framework density 17.332789999999999
#
# number of rings (size 3 to 8) (size 9 to 14) (size 15 to 20)
#    0.857    2.000    0.000    1.286    0.000    2.857 
#    2.571    0.000    0.000    0.000    0.000    0.000 
#    0.000    0.000    0.000    0.000    0.000    0.000 
#
# Total GULP energy -347002.498242 kJ/mol
# GULP energy per Si atom -12392.946366 kJ/mol
# Density = 1.729334 g / cm^3
# Si number density = 17.332790 Si / 1000 Ang^3
#
#
#
# Elastic Constant Matrix: (Units=GPa)
#
#
# Indices 1 2 3 4 5 6 
#
# 1 155.5481 74.6184 77.3574 0.0000 -0.0286 0.0000
# 2 74.6184 81.7479 43.7887 0.0000 -0.0140 0.0000
# 3 77.3574 43.7887 109.3544 0.0000 -0.0213 0.0000
# 4 0.0000 0.0000 0.0000 16.6507 0.0000 0.0025
# 5 -0.0286 -0.0140 -0.0213 0.0000 27.2730 0.0000
# 6 0.0000 0.0000 0.0000 0.0025 0.0000 35.7958
#
#
#
# Elastic Compliance Matrix: (Units=1/GPa)
#
#
# Indices 1 2 3 4 5 6 
#
# 1 0.014052 -0.009550 -0.006116 0.000000 0.000005 0.000000
# 2 -0.009550 0.022064 -0.002079 0.000000 0.000000 0.000000
# 3 -0.006116 -0.002079 0.014304 0.000000 0.000004 0.000000
# 4 0.000000 0.000000 0.000000 0.060057 0.000000 -0.000004
# 5 0.000005 0.000000 0.000004 0.000000 0.036666 0.000000
# 6 0.000000 0.000000 0.000000 -0.000004 0.000000 0.027936
#
#
# Mechanical properties :
#
#
# Convention : Reuss Voigt Hill
#
# Bulk Modulus (GPa) = 66.98665 82.01992 74.50328
# Shear Modulus (GPa) = 23.19682 26.00295 24.59989
#
# Velocity S-wave (km/s) = 3.66227 3.87747 3.77141
# Velocity P-wave (km/s) = 7.52424 8.21400 7.87667
#
# Compressibility (1/GPa) = 0.01492835
#
# Stress axis : x y z
#
# Youngs Moduli (GPa) = 71.16435 45.32312 69.91203
#
# Poissons Ratio (x) = 0.43285 0.42759
# Poissons Ratio (y) = 0.67964 0.14535
# Poissons Ratio (z) = 0.43525 0.09423
#
# Static dielectric constant tensor:
#      x y z
#    x 3.032760 0.000000 -0.000080 
#    y 0.000000 3.310960 0.000000 
#    z -0.000080 0.000000 4.076900 
# 
# 
# High freq. dielectric constant tensor:
#      x y z
#    x 1.654670 0.000000 0.000000 
#    y 0.000000 1.660400 0.000000 
#    z 0.000000 0.000000 1.670120 
# 
# From -- ./inp_files/25568.got.cif
#   From: 2010.06.25/outbox.cif.g09.slc.cpg/sg11_13_cif.got.tgz:25568.got - 2010.06.27 23:14:04.
