data_PCOD8071535
_publ_section_title
;
Structure prediction by ZEFSAII (Michael W. Deem and Ramdas Pophale) SiO2 
 PCOD8071535
Probable space group: P 21/M
;
_chemical_formula_sum "Si O2"
_cell_formula_units_Z 28
_cell_length_a 26.636173
_cell_length_b 8.842676
_cell_length_c 12.108742
_cell_angle_alpha 90.000000
_cell_angle_beta 147.965299
_cell_angle_gamma 90.000000
_cell_volume 1512.811872
_symmetry_space_group_name_H-M "P 21/M"
_symmetry_group_IT_number 11
_symmetry_cell_setting 'monoclinic'
loop_
_space_group_symop_operation_xyz
x,y,z
-x,1/2+y,-z
-x,-y,-z
x,1/2-y,z
loop_
_atom_site_type_symbol
_atom_site_label
_atom_site_fract_x
_atom_site_fract_y
_atom_site_fract_z
Si Si1 0.767528 0.428474 0.387091
Si Si2 0.975451 0.429177 0.837859
Si Si3 0.313926 0.429335 0.554886
Si Si4 0.833629 0.571825 0.899724
Si Si5 0.680280 0.570711 0.778937
Si Si6 0.448216 0.926182 0.639447
Si Si7 0.665050 0.574322 0.001059
O O1 0.760646 0.250000 0.386345
O O2 0.874738 0.487051 0.605946
O O3 0.696922 0.504473 0.343140
O O4 0.737523 0.478604 0.209371
O O5 0.975900 0.250000 0.852117
O O6 0.000000 0.500000 0.000000
O O7 0.057590 0.483866 0.904909
O O8 0.321302 0.250000 0.576219
O O9 0.225167 0.487137 0.316106
O O10 0.409132 0.491921 0.675990
O O11 0.830768 0.750000 0.889453
O O12 0.781324 0.518750 0.914464
O O13 0.665327 0.750000 0.741846
O O14 0.595468 0.493583 0.553956
O O15 0.677451 0.515451 0.899241
O O16 0.423737 0.750000 0.599318
O O17 0.559477 0.956413 0.845196
O O18 0.691848 0.750000 0.059741
#
# Coordination Sequence:
#
# PCOD8071535 Si02
#       7
#     4   4   4   4   4   4   4
#     4  11  23  35  52  79 111 142 178 225 270 313
#     4  10  19  33  54  81 108 137 173 217 266 317
#     4  10  19  34  56  79 106 142 177 216 269 326
#     4   8  15  30  54  80 104 132 169 215 261 309
#     4   9  18  35  58  81 104 139 184 220 259 316
#     4  10  20  34  55  82 108 136 176 227 272 312
#     4  10  22  38  54  74 107 149 184 216 263 322
#
# _framework density 18.508579000000001
#
# number of rings (size 3 to 8) (size 9 to 14) (size 15 to 20)
#    0.000    2.286    1.429    2.571    0.000    2.857 
#    0.000    0.714    0.000    0.000    0.000    0.000 
#    0.000    0.000    0.000    0.000    0.000    0.000 
#
# Total GULP energy -347173.002695 kJ/mol
# GULP energy per Si atom -12399.035811 kJ/mol
# Density = 1.846645 g / cm^3
# Si number density = 18.508579 Si / 1000 Ang^3
#
#
#
# Elastic Constant Matrix: (Units=GPa)
#
#
# Indices 1 2 3 4 5 6 
#
# 1 68.4697 25.1096 38.2251 0.0000 4.4112 0.0000
# 2 25.1096 55.7537 34.8565 0.0000 1.3726 0.0000
# 3 38.2251 34.8565 97.0521 0.0000 1.6807 0.0000
# 4 0.0000 0.0000 0.0000 24.9969 0.0000 -4.8822
# 5 4.4112 1.3726 1.6807 0.0000 25.0401 0.0000
# 6 0.0000 0.0000 0.0000 -4.8822 0.0000 26.1155
#
#
#
# Elastic Compliance Matrix: (Units=1/GPa)
#
#
# Indices 1 2 3 4 5 6 
#
# 1 0.020034 -0.005223 -0.005965 0.000000 -0.002843 0.000000
# 2 -0.005223 0.024504 -0.006744 0.000000 0.000030 0.000000
# 3 -0.005965 -0.006744 0.015068 0.000000 0.000409 0.000000
# 4 0.000000 0.000000 0.000000 0.041521 0.000000 0.007762
# 5 -0.002843 0.000030 0.000409 0.000000 0.040408 0.000000
# 6 0.000000 0.000000 0.000000 0.007762 0.000000 0.039743
#
#
# Mechanical properties :
#
#
# Convention : Reuss Voigt Hill
#
# Bulk Modulus (GPa) = 42.12109 46.40643 44.26376
# Shear Modulus (GPa) = 22.21667 23.43611 22.82639
#
# Velocity S-wave (km/s) = 3.46836 3.56227 3.51563
# Velocity P-wave (km/s) = 6.23268 6.48437 6.35977
#
# Compressibility (1/GPa) = 0.02374107
#
# Stress axis : x y z
#
# Youngs Moduli (GPa) = 49.91520 40.80987 66.36426
#
# Poissons Ratio (x) = 0.21315 0.39590
# Poissons Ratio (y) = 0.26071 0.44756
# Poissons Ratio (z) = 0.29777 0.27522
#
# Static dielectric constant tensor:
#      x y z
#    x 3.868980 0.000000 0.321330 
#    y 0.000000 3.262540 0.000000 
#    z 0.321330 0.000000 3.444720 
# 
# 
# High freq. dielectric constant tensor:
#      x y z
#    x 1.728590 0.000000 0.010140 
#    y 0.000000 1.707100 0.000000 
#    z 0.010140 0.000000 1.703890 
# 
# From -- ./inp_files/44669.got.cif
#   From: 2010.06.25/outbox.cif.g09.slc.cpg/sg11_23_cif.got.tgz:44669.got - 2010.06.27 23:14:04.
