data_PCOD8071127
_publ_section_title
;
Structure prediction by ZEFSAII (Michael W. Deem and Ramdas Pophale) SiO2 
 PCOD8071127
Probable space group: P 21/M
;
_chemical_formula_sum "Si O2"
_cell_formula_units_Z 32
_cell_length_a 23.136115
_cell_length_b 8.800081
_cell_length_c 12.487562
_cell_angle_alpha 90.000000
_cell_angle_beta 134.657261
_cell_angle_gamma 90.000000
_cell_volume 1808.515358
_symmetry_space_group_name_H-M "P 21/M"
_symmetry_group_IT_number 11
_symmetry_cell_setting 'monoclinic'
loop_
_space_group_symop_operation_xyz
x,y,z
-x,1/2+y,-z
-x,-y,-z
x,1/2-y,z
loop_
_atom_site_type_symbol
_atom_site_label
_atom_site_fract_x
_atom_site_fract_y
_atom_site_fract_z
Si Si1 0.786919 0.430452 0.056025
Si Si2 0.006716 0.923291 0.182955
Si Si3 0.169137 0.068807 0.103143
Si Si4 0.481252 0.072575 0.862826
Si Si5 0.321102 0.570458 0.676289
Si Si6 0.821190 0.069021 0.664357
Si Si7 0.657051 0.427604 0.054576
Si Si8 0.049533 0.074836 0.658234
O O1 0.784668 0.250000 0.039742
O O2 0.713591 0.494648 0.034426
O O3 0.868869 0.479889 0.221247
O O4 0.778802 0.506351 0.928698
O O5 0.008659 0.750000 0.149053
O O6 0.089427 0.999604 0.246880
O O7 0.006760 0.938063 0.310756
O O8 0.923902 0.995400 0.026831
O O9 0.170988 0.250000 0.100628
O O10 0.208216 0.006106 0.263018
O O11 0.465986 0.250000 0.855633
O O12 0.398675 0.996248 0.711173
O O13 0.562717 0.040184 0.898871
O O14 0.500000 0.000000 0.000000
O O15 0.330406 0.750000 0.688291
O O16 0.239816 0.518091 0.509247
O O17 0.320156 0.505924 0.797376
O O18 0.821531 0.250000 0.676226
O O19 0.674211 0.250000 0.084508
O O20 0.070972 0.250000 0.661589
O O21 0.000000 0.000000 0.500000
#
# Coordination Sequence:
#
# PCOD8071127 Si02
#       8
#     4   4   4   4   4   4   4   4
#     4  10  19  33  54  74  95 129 172 207 244 294
#     4   8  17  32  50  69  92 129 171 209 246 286
#     4  10  20  35  50  70 102 131 166 213 256 292
#     4   9  16  30  50  72 101 132 162 195 243 299
#     4   9  18  31  49  76 105 129 161 202 249 299
#     4  10  19  32  53  74  95 130 172 208 245 297
#     4   8  16  30  51  76  99 129 164 198 240 299
#     4  10  20  33  48  70 102 136 167 202 249 293
#
# _framework density 17.694071000000001
#
# number of rings (size 3 to 8) (size 9 to 14) (size 15 to 20)
#    0.000    2.750    0.000    3.375    1.750    0.500 
#    0.000    9.375    0.000    0.750    0.000    0.000 
#    0.000    0.000    0.000    0.000    0.000    0.000 
#
# Total GULP energy -396580.113512 kJ/mol
# GULP energy per Si atom -12393.128547 kJ/mol
# Density = 1.765380 g / cm^3
# Si number density = 17.694071 Si / 1000 Ang^3
#
#
#
# Elastic Constant Matrix: (Units=GPa)
#
#
# Indices 1 2 3 4 5 6 
#
# 1 132.9321 29.9628 56.5585 0.0000 6.2299 0.0000
# 2 29.9628 44.7516 26.6492 0.0000 1.0974 0.0000
# 3 56.5585 26.6492 72.7237 0.0000 -2.5615 0.0000
# 4 0.0000 0.0000 0.0000 26.2768 0.0000 0.7157
# 5 6.2299 1.0974 -2.5615 0.0000 20.3479 0.0000
# 6 0.0000 0.0000 0.0000 0.7157 0.0000 22.7414
#
#
#
# Elastic Compliance Matrix: (Units=1/GPa)
#
#
# Indices 1 2 3 4 5 6 
#
# 1 0.011965 -0.002893 -0.008406 0.000000 -0.004566 0.000000
# 2 -0.002893 0.029451 -0.008605 0.000000 -0.001786 0.000000
# 3 -0.008406 -0.008605 0.023653 0.000000 0.006015 0.000000
# 4 0.000000 0.000000 0.000000 0.038089 0.000000 -0.001199
# 5 -0.004566 -0.001786 0.006015 0.000000 0.051396 0.000000
# 6 0.000000 0.000000 0.000000 -0.001199 0.000000 0.044010
#
#
# Mechanical properties :
#
#
# Convention : Reuss Voigt Hill
#
# Bulk Modulus (GPa) = 39.58713 52.97207 46.27960
# Shear Modulus (GPa) = 20.25980 23.02234 21.64107
#
# Velocity S-wave (km/s) = 3.38746 3.61104 3.50103
# Velocity P-wave (km/s) = 6.14179 6.88396 6.52343
#
# Compressibility (1/GPa) = 0.02526073
#
# Stress axis : x y z
#
# Youngs Moduli (GPa) = 83.57451 33.95517 42.27732
#
# Poissons Ratio (x) = 0.09825 0.35539
# Poissons Ratio (y) = 0.24182 0.36378
# Poissons Ratio (z) = 0.70254 0.29217
#
# Static dielectric constant tensor:
#      x y z
#    x 3.680730 0.000000 0.219000 
#    y 0.000000 3.163800 0.000000 
#    z 0.219000 0.000000 3.330260 
# 
# 
# High freq. dielectric constant tensor:
#      x y z
#    x 1.682920 0.000000 0.005770 
#    y 0.000000 1.669460 0.000000 
#    z 0.005770 0.000000 1.667890 
# 
# From -- ./inp_files/42860.got.cif
#   From: 2010.06.25/outbox.cif.g09.slc.cpg/sg11_22_cif.got.tgz:42860.got - 2010.06.27 23:14:04.
