data_PCOD8071431
_publ_section_title
;
Structure prediction by ZEFSAII (Michael W. Deem and Ramdas Pophale) SiO2 
 PCOD8071431
Probable space group: P 21/M
;
_chemical_formula_sum "Si O2"
_cell_formula_units_Z 32
_cell_length_a 18.953004
_cell_length_b 8.804206
_cell_length_c 24.246936
_cell_angle_alpha 90.000000
_cell_angle_beta 155.879660
_cell_angle_gamma 90.000000
_cell_volume 1653.413167
_symmetry_space_group_name_H-M "P 21/M"
_symmetry_group_IT_number 11
_symmetry_cell_setting 'monoclinic'
loop_
_space_group_symop_operation_xyz
x,y,z
-x,1/2+y,-z
-x,-y,-z
x,1/2-y,z
loop_
_atom_site_type_symbol
_atom_site_label
_atom_site_fract_x
_atom_site_fract_y
_atom_site_fract_z
Si Si1 0.008693 0.422100 0.368035
Si Si2 0.338858 0.430637 0.915992
Si Si3 0.168601 0.415876 0.362373
Si Si4 0.489541 0.575088 0.338759
Si Si5 0.135374 0.930735 0.136657
Si Si6 0.629040 0.569827 0.935162
Si Si7 0.978583 0.925927 0.136138
Si Si8 0.657183 0.429223 0.353260
O O1 0.970338 0.250000 0.360337
O O2 0.089138 0.425853 0.365648
O O3 0.152510 0.494160 0.511798
O O4 0.831086 0.515377 0.238399
O O5 0.345606 0.250000 0.918994
O O6 0.349599 0.491725 0.986975
O O7 0.500000 0.500000 0.000000
O O8 0.127727 0.250000 0.307106
O O9 0.372077 0.439794 0.513581
O O10 0.094093 0.549496 0.272392
O O11 0.471246 0.750000 0.306237
O O12 0.319057 0.509266 0.246201
O O13 0.540468 0.476646 0.322033
O O14 0.133583 0.750000 0.135221
O O15 0.081105 0.998075 0.157705
O O16 0.000000 0.000000 0.000000
O O17 0.644078 0.750000 0.947721
O O18 0.447592 0.521997 0.777134
O O19 0.787889 0.503560 0.011420
O O20 0.956240 0.750000 0.108832
O O21 0.684809 0.250000 0.375292
#
# Coordination Sequence:
#
# PCOD8071431 Si02
#       8
#     4   4   4   4   4   4   4   4
#     4  10  20  37  58  85 118 150 185 228 276 333
#     4  11  22  39  62  88 117 150 184 227 279 334
#     4   9  18  32  51  75 105 140 179 223 272 325
#     4   9  19  35  50  73 111 147 181 230 283 327
#     4  10  21  35  51  71 103 143 183 230 283 333
#     4   9  19  35  56  83 114 142 182 234 280 328
#     4  10  19  33  53  77 104 140 183 229 277 327
#     4  10  19  34  59  86 110 148 192 231 275 330
#
# _framework density 19.353905000000001
#
# number of rings (size 3 to 8) (size 9 to 14) (size 15 to 20)
#    0.000    2.250    1.250    2.625    0.000    4.500 
#    0.000    4.375    0.000    0.000    0.000    0.000 
#    0.000    0.000    0.000    0.000    0.000    0.000 
#
# Total GULP energy -396610.826225 kJ/mol
# GULP energy per Si atom -12394.088320 kJ/mol
# Density = 1.930985 g / cm^3
# Si number density = 19.353905 Si / 1000 Ang^3
#
#
#
# Elastic Constant Matrix: (Units=GPa)
#
#
# Indices 1 2 3 4 5 6 
#
# 1 60.7960 19.2152 47.0346 0.0000 11.1847 0.0000
# 2 19.2152 51.5534 33.5073 0.0000 4.3682 0.0000
# 3 47.0346 33.5073 151.0266 0.0000 15.8255 0.0000
# 4 0.0000 0.0000 0.0000 31.7974 0.0000 0.7529
# 5 11.1847 4.3682 15.8255 0.0000 31.5104 0.0000
# 6 0.0000 0.0000 0.0000 0.7529 0.0000 22.0548
#
#
#
# Elastic Compliance Matrix: (Units=1/GPa)
#
#
# Indices 1 2 3 4 5 6 
#
# 1 0.023170 -0.004519 -0.005718 0.000000 -0.004726 0.000000
# 2 -0.004519 0.023560 -0.003848 0.000000 0.000271 0.000000
# 3 -0.005718 -0.003848 0.009487 0.000000 -0.002201 0.000000
# 4 0.000000 0.000000 0.000000 0.031475 0.000000 -0.001074
# 5 -0.004726 0.000271 -0.002201 0.000000 0.034481 0.000000
# 6 0.000000 0.000000 0.000000 -0.001074 0.000000 0.045378
#
#
# Mechanical properties :
#
#
# Convention : Reuss Voigt Hill
#
# Bulk Modulus (GPa) = 35.65571 51.43223 43.54397
# Shear Modulus (GPa) = 24.38201 27.98045 26.18123
#
# Velocity S-wave (km/s) = 3.55321 3.80640 3.68198
# Velocity P-wave (km/s) = 5.94111 6.77868 6.37367
#
# Compressibility (1/GPa) = 0.02804600
#
# Stress axis : x y z
#
# Youngs Moduli (GPa) = 43.15942 42.44512 105.41250
#
# Poissons Ratio (x) = 0.19181 0.60275
# Poissons Ratio (y) = 0.19504 0.40563
# Poissons Ratio (z) = 0.24679 0.16333
#
# Static dielectric constant tensor:
#      x y z
#    x 3.273630 0.000000 0.004580 
#    y 0.000000 3.366220 0.000000 
#    z 0.004580 0.000000 4.061760 
# 
# 
# High freq. dielectric constant tensor:
#      x y z
#    x 1.736870 0.000000 0.004470 
#    y 0.000000 1.737020 0.000000 
#    z 0.004470 0.000000 1.768830 
# 
# From -- ./inp_files/72121.got.cif
#   From: 2010.06.25/outbox.cif.g09.slc.cpg/sg11_37_cif.got.tgz:72121.got - 2010.06.27 23:14:04.
