data_PCOD8071617
_publ_section_title
;
Structure prediction by ZEFSAII (Michael W. Deem and Ramdas Pophale) SiO2 
 PCOD8071617
Probable space group: P 21/M
;
_chemical_formula_sum "Si O2"
_cell_formula_units_Z 32
_cell_length_a 14.821096
_cell_length_b 9.217993
_cell_length_c 23.686990
_cell_angle_alpha 90.000000
_cell_angle_beta 30.042942
_cell_angle_gamma 90.000000
_cell_volume 1620.167295
_symmetry_space_group_name_H-M "P 21/M"
_symmetry_group_IT_number 11
_symmetry_cell_setting 'monoclinic'
loop_
_space_group_symop_operation_xyz
x,y,z
-x,1/2+y,-z
-x,-y,-z
x,1/2-y,z
loop_
_atom_site_type_symbol
_atom_site_label
_atom_site_fract_x
_atom_site_fract_y
_atom_site_fract_z
Si Si1 0.173292 0.911209 0.391544
Si Si2 0.443357 0.423199 0.772208
Si Si3 0.723062 0.922168 0.022283
Si Si4 0.557483 0.415415 0.915715
Si Si5 0.226758 0.577617 0.572596
Si Si6 0.910551 0.418914 0.231326
Si Si7 0.428789 0.578812 0.662352
Si Si8 0.934205 0.409406 0.674170
O O1 0.146681 0.750000 0.429711
O O2 0.356093 0.974998 0.318635
O O3 0.182172 0.914394 0.319718
O O4 0.000000 0.000000 0.500000
O O5 0.437041 0.250000 0.765445
O O6 0.395775 0.508831 0.741359
O O7 0.304804 0.471099 0.897140
O O8 0.736293 0.750000 0.015766
O O9 0.905618 0.987689 0.894578
O O10 0.547761 0.976250 0.082448
O O11 0.499217 0.250000 0.953542
O O12 0.772009 0.436254 0.804635
O O13 0.500000 0.500000 0.000000
O O14 0.256828 0.750000 0.554941
O O15 0.146092 0.519873 0.676039
O O16 0.413894 0.498872 0.458146
O O17 0.087028 0.531424 0.598790
O O18 0.941859 0.250000 0.223118
O O19 0.752447 0.452009 0.273457
O O20 0.469778 0.750000 0.645816
O O21 0.024855 0.250000 0.632457
#
# Coordination Sequence:
#
# PCOD8071617 Si02
#       8
#     4   4   4   4   4   4   4   4
#     4  10  20  34  52  77 108 145 184 222 269 327
#     4  10  20  37  60  84 112 150 196 236 277 341
#     4   9  17  35  60  83 113 153 191 232 281 340
#     4  10  19  33  55  82 114 151 187 225 272 330
#     4  11  22  38  60  87 114 147 194 240 283 349
#     4   9  20  37  59  85 113 148 192 238 291 345
#     4  11  23  39  58  83 115 151 189 241 299 341
#     4  10  20  35  54  81 115 148 180 221 280 333
#
# _framework density 19.751045999999999
#
# number of rings (size 3 to 8) (size 9 to 14) (size 15 to 20)
#    0.000    2.000    1.250    2.625    0.000    5.000 
#    0.000    2.500    0.000    3.750    0.000    0.000 
#    0.000    0.000    0.000    0.000    0.000    0.000 
#
# Total GULP energy -396542.898290 kJ/mol
# GULP energy per Si atom -12391.965572 kJ/mol
# Density = 1.970609 g / cm^3
# Si number density = 19.751046 Si / 1000 Ang^3
#
#
#
# Elastic Constant Matrix: (Units=GPa)
#
#
# Indices 1 2 3 4 5 6 
#
# 1 73.9882 24.3348 34.4901 0.0000 -3.3453 0.0000
# 2 24.3348 56.2701 36.4955 0.0000 -2.6740 0.0000
# 3 34.4901 36.4955 118.9597 0.0000 6.0610 0.0000
# 4 0.0000 0.0000 0.0000 25.8155 0.0000 2.6943
# 5 -3.3453 -2.6740 6.0610 0.0000 30.5670 0.0000
# 6 0.0000 0.0000 0.0000 2.6943 0.0000 26.2444
#
#
#
# Elastic Compliance Matrix: (Units=1/GPa)
#
#
# Indices 1 2 3 4 5 6 
#
# 1 0.016856 -0.004932 -0.003481 0.000000 0.002104 0.000000
# 2 -0.004932 0.023968 -0.006064 0.000000 0.002759 0.000000
# 3 -0.003481 -0.006064 0.011438 0.000000 -0.003179 0.000000
# 4 0.000000 0.000000 0.000000 0.039156 0.000000 -0.004020
# 5 0.002104 0.002759 -0.003179 0.000000 0.033817 0.000000
# 6 0.000000 0.000000 0.000000 -0.004020 0.000000 0.038516
#
#
# Mechanical properties :
#
#
# Convention : Reuss Voigt Hill
#
# Bulk Modulus (GPa) = 42.90342 48.87318 45.88830
# Shear Modulus (GPa) = 24.94093 26.78521 25.86307
#
# Velocity S-wave (km/s) = 3.55740 3.68658 3.62256
# Velocity P-wave (km/s) = 6.21632 6.55129 6.38601
#
# Compressibility (1/GPa) = 0.02330816
#
# Stress axis : x y z
#
# Youngs Moduli (GPa) = 59.32756 41.72181 87.42909
#
# Poissons Ratio (x) = 0.20576 0.30435
# Poissons Ratio (y) = 0.29258 0.53017
# Poissons Ratio (z) = 0.20653 0.25300
#
# Static dielectric constant tensor:
#      x y z
#    x 4.382150 0.000000 0.051440 
#    y 0.000000 3.303920 0.000000 
#    z 0.051440 0.000000 3.665760 
# 
# 
# High freq. dielectric constant tensor:
#      x y z
#    x 1.775860 0.000000 0.003950 
#    y 0.000000 1.737120 0.000000 
#    z 0.003950 0.000000 1.785660 
# 
# From -- ./inp_files/55679.got.cif
#   From: 2010.06.25/outbox.cif.g09.slc.cpg/sg11_28_cif.got.tgz:55679.got - 2010.06.27 23:14:04.
