data_PCOD8071311
_publ_section_title
;
Structure prediction by ZEFSAII (Michael W. Deem and Ramdas Pophale) SiO2 
 PCOD8071311
Probable space group: P 21/M
;
_chemical_formula_sum "Si O2"
_cell_formula_units_Z 32
_cell_length_a 14.188166
_cell_length_b 9.147550
_cell_length_c 28.893971
_cell_angle_alpha 90.000000
_cell_angle_beta 151.270134
_cell_angle_gamma 90.000000
_cell_volume 1802.581578
_symmetry_space_group_name_H-M "P 21/M"
_symmetry_group_IT_number 11
_symmetry_cell_setting 'monoclinic'
loop_
_space_group_symop_operation_xyz
x,y,z
-x,1/2+y,-z
-x,-y,-z
x,1/2-y,z
loop_
_atom_site_type_symbol
_atom_site_label
_atom_site_fract_x
_atom_site_fract_y
_atom_site_fract_z
Si Si1 0.088317 0.420881 0.605338
Si Si2 0.368605 0.580835 0.312387
Si Si3 0.807141 0.918990 0.248002
Si Si4 0.992260 0.090287 0.254092
Si Si5 0.439442 0.091165 0.430278
Si Si6 0.928221 0.922470 0.137410
Si Si7 0.449035 0.577722 0.026777
Si Si8 0.267350 0.419568 0.587444
O O1 0.046394 0.250000 0.585062
O O2 0.200428 0.462929 0.701104
O O3 0.228946 0.471334 0.623591
O O4 0.877000 0.497874 0.510164
O O5 0.367065 0.750000 0.326021
O O6 0.481905 0.495955 0.401714
O O7 0.140849 0.532002 0.207333
O O8 0.502180 0.550338 0.324637
O O9 0.864634 0.750000 0.267373
O O10 0.607035 0.955709 0.134815
O O11 0.975735 0.018934 0.297743
O O12 0.884852 0.250000 0.205477
O O13 0.212045 0.119343 0.335685
O O14 0.904760 0.972249 0.180714
O O15 0.546700 0.250000 0.475263
O O16 0.500000 0.000000 0.500000
O O17 0.892469 0.750000 0.118449
O O18 0.751334 0.010744 0.036906
O O19 0.425451 0.750000 0.007934
O O20 0.500000 0.500000 0.000000
O O21 0.219348 0.250000 0.560644
#
# Coordination Sequence:
#
# PCOD8071311 Si02
#       8
#     4   4   4   4   4   4   4   4
#     4   9  19  35  54  78 104 132 169 212 259 311
#     4   9  19  34  52  73  98 132 170 209 255 306
#     4  10  21  34  50  73 102 135 168 207 257 306
#     4  10  20  32  47  68  97 132 171 208 246 294
#     4  10  21  33  45  67  98 134 170 207 248 298
#     4  10  19  33  51  72 100 133 170 209 250 301
#     4  11  21  33  51  74 102 138 175 211 256 304
#     4   9  18  35  57  78 102 132 169 213 259 309
#
# _framework density 17.752317000000001
#
# number of rings (size 3 to 8) (size 9 to 14) (size 15 to 20)
#    0.000    2.250    1.250    1.500    1.750    3.500 
#    0.000    0.000    0.000    0.750    0.000    0.000 
#    0.000    0.000    0.000    0.000    0.000    0.500 
#
# Total GULP energy -396540.889179 kJ/mol
# GULP energy per Si atom -12391.902787 kJ/mol
# Density = 1.771191 g / cm^3
# Si number density = 17.752317 Si / 1000 Ang^3
#
#
#
# Elastic Constant Matrix: (Units=GPa)
#
#
# Indices 1 2 3 4 5 6 
#
# 1 102.8777 34.6857 49.4413 0.0000 3.9386 0.0000
# 2 34.6857 71.2108 28.7556 0.0000 1.5098 0.0000
# 3 49.4413 28.7556 75.2569 0.0000 -6.6956 0.0000
# 4 0.0000 0.0000 0.0000 26.4338 0.0000 3.1363
# 5 3.9386 1.5098 -6.6956 0.0000 25.1981 0.0000
# 6 0.0000 0.0000 0.0000 3.1363 0.0000 20.6984
#
#
#
# Elastic Compliance Matrix: (Units=1/GPa)
#
#
# Indices 1 2 3 4 5 6 
#
# 1 0.015605 -0.003778 -0.009224 0.000000 -0.004664 0.000000
# 2 -0.003778 0.017707 -0.004431 0.000000 -0.001648 0.000000
# 3 -0.009224 -0.004431 0.021705 0.000000 0.007475 0.000000
# 4 0.000000 0.000000 0.000000 0.038523 0.000000 -0.005837
# 5 -0.004664 -0.001648 0.007475 0.000000 0.042500 0.000000
# 6 0.000000 0.000000 0.000000 -0.005837 0.000000 0.049197
#
#
# Mechanical properties :
#
#
# Convention : Reuss Voigt Hill
#
# Bulk Modulus (GPa) = 49.61845 52.79006 51.20426
# Shear Modulus (GPa) = 22.04403 23.56358 22.80380
#
# Velocity S-wave (km/s) = 3.52768 3.64724 3.58796
# Velocity P-wave (km/s) = 6.67860 6.89478 6.78755
#
# Compressibility (1/GPa) = 0.02015379
#
# Stress axis : x y z
#
# Youngs Moduli (GPa) = 64.08137 56.47519 46.07145
#
# Poissons Ratio (x) = 0.21334 0.42494
# Poissons Ratio (y) = 0.24207 0.20413
# Poissons Ratio (z) = 0.59106 0.25022
#
# Static dielectric constant tensor:
#      x y z
#    x 3.351230 0.000000 0.017810 
#    y 0.000000 3.556220 0.000000 
#    z 0.017810 0.000000 2.836640 
# 
# 
# High freq. dielectric constant tensor:
#      x y z
#    x 1.667930 0.000000 0.014620 
#    y 0.000000 1.697820 0.000000 
#    z 0.014620 0.000000 1.674180 
# 
# From -- ./inp_files/73325.got.cif
#   From: 2010.06.25/outbox.cif.g09.slc.cpg/sg11_37_cif.got.tgz:73325.got - 2010.06.27 23:14:04.
