data_PCOD8071886
_publ_section_title
;
Structure prediction by ZEFSAII (Michael W. Deem and Ramdas Pophale) SiO2 
 PCOD8071886
Probable space group: P 21/M
;
_chemical_formula_sum "Si O2"
_cell_formula_units_Z 28
_cell_length_a 11.868943
_cell_length_b 8.958035
_cell_length_c 15.850412
_cell_angle_alpha 90.000000
_cell_angle_beta 123.420750
_cell_angle_gamma 90.000000
_cell_volume 1406.594597
_symmetry_space_group_name_H-M "P 21/M"
_symmetry_group_IT_number 11
_symmetry_cell_setting 'monoclinic'
loop_
_space_group_symop_operation_xyz
x,y,z
-x,1/2+y,-z
-x,-y,-z
x,1/2-y,z
loop_
_atom_site_type_symbol
_atom_site_label
_atom_site_fract_x
_atom_site_fract_y
_atom_site_fract_z
Si Si1 0.415101 0.581283 0.894222
Si Si2 0.859098 0.078929 0.133344
Si Si3 0.606277 0.427019 0.303027
Si Si4 0.137669 0.427360 0.327009
Si Si5 0.330603 0.073515 0.263609
Si Si6 0.132461 0.427723 0.515630
Si Si7 0.140891 0.073155 0.036749
O O1 0.463657 0.750000 0.920990
O O2 0.254908 0.565159 0.842587
O O3 0.442692 0.524023 0.810719
O O4 0.500000 0.500000 0.000000
O O5 0.878682 0.250000 0.111858
O O6 0.998286 0.014290 0.228641
O O7 0.810499 0.980202 0.034692
O O8 0.637431 0.250000 0.318665
O O9 0.487264 0.473862 0.319210
O O10 0.738571 0.519336 0.379271
O O11 0.135388 0.250000 0.327292
O O12 0.263800 0.488203 0.322875
O O13 0.150636 0.487160 0.427406
O O14 0.319956 0.250000 0.259145
O O15 0.247824 0.013409 0.149212
O O16 0.119288 0.250000 0.514427
O O17 0.000000 0.500000 0.500000
O O18 0.127312 0.250000 0.032951
O O19 0.000000 0.000000 0.000000
#
# Coordination Sequence:
#
# PCOD8071886 Si02
#       7
#     4   4   4   4   4   4   4
#     4  10  21  36  56  82 115 156 193 236 289 344
#     4  10  19  34  55  78 110 150 192 234 282 339
#     4  10  21  39  61  85 115 152 191 234 288 345
#     4   9  18  35  58  82 109 147 189 230 284 345
#     4   9  18  34  58  83 112 151 190 226 277 347
#     4  11  23  40  63  86 112 148 192 241 292 344
#     4  11  20  33  55  83 115 151 189 230 279 336
#
# _framework density 19.906233
#
# number of rings (size 3 to 8) (size 9 to 14) (size 15 to 20)
#    0.000    2.000    1.429    2.571    0.000    5.143 
#    0.000    4.286    0.000    0.000    0.000    0.000 
#    0.000    0.000    0.000    0.000    0.000    0.000 
#
# Total GULP energy -347172.968638 kJ/mol
# GULP energy per Si atom -12399.034594 kJ/mol
# Density = 1.986093 g / cm^3
# Si number density = 19.906233 Si / 1000 Ang^3
#
#
#
# Elastic Constant Matrix: (Units=GPa)
#
#
# Indices 1 2 3 4 5 6 
#
# 1 147.7127 34.6530 69.5450 0.0000 -4.9340 0.0000
# 2 34.6530 52.2385 37.8259 0.0000 -0.7994 0.0000
# 3 69.5450 37.8259 131.6056 0.0000 -9.6095 0.0000
# 4 0.0000 0.0000 0.0000 30.2425 0.0000 1.5426
# 5 -4.9340 -0.7994 -9.6095 0.0000 39.2224 0.0000
# 6 0.0000 0.0000 0.0000 1.5426 0.0000 25.7291
#
#
#
# Elastic Compliance Matrix: (Units=1/GPa)
#
#
# Indices 1 2 3 4 5 6 
#
# 1 0.009456 -0.003359 -0.004022 0.000000 0.000136 0.000000
# 2 -0.003359 0.025426 -0.005627 0.000000 -0.001283 0.000000
# 3 -0.004022 -0.005627 0.011501 0.000000 0.002197 0.000000
# 4 0.000000 0.000000 0.000000 0.033168 0.000000 -0.001989
# 5 0.000136 -0.001283 0.002197 0.000000 0.026025 0.000000
# 6 0.000000 0.000000 0.000000 -0.001989 0.000000 0.038986
#
#
# Mechanical properties :
#
#
# Convention : Reuss Voigt Hill
#
# Bulk Modulus (GPa) = 49.09410 68.40052 58.74731
# Shear Modulus (GPa) = 28.19066 31.67433 29.93249
#
# Velocity S-wave (km/s) = 3.76729 3.99328 3.88193
# Velocity P-wave (km/s) = 6.60602 7.46309 7.04760
#
# Compressibility (1/GPa) = 0.02036905
#
# Stress axis : x y z
#
# Youngs Moduli (GPa) = 105.75620 39.33053 86.94728
#
# Poissons Ratio (x) = 0.13209 0.34966
# Poissons Ratio (y) = 0.35518 0.48923
# Poissons Ratio (z) = 0.42530 0.22130
#
# Static dielectric constant tensor:
#      x y z
#    x 4.060420 0.000000 -0.192640 
#    y 0.000000 3.386850 0.000000 
#    z -0.192640 0.000000 3.770440 
# 
# 
# High freq. dielectric constant tensor:
#      x y z
#    x 1.797430 0.000000 -0.005100 
#    y 0.000000 1.740010 0.000000 
#    z -0.005100 0.000000 1.777370 
# 
# From -- ./inp_files/49491.got.cif
#   From: 2010.06.25/outbox.cif.g09.slc.cpg/sg11_25_cif.got.tgz:49491.got - 2010.06.27 23:14:04.
