data_PCOD8071607
_publ_section_title
;
Structure prediction by ZEFSAII (Michael W. Deem and Ramdas Pophale) SiO2 
 PCOD8071607
Probable space group: P 21/M
;
_chemical_formula_sum "Si O2"
_cell_formula_units_Z 32
_cell_length_a 25.363657
_cell_length_b 8.905781
_cell_length_c 20.738775
_cell_angle_alpha 90.000000
_cell_angle_beta 158.015747
_cell_angle_gamma 90.000000
_cell_volume 1753.665895
_symmetry_space_group_name_H-M "P 21/M"
_symmetry_group_IT_number 11
_symmetry_cell_setting 'monoclinic'
loop_
_space_group_symop_operation_xyz
x,y,z
-x,1/2+y,-z
-x,-y,-z
x,1/2-y,z
loop_
_atom_site_type_symbol
_atom_site_label
_atom_site_fract_x
_atom_site_fract_y
_atom_site_fract_z
Si Si1 0.933389 0.573543 0.606897
Si Si2 0.663709 0.575216 0.748869
Si Si3 0.912780 0.573542 0.843787
Si Si4 0.929004 0.923104 0.358589
Si Si5 0.655014 0.424571 0.602987
Si Si6 0.666929 0.424508 0.258236
Si Si7 0.079177 0.574663 0.904760
Si Si8 0.351987 0.078688 0.895688
O O1 0.932568 0.750000 0.595237
O O2 0.773177 0.514518 0.424564
O O3 0.026511 0.500824 0.656683
O O4 0.999324 0.526831 0.749627
O O5 0.684669 0.750000 0.757043
O O6 0.690356 0.482114 0.714419
O O7 0.507456 0.544247 0.599262
O O8 0.775477 0.518611 0.928267
O O9 0.910102 0.750000 0.851502
O O10 0.753106 0.510831 0.663128
O O11 0.980314 0.529200 0.852286
O O12 0.000000 0.500000 0.000000
O O13 0.975345 0.750000 0.409275
O O14 0.759709 0.939857 0.173309
O O15 0.000000 0.000000 0.500000
O O16 0.692548 0.250000 0.643697
O O17 0.700511 0.250000 0.303361
O O18 0.693012 0.471473 0.213854
O O19 0.507019 0.464274 0.097842
O O20 0.116076 0.750000 0.947277
O O21 0.353434 0.250000 0.871147
#
# Coordination Sequence:
#
# PCOD8071607 Si02
#       8
#     4   4   4   4   4   4   4   4
#     4  11  23  39  56  79 113 152 187 227 278 332
#     4  10  20  34  56  83 111 146 186 228 278 331
#     4  11  21  35  57  85 111 144 189 236 280 328
#     4  11  21  35  57  85 113 144 184 231 276 328
#     4  10  20  34  54  84 116 144 180 229 281 334
#     4  10  19  33  55  82 109 143 183 225 275 327
#     4  10  23  40  57  78 112 151 187 229 280 334
#     4   9  19  34  54  81 112 141 177 228 279 324
#
# _framework density 18.247489000000002
#
# number of rings (size 3 to 8) (size 9 to 14) (size 15 to 20)
#    0.000    1.750    2.500    2.250    0.000    4.000 
#    0.000    1.250    0.000    6.000    0.000    0.000 
#    0.000    0.000    0.000    0.000    0.000    0.000 
#
# Total GULP energy -396887.408433 kJ/mol
# GULP energy per Si atom -12402.731514 kJ/mol
# Density = 1.820596 g / cm^3
# Si number density = 18.247489 Si / 1000 Ang^3
#
#
#
# Elastic Constant Matrix: (Units=GPa)
#
#
# Indices 1 2 3 4 5 6 
#
# 1 109.0910 52.2205 71.4197 0.0000 -0.3340 0.0000
# 2 52.2205 95.1093 63.4301 0.0000 -1.9924 0.0000
# 3 71.4197 63.4301 146.1977 0.0000 3.3037 0.0000
# 4 0.0000 0.0000 0.0000 32.9775 0.0000 2.8282
# 5 -0.3340 -1.9924 3.3037 0.0000 27.9945 0.0000
# 6 0.0000 0.0000 0.0000 2.8282 0.0000 27.4309
#
#
#
# Elastic Compliance Matrix: (Units=1/GPa)
#
#
# Indices 1 2 3 4 5 6 
#
# 1 0.014814 -0.004630 -0.005238 0.000000 0.000465 0.000000
# 2 -0.004630 0.016335 -0.004863 0.000000 0.001681 0.000000
# 3 -0.005238 -0.004863 0.011549 0.000000 -0.001772 0.000000
# 4 0.000000 0.000000 0.000000 0.030594 0.000000 -0.003154
# 5 0.000465 0.001681 -0.001772 0.000000 0.036056 0.000000
# 6 0.000000 0.000000 0.000000 -0.003154 0.000000 0.036780
#
#
# Mechanical properties :
#
#
# Convention : Reuss Voigt Hill
#
# Bulk Modulus (GPa) = 75.56170 80.50429 78.03299
# Shear Modulus (GPa) = 27.77709 28.56907 28.17308
#
# Velocity S-wave (km/s) = 3.90582 3.96111 3.93357
# Velocity P-wave (km/s) = 7.86383 8.07059 7.96788
#
# Compressibility (1/GPa) = 0.01323422
#
# Stress axis : x y z
#
# Youngs Moduli (GPa) = 67.50311 61.21747 86.58660
#
# Poissons Ratio (x) = 0.28346 0.45358
# Poissons Ratio (y) = 0.31257 0.42109
# Poissons Ratio (z) = 0.35361 0.29771
#
# Static dielectric constant tensor:
#      x y z
#    x 3.242840 0.000000 0.297090 
#    y 0.000000 3.494200 0.000000 
#    z 0.297090 0.000000 3.563550 
# 
# 
# High freq. dielectric constant tensor:
#      x y z
#    x 1.686110 0.000000 0.025590 
#    y 0.000000 1.721360 0.000000 
#    z 0.025590 0.000000 1.711680 
# 
# From -- ./inp_files/67275.got.cif
#   From: 2010.06.25/outbox.cif.g09.slc.cpg/sg11_34_cif.got.tgz:67275.got - 2010.06.27 23:14:04.
