data_PCOD8071329
_publ_section_title
;
Structure prediction by ZEFSAII (Michael W. Deem and Ramdas Pophale) SiO2 
 PCOD8071329
Probable space group: P 21/M
;
_chemical_formula_sum "Si O2"
_cell_formula_units_Z 32
_cell_length_a 23.896772
_cell_length_b 8.822450
_cell_length_c 15.063652
_cell_angle_alpha 90.000000
_cell_angle_beta 149.710735
_cell_angle_gamma 90.000000
_cell_volume 1601.785624
_symmetry_space_group_name_H-M "P 21/M"
_symmetry_group_IT_number 11
_symmetry_cell_setting 'monoclinic'
loop_
_space_group_symop_operation_xyz
x,y,z
-x,1/2+y,-z
-x,-y,-z
x,1/2-y,z
loop_
_atom_site_type_symbol
_atom_site_label
_atom_site_fract_x
_atom_site_fract_y
_atom_site_fract_z
Si Si1 0.259368 0.072322 0.353472
Si Si2 0.857264 0.572330 0.985469
Si Si3 0.490890 0.569815 0.262315
Si Si4 0.113756 0.917971 0.656856
Si Si5 0.564843 0.430489 0.009418
Si Si6 0.894702 0.068450 0.709267
Si Si7 0.785525 0.083421 0.385551
Si Si8 0.733028 0.569272 0.991928
O O1 0.250866 0.250000 0.362158
O O2 0.227876 0.031943 0.209657
O O3 0.386183 0.015845 0.539836
O O4 0.169255 0.990862 0.292276
O O5 0.871759 0.750000 0.016587
O O6 0.804516 0.509069 0.005069
O O7 0.978949 0.505276 0.126746
O O8 0.477879 0.750000 0.252998
O O9 0.393479 0.493504 0.187651
O O10 0.477471 0.510331 0.143131
O O11 0.109877 0.750000 0.694032
O O12 0.122537 0.904422 0.563127
O O13 0.000000 0.000000 0.500000
O O14 0.209979 0.008764 0.840009
O O15 0.560755 0.250000 0.002449
O O16 0.685721 0.498139 0.196997
O O17 0.500000 0.500000 0.000000
O O18 0.896328 0.250000 0.713550
O O19 0.830242 0.000487 0.534897
O O20 0.746098 0.250000 0.363078
O O21 0.728336 0.750000 0.987270
#
# Coordination Sequence:
#
# PCOD8071329 Si02
#       8
#     4   4   4   4   4   4   4   4
#     4  10  21  38  59  82 113 152 191 240 301 355
#     4   9  20  38  58  82 114 152 192 240 303 356
#     4  10  21  38  57  80 116 155 190 239 299 347
#     4  11  21  37  58  83 117 154 191 230 281 339
#     4  10  19  33  51  75 107 143 181 224 276 336
#     4  10  19  35  59  84 112 146 188 237 288 350
#     4   9  18  33  53  75 108 148 178 212 275 338
#     4  11  22  38  60  85 115 154 200 243 286 346
#
# _framework density 19.977706999999999
#
# number of rings (size 3 to 8) (size 9 to 14) (size 15 to 20)
#    0.000    2.000    1.250    2.625    0.000    3.500 
#    0.000    5.000    0.000    0.000    0.000    0.000 
#    0.000    0.000    0.000    0.000    0.000    0.000 
#
# Total GULP energy -396460.813265 kJ/mol
# GULP energy per Si atom -12389.400415 kJ/mol
# Density = 1.993224 g / cm^3
# Si number density = 19.977707 Si / 1000 Ang^3
#
#
#
# Elastic Constant Matrix: (Units=GPa)
#
#
# Indices 1 2 3 4 5 6 
#
# 1 114.5972 24.7941 39.8904 0.0000 7.6107 0.0000
# 2 24.7941 40.5268 20.4817 0.0000 4.7707 0.0000
# 3 39.8904 20.4817 122.9170 0.0000 5.7303 0.0000
# 4 0.0000 0.0000 0.0000 17.9298 0.0000 5.9719
# 5 7.6107 4.7707 5.7303 0.0000 40.3733 0.0000
# 6 0.0000 0.0000 0.0000 5.9719 0.0000 30.8152
#
#
#
# Elastic Compliance Matrix: (Units=1/GPa)
#
#
# Indices 1 2 3 4 5 6 
#
# 1 0.010823 -0.005183 -0.002599 0.000000 -0.001059 0.000000
# 2 -0.005183 0.029692 -0.003169 0.000000 -0.002082 0.000000
# 3 -0.002599 -0.003169 0.009530 0.000000 -0.000488 0.000000
# 4 0.000000 0.000000 0.000000 0.059622 0.000000 -0.011555
# 5 -0.001059 -0.002082 -0.000488 0.000000 0.025284 0.000000
# 6 0.000000 0.000000 0.000000 -0.011555 0.000000 0.034691
#
#
# Mechanical properties :
#
#
# Convention : Reuss Voigt Hill
#
# Bulk Modulus (GPa) = 35.53251 49.81927 42.67589
# Shear Modulus (GPa) = 24.88505 30.68197 27.78351
#
# Velocity S-wave (km/s) = 3.53319 3.92319 3.73329
# Velocity P-wave (km/s) = 5.87106 6.74637 6.32387
#
# Compressibility (1/GPa) = 0.02814324
#
# Stress axis : x y z
#
# Youngs Moduli (GPa) = 92.39827 33.67868 104.93326
#
# Poissons Ratio (x) = 0.17456 0.27275
# Poissons Ratio (y) = 0.47890 0.33249
# Poissons Ratio (z) = 0.24017 0.10671
#
# Static dielectric constant tensor:
#      x y z
#    x 3.636210 0.000000 -0.006920 
#    y 0.000000 3.336960 0.000000 
#    z -0.006920 0.000000 4.804190 
# 
# 
# High freq. dielectric constant tensor:
#      x y z
#    x 1.788120 0.000000 0.003930 
#    y 0.000000 1.744170 0.000000 
#    z 0.003930 0.000000 1.795620 
# 
# From -- ./inp_files/55700.got.cif
#   From: 2010.06.25/outbox.cif.g09.slc.cpg/sg11_28_cif.got.tgz:55700.got - 2010.06.27 23:14:04.
