data_PCOD8071491
_publ_section_title
;
Structure prediction by ZEFSAII (Michael W. Deem and Ramdas Pophale) SiO2 
 PCOD8071491
Probable space group: P 21/M
;
_chemical_formula_sum "Si O2"
_cell_formula_units_Z 32
_cell_length_a 15.679692
_cell_length_b 9.001099
_cell_length_c 21.178797
_cell_angle_alpha 90.000000
_cell_angle_beta 34.740716
_cell_angle_gamma 90.000000
_cell_volume 1703.355452
_symmetry_space_group_name_H-M "P 21/M"
_symmetry_group_IT_number 11
_symmetry_cell_setting 'monoclinic'
loop_
_space_group_symop_operation_xyz
x,y,z
-x,1/2+y,-z
-x,-y,-z
x,1/2-y,z
loop_
_atom_site_type_symbol
_atom_site_label
_atom_site_fract_x
_atom_site_fract_y
_atom_site_fract_z
Si Si1 0.003605 0.922489 0.692961
Si Si2 0.567405 0.078481 0.227244
Si Si3 0.164223 0.420492 0.081727
Si Si4 0.533387 0.075624 0.104061
Si Si5 0.736351 0.414507 0.782951
Si Si6 0.870645 0.923453 0.039833
Si Si7 0.147292 0.586295 0.424305
Si Si8 0.265580 0.421548 0.468269
O O1 0.003987 0.750000 0.674869
O O2 0.970289 0.947648 0.787123
O O3 0.875583 0.000299 0.729276
O O4 0.169533 0.988588 0.578590
O O5 0.615755 0.250000 0.193462
O O6 0.509633 0.028262 0.192301
O O7 0.446067 0.056695 0.358136
O O8 0.709981 0.982211 0.160705
O O9 0.219362 0.250000 0.049567
O O10 0.302796 0.522860 0.017887
O O11 0.103979 0.462830 0.049238
O O12 0.518866 0.250000 0.104951
O O13 0.418515 0.005727 0.122667
O O14 0.718964 0.250000 0.824709
O O15 0.760856 0.393092 0.694397
O O16 0.877338 0.750000 0.048953
O O17 0.000000 0.000000 0.000000
O O18 0.116634 0.750000 0.472979
O O19 0.232612 0.479344 0.419139
O O20 0.000000 0.500000 0.500000
O O21 0.220234 0.250000 0.502749
#
# Coordination Sequence:
#
# PCOD8071491 Si02
#       8
#     4   4   4   4   4   4   4   4
#     4  11  23  37  53  73 104 147 192 228 266 317
#     4   9  19  34  54  82 113 140 172 217 269 317
#     4   9  21  40  57  78 108 142 177 219 268 323
#     4  10  19  33  54  77 103 140 184 232 278 321
#     4  11  22  33  48  72 104 143 189 235 278 318
#     4  10  20  37  64  92 115 135 164 208 263 323
#     4  11  21  31  47  70 101 141 188 238 278 314
#     4  11  21  34  52  76 109 144 182 227 273 319
#
# _framework density 18.786449000000001
#
# number of rings (size 3 to 8) (size 9 to 14) (size 15 to 20)
#    0.000    1.750    2.500    2.250    0.000    4.500 
#    0.000    0.000    0.000    0.750    0.000    0.000 
#    0.000    0.000    0.000    0.000    0.000    0.000 
#
# Total GULP energy -396589.834889 kJ/mol
# GULP energy per Si atom -12393.432340 kJ/mol
# Density = 1.874369 g / cm^3
# Si number density = 18.786449 Si / 1000 Ang^3
#
#
#
# Elastic Constant Matrix: (Units=GPa)
#
#
# Indices 1 2 3 4 5 6 
#
# 1 66.5570 44.6423 46.2581 0.0000 -12.4826 0.0000
# 2 44.6423 110.9559 60.0903 0.0000 -14.6594 0.0000
# 3 46.2581 60.0903 116.6061 0.0000 -0.7911 0.0000
# 4 0.0000 0.0000 0.0000 32.2289 0.0000 -5.3577
# 5 -12.4826 -14.6594 -0.7911 0.0000 22.7069 0.0000
# 6 0.0000 0.0000 0.0000 -5.3577 0.0000 24.6090
#
#
#
# Elastic Compliance Matrix: (Units=1/GPa)
#
#
# Indices 1 2 3 4 5 6 
#
# 1 0.025482 -0.004722 -0.007603 0.000000 0.010695 0.000000
# 2 -0.004722 0.014951 -0.005785 0.000000 0.006855 0.000000
# 3 -0.007603 -0.005785 0.014523 0.000000 -0.007408 0.000000
# 4 0.000000 0.000000 0.000000 0.032193 0.000000 0.007009
# 5 0.010695 0.006855 -0.007408 0.000000 0.054086 0.000000
# 6 0.000000 0.000000 0.000000 0.007009 0.000000 0.042161
#
#
# Mechanical properties :
#
#
# Convention : Reuss Voigt Hill
#
# Bulk Modulus (GPa) = 53.37268 66.23336 59.80302
# Shear Modulus (GPa) = 22.13750 25.45085 23.79418
#
# Velocity S-wave (km/s) = 3.43647 3.68468 3.56274
# Velocity P-wave (km/s) = 6.64964 7.30992 6.98758
#
# Compressibility (1/GPa) = 0.01873618
#
# Stress axis : x y z
#
# Youngs Moduli (GPa) = 39.24376 66.88493 68.85723
#
# Poissons Ratio (x) = 0.31583 0.52351
# Poissons Ratio (y) = 0.18531 0.39833
# Poissons Ratio (z) = 0.29836 0.38692
#
# Static dielectric constant tensor:
#      x y z
#    x 3.116320 0.000000 0.040180 
#    y 0.000000 3.633190 0.000000 
#    z 0.040180 0.000000 3.573930 
# 
# 
# High freq. dielectric constant tensor:
#      x y z
#    x 1.685180 0.000000 -0.001590 
#    y 0.000000 1.746230 0.000000 
#    z -0.001590 0.000000 1.735480 
# 
# From -- ./inp_files/69440.got.cif
#   From: 2010.06.25/outbox.cif.g09.slc.cpg/sg11_35_cif.got.tgz:69440.got - 2010.06.27 23:14:04.
