data_PCOD8071384
_publ_section_title
;
Structure prediction by ZEFSAII (Michael W. Deem and Ramdas Pophale) SiO2 
 PCOD8071384
Probable space group: P 21/M
;
_chemical_formula_sum "Si O2"
_cell_formula_units_Z 32
_cell_length_a 11.825804
_cell_length_b 8.611486
_cell_length_c 16.731050
_cell_angle_alpha 90.000000
_cell_angle_beta 85.583332
_cell_angle_gamma 90.000000
_cell_volume 1698.792639
_symmetry_space_group_name_H-M "P 21/M"
_symmetry_group_IT_number 11
_symmetry_cell_setting 'monoclinic'
loop_
_space_group_symop_operation_xyz
x,y,z
-x,1/2+y,-z
-x,-y,-z
x,1/2-y,z
loop_
_atom_site_type_symbol
_atom_site_label
_atom_site_fract_x
_atom_site_fract_y
_atom_site_fract_z
Si Si1 0.925717 0.070476 0.148220
Si Si2 0.759880 0.929751 0.031453
Si Si3 0.597730 0.430197 0.602529
Si Si4 0.830589 0.429631 0.867889
Si Si5 0.574581 0.928696 0.167582
Si Si6 0.348964 0.070259 0.233344
Si Si7 0.229551 0.070178 0.722097
Si Si8 0.650698 0.569508 0.441178
O O1 0.906651 0.250000 0.129567
O O2 0.864174 0.969579 0.083905
O O3 0.874169 0.031149 0.238421
O O4 0.057701 0.033743 0.140733
O O5 0.770770 0.750000 0.007190
O O6 0.640566 0.963415 0.081696
O O7 0.761578 0.033779 0.952419
O O8 0.609359 0.250000 0.623287
O O9 0.641065 0.529715 0.674243
O O10 0.672918 0.471100 0.520241
O O11 0.468460 0.478301 0.592141
O O12 0.864466 0.250000 0.863286
O O13 0.753499 0.469994 0.796436
O O14 0.536008 0.750000 0.175246
O O15 0.655383 0.970566 0.237285
O O16 0.464007 0.034827 0.178579
O O17 0.319856 0.250000 0.224591
O O18 0.199009 0.250000 0.737157
O O19 0.249381 0.032110 0.627555
O O20 0.648614 0.750000 0.464165
#
# Coordination Sequence:
#
# PCOD8071384 Si02
#       8
#     4   4   4   4   4   4   4   4
#     4  11  22  37  58  85 113 141 183 231 276 323
#     4  10  21  39  61  84 111 141 180 230 278 323
#     4  10  19  33  52  79 114 149 183 222 269 322
#     4  12  25  41  59  78 105 145 189 229 277 329
#     4   9  18  35  56  80 111 147 181 221 272 325
#     4  12  24  37  55  79 112 149 186 226 272 330
#     4   9  17  33  56  82 114 147 182 225 274 321
#     4   9  17  31  53  82 114 146 182 224 268 317
#
# _framework density 18.836907
#
# number of rings (size 3 to 8) (size 9 to 14) (size 15 to 20)
#    0.000    1.750    1.250    5.250    0.000    4.000 
#    0.000    0.000    0.000    0.750    0.000    0.000 
#    0.000    0.000    0.000    0.000    0.000    0.000 
#
# Total GULP energy -396920.845120 kJ/mol
# GULP energy per Si atom -12403.776410 kJ/mol
# Density = 1.879403 g / cm^3
# Si number density = 18.836907 Si / 1000 Ang^3
#
#
#
# Elastic Constant Matrix: (Units=GPa)
#
#
# Indices 1 2 3 4 5 6 
#
# 1 30.7577 12.4549 26.4206 0.0000 5.7235 0.0000
# 2 12.4549 66.5948 21.8337 0.0000 -4.3924 0.0000
# 3 26.4206 21.8337 96.9146 0.0000 -7.5017 0.0000
# 4 0.0000 0.0000 0.0000 31.7817 0.0000 -4.7763
# 5 5.7235 -4.3924 -7.5017 0.0000 18.1598 0.0000
# 6 0.0000 0.0000 0.0000 -4.7763 0.0000 28.1565
#
#
#
# Elastic Compliance Matrix: (Units=1/GPa)
#
#
# Indices 1 2 3 4 5 6 
#
# 1 0.052206 -0.006559 -0.014618 0.000000 -0.024079 0.000000
# 2 -0.006559 0.017148 -0.001647 0.000000 0.005535 0.000000
# 3 -0.014618 -0.001647 0.015496 0.000000 0.010610 0.000000
# 4 0.000000 0.000000 0.000000 0.032288 0.000000 0.005477
# 5 -0.024079 0.005535 0.010610 0.000000 0.068378 0.000000
# 6 0.000000 0.000000 0.000000 0.005477 0.000000 0.036445
#
#
# Mechanical properties :
#
#
# Convention : Reuss Voigt Hill
#
# Bulk Modulus (GPa) = 25.50941 35.07616 30.29279
# Shear Modulus (GPa) = 17.81411 24.52344 21.16878
#
# Velocity S-wave (km/s) = 3.07856 3.61208 3.35594
# Velocity P-wave (km/s) = 5.11941 6.00479 5.57969
#
# Compressibility (1/GPa) = 0.03920122
#
# Stress axis : x y z
#
# Youngs Moduli (GPa) = 19.15479 58.31633 64.53338
#
# Poissons Ratio (x) = 0.38251 0.94338
# Poissons Ratio (y) = 0.12564 0.10626
# Poissons Ratio (z) = 0.28001 0.09602
#
# Static dielectric constant tensor:
#      x y z
#    x 3.234840 0.000000 -0.253020 
#    y 0.000000 3.395660 0.000000 
#    z -0.253020 0.000000 3.703920 
# 
# 
# High freq. dielectric constant tensor:
#      x y z
#    x 1.703790 0.000000 -0.017230 
#    y 0.000000 1.735190 0.000000 
#    z -0.017230 0.000000 1.735380 
# 
# From -- ./inp_files/49386.got.cif
#   From: 2010.06.25/outbox.cif.g09.slc.cpg/sg11_25_cif.got.tgz:49386.got - 2010.06.27 23:14:04.
