data_PCOD8071395
_publ_section_title
;
Structure prediction by ZEFSAII (Michael W. Deem and Ramdas Pophale) SiO2 
 PCOD8071395
Probable space group: P 21/M
;
_chemical_formula_sum "Si O2"
_cell_formula_units_Z 28
_cell_length_a 16.385622
_cell_length_b 8.879003
_cell_length_c 11.400466
_cell_angle_alpha 90.000000
_cell_angle_beta 79.001621
_cell_angle_gamma 90.000000
_cell_volume 1628.166081
_symmetry_space_group_name_H-M "P 21/M"
_symmetry_group_IT_number 11
_symmetry_cell_setting 'monoclinic'
loop_
_space_group_symop_operation_xyz
x,y,z
-x,1/2+y,-z
-x,-y,-z
x,1/2-y,z
loop_
_atom_site_type_symbol
_atom_site_label
_atom_site_fract_x
_atom_site_fract_y
_atom_site_fract_z
Si Si1 0.928219 0.416529 0.667581
Si Si2 0.425053 0.072898 0.590356
Si Si3 0.731699 0.070633 0.485226
Si Si4 0.239530 0.427296 0.275207
Si Si5 0.547926 0.576552 0.147720
Si Si6 0.627157 0.424407 0.914327
Si Si7 0.913280 0.416134 0.394344
O O1 0.915407 0.250000 0.724623
O O2 0.854438 0.524644 0.731125
O O3 0.928801 0.408132 0.528105
O O4 0.017989 0.478303 0.686134
O O5 0.424838 0.250000 0.566721
O O6 0.435980 0.033504 0.723064
O O7 0.500000 0.000000 0.500000
O O8 0.338912 0.002019 0.573754
O O9 0.721744 0.250000 0.494035
O O10 0.819393 0.023641 0.400740
O O11 0.726470 0.010298 0.618794
O O12 0.242586 0.250000 0.295243
O O13 0.297016 0.474486 0.151166
O O14 0.569045 0.750000 0.114923
O O15 0.451785 0.542841 0.146694
O O16 0.607022 0.472319 0.052737
O O17 0.652896 0.250000 0.904818
O O18 0.922819 0.250000 0.336950
#
# Coordination Sequence:
#
# PCOD8071395 Si02
#       7
#     4   4   4   4   4   4   4
#     4   9  16  26  42  65  94 125 158 197 238 284
#     4  11  22  35  52  73 100 132 165 200 239 285
#     4  10  20  33  48  69  99 131 166 204 241 286
#     4  11  20  30  47  71 100 131 163 198 242 292
#     4   9  20  36  51  70  96 126 160 199 241 285
#     4  10  19  33  53  73  95 124 160 202 244 285
#     4   8  15  27  42  62  91 126 159 195 239 285
#
# _framework density 17.197261000000001
#
# number of rings (size 3 to 8) (size 9 to 14) (size 15 to 20)
#    0.000    2.286    0.000    4.714    0.000    6.857 
#    0.000    0.000    0.000    0.000    0.000    1.000 
#    0.000    0.000    0.000    0.000    0.000    0.000 
#
# Total GULP energy -347197.988322 kJ/mol
# GULP energy per Si atom -12399.928154 kJ/mol
# Density = 1.715812 g / cm^3
# Si number density = 17.197261 Si / 1000 Ang^3
#
#
#
# Elastic Constant Matrix: (Units=GPa)
#
#
# Indices 1 2 3 4 5 6 
#
# 1 125.9058 57.0061 56.3643 0.0000 -12.6616 0.0000
# 2 57.0061 106.3899 48.6966 0.0000 -6.9171 0.0000
# 3 56.3643 48.6966 74.9223 0.0000 -8.4065 0.0000
# 4 0.0000 0.0000 0.0000 26.8214 0.0000 -5.9503
# 5 -12.6616 -6.9171 -8.4065 0.0000 18.6999 0.0000
# 6 0.0000 0.0000 0.0000 -5.9503 0.0000 31.9473
#
#
#
# Elastic Compliance Matrix: (Units=1/GPa)
#
#
# Indices 1 2 3 4 5 6 
#
# 1 0.013165 -0.003503 -0.007132 0.000000 0.004412 0.000000
# 2 -0.003503 0.014333 -0.006690 0.000000 -0.000077 0.000000
# 3 -0.007132 -0.006690 0.023423 0.000000 0.003226 0.000000
# 4 0.000000 0.000000 0.000000 0.038891 0.000000 0.007244
# 5 0.004412 -0.000077 0.003226 0.000000 0.057885 0.000000
# 6 0.000000 0.000000 0.000000 0.007244 0.000000 0.032651
#
#
# Mechanical properties :
#
#
# Convention : Reuss Voigt Hill
#
# Bulk Modulus (GPa) = 61.45666 70.15021 65.80344
# Shear Modulus (GPa) = 22.68391 25.17047 23.92719
#
# Velocity S-wave (km/s) = 3.63580 3.82990 3.73411
# Velocity P-wave (km/s) = 7.31022 7.77416 7.54575
#
# Compressibility (1/GPa) = 0.01627163
#
# Stress axis : x y z
#
# Youngs Moduli (GPa) = 75.95911 69.76865 42.69328
#
# Poissons Ratio (x) = 0.24437 0.30451
# Poissons Ratio (y) = 0.26605 0.28560
# Poissons Ratio (z) = 0.54178 0.46672
#
# Static dielectric constant tensor:
#      x y z
#    x 3.369200 0.000000 -0.180240 
#    y 0.000000 3.389810 0.000000 
#    z -0.180240 0.000000 2.884270 
# 
# 
# High freq. dielectric constant tensor:
#      x y z
#    x 1.663160 0.000000 -0.025370 
#    y 0.000000 1.678500 0.000000 
#    z -0.025370 0.000000 1.625070 
# 
# From -- ./inp_files/37381.got.cif
#   From: 2010.06.25/outbox.cif.g09.slc.cpg/sg11_19_cif.got.tgz:37381.got - 2010.06.27 23:14:04.
