data_PCOD8071923
_publ_section_title
;
Structure prediction by ZEFSAII (Michael W. Deem and Ramdas Pophale) SiO2 
 PCOD8071923
Probable space group: P 21/M
;
_chemical_formula_sum "Si O2"
_cell_formula_units_Z 32
_cell_length_a 14.675503
_cell_length_b 15.108610
_cell_length_c 21.068000
_cell_angle_alpha 90.000000
_cell_angle_beta 159.950086
_cell_angle_gamma 90.000000
_cell_volume 1601.513408
_symmetry_space_group_name_H-M "P 21/M"
_symmetry_group_IT_number 11
_symmetry_cell_setting 'monoclinic'
loop_
_space_group_symop_operation_xyz
x,y,z
-x,1/2+y,-z
-x,-y,-z
x,1/2-y,z
loop_
_atom_site_type_symbol
_atom_site_label
_atom_site_fract_x
_atom_site_fract_y
_atom_site_fract_z
Si Si1 0.279626 0.647972 0.815584
Si Si2 0.021536 0.522544 0.392349
Si Si3 0.851773 0.447306 0.666055
Si Si4 0.602583 0.568016 0.806990
Si Si5 0.688859 0.653062 0.985428
Si Si6 0.895309 0.422030 0.078435
Si Si7 0.438325 0.351574 0.866278
Si Si8 0.341461 0.351730 0.291820
O O1 0.194577 0.750000 0.745263
O O2 0.490219 0.603961 0.903978
O O3 0.031453 0.582680 0.644540
O O4 0.394806 0.638913 0.960773
O O5 0.024418 0.558954 0.322868
O O6 0.310605 0.527717 0.611806
O O7 0.814347 0.582352 0.297064
O O8 0.546658 0.415572 0.463964
O O9 0.907545 0.541705 0.736504
O O10 0.010629 0.379505 0.814087
O O11 0.586593 0.648590 0.846446
O O12 0.708840 0.606405 0.810311
O O13 0.804593 0.496825 0.969017
O O14 0.683228 0.750000 0.009042
O O15 0.065846 0.351289 0.150180
O O16 0.633306 0.377226 0.936155
O O17 0.339765 0.250000 0.792833
O O18 0.443433 0.250000 0.353034
#
# Coordination Sequence:
#
# PCOD8071923 Si02
#       8
#     4   4   4   4   4   4   4   4
#     4  10  20  34  57  87 121 156 194 244 299 356
#     4  11  20  38  59  87 122 157 192 245 295 348
#     4  10  20  35  62  87 111 149 198 247 296 348
#     4  10  24  38  60  84 117 157 199 241 295 355
#     4  10  19  34  55  86 118 150 190 241 296 349
#     4  11  22  41  60  84 118 162 197 238 294 363
#     4  11  22  35  61  94 124 156 196 244 297 358
#     4  11  23  40  61  86 115 150 199 256 301 349
#
# _framework density 19.981099
#
# number of rings (size 3 to 8) (size 9 to 14) (size 15 to 20)
#    0.000    1.500    2.500    3.750    0.000    4.500 
#    0.000    2.500    0.000    0.000    0.000    0.000 
#    0.000    0.000    0.000    0.000    0.000    0.000 
#
# Total GULP energy -396572.139383 kJ/mol
# GULP energy per Si atom -12392.879356 kJ/mol
# Density = 1.993562 g / cm^3
# Si number density = 19.981099 Si / 1000 Ang^3
#
#
#
# Elastic Constant Matrix: (Units=GPa)
#
#
# Indices 1 2 3 4 5 6 
#
# 1 105.1436 20.7217 44.8943 0.0000 8.2054 0.0000
# 2 20.7217 88.2618 25.4504 0.0000 4.3313 0.0000
# 3 44.8943 25.4504 72.5302 0.0000 -2.1301 0.0000
# 4 0.0000 0.0000 0.0000 18.8348 0.0000 4.6375
# 5 8.2054 4.3313 -2.1301 0.0000 33.7018 0.0000
# 6 0.0000 0.0000 0.0000 4.6375 0.0000 26.3357
#
#
#
# Elastic Compliance Matrix: (Units=1/GPa)
#
#
# Indices 1 2 3 4 5 6 
#
# 1 0.013423 -0.000603 -0.008206 0.000000 -0.003709 0.000000
# 2 -0.000603 0.012755 -0.004154 0.000000 -0.001755 0.000000
# 3 -0.008206 -0.004154 0.020436 0.000000 0.003823 0.000000
# 4 0.000000 0.000000 0.000000 0.055500 0.000000 -0.009773
# 5 -0.003709 -0.001755 0.003823 0.000000 0.031042 0.000000
# 6 0.000000 0.000000 0.000000 -0.009773 0.000000 0.039692
#
#
# Mechanical properties :
#
#
# Convention : Reuss Voigt Hill
#
# Bulk Modulus (GPa) = 48.33501 49.78539 49.06020
# Shear Modulus (GPa) = 24.31068 27.43238 25.87153
#
# Velocity S-wave (km/s) = 3.49188 3.70931 3.60224
# Velocity P-wave (km/s) = 6.36400 6.58146 6.47365
#
# Compressibility (1/GPa) = 0.02068894
#
# Stress axis : x y z
#
# Youngs Moduli (GPa) = 74.50010 78.39759 48.93241
#
# Poissons Ratio (x) = 0.04729 0.40152
# Poissons Ratio (y) = 0.04494 0.20327
# Poissons Ratio (z) = 0.61132 0.32566
#
# Static dielectric constant tensor:
#      x y z
#    x 3.773250 0.000000 -0.088940 
#    y 0.000000 3.652590 0.000000 
#    z -0.088940 0.000000 3.458730 
# 
# 
# High freq. dielectric constant tensor:
#      x y z
#    x 1.786560 0.000000 -0.003560 
#    y 0.000000 1.777520 0.000000 
#    z -0.003560 0.000000 1.766980 
# 
# From -- ./inp_files/18041.got.cif
#   From: 2010.06.25/outbox.cif.g09.slc.cpg/sg11_10_cif.got.tgz:18041.got - 2010.06.27 23:14:04.
