data_PCOD8071068
_publ_section_title
;
Structure prediction by ZEFSAII (Michael W. Deem and Ramdas Pophale) SiO2 
 PCOD8071068
Probable space group: P 21/M
;
_chemical_formula_sum "Si O2"
_cell_formula_units_Z 32
_cell_length_a 28.118489
_cell_length_b 8.965287
_cell_length_c 22.210347
_cell_angle_alpha 90.000000
_cell_angle_beta 18.452580
_cell_angle_gamma 90.000000
_cell_volume 1772.197994
_symmetry_space_group_name_H-M "P 21/M"
_symmetry_group_IT_number 11
_symmetry_cell_setting 'monoclinic'
loop_
_space_group_symop_operation_xyz
x,y,z
-x,1/2+y,-z
-x,-y,-z
x,1/2-y,z
loop_
_atom_site_type_symbol
_atom_site_label
_atom_site_fract_x
_atom_site_fract_y
_atom_site_fract_z
Si Si1 0.782338 0.922711 0.775173
Si Si2 0.689006 0.919585 0.232330
Si Si3 0.994893 0.924226 0.411084
Si Si4 0.851884 0.073894 0.472328
Si Si5 0.529466 0.076115 0.901717
Si Si6 0.115587 0.073462 0.814804
Si Si7 0.631143 0.422636 0.423382
Si Si8 0.021749 0.578109 0.806460
O O1 0.813379 0.750000 0.751846
O O2 0.862159 0.968458 0.616658
O O3 0.606076 0.959259 0.981430
O O4 0.846680 0.018939 0.752856
O O5 0.674837 0.750000 0.274231
O O6 0.548146 0.953586 0.357378
O O7 0.690609 0.032135 0.286162
O O8 0.842920 0.941037 0.010940
O O9 0.004677 0.750000 0.388357
O O10 0.966045 0.001586 0.382239
O O11 0.865764 0.250000 0.462314
O O12 0.682610 0.016833 0.687847
O O13 0.896866 0.022361 0.351581
O O14 0.539217 0.250000 0.903527
O O15 0.500000 0.000000 0.000000
O O16 0.104067 0.250000 0.834809
O O17 0.284414 0.019645 0.627574
O O18 0.079047 0.025211 0.791212
O O19 0.000000 0.000000 0.000000
O O20 0.670017 0.250000 0.387319
O O21 0.061360 0.750000 0.773626
#
# Coordination Sequence:
#
# PCOD8071068 Si02
#       8
#     4   4   4   4   4   4   4   4
#     4   9  18  32  51  77 107 137 176 225 271 316
#     4   9  18  33  54  79 108 140 178 223 270 321
#     4  10  19  32  52  78 106 139 177 222 270 320
#     4  10  21  36  56  80 110 146 182 222 276 333
#     4  10  19  33  54  81 109 141 181 227 276 325
#     4  12  23  36  56  83 111 145 183 228 276 325
#     4  10  19  32  54  83 109 137 176 225 275 320
#     4  10  21  38  57  80 110 146 184 224 271 331
#
# _framework density 18.056671999999999
#
# number of rings (size 3 to 8) (size 9 to 14) (size 15 to 20)
#    0.000    2.000    2.500    1.875    0.000    2.000 
#    0.000    1.250    0.000    7.500    0.000    0.000 
#    0.000    0.000    0.000    0.000    0.000    0.000 
#
# Total GULP energy -396862.948443 kJ/mol
# GULP energy per Si atom -12401.967139 kJ/mol
# Density = 1.801557 g / cm^3
# Si number density = 18.056672 Si / 1000 Ang^3
#
#
#
# Elastic Constant Matrix: (Units=GPa)
#
#
# Indices 1 2 3 4 5 6 
#
# 1 132.7668 58.1964 69.9547 0.0000 -5.1440 0.0000
# 2 58.1964 76.5834 40.2061 0.0000 -1.4515 0.0000
# 3 69.9547 40.2061 116.9931 0.0000 -3.5233 0.0000
# 4 0.0000 0.0000 0.0000 20.0373 0.0000 -3.1672
# 5 -5.1440 -1.4515 -3.5233 0.0000 27.1123 0.0000
# 6 0.0000 0.0000 0.0000 -3.1672 0.0000 34.0130
#
#
#
# Elastic Compliance Matrix: (Units=1/GPa)
#
#
# Indices 1 2 3 4 5 6 
#
# 1 0.013881 -0.007548 -0.005661 0.000000 0.001494 0.000000
# 2 -0.007548 0.020037 -0.002393 0.000000 -0.000670 0.000000
# 3 -0.005661 -0.002393 0.012769 0.000000 0.000457 0.000000
# 4 0.000000 0.000000 0.000000 0.050653 0.000000 0.004717
# 5 0.001494 -0.000670 0.000457 0.000000 0.037191 0.000000
# 6 0.000000 0.000000 0.000000 0.004717 0.000000 0.029840
#
#
# Mechanical properties :
#
#
# Convention : Reuss Voigt Hill
#
# Bulk Modulus (GPa) = 64.58809 73.67310 69.13059
# Shear Modulus (GPa) = 24.90841 26.76492 25.83666
#
# Velocity S-wave (km/s) = 3.71813 3.85421 3.78678
# Velocity P-wave (km/s) = 7.36750 7.79077 7.58209
#
# Compressibility (1/GPa) = 0.01548273
#
# Stress axis : x y z
#
# Youngs Moduli (GPa) = 72.03875 49.90735 78.31667
#
# Poissons Ratio (x) = 0.37671 0.44337
# Poissons Ratio (y) = 0.54376 0.18740
# Poissons Ratio (z) = 0.40783 0.11942
#
# Static dielectric constant tensor:
#      x y z
#    x 3.349270 0.000000 -0.274220 
#    y 0.000000 3.424760 0.000000 
#    z -0.274220 0.000000 3.499570 
# 
# 
# High freq. dielectric constant tensor:
#      x y z
#    x 1.690420 0.000000 -0.024890 
#    y 0.000000 1.700110 0.000000 
#    z -0.024890 0.000000 1.690830 
# 
# From -- ./inp_files/67021.got.cif
#   From: 2010.06.25/outbox.cif.g09.slc.cpg/sg11_34_cif.got.tgz:67021.got - 2010.06.27 23:14:04.
