data_PCOD8071394
_publ_section_title
;
Structure prediction by ZEFSAII (Michael W. Deem and Ramdas Pophale) SiO2 
 PCOD8071394
Probable space group: P 21/M
;
_chemical_formula_sum "Si O2"
_cell_formula_units_Z 24
_cell_length_a 12.331546
_cell_length_b 12.252653
_cell_length_c 10.489289
_cell_angle_alpha 90.000000
_cell_angle_beta 125.451836
_cell_angle_gamma 90.000000
_cell_volume 1291.040663
_symmetry_space_group_name_H-M "P 21/M"
_symmetry_group_IT_number 11
_symmetry_cell_setting 'monoclinic'
loop_
_space_group_symop_operation_xyz
x,y,z
-x,1/2+y,-z
-x,-y,-z
x,1/2-y,z
loop_
_atom_site_type_symbol
_atom_site_label
_atom_site_fract_x
_atom_site_fract_y
_atom_site_fract_z
Si Si1 0.088952 0.375706 0.926960
Si Si2 0.823010 0.501640 0.769733
Si Si3 0.594741 0.984786 0.444857
Si Si4 0.361987 0.872071 0.187539
Si Si5 0.683332 0.532672 0.064787
Si Si6 0.408747 0.623200 0.795902
O O1 0.045409 0.250000 0.903394
O O2 0.186685 0.392763 0.872195
O O3 0.962453 0.453149 0.818804
O O4 0.158927 0.406113 0.109586
O O5 0.743262 0.550156 0.592193
O O6 0.727225 0.403863 0.751317
O O7 0.593953 0.094011 0.356229
O O8 0.500000 0.000000 0.500000
O O9 0.521328 0.889064 0.314983
O O10 0.333175 0.750000 0.130633
O O11 0.308895 0.940015 0.034748
O O12 0.688031 0.466314 0.201745
O O13 0.553654 0.608982 0.960068
O O14 0.364820 0.750000 0.782674
#
# Coordination Sequence:
#
# PCOD8071394 Si02
#       6
#     4   4   4   4   4   4
#     4  10  19  33  54  74 101 139 169 206 256 298
#     4   9  19  33  49  77 105 129 171 210 244 303
#     4   9  19  32  48  75 102 124 162 209 249 300
#     4   9  16  29  50  73 101 133 163 205 254 292
#     4   9  19  32  48  77 102 126 173 214 241 294
#     4  10  19  33  53  72  98 135 168 207 258 301
#
# _framework density 18.589655
#
# number of rings (size 3 to 8) (size 9 to 14) (size 15 to 20)
#    0.000    2.667    0.000    2.500    0.000    4.000 
#    0.000    2.500    0.000    0.000    0.000    0.000 
#    0.000    0.000    0.000    0.000    0.000    0.000 
#
# Total GULP energy -297366.192813 kJ/mol
# GULP energy per Si atom -12390.258034 kJ/mol
# Density = 1.854734 g / cm^3
# Si number density = 18.589655 Si / 1000 Ang^3
#
#
#
# Elastic Constant Matrix: (Units=GPa)
#
#
# Indices 1 2 3 4 5 6 
#
# 1 78.0541 19.2077 21.8242 0.0000 0.1502 0.0000
# 2 19.2077 62.2877 -1.0266 0.0000 -6.2193 0.0000
# 3 21.8242 -1.0266 71.2480 0.0000 2.4307 0.0000
# 4 0.0000 0.0000 0.0000 9.4142 0.0000 -0.3344
# 5 0.1502 -6.2193 2.4307 0.0000 28.5985 0.0000
# 6 0.0000 0.0000 0.0000 -0.3344 0.0000 21.3897
#
#
#
# Elastic Compliance Matrix: (Units=1/GPa)
#
#
# Indices 1 2 3 4 5 6 
#
# 1 0.015341 -0.004883 -0.004744 0.000000 -0.000739 0.000000
# 2 -0.004883 0.017966 0.001625 0.000000 0.003795 0.000000
# 3 -0.004744 0.001625 0.015544 0.000000 -0.000943 0.000000
# 4 0.000000 0.000000 0.000000 0.106281 0.000000 0.001662
# 5 -0.000739 0.003795 -0.000943 0.000000 0.035876 0.000000
# 6 0.000000 0.000000 0.000000 0.001662 0.000000 0.046778
#
#
# Mechanical properties :
#
#
# Convention : Reuss Voigt Hill
#
# Bulk Modulus (GPa) = 30.44389 32.40004 31.42196
# Shear Modulus (GPa) = 18.88649 23.31944 21.10297
#
# Velocity S-wave (km/s) = 3.19088 3.54564 3.37293
# Velocity P-wave (km/s) = 5.47613 5.85055 5.66643
#
# Compressibility (1/GPa) = 0.03284731
#
# Stress axis : x y z
#
# Youngs Moduli (GPa) = 65.18418 55.66097 64.33221
#
# Poissons Ratio (x) = 0.27178 0.30521
# Poissons Ratio (y) = 0.31828 -0.10454
# Poissons Ratio (z) = 0.30926 -0.09045
#
# Static dielectric constant tensor:
#      x y z
#    x 3.563140 0.000000 0.005700 
#    y 0.000000 3.255370 0.000000 
#    z 0.005700 0.000000 3.606420 
# 
# 
# High freq. dielectric constant tensor:
#      x y z
#    x 1.714830 0.000000 -0.001670 
#    y 0.000000 1.705490 0.000000 
#    z -0.001670 0.000000 1.702380 
# 
# From -- ./inp_files/34466.got.cif
#   From: 2010.06.25/outbox.cif.g09.slc.cpg/sg11_18_cif.got.tgz:34466.got - 2010.06.27 23:14:04.
