data_PCOD8071900
_publ_section_title
;
Structure prediction by ZEFSAII (Michael W. Deem and Ramdas Pophale) SiO2 
 PCOD8071900
Probable space group: P 21/M
;
_chemical_formula_sum "Si O2"
_cell_formula_units_Z 32
_cell_length_a 21.697220
_cell_length_b 9.130410
_cell_length_c 26.743153
_cell_angle_alpha 90.000000
_cell_angle_beta 160.717688
_cell_angle_gamma 90.000000
_cell_volume 1749.501489
_symmetry_space_group_name_H-M "P 21/M"
_symmetry_group_IT_number 11
_symmetry_cell_setting 'monoclinic'
loop_
_space_group_symop_operation_xyz
x,y,z
-x,1/2+y,-z
-x,-y,-z
x,1/2-y,z
loop_
_atom_site_type_symbol
_atom_site_label
_atom_site_fract_x
_atom_site_fract_y
_atom_site_fract_z
Si Si1 0.403029 0.576280 0.472012
Si Si2 0.172615 0.081305 0.656334
Si Si3 0.553673 0.922338 0.394014
Si Si4 0.066424 0.918778 0.664777
Si Si5 0.650318 0.915545 0.307102
Si Si6 0.982855 0.920355 0.709355
Si Si7 0.380454 0.079753 0.170149
Si Si8 0.018509 0.417720 0.834101
O O1 0.500000 0.500000 0.500000
O O2 0.436853 0.750000 0.496856
O O3 0.492917 0.508066 0.590774
O O4 0.184522 0.533951 0.301835
O O5 0.119726 0.250000 0.622824
O O6 0.346585 0.064217 0.751122
O O7 0.209432 0.010848 0.739288
O O8 0.000000 0.000000 0.500000
O O9 0.519244 0.750000 0.375411
O O10 0.763645 0.957616 0.537551
O O11 0.416396 0.982941 0.246478
O O12 0.122571 0.750000 0.702677
O O13 0.083059 0.972440 0.734958
O O14 0.854702 0.944677 0.485558
O O15 0.587641 0.750000 0.273050
O O16 0.508334 0.030891 0.221681
O O17 0.012499 0.750000 0.739922
O O18 0.077519 0.997248 0.829134
O O19 0.419522 0.250000 0.211450
O O20 0.165787 0.051817 0.990767
O O21 0.015785 0.250000 0.815996
#
# Coordination Sequence:
#
# PCOD8071900 Si02
#       8
#     4   4   4   4   4   4   4   4
#     4  10  20  38  61  84 109 138 171 207 250 297
#     4   9  17  27  40  63  95 130 168 212 260 308
#     4  10  19  34  55  80 108 137 172 212 253 298
#     4   9  16  28  45  69  99 127 165 217 263 306
#     4   9  17  30  45  66 100 135 168 212 261 307
#     4   9  17  31  51  74 100 132 171 214 259 307
#     4  11  21  33  51  77 107 138 172 211 256 305
#     4   9  21  37  52  76 109 137 167 210 254 301
#
# _framework density 18.290924
#
# number of rings (size 3 to 8) (size 9 to 14) (size 15 to 20)
#    0.000    2.500    1.250    2.250    0.000    5.000 
#    0.000    0.625    0.000    0.750    0.000    0.000 
#    0.000    0.000    0.000    0.000    0.000    0.000 
#
# Total GULP energy -396722.470283 kJ/mol
# GULP energy per Si atom -12397.577196 kJ/mol
# Density = 1.824929 g / cm^3
# Si number density = 18.290924 Si / 1000 Ang^3
#
#
#
# Elastic Constant Matrix: (Units=GPa)
#
#
# Indices 1 2 3 4 5 6 
#
# 1 149.3210 66.2976 35.2894 0.0000 -6.8415 0.0000
# 2 66.2976 92.8940 29.7626 0.0000 -5.7769 0.0000
# 3 35.2894 29.7626 48.9765 0.0000 -10.2898 0.0000
# 4 0.0000 0.0000 0.0000 21.3310 0.0000 -2.9551
# 5 -6.8415 -5.7769 -10.2898 0.0000 17.3457 0.0000
# 6 0.0000 0.0000 0.0000 -2.9551 0.0000 40.0315
#
#
#
# Elastic Compliance Matrix: (Units=1/GPa)
#
#
# Indices 1 2 3 4 5 6 
#
# 1 0.010310 -0.006180 -0.003714 0.000000 -0.000195 0.000000
# 2 -0.006180 0.017075 -0.005987 0.000000 -0.000302 0.000000
# 3 -0.003714 -0.005987 0.029708 0.000000 0.014165 0.000000
# 4 0.000000 0.000000 0.000000 0.047365 0.000000 0.003496
# 5 -0.000195 -0.000302 0.014165 0.000000 0.065876 0.000000
# 6 0.000000 0.000000 0.000000 0.003496 0.000000 0.025238
#
#
# Mechanical properties :
#
#
# Convention : Reuss Voigt Hill
#
# Bulk Modulus (GPa) = 39.47724 61.54340 50.51032
# Shear Modulus (GPa) = 21.20644 26.39777 23.80211
#
# Velocity S-wave (km/s) = 3.40869 3.80309 3.61128
# Velocity P-wave (km/s) = 6.09278 7.28043 6.71292
#
# Compressibility (1/GPa) = 0.02533105
#
# Stress axis : x y z
#
# Youngs Moduli (GPa) = 96.99581 58.56502 33.66091
#
# Poissons Ratio (x) = 0.36194 0.12501
# Poissons Ratio (y) = 0.59945 0.20152
# Poissons Ratio (z) = 0.36023 0.35062
#
# Static dielectric constant tensor:
#      x y z
#    x 3.841650 0.000000 -0.018050 
#    y 0.000000 3.495440 0.000000 
#    z -0.018050 0.000000 3.075230 
# 
# 
# High freq. dielectric constant tensor:
#      x y z
#    x 1.717970 0.000000 -0.008150 
#    y 0.000000 1.715460 0.000000 
#    z -0.008150 0.000000 1.666300 
# 
# From -- ./inp_files/72151.got.cif
#   From: 2010.06.25/outbox.cif.g09.slc.cpg/sg11_37_cif.got.tgz:72151.got - 2010.06.27 23:14:04.
