data_PCOD8071955
_publ_section_title
;
Structure prediction by ZEFSAII (Michael W. Deem and Ramdas Pophale) SiO2 
 PCOD8071955
Probable space group: P 21/M
;
_chemical_formula_sum "Si O2"
_cell_formula_units_Z 28
_cell_length_a 9.461552
_cell_length_b 8.659232
_cell_length_c 29.958260
_cell_angle_alpha 90.000000
_cell_angle_beta 37.616034
_cell_angle_gamma 90.000000
_cell_volume 1498.129261
_symmetry_space_group_name_H-M "P 21/M"
_symmetry_group_IT_number 11
_symmetry_cell_setting 'monoclinic'
loop_
_space_group_symop_operation_xyz
x,y,z
-x,1/2+y,-z
-x,-y,-z
x,1/2-y,z
loop_
_atom_site_type_symbol
_atom_site_label
_atom_site_fract_x
_atom_site_fract_y
_atom_site_fract_z
Si Si1 0.918510 0.069670 0.787904
Si Si2 0.416895 0.066644 0.067148
Si Si3 0.667614 0.570931 0.372374
Si Si4 0.005136 0.430959 0.629776
Si Si5 0.251350 0.930408 0.936771
Si Si6 0.644478 0.571534 0.777435
Si Si7 0.847145 0.432146 0.499114
O O1 0.856205 0.250000 0.796036
O O2 0.192789 0.044187 0.709202
O O3 0.834520 0.010124 0.857546
O O4 0.788917 0.959515 0.785807
O O5 0.390684 0.250000 0.071246
O O6 0.601322 0.008396 0.057923
O O7 0.500000 0.000000 0.000000
O O8 0.634629 0.750000 0.390179
O O9 0.413021 0.495416 0.432752
O O10 0.812690 0.506623 0.378593
O O11 0.028938 0.250000 0.614593
O O12 0.743628 0.467018 0.712393
O O13 0.043178 0.524438 0.575380
O O14 0.226357 0.750000 0.948423
O O15 0.379323 0.970510 0.857544
O O16 0.000000 0.000000 0.000000
O O17 0.667949 0.750000 0.757920
O O18 0.841733 0.250000 0.506284
O O19 0.000000 0.500000 0.500000
#
# Coordination Sequence:
#
# PCOD8071955 Si02
#       7
#     4   4   4   4   4   4   4
#     4   9  16  30  52  77 101 130 167 211 256 301
#     4  10  20  34  51  76 105 136 171 211 255 303
#     4   8  17  33  55  79 102 128 167 212 254 298
#     4  10  19  34  56  81 101 128 171 215 255 301
#     4   9  19  33  51  75 104 134 170 209 251 300
#     4   9  17  31  50  76 105 133 166 210 254 298
#     4  11  22  37  53  74 106 141 169 204 252 305
#
# _framework density 18.689976000000001
#
# number of rings (size 3 to 8) (size 9 to 14) (size 15 to 20)
#    0.000    2.571    0.000    4.286    0.000    3.429 
#    0.000    9.286    0.000    1.714    0.000    0.000 
#    0.000    0.000    0.000    0.000    0.000    0.000 
#
# Total GULP energy -346968.868489 kJ/mol
# GULP energy per Si atom -12391.745303 kJ/mol
# Density = 1.864744 g / cm^3
# Si number density = 18.689976 Si / 1000 Ang^3
#
#
#
# Elastic Constant Matrix: (Units=GPa)
#
#
# Indices 1 2 3 4 5 6 
#
# 1 77.2372 25.8153 65.9684 0.0000 3.1354 0.0000
# 2 25.8153 48.6587 36.6912 0.0000 -2.3434 0.0000
# 3 65.9684 36.6912 173.8525 0.0000 6.2416 0.0000
# 4 0.0000 0.0000 0.0000 33.3521 0.0000 3.7596
# 5 3.1354 -2.3434 6.2416 0.0000 27.2087 0.0000
# 6 0.0000 0.0000 0.0000 3.7596 0.0000 24.8833
#
#
#
# Elastic Compliance Matrix: (Units=1/GPa)
#
#
# Indices 1 2 3 4 5 6 
#
# 1 0.020566 -0.006104 -0.006465 0.000000 -0.001413 0.000000
# 2 -0.006104 0.026553 -0.003423 0.000000 0.003776 0.000000
# 3 -0.006465 -0.003423 0.008985 0.000000 -0.001611 0.000000
# 4 0.000000 0.000000 0.000000 0.030503 0.000000 -0.004609
# 5 -0.001413 0.003776 -0.001611 0.000000 0.037610 0.000000
# 6 0.000000 0.000000 0.000000 -0.004609 0.000000 0.040884
#
#
# Mechanical properties :
#
#
# Convention : Reuss Voigt Hill
#
# Bulk Modulus (GPa) = 41.45965 61.85538 51.65751
# Shear Modulus (GPa) = 24.37512 28.50704 26.44108
#
# Velocity S-wave (km/s) = 3.61526 3.90969 3.76536
# Velocity P-wave (km/s) = 6.29745 7.31767 6.82664
#
# Compressibility (1/GPa) = 0.02411984
#
# Stress axis : x y z
#
# Youngs Moduli (GPa) = 48.62276 37.66043 111.29159
#
# Poissons Ratio (x) = 0.22990 0.71949
# Poissons Ratio (y) = 0.29682 0.38097
# Poissons Ratio (z) = 0.31434 0.12892
#
# Static dielectric constant tensor:
#      x y z
#    x 3.062580 0.000000 -0.019410 
#    y 0.000000 3.367680 0.000000 
#    z -0.019410 0.000000 4.005100 
# 
# 
# High freq. dielectric constant tensor:
#      x y z
#    x 1.676660 0.000000 0.003400 
#    y 0.000000 1.721980 0.000000 
#    z 0.003400 0.000000 1.753360 
# 
# From -- ./inp_files/72728.got.cif
#   From: 2010.06.25/outbox.cif.g09.slc.cpg/sg11_37_cif.got.tgz:72728.got - 2010.06.27 23:14:04.
