data_PCOD8071936
_publ_section_title
;
Structure prediction by ZEFSAII (Michael W. Deem and Ramdas Pophale) SiO2 
 PCOD8071936
Probable space group: P 21/M
;
_chemical_formula_sum "Si O2"
_cell_formula_units_Z 28
_cell_length_a 31.416030
_cell_length_b 8.901280
_cell_length_c 31.415990
_cell_angle_alpha 90.000000
_cell_angle_beta 9.488265
_cell_angle_gamma 90.000000
_cell_volume 1448.211084
_symmetry_space_group_name_H-M "P 21/M"
_symmetry_group_IT_number 11
_symmetry_cell_setting 'monoclinic'
loop_
_space_group_symop_operation_xyz
x,y,z
-x,1/2+y,-z
-x,-y,-z
x,1/2-y,z
loop_
_atom_site_type_symbol
_atom_site_label
_atom_site_fract_x
_atom_site_fract_y
_atom_site_fract_z
Si Si1 0.620465 0.574236 0.120578
Si Si2 0.239402 0.429514 0.739400
Si Si3 0.523162 0.428056 0.022966
Si Si4 0.905987 0.074567 0.405892
Si Si5 0.809590 0.927885 0.309573
Si Si6 0.048362 0.072461 0.548191
Si Si7 0.333710 0.928626 0.833696
O O1 0.625747 0.750000 0.125861
O O2 0.357333 0.525547 0.357192
O O3 0.642260 0.483335 0.142220
O O4 0.856994 0.525565 0.857509
O O5 0.500000 0.500000 0.500000
O O6 0.242061 0.250000 0.742061
O O7 0.214825 0.480584 0.714820
O O8 0.000000 0.500000 0.000000
O O9 0.520616 0.250000 0.020427
O O10 0.785279 0.486197 0.786308
O O11 0.500000 0.500000 0.000000
O O12 0.286614 0.486177 0.285003
O O13 0.910908 0.250000 0.410910
O O14 0.928044 0.989016 0.428039
O O15 0.810847 0.750000 0.310832
O O16 0.570570 0.993294 0.572321
O O17 0.072348 0.993292 0.070539
O O18 0.049796 0.250000 0.549735
O O19 0.333623 0.750000 0.833607
#
# Coordination Sequence:
#
# PCOD8071936 Si02
#       7
#     4   4   4   4   4   4   4
#     4  10  21  36  52  76 108 137 168 215 267 312
#     4  11  22  39  61  86 118 155 194 241 293 346
#     4  10  21  36  54  78 106 136 169 210 256 303
#     4  10  21  36  54  75 103 139 174 206 256 319
#     4   9  19  35  55  78 108 143 180 225 275 326
#     4  10  21  36  54  78 106 133 170 217 257 293
#     4  10  19  34  56  79 101 137 184 220 262 325
#
# _framework density 19.334199999999999
#
# number of rings (size 3 to 8) (size 9 to 14) (size 15 to 20)
#    0.000    2.000    0.000    3.429    0.000    4.571 
#    0.000    4.286    0.000    0.000    0.000    0.000 
#    0.000    0.000    0.000    0.000    0.000    0.000 
#
# Total GULP energy -347319.444280 kJ/mol
# GULP energy per Si atom -12404.265867 kJ/mol
# Density = 1.929019 g / cm^3
# Si number density = 19.334200 Si / 1000 Ang^3
#
#
#
# Elastic Constant Matrix: (Units=GPa)
#
#
# Indices 1 2 3 4 5 6 
#
# 1 172.8819 32.6027 104.9868 0.0000 -1.3869 0.0000
# 2 32.6027 30.1357 33.8078 0.0000 -0.1041 0.0000
# 3 104.9868 33.8078 218.1858 0.0000 -2.6625 0.0000
# 4 0.0000 0.0000 0.0000 6.2529 0.0000 2.8021
# 5 -1.3869 -0.1041 -2.6625 0.0000 41.7866 0.0000
# 6 0.0000 0.0000 0.0000 2.8021 0.0000 38.2326
#
#
#
# Elastic Compliance Matrix: (Units=1/GPa)
#
#
# Indices 1 2 3 4 5 6 
#
# 1 0.008957 -0.005878 -0.003398 0.000000 0.000066 0.000000
# 2 -0.005878 0.044026 -0.003998 0.000000 -0.000340 0.000000
# 3 -0.003398 -0.003998 0.006842 0.000000 0.000313 0.000000
# 4 0.000000 0.000000 0.000000 0.165357 0.000000 -0.012119
# 5 0.000066 -0.000340 0.000313 0.000000 0.023952 0.000000
# 6 0.000000 0.000000 0.000000 -0.012119 0.000000 0.027044
#
#
# Mechanical properties :
#
#
# Convention : Reuss Voigt Hill
#
# Bulk Modulus (GPa) = 30.05072 84.88864 57.46968
# Shear Modulus (GPa) = 15.93285 33.90814 24.92049
#
# Velocity S-wave (km/s) = 2.87379 4.19237 3.59407
# Velocity P-wave (km/s) = 5.15636 8.21194 6.85653
#
# Compressibility (1/GPa) = 0.03327708
#
# Stress axis : x y z
#
# Youngs Moduli (GPa) = 111.64452 22.71403 146.16089
#
# Poissons Ratio (x) = 0.13350 0.49672
# Poissons Ratio (y) = 0.65619 0.58432
# Poissons Ratio (z) = 0.37941 0.09081
#
# Static dielectric constant tensor:
#      x y z
#    x 3.591930 0.000000 -0.031140 
#    y 0.000000 3.273490 0.000000 
#    z -0.031140 0.000000 3.944440 
# 
# 
# High freq. dielectric constant tensor:
#      x y z
#    x 1.770100 0.000000 -0.000730 
#    y 0.000000 1.729600 0.000000 
#    z -0.000730 0.000000 1.778300 
# 
# From -- ./inp_files/9709.got.cif
#   From: 2010.06.25/outbox.cif.g09.slc.cpg/sg11_5_cif.got.tgz:9709.got - 2010.06.27 23:14:04.
