data_PCOD8071074
_publ_section_title
;
Structure prediction by ZEFSAII (Michael W. Deem and Ramdas Pophale) SiO2 
 PCOD8071074
Probable space group: P 21/M
;
_chemical_formula_sum "Si O2"
_cell_formula_units_Z 32
_cell_length_a 32.349431
_cell_length_b 8.992818
_cell_length_c 14.187493
_cell_angle_alpha 90.000000
_cell_angle_beta 154.058977
_cell_angle_gamma 90.000000
_cell_volume 1805.478452
_symmetry_space_group_name_H-M "P 21/M"
_symmetry_group_IT_number 11
_symmetry_cell_setting 'monoclinic'
loop_
_space_group_symop_operation_xyz
x,y,z
-x,1/2+y,-z
-x,-y,-z
x,1/2-y,z
loop_
_atom_site_type_symbol
_atom_site_label
_atom_site_fract_x
_atom_site_fract_y
_atom_site_fract_z
Si Si1 0.596542 0.925849 0.665458
Si Si2 0.355642 0.924542 0.431576
Si Si3 0.689954 0.074940 0.332022
Si Si4 0.556034 0.921820 0.925835
Si Si5 0.701795 0.578621 0.066127
Si Si6 0.835522 0.423093 0.469367
Si Si7 0.022780 0.075664 0.948866
Si Si8 0.767202 0.926375 0.672267
O O1 0.579922 0.750000 0.620974
O O2 0.500000 0.000000 0.500000
O O3 0.633296 0.995479 0.644998
O O4 0.676911 0.961489 0.907814
O O5 0.339845 0.750000 0.382327
O O6 0.446573 0.954379 0.683263
O O7 0.266093 0.997187 0.299438
O O8 0.687536 0.250000 0.347529
O O9 0.773577 0.027246 0.432531
O O10 0.704663 0.988602 0.458980
O O11 0.590324 0.023105 0.083228
O O12 0.573739 0.750000 0.987593
O O13 0.612651 0.968174 0.947759
O O14 0.723749 0.750000 0.123219
O O15 0.797143 0.496804 0.294969
O O16 0.825299 0.250000 0.432759
O O17 0.943691 0.471167 0.709796
O O18 0.018703 0.250000 0.959447
O O19 0.124075 0.025453 0.117965
O O20 0.000000 0.000000 0.000000
O O21 0.755087 0.750000 0.654077
#
# Coordination Sequence:
#
# PCOD8071074 Si02
#       8
#     4   4   4   4   4   4   4   4
#     4  11  21  36  58  84 112 143 182 225 270 322
#     4  11  23  39  56  78 109 146 185 229 272 320
#     4  10  19  32  52  78 108 143 182 223 264 315
#     4   9  18  34  52  74 107 144 181 219 264 318
#     4   9  18  33  53  80 110 139 173 218 268 318
#     4   9  18  32  52  81 110 137 175 223 269 316
#     4  10  20  35  56  81 109 140 180 224 271 320
#     4  11  23  37  54  78 109 148 183 222 274 327
#
# _framework density 17.723834
#
# number of rings (size 3 to 8) (size 9 to 14) (size 15 to 20)
#    0.000    2.000    2.500    1.500    0.000    4.000 
#    0.000    0.000    0.000    0.750    0.000    0.000 
#    0.000    0.000    0.000    0.000    0.000    0.000 
#
# Total GULP energy -396856.763294 kJ/mol
# GULP energy per Si atom -12401.773853 kJ/mol
# Density = 1.768349 g / cm^3
# Si number density = 17.723834 Si / 1000 Ang^3
#
#
#
# Elastic Constant Matrix: (Units=GPa)
#
#
# Indices 1 2 3 4 5 6 
#
# 1 116.7122 55.7608 67.0678 0.0000 -3.3769 0.0000
# 2 55.7608 76.7420 54.3153 0.0000 -5.9360 0.0000
# 3 67.0678 54.3153 112.9256 0.0000 -3.2321 0.0000
# 4 0.0000 0.0000 0.0000 31.1034 0.0000 -5.1550
# 5 -3.3769 -5.9360 -3.2321 0.0000 23.3040 0.0000
# 6 0.0000 0.0000 0.0000 -5.1550 0.0000 28.6089
#
#
#
# Elastic Compliance Matrix: (Units=1/GPa)
#
#
# Indices 1 2 3 4 5 6 
#
# 1 0.015162 -0.007073 -0.005614 0.000000 -0.000383 0.000000
# 2 -0.007073 0.023384 -0.006933 0.000000 0.003970 0.000000
# 3 -0.005614 -0.006933 0.015512 0.000000 -0.000428 0.000000
# 4 0.000000 0.000000 0.000000 0.033141 0.000000 0.005971
# 5 -0.000383 0.003970 -0.000428 0.000000 0.043807 0.000000
# 6 0.000000 0.000000 0.000000 0.005971 0.000000 0.036030
#
#
# Mechanical properties :
#
#
# Convention : Reuss Voigt Hill
#
# Bulk Modulus (GPa) = 67.48448 73.40750 70.44599
# Shear Modulus (GPa) = 23.67250 25.21899 24.44575
#
# Velocity S-wave (km/s) = 3.65859 3.77621 3.71787
# Velocity P-wave (km/s) = 7.48367 7.77948 7.63301
#
# Compressibility (1/GPa) = 0.01481822
#
# Stress axis : x y z
#
# Youngs Moduli (GPa) = 65.95287 42.76437 64.46673
#
# Poissons Ratio (x) = 0.30248 0.36191
# Poissons Ratio (y) = 0.46650 0.44693
# Poissons Ratio (z) = 0.37026 0.29648
#
# Static dielectric constant tensor:
#      x y z
#    x 3.484370 0.000000 0.012350 
#    y 0.000000 3.331530 0.000000 
#    z 0.012350 0.000000 3.519750 
# 
# 
# High freq. dielectric constant tensor:
#      x y z
#    x 1.663350 0.000000 -0.005150 
#    y 0.000000 1.692420 0.000000 
#    z -0.005150 0.000000 1.688060 
# 
# From -- ./inp_files/45314.got.cif
#   From: 2010.06.25/outbox.cif.g09.slc.cpg/sg11_23_cif.got.tgz:45314.got - 2010.06.27 23:14:04.
