data_PCOD8071861
_publ_section_title
;
Structure prediction by ZEFSAII (Michael W. Deem and Ramdas Pophale) SiO2 
 PCOD8071861
Probable space group: P 21/M
;
_chemical_formula_sum "Si O2"
_cell_formula_units_Z 32
_cell_length_a 11.918416
_cell_length_b 8.976400
_cell_length_c 14.774620
_cell_angle_alpha 90.000000
_cell_angle_beta 86.409742
_cell_angle_gamma 90.000000
_cell_volume 1577.552672
_symmetry_space_group_name_H-M "P 21/M"
_symmetry_group_IT_number 11
_symmetry_cell_setting 'monoclinic'
loop_
_space_group_symop_operation_xyz
x,y,z
-x,1/2+y,-z
-x,-y,-z
x,1/2-y,z
loop_
_atom_site_type_symbol
_atom_site_label
_atom_site_fract_x
_atom_site_fract_y
_atom_site_fract_z
Si Si1 0.621761 0.574774 0.497935
Si Si2 0.586581 0.423793 0.804840
Si Si3 0.312138 0.576628 0.017116
Si Si4 0.362623 0.926280 0.817584
Si Si5 0.068039 0.926183 0.076903
Si Si6 0.756210 0.573629 0.669101
Si Si7 0.027163 0.577344 0.282844
Si Si8 0.226337 0.077563 0.678442
O O1 0.500000 0.500000 0.500000
O O2 0.601921 0.750000 0.499466
O O3 0.690192 0.522638 0.582665
O O4 0.698948 0.525127 0.409963
O O5 0.584465 0.250000 0.781281
O O6 0.475671 0.501447 0.770741
O O7 0.696659 0.496351 0.756694
O O8 0.592400 0.453888 0.912598
O O9 0.296231 0.750000 0.000537
O O10 0.345246 0.505913 0.919068
O O11 0.194776 0.513217 0.060054
O O12 0.375908 0.750000 0.814729
O O13 0.258258 0.977048 0.762594
O O14 0.058230 0.750000 0.066801
O O15 0.023939 0.976082 0.178111
O O16 0.000000 0.000000 0.000000
O O17 0.754911 0.750000 0.680128
O O18 0.884733 0.516938 0.661912
O O19 0.062924 0.750000 0.285228
O O20 0.905375 0.550957 0.334352
O O21 0.248692 0.250000 0.700825
#
# Coordination Sequence:
#
# PCOD8071861 Si02
#       8
#     4   4   4   4   4   4   4   4
#     4  10  23  42  63  89 120 153 194 243 297 357
#     4  11  21  38  60  82 115 158 199 241 293 356
#     4   9  19  35  54  78 115 154 192 237 290 349
#     4  11  22  36  56  86 120 153 193 247 300 347
#     4  10  19  34  54  80 113 153 198 240 284 340
#     4  11  23  39  61  90 121 153 196 250 301 351
#     4  10  21  39  62  86 118 157 200 242 291 356
#     4  10  22  41  62  86 117 156 198 240 290 355
#
# _framework density 20.284583000000001
#
# number of rings (size 3 to 8) (size 9 to 14) (size 15 to 20)
#    0.000    1.750    1.250    3.000    0.000    5.000 
#    0.000    2.500    0.000    0.000    0.000    0.000 
#    0.000    0.000    0.000    0.000    0.000    0.000 
#
# Total GULP energy -396851.086801 kJ/mol
# GULP energy per Si atom -12401.596463 kJ/mol
# Density = 2.023841 g / cm^3
# Si number density = 20.284583 Si / 1000 Ang^3
#
#
#
# Elastic Constant Matrix: (Units=GPa)
#
#
# Indices 1 2 3 4 5 6 
#
# 1 139.3503 49.3714 56.2605 0.0000 2.1204 0.0000
# 2 49.3714 70.5151 42.5965 0.0000 6.2697 0.0000
# 3 56.2605 42.5965 110.8352 0.0000 4.9088 0.0000
# 4 0.0000 0.0000 0.0000 26.1170 0.0000 5.9163
# 5 2.1204 6.2697 4.9088 0.0000 38.8135 0.0000
# 6 0.0000 0.0000 0.0000 5.9163 0.0000 36.8911
#
#
#
# Elastic Compliance Matrix: (Units=1/GPa)
#
#
# Indices 1 2 3 4 5 6 
#
# 1 0.010374 -0.005374 -0.003232 0.000000 0.000710 0.000000
# 2 -0.005374 0.021425 -0.005396 0.000000 -0.002485 0.000000
# 3 -0.003232 -0.005396 0.012762 0.000000 -0.000566 0.000000
# 4 0.000000 0.000000 0.000000 0.039733 0.000000 -0.006372
# 5 0.000710 -0.002485 -0.000566 0.000000 0.026198 0.000000
# 6 0.000000 0.000000 0.000000 -0.006372 0.000000 0.028129
#
#
# Mechanical properties :
#
#
# Convention : Reuss Voigt Hill
#
# Bulk Modulus (GPa) = 60.40004 68.57305 64.48654
# Shear Modulus (GPa) = 29.04544 31.86247 30.45395
#
# Velocity S-wave (km/s) = 3.78815 3.96760 3.87891
# Velocity P-wave (km/s) = 6.99817 7.40729 7.20564
#
# Compressibility (1/GPa) = 0.01655628
#
# Stress axis : x y z
#
# Youngs Moduli (GPa) = 96.39142 46.67508 78.35878
#
# Poissons Ratio (x) = 0.25085 0.25326
# Poissons Ratio (y) = 0.51805 0.42281
# Poissons Ratio (z) = 0.31154 0.25185
#
# Static dielectric constant tensor:
#      x y z
#    x 3.776260 0.000000 -0.072650 
#    y 0.000000 3.463850 0.000000 
#    z -0.072650 0.000000 3.752340 
# 
# 
# High freq. dielectric constant tensor:
#      x y z
#    x 1.805290 0.000000 0.000850 
#    y 0.000000 1.774760 0.000000 
#    z 0.000850 0.000000 1.794470 
# 
# From -- ./inp_files/49376.got.cif
#   From: 2010.06.25/outbox.cif.g09.slc.cpg/sg11_25_cif.got.tgz:49376.got - 2010.06.27 23:14:04.
