data_PCOD8071830
_publ_section_title
;
Structure prediction by ZEFSAII (Michael W. Deem and Ramdas Pophale) SiO2 
 PCOD8071830
Probable space group: P 21/M
;
_chemical_formula_sum "Si O2"
_cell_formula_units_Z 32
_cell_length_a 18.258289
_cell_length_b 12.416826
_cell_length_c 15.063532
_cell_angle_alpha 90.000000
_cell_angle_beta 149.355143
_cell_angle_gamma 90.000000
_cell_volume 1740.704361
_symmetry_space_group_name_H-M "P 21/M"
_symmetry_group_IT_number 11
_symmetry_cell_setting 'monoclinic'
loop_
_space_group_symop_operation_xyz
x,y,z
-x,1/2+y,-z
-x,-y,-z
x,1/2-y,z
loop_
_atom_site_type_symbol
_atom_site_label
_atom_site_fract_x
_atom_site_fract_y
_atom_site_fract_z
Si Si1 0.366250 0.969322 0.920658
Si Si2 0.135750 0.627157 0.552173
Si Si3 0.144882 0.459210 0.950707
Si Si4 0.414816 0.503941 0.544829
Si Si5 0.824490 0.868540 0.196366
Si Si6 0.655946 0.877187 0.695120
Si Si7 0.838323 0.124582 0.622509
Si Si8 0.361443 0.875954 0.102724
O O1 0.236006 0.934462 0.723667
O O2 0.318944 0.079196 0.916921
O O3 0.390965 0.885117 0.027028
O O4 0.500000 0.000000 0.000000
O O5 0.128007 0.750000 0.575349
O O6 0.200990 0.619008 0.521981
O O7 0.974699 0.575887 0.383912
O O8 0.183360 0.366913 0.919013
O O9 0.972946 0.454522 0.784970
O O10 0.213781 0.433669 0.117162
O O11 0.208477 0.571516 0.974964
O O12 0.339198 0.418568 0.400754
O O13 0.507215 0.589361 0.585547
O O14 0.297397 0.576976 0.469229
O O15 0.509437 0.437211 0.713493
O O16 0.823245 0.750000 0.233020
O O17 0.674292 0.750000 0.715059
O O18 0.868012 0.250000 0.681101
O O19 0.359092 0.750000 0.125922
#
# Coordination Sequence:
#
# PCOD8071830 Si02
#       8
#     4   4   4   4   4   4   4   4
#     4  11  21  32  50  76 104 133 173 218 257 306
#     4   9  18  33  52  72  97 133 170 206 254 307
#     4   9  19  35  57  80 101 132 174 215 260 313
#     4  10  21  34  53  79 106 140 178 213 259 314
#     4   9  18  33  52  73 100 133 168 210 259 308
#     4  10  19  34  54  76 105 140 178 214 254 311
#     4  10  19  35  57  81 109 134 167 220 270 308
#     4  10  21  38  54  72 107 147 178 214 260 309
#
# _framework density 18.383362999999999
#
# number of rings (size 3 to 8) (size 9 to 14) (size 15 to 20)
#    0.000    2.250    0.000    4.125    0.000    1.500 
#    0.000    5.000    0.000    0.000    0.000    0.000 
#    0.000    0.000    0.000    0.000    0.000    0.000 
#
# Total GULP energy -396580.674758 kJ/mol
# GULP energy per Si atom -12393.146086 kJ/mol
# Density = 1.834152 g / cm^3
# Si number density = 18.383363 Si / 1000 Ang^3
#
#
#
# Elastic Constant Matrix: (Units=GPa)
#
#
# Indices 1 2 3 4 5 6 
#
# 1 65.7949 27.3267 29.6046 0.0000 7.5473 0.0000
# 2 27.3267 77.6617 20.4569 0.0000 8.1868 0.0000
# 3 29.6046 20.4569 89.5333 0.0000 -7.1042 0.0000
# 4 0.0000 0.0000 0.0000 20.2536 0.0000 4.4214
# 5 7.5473 8.1868 -7.1042 0.0000 29.1899 0.0000
# 6 0.0000 0.0000 0.0000 4.4214 0.0000 14.4024
#
#
#
# Elastic Compliance Matrix: (Units=1/GPa)
#
#
# Indices 1 2 3 4 5 6 
#
# 1 0.020683 -0.005101 -0.006102 0.000000 -0.005402 0.000000
# 2 -0.005101 0.015620 -0.002167 0.000000 -0.003590 0.000000
# 3 -0.006102 -0.002167 0.014128 0.000000 0.005624 0.000000
# 4 0.000000 0.000000 0.000000 0.052920 0.000000 -0.016246
# 5 -0.005402 -0.003590 0.005624 0.000000 0.038031 0.000000
# 6 0.000000 0.000000 0.000000 -0.016246 0.000000 0.074420
#
#
# Mechanical properties :
#
#
# Convention : Reuss Voigt Hill
#
# Bulk Modulus (GPa) = 42.20990 43.08513 42.64751
# Shear Modulus (GPa) = 19.96493 23.14264 21.55379
#
# Velocity S-wave (km/s) = 3.29908 3.55193 3.42784
# Velocity P-wave (km/s) = 6.12557 6.34898 6.23828
#
# Compressibility (1/GPa) = 0.02369113
#
# Stress axis : x y z
#
# Youngs Moduli (GPa) = 48.35005 64.01876 70.78090
#
# Poissons Ratio (x) = 0.32654 0.43190
# Poissons Ratio (y) = 0.24662 0.15340
# Poissons Ratio (z) = 0.29503 0.13874
#
# Static dielectric constant tensor:
#      x y z
#    x 3.432670 0.000000 -0.004640 
#    y 0.000000 3.297630 0.000000 
#    z -0.004640 0.000000 3.635950 
# 
# 
# High freq. dielectric constant tensor:
#      x y z
#    x 1.707370 0.000000 -0.007650 
#    y 0.000000 1.702290 0.000000 
#    z -0.007650 0.000000 1.721890 
# 
# From -- ./inp_files/21560.got.cif
#   From: 2010.06.25/outbox.cif.g09.slc.cpg/sg11_11_cif.got.tgz:21560.got - 2010.06.27 23:14:04.
