data_PCOD8071547
_publ_section_title
;
Structure prediction by ZEFSAII (Michael W. Deem and Ramdas Pophale) SiO2 
 PCOD8071547
Probable space group: P 21/M
;
_chemical_formula_sum "Si O2"
_cell_formula_units_Z 32
_cell_length_a 22.517023
_cell_length_b 8.868001
_cell_length_c 27.969720
_cell_angle_alpha 90.000000
_cell_angle_beta 161.863240
_cell_angle_gamma 90.000000
_cell_volume 1738.540019
_symmetry_space_group_name_H-M "P 21/M"
_symmetry_group_IT_number 11
_symmetry_cell_setting 'monoclinic'
loop_
_space_group_symop_operation_xyz
x,y,z
-x,1/2+y,-z
-x,-y,-z
x,1/2-y,z
loop_
_atom_site_type_symbol
_atom_site_label
_atom_site_fract_x
_atom_site_fract_y
_atom_site_fract_z
Si Si1 0.576146 0.072277 0.461564
Si Si2 0.121907 0.921626 0.229644
Si Si3 0.856277 0.572888 0.852835
Si Si4 0.130410 0.928015 0.488527
Si Si5 0.854679 0.922788 0.354495
Si Si6 0.159835 0.423783 0.901396
Si Si7 0.566543 0.927993 0.208029
Si Si8 0.852553 0.571596 0.601337
O O1 0.598773 0.250000 0.469940
O O2 0.691051 0.026858 0.597505
O O3 0.358606 0.019621 0.300246
O O4 0.662778 0.987349 0.482356
O O5 0.145827 0.750000 0.230325
O O6 0.935111 0.939882 0.119280
O O7 0.091428 0.027078 0.160862
O O8 0.875067 0.750000 0.872190
O O9 0.000000 0.500000 0.000000
O O10 0.167621 0.750000 0.511041
O O11 0.916268 0.961033 0.346864
O O12 0.289199 0.999301 0.644058
O O13 0.144604 0.009494 0.449464
O O14 0.893524 0.750000 0.393322
O O15 0.640434 0.960834 0.209543
O O16 0.000000 0.000000 0.500000
O O17 0.165654 0.250000 0.889779
O O18 0.041915 0.515833 0.772327
O O19 0.367908 0.491328 0.063424
O O20 0.546263 0.750000 0.202291
O O21 0.849364 0.750000 0.598143
#
# Coordination Sequence:
#
# PCOD8071547 Si02
#       8
#     4   4   4   4   4   4   4   4
#     4   9  20  39  59  79 105 141 178 214 261 323
#     4   9  19  37  59  79 103 136 177 218 259 313
#     4  11  23  37  56  82 112 141 173 215 263 310
#     4  10  19  34  55  78 107 145 181 217 269 329
#     4   8  16  30  50  75 104 138 177 219 265 317
#     4  10  21  38  57  79 109 146 180 215 266 327
#     4  10  19  33  54  82 110 137 178 229 269 311
#     4  11  22  36  56  82 108 138 179 229 271 310
#
# _framework density 18.406248000000001
#
# number of rings (size 3 to 8) (size 9 to 14) (size 15 to 20)
#    0.000    2.250    0.000    3.750    0.000    5.500 
#    0.000    1.875    0.000    0.000    0.000    0.000 
#    0.000    0.000    0.000    0.000    0.000    0.000 
#
# Total GULP energy -396632.993643 kJ/mol
# GULP energy per Si atom -12394.781051 kJ/mol
# Density = 1.836435 g / cm^3
# Si number density = 18.406248 Si / 1000 Ang^3
#
#
#
# Elastic Constant Matrix: (Units=GPa)
#
#
# Indices 1 2 3 4 5 6 
#
# 1 146.6206 63.5100 64.4704 0.0000 -2.7034 0.0000
# 2 63.5100 93.5683 44.1823 0.0000 4.7791 0.0000
# 3 64.4704 44.1823 118.5808 0.0000 19.4206 0.0000
# 4 0.0000 0.0000 0.0000 -77.0373 0.0000 -204.7052
# 5 -2.7034 4.7791 19.4206 0.0000 26.9369 0.0000
# 6 0.0000 0.0000 0.0000 -204.7052 0.0000 -346.9399
#
#
#
# Elastic Compliance Matrix: (Units=1/GPa)
#
#
# Indices 1 2 3 4 5 6 
#
# 1 0.011729 -0.005817 -0.005183 0.000000 0.005946 0.000000
# 2 -0.005817 0.015897 -0.002498 0.000000 -0.001603 0.000000
# 3 -0.005183 -0.002498 0.013827 0.000000 -0.010046 0.000000
# 4 0.000000 0.000000 0.000000 0.022860 0.000000 -0.013488
# 5 0.005946 -0.001603 -0.010046 0.000000 0.045248 0.000000
# 6 0.000000 0.000000 0.000000 -0.013488 0.000000 0.005076
#
#
# Mechanical properties :
#
#
# Convention : Reuss Voigt Hill
#
# Bulk Modulus (GPa) = 69.17264 78.12170 73.64717
# Shear Modulus (GPa) = 34.14099 -66.96758 -16.41330
#
# Velocity S-wave (km/s) = 4.31148 -6.03838 -2.98941
# Velocity P-wave (km/s) = 7.90239 2.46595 5.30881
#
# Compressibility (1/GPa) = 0.01445658
#
# Stress axis : x y z
#
# Youngs Moduli (GPa) = 85.26013 62.90402 72.32253
#
# Poissons Ratio (x) = 0.36593 0.37485
# Poissons Ratio (y) = 0.49598 0.18065
# Poissons Ratio (z) = 0.44191 0.15712
#
# Static dielectric constant tensor:
#      x y z
#    x 3.650690 0.000000 0.298680 
#    y 0.000000 3.498940 0.000000 
#    z 0.298680 0.000000 3.364510 
# 
# 
# High freq. dielectric constant tensor:
#      x y z
#    x 1.723270 0.000000 0.017120 
#    y 0.000000 1.724930 0.000000 
#    z 0.017120 0.000000 1.701380 
# 
# From -- ./inp_files/72154.got.cif
#   From: 2010.06.25/outbox.cif.g09.slc.cpg/sg11_37_cif.got.tgz:72154.got - 2010.06.27 23:14:04.
