data_PCOD8071568
_publ_section_title
;
Structure prediction by ZEFSAII (Michael W. Deem and Ramdas Pophale) SiO2 
 PCOD8071568
Probable space group: P 21/M
;
_chemical_formula_sum "Si O2"
_cell_formula_units_Z 28
_cell_length_a 12.484608
_cell_length_b 8.826719
_cell_length_c 14.113219
_cell_angle_alpha 90.000000
_cell_angle_beta 76.237602
_cell_angle_gamma 90.000000
_cell_volume 1510.600015
_symmetry_space_group_name_H-M "P 21/M"
_symmetry_group_IT_number 11
_symmetry_cell_setting 'monoclinic'
loop_
_space_group_symop_operation_xyz
x,y,z
-x,1/2+y,-z
-x,-y,-z
x,1/2-y,z
loop_
_atom_site_type_symbol
_atom_site_label
_atom_site_fract_x
_atom_site_fract_y
_atom_site_fract_z
Si Si1 0.162049 0.930797 0.285115
Si Si2 0.613976 0.928380 0.082382
Si Si3 0.390679 0.924740 0.559802
Si Si4 0.176250 0.576846 0.492250
Si Si5 0.736745 0.570731 0.245309
Si Si6 0.634280 0.428607 0.882364
Si Si7 0.939172 0.069163 0.296909
O O1 0.152626 0.750000 0.285192
O O2 0.159533 0.998855 0.392793
O O3 0.275233 0.985430 0.212337
O O4 0.060020 0.004152 0.249805
O O5 0.616870 0.750000 0.068443
O O6 0.690039 0.979809 0.153445
O O7 0.487259 0.982421 0.125780
O O8 0.664080 0.002719 0.977978
O O9 0.409476 0.750000 0.583333
O O10 0.303530 0.940044 0.493366
O O11 0.500000 0.000000 0.500000
O O12 0.351053 0.014584 0.659783
O O13 0.141818 0.750000 0.489810
O O14 0.099904 0.505862 0.591316
O O15 0.749920 0.750000 0.250878
O O16 0.855385 0.492516 0.235081
O O17 0.639284 0.250000 0.891174
O O18 0.936750 0.250000 0.293599
#
# Coordination Sequence:
#
# PCOD8071568 Si02
#       7
#     4   4   4   4   4   4   4
#     4  10  19  33  55  78 103 139 180 217 261 315
#     4   9  19  36  57  79 105 137 173 216 271 323
#     4  10  20  33  50  77 111 144 178 218 261 310
#     4   8  17  32  51  73 103 142 177 213 258 308
#     4  10  20  35  57  78 102 141 181 217 264 321
#     4   9  19  34  55  81 106 134 172 219 268 318
#     4  10  20  35  52  77 110 141 176 219 264 312
#
# _framework density 18.535682000000001
#
# number of rings (size 3 to 8) (size 9 to 14) (size 15 to 20)
#    0.000    2.571    0.000    2.571    2.000    1.714 
#    0.000    4.286    0.000    0.000    0.000    0.000 
#    0.000    0.000    0.000    0.000    0.000    0.000 
#
# Total GULP energy -347160.002812 kJ/mol
# GULP energy per Si atom -12398.571529 kJ/mol
# Density = 1.849349 g / cm^3
# Si number density = 18.535682 Si / 1000 Ang^3
#
#
#
# Elastic Constant Matrix: (Units=GPa)
#
#
# Indices 1 2 3 4 5 6 
#
# 1 110.5711 34.5467 64.2560 0.0000 5.2701 0.0000
# 2 34.5467 44.1296 29.2669 0.0000 3.4043 0.0000
# 3 64.2560 29.2669 92.5106 0.0000 14.2722 0.0000
# 4 0.0000 0.0000 0.0000 27.2157 0.0000 -1.7157
# 5 5.2701 3.4043 14.2722 0.0000 29.1014 0.0000
# 6 0.0000 0.0000 0.0000 -1.7157 0.0000 28.5135
#
#
#
# Elastic Compliance Matrix: (Units=1/GPa)
#
#
# Indices 1 2 3 4 5 6 
#
# 1 0.016810 -0.006771 -0.009938 0.000000 0.002622 0.000000
# 2 -0.006771 0.031442 -0.005264 0.000000 0.000130 0.000000
# 3 -0.009938 -0.005264 0.020561 0.000000 -0.007668 0.000000
# 4 0.000000 0.000000 0.000000 0.036883 0.000000 0.002219
# 5 0.002622 0.000130 -0.007668 0.000000 0.037633 0.000000
# 6 0.000000 0.000000 0.000000 0.002219 0.000000 0.035205
#
#
# Mechanical properties :
#
#
# Convention : Reuss Voigt Hill
#
# Bulk Modulus (GPa) = 40.21496 55.92782 48.07139
# Shear Modulus (GPa) = 21.66659 24.90889 23.28774
#
# Velocity S-wave (km/s) = 3.42265 3.66981 3.54838
# Velocity P-wave (km/s) = 6.11248 6.94228 6.54055
#
# Compressibility (1/GPa) = 0.02486637
#
# Stress axis : x y z
#
# Youngs Moduli (GPa) = 59.48906 31.80428 48.63583
#
# Poissons Ratio (x) = 0.21534 0.48336
# Poissons Ratio (y) = 0.40278 0.25604
# Poissons Ratio (z) = 0.59122 0.16743
#
# Static dielectric constant tensor:
#      x y z
#    x 3.531040 0.000000 0.034580 
#    y 0.000000 3.250080 0.000000 
#    z 0.034580 0.000000 3.477660 
# 
# 
# High freq. dielectric constant tensor:
#      x y z
#    x 1.726570 0.000000 0.001590 
#    y 0.000000 1.707500 0.000000 
#    z 0.001590 0.000000 1.708160 
# 
# From -- ./inp_files/38416.got.cif
#   From: 2010.06.25/outbox.cif.g09.slc.cpg/sg11_20_cif.got.tgz:38416.got - 2010.06.27 23:14:04.
