data_PCOD8071018
_publ_section_title
;
Structure prediction by ZEFSAII (Michael W. Deem and Ramdas Pophale) SiO2 
 PCOD8071018
Probable space group: P 21/M
;
_chemical_formula_sum "Si O2"
_cell_formula_units_Z 28
_cell_length_a 25.093356
_cell_length_b 9.083147
_cell_length_c 9.443662
_cell_angle_alpha 90.000000
_cell_angle_beta 134.474658
_cell_angle_gamma 90.000000
_cell_volume 1535.911744
_symmetry_space_group_name_H-M "P 21/M"
_symmetry_group_IT_number 11
_symmetry_cell_setting 'monoclinic'
loop_
_space_group_symop_operation_xyz
x,y,z
-x,1/2+y,-z
-x,-y,-z
x,1/2-y,z
loop_
_atom_site_type_symbol
_atom_site_label
_atom_site_fract_x
_atom_site_fract_y
_atom_site_fract_z
Si Si1 0.924030 0.416622 0.334921
Si Si2 0.560860 0.921096 0.519074
Si Si3 0.202285 0.576114 0.693652
Si Si4 0.058613 0.915377 0.947513
Si Si5 0.650322 0.583456 0.951449
Si Si6 0.107743 0.420197 0.299976
Si Si7 0.500268 0.923480 0.847426
O O1 0.938225 0.250000 0.409980
O O2 0.855068 0.484122 0.293910
O O3 0.901376 0.425889 0.128673
O O4 0.000000 0.500000 0.500000
O O5 0.540282 0.750000 0.456900
O O6 0.500000 0.000000 0.500000
O O7 0.564581 0.002762 0.372856
O O8 0.635492 0.935278 0.754374
O O9 0.202237 0.750000 0.683174
O O10 0.285231 0.526752 0.883878
O O11 0.175490 0.509567 0.495209
O O12 0.064330 0.750000 0.021574
O O13 0.970758 0.956414 0.768261
O O14 0.101343 0.029954 0.125749
O O15 0.675927 0.750000 0.029918
O O16 0.578513 0.546337 0.914499
O O17 0.128540 0.250000 0.345068
O O18 0.483919 0.750000 0.833518
O O19 0.500000 0.000000 0.000000
#
# Coordination Sequence:
#
# PCOD8071018 Si02
#       7
#     4   4   4   4   4   4   4
#     4  10  20  34  52  76 102 132 173 221 268 315
#     4   9  17  32  55  81 109 143 181 221 263 315
#     4  11  22  34  53  79 107 139 178 223 271 321
#     4   9  18  33  51  72  99 130 171 222 269 317
#     4   9  20  37  55  78 110 145 180 216 263 321
#     4  10  19  32  52  74  99 136 174 215 269 323
#     4  10  20  35  58  87 114 144 181 222 265 318
#
# _framework density 18.230212999999999
#
# number of rings (size 3 to 8) (size 9 to 14) (size 15 to 20)
#    0.000    2.286    1.429    2.571    0.000    5.143 
#    0.000    1.429    0.000    3.429    0.000    0.000 
#    0.000    0.000    0.000    0.000    0.000    0.000 
#
# Total GULP energy -347107.243328 kJ/mol
# GULP energy per Si atom -12396.687262 kJ/mol
# Density = 1.818872 g / cm^3
# Si number density = 18.230213 Si / 1000 Ang^3
#
#
#
# Elastic Constant Matrix: (Units=GPa)
#
#
# Indices 1 2 3 4 5 6 
#
# 1 55.5316 34.7896 38.2038 0.0000 -7.4059 0.0000
# 2 34.7896 107.5516 67.2813 0.0000 -3.6389 0.0000
# 3 38.2038 67.2813 122.7473 0.0000 -7.6500 0.0000
# 4 0.0000 0.0000 0.0000 39.5774 0.0000 -1.6669
# 5 -7.4059 -3.6389 -7.6500 0.0000 27.3021 0.0000
# 6 0.0000 0.0000 0.0000 -1.6669 0.0000 25.0114
#
#
#
# Elastic Compliance Matrix: (Units=1/GPa)
#
#
# Indices 1 2 3 4 5 6 
#
# 1 0.025035 -0.004943 -0.004784 0.000000 0.004792 0.000000
# 2 -0.004943 0.015128 -0.006831 0.000000 -0.001239 0.000000
# 3 -0.004784 -0.006831 0.013478 0.000000 0.001568 0.000000
# 4 0.000000 0.000000 0.000000 0.025338 0.000000 0.001689
# 5 0.004792 -0.001239 0.001568 0.000000 0.038201 0.000000
# 6 0.000000 0.000000 0.000000 0.001689 0.000000 0.040094
#
#
# Mechanical properties :
#
#
# Convention : Reuss Voigt Hill
#
# Bulk Modulus (GPa) = 48.72124 62.93110 55.82617
# Shear Modulus (GPa) = 25.35098 28.08190 26.71644
#
# Velocity S-wave (km/s) = 3.73312 3.92906 3.83234
# Velocity P-wave (km/s) = 6.73537 7.42822 7.09026
#
# Compressibility (1/GPa) = 0.02052493
#
# Stress axis : x y z
#
# Youngs Moduli (GPa) = 39.94471 66.10199 74.19754
#
# Poissons Ratio (x) = 0.32677 0.35493
# Poissons Ratio (y) = 0.19746 0.50683
# Poissons Ratio (z) = 0.19108 0.45153
#
# Static dielectric constant tensor:
#      x y z
#    x 3.167290 0.000000 -0.150040 
#    y 0.000000 3.465180 0.000000 
#    z -0.150040 0.000000 3.391670 
# 
# 
# High freq. dielectric constant tensor:
#      x y z
#    x 1.675100 0.000000 -0.019210 
#    y 0.000000 1.717880 0.000000 
#    z -0.019210 0.000000 1.708940 
# 
# From -- ./inp_files/28547.got.cif
#   From: 2010.06.25/outbox.cif.g09.slc.cpg/sg11_15_cif.got.tgz:28547.got - 2010.06.27 23:14:04.
