data_PCOD8071135
_publ_section_title
;
Structure prediction by ZEFSAII (Michael W. Deem and Ramdas Pophale) SiO2 
 PCOD8071135
Probable space group: P 21/M
;
_chemical_formula_sum "Si O2"
_cell_formula_units_Z 28
_cell_length_a 14.146824
_cell_length_b 9.220084
_cell_length_c 17.503492
_cell_angle_alpha 90.000000
_cell_angle_beta 43.481890
_cell_angle_gamma 90.000000
_cell_volume 1571.035623
_symmetry_space_group_name_H-M "P 21/M"
_symmetry_group_IT_number 11
_symmetry_cell_setting 'monoclinic'
loop_
_space_group_symop_operation_xyz
x,y,z
-x,1/2+y,-z
-x,-y,-z
x,1/2-y,z
loop_
_atom_site_type_symbol
_atom_site_label
_atom_site_fract_x
_atom_site_fract_y
_atom_site_fract_z
Si Si1 0.144975 0.581078 0.796918
Si Si2 0.904239 0.582744 0.751228
Si Si3 0.217406 0.915202 0.586199
Si Si4 0.864290 0.918934 0.604782
Si Si5 0.370036 0.421997 0.371802
Si Si6 0.325574 0.920861 0.830374
Si Si7 0.130709 0.578744 0.079693
O O1 0.106317 0.750000 0.830629
O O2 0.232050 0.559729 0.668278
O O3 0.235057 0.517423 0.813434
O O4 0.005284 0.490889 0.876098
O O5 0.890074 0.750000 0.784784
O O6 0.831145 0.551216 0.713379
O O7 0.834202 0.484482 0.857280
O O8 0.064332 0.541833 0.649326
O O9 0.249610 0.750000 0.544910
O O10 0.325488 0.017036 0.480061
O O11 0.891225 0.750000 0.574823
O O12 0.734612 0.975671 0.632472
O O13 0.000000 0.000000 0.500000
O O14 0.371379 0.250000 0.376620
O O15 0.520373 0.484579 0.262905
O O16 0.332605 0.750000 0.815815
O O17 0.257779 0.962935 0.950697
O O18 0.109020 0.750000 0.098288
#
# Coordination Sequence:
#
# PCOD8071135 Si02
#       7
#     4   4   4   4   4   4   4
#     4   9  18  34  54  72  99 135 166 201 252 302
#     4   9  18  33  51  73 103 133 162 202 255 300
#     4   9  17  30  48  72 101 131 163 201 249 295
#     4  10  19  32  53  77 100 131 166 203 245 297
#     4  10  20  33  51  74 101 133 168 202 244 299
#     4   9  19  35  51  71 102 137 166 202 251 296
#     4  10  19  32  53  77  99 126 170 216 245 282
#
# _framework density 17.822637
#
# number of rings (size 3 to 8) (size 9 to 14) (size 15 to 20)
#    0.000    2.571    1.429    1.714    0.000    3.429 
#    0.000    3.571    0.000    0.000    0.000    0.000 
#    0.000    0.000    0.000    0.000    0.000    0.000 
#
# Total GULP energy -347199.445251 kJ/mol
# GULP energy per Si atom -12399.980188 kJ/mol
# Density = 1.778207 g / cm^3
# Si number density = 17.822637 Si / 1000 Ang^3
#
#
#
# Elastic Constant Matrix: (Units=GPa)
#
#
# Indices 1 2 3 4 5 6 
#
# 1 71.9827 28.0043 48.2084 0.0000 6.7937 0.0000
# 2 28.0043 47.7148 45.7054 0.0000 2.0592 0.0000
# 3 48.2084 45.7054 129.7861 0.0000 2.4288 0.0000
# 4 0.0000 0.0000 0.0000 27.7496 0.0000 4.4485
# 5 6.7937 2.0592 2.4288 0.0000 23.1314 0.0000
# 6 0.0000 0.0000 0.0000 4.4485 0.0000 19.0264
#
#
#
# Elastic Compliance Matrix: (Units=1/GPa)
#
#
# Indices 1 2 3 4 5 6 
#
# 1 0.020437 -0.006943 -0.005055 0.000000 -0.004854 0.000000
# 2 -0.006943 0.034048 -0.009411 0.000000 -0.000004 0.000000
# 3 -0.005055 -0.009411 0.012879 0.000000 0.000970 0.000000
# 4 0.000000 0.000000 0.000000 0.037440 0.000000 -0.008754
# 5 -0.004854 -0.000004 0.000970 0.000000 0.044555 0.000000
# 6 0.000000 0.000000 0.000000 -0.008754 0.000000 0.054605
#
#
# Mechanical properties :
#
#
# Convention : Reuss Voigt Hill
#
# Bulk Modulus (GPa) = 40.74189 54.81330 47.77760
# Shear Modulus (GPa) = 19.61055 22.48584 21.04820
#
# Velocity S-wave (km/s) = 3.32070 3.55582 3.44027
# Velocity P-wave (km/s) = 6.13286 6.90508 6.53039
#
# Compressibility (1/GPa) = 0.02454476
#
# Stress axis : x y z
#
# Youngs Moduli (GPa) = 48.93065 29.37050 77.64615
#
# Poissons Ratio (x) = 0.20391 0.39254
# Poissons Ratio (y) = 0.33971 0.73075
# Poissons Ratio (z) = 0.24737 0.27642
#
# Static dielectric constant tensor:
#      x y z
#    x 3.495100 0.000000 0.103100 
#    y 0.000000 3.125060 0.000000 
#    z 0.103100 0.000000 3.298530 
# 
# 
# High freq. dielectric constant tensor:
#      x y z
#    x 1.687770 0.000000 0.016590 
#    y 0.000000 1.672520 0.000000 
#    z 0.016590 0.000000 1.684590 
# 
# From -- ./inp_files/42626.got.cif
#   From: 2010.06.25/outbox.cif.g09.slc.cpg/sg11_22_cif.got.tgz:42626.got - 2010.06.27 23:14:04.
