data_PCOD8071227
_publ_section_title
;
Structure prediction by ZEFSAII (Michael W. Deem and Ramdas Pophale) SiO2 
 PCOD8071227
Probable space group: P 21/M
;
_chemical_formula_sum "Si O2"
_cell_formula_units_Z 28
_cell_length_a 9.950061
_cell_length_b 8.786507
_cell_length_c 28.358666
_cell_angle_alpha 90.000000
_cell_angle_beta 37.340369
_cell_angle_gamma 90.000000
_cell_volume 1503.811804
_symmetry_space_group_name_H-M "P 21/M"
_symmetry_group_IT_number 11
_symmetry_cell_setting 'monoclinic'
loop_
_space_group_symop_operation_xyz
x,y,z
-x,1/2+y,-z
-x,-y,-z
x,1/2-y,z
loop_
_atom_site_type_symbol
_atom_site_label
_atom_site_fract_x
_atom_site_fract_y
_atom_site_fract_z
Si Si1 0.652432 0.568858 0.498747
Si Si2 0.808005 0.072530 0.199108
Si Si3 0.774892 0.927853 0.047277
Si Si4 0.128843 0.429711 0.372547
Si Si5 0.286501 0.427333 0.038937
Si Si6 0.565479 0.572128 0.627473
Si Si7 0.502327 0.926942 0.211424
O O1 0.500000 0.500000 0.500000
O O2 0.632749 0.750000 0.501146
O O3 0.578435 0.503934 0.571020
O O4 0.905779 0.518908 0.422627
O O5 0.769474 0.250000 0.196716
O O6 0.677764 0.032944 0.283842
O O7 0.068243 0.034584 0.131179
O O8 0.714750 0.968187 0.183625
O O9 0.817241 0.750000 0.033203
O O10 0.568444 0.965136 0.139232
O O11 0.727813 0.996509 0.009225
O O12 0.000000 0.000000 0.000000
O O13 0.083054 0.250000 0.386436
O O14 0.241385 0.487984 0.390552
O O15 0.295303 0.468397 0.283509
O O16 0.324978 0.250000 0.025802
O O17 0.500000 0.500000 0.000000
O O18 0.602538 0.750000 0.613155
O O19 0.441864 0.750000 0.235226
#
# Coordination Sequence:
#
# PCOD8071227 Si02
#       7
#     4   4   4   4   4   4   4
#     4  11  22  38  57  81 115 147 179 221 271 326
#     4   9  17  34  57  79 107 141 182 226 269 318
#     4  10  20  34  55  81 110 143 181 224 269 320
#     4  10  20  37  60  84 109 141 183 225 269 322
#     4  10  21  36  53  76 110 147 185 225 266 318
#     4   8  17  34  59  84 106 137 180 226 269 319
#     4  10  19  32  54  85 114 139 176 225 274 319
#
# _framework density 18.619351000000002
#
# number of rings (size 3 to 8) (size 9 to 14) (size 15 to 20)
#    0.000    2.286    1.429    2.571    0.000    1.714 
#    2.571    6.429    0.000    0.000    0.000    0.000 
#    0.000    0.000    0.000    0.000    0.000    0.000 
#
# Total GULP energy -347047.991021 kJ/mol
# GULP energy per Si atom -12394.571108 kJ/mol
# Density = 1.857697 g / cm^3
# Si number density = 18.619351 Si / 1000 Ang^3
#
#
#
# Elastic Constant Matrix: (Units=GPa)
#
#
# Indices 1 2 3 4 5 6 
#
# 1 141.5089 30.6194 84.5724 0.0000 -6.2525 0.0000
# 2 30.6194 38.4064 33.6533 0.0000 0.6863 0.0000
# 3 84.5724 33.6533 133.1682 0.0000 -5.1850 0.0000
# 4 0.0000 0.0000 0.0000 27.8638 0.0000 -5.1791
# 5 -6.2525 0.6863 -5.1850 0.0000 28.3840 0.0000
# 6 0.0000 0.0000 0.0000 -5.1791 0.0000 29.9946
#
#
#
# Elastic Compliance Matrix: (Units=1/GPa)
#
#
# Indices 1 2 3 4 5 6 
#
# 1 0.011837 -0.003761 -0.006508 0.000000 0.001510 0.000000
# 2 -0.003761 0.034797 -0.006516 0.000000 -0.002860 0.000000
# 3 -0.006508 -0.006516 0.013334 0.000000 0.001160 0.000000
# 4 0.000000 0.000000 0.000000 0.037079 0.000000 0.006402
# 5 0.001510 -0.002860 0.001160 0.000000 0.035845 0.000000
# 6 0.000000 0.000000 0.000000 0.006402 0.000000 0.034445
#
#
# Mechanical properties :
#
#
# Convention : Reuss Voigt Hill
#
# Bulk Modulus (GPa) = 37.88324 67.86375 52.87350
# Shear Modulus (GPa) = 23.84290 28.19773 26.02032
#
# Velocity S-wave (km/s) = 3.58235 3.89579 3.74235
# Velocity P-wave (km/s) = 6.12383 7.53415 6.86530
#
# Compressibility (1/GPa) = 0.02639690
#
# Stress axis : x y z
#
# Youngs Moduli (GPa) = 84.48309 28.73822 74.99468
#
# Poissons Ratio (x) = 0.10809 0.48806
# Poissons Ratio (y) = 0.31776 0.48869
# Poissons Ratio (z) = 0.54981 0.18727
#
# Static dielectric constant tensor:
#      x y z
#    x 3.322330 0.000000 0.157130 
#    y 0.000000 3.326750 0.000000 
#    z 0.157130 0.000000 3.706380 
# 
# 
# High freq. dielectric constant tensor:
#      x y z
#    x 1.703940 0.000000 0.003540 
#    y 0.000000 1.711060 0.000000 
#    z 0.003540 0.000000 1.740100 
# 
# From -- ./inp_files/70816.got.cif
#   From: 2010.06.25/outbox.cif.g09.slc.cpg/sg11_36_cif.got.tgz:70816.got - 2010.06.27 23:14:04.
