data_PCOD8071297
_publ_section_title
;
Structure prediction by ZEFSAII (Michael W. Deem and Ramdas Pophale) SiO2 
 PCOD8071297
Probable space group: P 21/M
;
_chemical_formula_sum "Si O2"
_cell_formula_units_Z 32
_cell_length_a 14.355406
_cell_length_b 8.779003
_cell_length_c 16.856767
_cell_angle_alpha 90.000000
_cell_angle_beta 63.679555
_cell_angle_gamma 90.000000
_cell_volume 1904.153940
_symmetry_space_group_name_H-M "P 21/M"
_symmetry_group_IT_number 11
_symmetry_cell_setting 'monoclinic'
loop_
_space_group_symop_operation_xyz
x,y,z
-x,1/2+y,-z
-x,-y,-z
x,1/2-y,z
loop_
_atom_site_type_symbol
_atom_site_label
_atom_site_fract_x
_atom_site_fract_y
_atom_site_fract_z
Si Si1 0.011249 0.571121 0.583297
Si Si2 0.757367 0.428355 0.452844
Si Si3 0.436262 0.927950 0.913676
Si Si4 0.181295 0.931451 0.268078
Si Si5 0.441425 0.077644 0.751690
Si Si6 0.656240 0.571755 0.901468
Si Si7 0.680723 0.078347 0.644664
Si Si8 0.592487 0.569773 0.412676
O O1 0.993065 0.750000 0.581128
O O2 0.122096 0.534329 0.580768
O O3 0.000000 0.500000 0.500000
O O4 0.932913 0.500111 0.677315
O O5 0.736999 0.250000 0.445841
O O6 0.696502 0.495411 0.552552
O O7 0.706631 0.520608 0.399355
O O8 0.418908 0.750000 0.933294
O O9 0.556763 0.972599 0.884549
O O10 0.398675 0.974010 0.839417
O O11 0.363026 0.018473 0.001646
O O12 0.175846 0.750000 0.267780
O O13 0.247702 0.000271 0.316434
O O14 0.238793 0.989027 0.167404
O O15 0.399709 0.250000 0.777086
O O16 0.564069 0.072302 0.716489
O O17 0.412487 0.010816 0.676435
O O18 0.676755 0.750000 0.892559
O O19 0.722790 0.250000 0.620041
O O20 0.500000 0.500000 0.500000
O O21 0.577345 0.750000 0.419694
#
# Coordination Sequence:
#
# PCOD8071297 Si02
#       8
#     4   4   4   4   4   4   4   4
#     4  11  22  35  52  75 103 137 176 216 260 308
#     4  10  20  37  52  69 101 139 175 216 259 298
#     4  10  20  32  49  75 102 132 171 211 252 303
#     4  11  20  33  52  74 102 138 175 213 256 303
#     4  10  19  33  50  70 101 138 171 208 256 304
#     4  10  20  33  49  73 104 136 169 208 255 306
#     4   9  16  29  48  69  99 136 170 206 253 297
#     4  11  22  34  51  75 102 136 176 215 257 305
#
# _framework density 16.805364000000001
#
# number of rings (size 3 to 8) (size 9 to 14) (size 15 to 20)
#    0.000    1.750    3.750    1.875    0.000    3.000 
#    0.000    0.000    0.000    0.000    0.000    0.875 
#    0.000    0.000    0.000    0.000    0.000    0.000 
#
# Total GULP energy -396713.600082 kJ/mol
# GULP energy per Si atom -12397.300003 kJ/mol
# Density = 1.676711 g / cm^3
# Si number density = 16.805364 Si / 1000 Ang^3
#
#
#
# Elastic Constant Matrix: (Units=GPa)
#
#
# Indices 1 2 3 4 5 6 
#
# 1 77.3995 33.4964 43.6207 0.0000 7.9941 0.0000
# 2 33.4964 67.3165 42.3814 0.0000 -0.5799 0.0000
# 3 43.6207 42.3814 114.0715 0.0000 5.1478 0.0000
# 4 0.0000 0.0000 0.0000 30.0635 0.0000 -0.6651
# 5 7.9941 -0.5799 5.1478 0.0000 29.3513 0.0000
# 6 0.0000 0.0000 0.0000 -0.6651 0.0000 24.3500
#
#
#
# Elastic Compliance Matrix: (Units=1/GPa)
#
#
# Indices 1 2 3 4 5 6 
#
# 1 0.018762 -0.006505 -0.004557 0.000000 -0.004439 0.000000
# 2 -0.006505 0.021727 -0.005729 0.000000 0.003206 0.000000
# 3 -0.004557 -0.005729 0.012687 0.000000 -0.001097 0.000000
# 4 0.000000 0.000000 0.000000 0.033283 0.000000 0.000909
# 5 -0.004439 0.003206 -0.001097 0.000000 0.035535 0.000000
# 6 0.000000 0.000000 0.000000 0.000909 0.000000 0.041093
#
#
# Mechanical properties :
#
#
# Convention : Reuss Voigt Hill
#
# Bulk Modulus (GPa) = 51.03948 55.30941 53.17444
# Shear Modulus (GPa) = 24.60614 26.03890 25.32252
#
# Velocity S-wave (km/s) = 3.83062 3.94056 3.88598
# Velocity P-wave (km/s) = 7.07119 7.32716 7.20031
#
# Compressibility (1/GPa) = 0.01959268
#
# Stress axis : x y z
#
# Youngs Moduli (GPa) = 53.29885 46.02611 78.81832
#
# Poissons Ratio (x) = 0.29939 0.35921
# Poissons Ratio (y) = 0.34670 0.45159
# Poissons Ratio (z) = 0.24291 0.26370
#
# Static dielectric constant tensor:
#      x y z
#    x 3.043600 0.000000 0.064720 
#    y 0.000000 3.095450 0.000000 
#    z 0.064720 0.000000 3.170590 
# 
# 
# High freq. dielectric constant tensor:
#      x y z
#    x 1.620170 0.000000 0.003090 
#    y 0.000000 1.646450 0.000000 
#    z 0.003090 0.000000 1.644600 
# 
# From -- ./inp_files/51691.got.cif
#   From: 2010.06.25/outbox.cif.g09.slc.cpg/sg11_26_cif.got.tgz:51691.got - 2010.06.27 23:14:04.
