data_PCOD8071272
_publ_section_title
;
Structure prediction by ZEFSAII (Michael W. Deem and Ramdas Pophale) SiO2 
 PCOD8071272
Probable space group: P 21/M
;
_chemical_formula_sum "Si O2"
_cell_formula_units_Z 28
_cell_length_a 10.176399
_cell_length_b 8.962420
_cell_length_c 29.857419
_cell_angle_alpha 90.000000
_cell_angle_beta 146.582452
_cell_angle_gamma 90.000000
_cell_volume 1499.738242
_symmetry_space_group_name_H-M "P 21/M"
_symmetry_group_IT_number 11
_symmetry_cell_setting 'monoclinic'
loop_
_space_group_symop_operation_xyz
x,y,z
-x,1/2+y,-z
-x,-y,-z
x,1/2-y,z
loop_
_atom_site_type_symbol
_atom_site_label
_atom_site_fract_x
_atom_site_fract_y
_atom_site_fract_z
Si Si1 0.578752 0.922820 0.586825
Si Si2 0.661375 0.921390 0.165065
Si Si3 0.323713 0.074975 0.727722
Si Si4 0.081486 0.424127 0.235392
Si Si5 0.828585 0.426382 0.832392
Si Si6 0.884941 0.077661 0.009889
Si Si7 0.848349 0.575075 0.574451
O O1 0.515521 0.750000 0.563471
O O2 0.706135 0.958556 0.669613
O O3 0.753820 0.973670 0.596528
O O4 0.332458 0.014333 0.514752
O O5 0.746781 0.750000 0.185066
O O6 0.666246 0.974359 0.217804
O O7 0.398040 0.941414 0.070922
O O8 0.830193 0.028925 0.184852
O O9 0.286843 0.250000 0.712484
O O10 0.567207 0.022481 0.773764
O O11 0.108000 0.994641 0.640795
O O12 0.070244 0.250000 0.219813
O O13 0.133329 0.522672 0.207169
O O14 0.860373 0.250000 0.845512
O O15 0.026065 0.503338 0.919293
O O16 0.959538 0.250000 0.029832
O O17 0.000000 0.000000 0.000000
O O18 0.870382 0.750000 0.575219
#
# Coordination Sequence:
#
# PCOD8071272 Si02
#       7
#     4   4   4   4   4   4   4
#     4   9  19  35  54  82 119 152 187 236 291 345
#     4  10  21  38  61  87 116 153 195 239 290 350
#     4  10  20  37  59  85 117 152 194 239 289 345
#     4  11  23  40  60  88 120 155 196 241 295 349
#     4  11  24  42  61  86 119 159 198 239 296 353
#     4  11  22  39  62  90 120 153 197 245 294 345
#     4  10  19  32  56  89 116 146 193 241 289 341
#
# _framework density 18.669924000000002
#
# number of rings (size 3 to 8) (size 9 to 14) (size 15 to 20)
#    0.000    1.714    2.857    1.714    0.000    4.571 
#    0.000    0.714    0.000    0.000    0.000    0.000 
#    0.000    0.000    0.000    0.000    0.000    0.000 
#
# Total GULP energy -347345.289015 kJ/mol
# GULP energy per Si atom -12405.188893 kJ/mol
# Density = 1.862743 g / cm^3
# Si number density = 18.669924 Si / 1000 Ang^3
#
#
#
# Elastic Constant Matrix: (Units=GPa)
#
#
# Indices 1 2 3 4 5 6 
#
# 1 93.2351 36.3095 43.0046 0.0000 1.3129 0.0000
# 2 36.3095 72.4981 51.8578 0.0000 6.9437 0.0000
# 3 43.0046 51.8578 110.7294 0.0000 6.0235 0.0000
# 4 0.0000 0.0000 0.0000 35.7235 0.0000 3.1422
# 5 1.3129 6.9437 6.0235 0.0000 28.5702 0.0000
# 6 0.0000 0.0000 0.0000 3.1422 0.0000 24.0992
#
#
#
# Elastic Compliance Matrix: (Units=1/GPa)
#
#
# Indices 1 2 3 4 5 6 
#
# 1 0.014104 -0.004834 -0.003280 0.000000 0.001218 0.000000
# 2 -0.004834 0.022661 -0.008546 0.000000 -0.003484 0.000000
# 3 -0.003280 -0.008546 0.014350 0.000000 -0.000798 0.000000
# 4 0.000000 0.000000 0.000000 0.028318 0.000000 -0.003692
# 5 0.001218 -0.003484 -0.000798 0.000000 0.035960 0.000000
# 6 0.000000 0.000000 0.000000 -0.003692 0.000000 0.041977
#
#
# Mechanical properties :
#
#
# Convention : Reuss Voigt Hill
#
# Bulk Modulus (GPa) = 56.19379 59.86738 58.03058
# Shear Modulus (GPa) = 25.42952 27.36464 26.39708
#
# Velocity S-wave (km/s) = 3.69461 3.83261 3.76424
# Velocity P-wave (km/s) = 6.95443 7.19173 7.07408
#
# Compressibility (1/GPa) = 0.01779556
#
# Stress axis : x y z
#
# Youngs Moduli (GPa) = 70.90219 44.12840 69.68410
#
# Poissons Ratio (x) = 0.21333 0.22855
# Poissons Ratio (y) = 0.34277 0.59551
# Poissons Ratio (z) = 0.23255 0.37711
#
# Static dielectric constant tensor:
#      x y z
#    x 3.354710 0.000000 -0.002880 
#    y 0.000000 3.504010 0.000000 
#    z -0.002880 0.000000 3.695090 
# 
# 
# High freq. dielectric constant tensor:
#      x y z
#    x 1.709030 0.000000 0.006230 
#    y 0.000000 1.731870 0.000000 
#    z 0.006230 0.000000 1.737870 
# 
# From -- ./inp_files/28251.got.cif
#   From: 2010.06.25/outbox.cif.g09.slc.cpg/sg11_15_cif.got.tgz:28251.got - 2010.06.27 23:14:04.
