data_PCOD8071967
_publ_section_title
;
Structure prediction by ZEFSAII (Michael W. Deem and Ramdas Pophale) SiO2 
 PCOD8071967
Probable space group: P 21/M
;
_chemical_formula_sum "Si O2"
_cell_formula_units_Z 28
_cell_length_a 20.346765
_cell_length_b 8.776446
_cell_length_c 14.597806
_cell_angle_alpha 90.000000
_cell_angle_beta 147.669680
_cell_angle_gamma 90.000000
_cell_volume 1394.096042
_symmetry_space_group_name_H-M "P 21/M"
_symmetry_group_IT_number 11
_symmetry_cell_setting 'monoclinic'
loop_
_space_group_symop_operation_xyz
x,y,z
-x,1/2+y,-z
-x,-y,-z
x,1/2-y,z
loop_
_atom_site_type_symbol
_atom_site_label
_atom_site_fract_x
_atom_site_fract_y
_atom_site_fract_z
Si Si1 0.262975 0.568976 0.901421
Si Si2 0.559795 0.429160 0.732637
Si Si3 0.221129 0.929529 0.135637
Si Si4 0.713594 0.929814 0.603592
Si Si5 0.632702 0.926094 0.152088
Si Si6 0.816478 0.575164 0.528537
Si Si7 0.932168 0.928851 0.201780
O O1 0.254244 0.750000 0.888933
O O2 0.281952 0.505822 0.822611
O O3 0.136356 0.505166 0.793100
O O4 0.375818 0.512244 0.098331
O O5 0.545225 0.250000 0.723263
O O6 0.644966 0.474744 0.746814
O O7 0.424521 0.500307 0.561918
O O8 0.199135 0.750000 0.106288
O O9 0.210887 0.989836 0.226624
O O10 0.115376 0.006524 0.950883
O O11 0.710993 0.750000 0.618167
O O12 0.781276 0.972051 0.589773
O O13 0.617988 0.750000 0.109570
O O14 0.696385 0.949094 0.325107
O O15 0.500000 0.000000 0.000000
O O16 0.860919 0.750000 0.576578
O O17 0.924403 0.467043 0.619861
O O18 0.910613 0.750000 0.180133
#
# Coordination Sequence:
#
# PCOD8071967 Si02
#       7
#     4   4   4   4   4   4   4
#     4  10  20  38  63  88 118 154 190 236 292 344
#     4   8  16  32  55  83 114 148 184 228 285 343
#     4  10  20  35  56  83 116 151 187 232 289 348
#     4  10  19  34  56  81 111 149 193 237 283 336
#     4  11  23  40  63  91 121 154 192 233 284 342
#     4  10  23  41  59  81 114 155 195 239 288 339
#     4  11  23  40  61  85 112 147 195 243 287 342
#
# _framework density 20.084700000000002
#
# number of rings (size 3 to 8) (size 9 to 14) (size 15 to 20)
#    0.000    2.000    0.000    4.714    0.000    5.143 
#    0.000    5.000    0.000    0.000    0.000    0.000 
#    0.000    0.000    0.000    0.000    0.000    0.000 
#
# Total GULP energy -347300.357845 kJ/mol
# GULP energy per Si atom -12403.584209 kJ/mol
# Density = 2.003899 g / cm^3
# Si number density = 20.084700 Si / 1000 Ang^3
#
#
#
# Elastic Constant Matrix: (Units=GPa)
#
#
# Indices 1 2 3 4 5 6 
#
# 1 120.3365 51.7208 44.2412 0.0000 -9.1189 0.0000
# 2 51.7208 104.9104 39.0713 0.0000 0.0365 0.0000
# 3 44.2412 39.0713 74.4905 0.0000 10.6859 0.0000
# 4 0.0000 0.0000 0.0000 28.9741 0.0000 -1.6164
# 5 -9.1189 0.0365 10.6859 0.0000 34.1298 0.0000
# 6 0.0000 0.0000 0.0000 -1.6164 0.0000 32.8950
#
#
#
# Elastic Compliance Matrix: (Units=1/GPa)
#
#
# Indices 1 2 3 4 5 6 
#
# 1 0.012706 -0.003939 -0.006249 0.000000 0.005355 0.000000
# 2 -0.003939 0.013202 -0.004641 0.000000 0.000387 0.000000
# 3 -0.006249 -0.004641 0.020740 0.000000 -0.008158 0.000000
# 4 0.000000 0.000000 0.000000 0.034609 0.000000 0.001701
# 5 0.005355 0.000387 -0.008158 0.000000 0.033285 0.000000
# 6 0.000000 0.000000 0.000000 0.001701 0.000000 0.030483
#
#
# Mechanical properties :
#
#
# Convention : Reuss Voigt Hill
#
# Bulk Modulus (GPa) = 58.85185 63.31156 61.08171
# Shear Modulus (GPa) = 27.72461 30.18003 28.95232
#
# Velocity S-wave (km/s) = 3.71938 3.88059 3.80084
# Velocity P-wave (km/s) = 6.91452 7.18814 7.05266
#
# Compressibility (1/GPa) = 0.01699182
#
# Stress axis : x y z
#
# Youngs Moduli (GPa) = 78.70261 75.74629 48.21554
#
# Poissons Ratio (x) = 0.29835 0.30128
# Poissons Ratio (y) = 0.30999 0.22376
# Poissons Ratio (z) = 0.49179 0.35152
#
# Static dielectric constant tensor:
#      x y z
#    x 3.716990 0.000000 -0.032250 
#    y 0.000000 3.502030 0.000000 
#    z -0.032250 0.000000 3.673770 
# 
# 
# High freq. dielectric constant tensor:
#      x y z
#    x 1.789720 0.000000 -0.002140 
#    y 0.000000 1.772880 0.000000 
#    z -0.002140 0.000000 1.784810 
# 
# From -- ./inp_files/49121.got.cif
#   From: 2010.06.25/outbox.cif.g09.slc.cpg/sg11_25_cif.got.tgz:49121.got - 2010.06.27 23:14:04.
