data_PCOD8071202
_publ_section_title
;
Structure prediction by ZEFSAII (Michael W. Deem and Ramdas Pophale) SiO2 
 PCOD8071202
Probable space group: P 21/M
;
_chemical_formula_sum "Si O2"
_cell_formula_units_Z 28
_cell_length_a 12.159018
_cell_length_b 8.861255
_cell_length_c 15.215647
_cell_angle_alpha 90.000000
_cell_angle_beta 120.399577
_cell_angle_gamma 90.000000
_cell_volume 1414.008524
_symmetry_space_group_name_H-M "P 21/M"
_symmetry_group_IT_number 11
_symmetry_cell_setting 'monoclinic'
loop_
_space_group_symop_operation_xyz
x,y,z
-x,1/2+y,-z
-x,-y,-z
x,1/2-y,z
loop_
_atom_site_type_symbol
_atom_site_label
_atom_site_fract_x
_atom_site_fract_y
_atom_site_fract_z
Si Si1 0.014665 0.427754 0.277101
Si Si2 0.622004 0.573056 0.308764
Si Si3 0.119515 0.071947 0.498425
Si Si4 0.367631 0.073367 0.187894
Si Si5 0.599897 0.081143 0.979596
Si Si6 0.742656 0.081871 0.204212
Si Si7 0.082310 0.070580 0.112529
O O1 0.003173 0.250000 0.258996
O O2 0.120224 0.467318 0.393958
O O3 0.039967 0.496474 0.190564
O O4 0.883982 0.487997 0.268812
O O5 0.611965 0.750000 0.315266
O O6 0.744887 0.508990 0.410963
O O7 0.487153 0.504016 0.287346
O O8 0.641561 0.525533 0.214140
O O9 0.109870 0.250000 0.510023
O O10 0.000000 0.000000 0.500000
O O11 0.388140 0.250000 0.203936
O O12 0.230963 0.023186 0.169989
O O13 0.365982 0.024569 0.086686
O O14 0.557860 0.250000 0.931487
O O15 0.722802 0.092663 0.091599
O O16 0.500000 0.000000 0.000000
O O17 0.731777 0.250000 0.241639
O O18 0.067104 0.250000 0.099073
O O19 0.000000 0.000000 0.000000
#
# Coordination Sequence:
#
# PCOD8071202 Si02
#       7
#     4   4   4   4   4   4   4
#     4   9  18  36  60  83 111 150 192 233 287 348
#     4  11  22  34  53  83 116 149 187 236 290 340
#     4  10  20  35  58  87 117 151 190 237 291 349
#     4  11  23  38  56  80 114 156 197 238 290 347
#     4  11  21  32  51  81 113 146 187 232 285 348
#     4  10  19  32  54  80 110 147 183 227 287 349
#     4  10  22  41  64  87 113 152 198 242 287 344
#
# _framework density 19.801859
#
# number of rings (size 3 to 8) (size 9 to 14) (size 15 to 20)
#    0.000    1.714    2.857    2.143    0.000    3.429 
#    0.000    2.143    0.000    0.000    0.000    0.000 
#    0.000    0.000    0.000    0.000    0.000    0.000 
#
# Total GULP energy -346983.191083 kJ/mol
# GULP energy per Si atom -12392.256824 kJ/mol
# Density = 1.975679 g / cm^3
# Si number density = 19.801859 Si / 1000 Ang^3
#
#
#
# Elastic Constant Matrix: (Units=GPa)
#
#
# Indices 1 2 3 4 5 6 
#
# 1 110.1668 39.3679 41.9859 0.0000 14.5897 0.0000
# 2 39.3679 43.6016 21.3336 0.0000 13.8710 0.0000
# 3 41.9859 21.3336 109.9393 0.0000 12.0667 0.0000
# 4 0.0000 0.0000 0.0000 25.8437 0.0000 4.4124
# 5 14.5897 13.8710 12.0667 0.0000 37.2158 0.0000
# 6 0.0000 0.0000 0.0000 4.4124 0.0000 23.7951
#
#
#
# Elastic Compliance Matrix: (Units=1/GPa)
#
#
# Indices 1 2 3 4 5 6 
#
# 1 0.014407 -0.011287 -0.003270 0.000000 -0.000381 0.000000
# 2 -0.011287 0.036808 -0.001879 0.000000 -0.008685 0.000000
# 3 -0.003270 -0.001879 0.010879 0.000000 -0.001545 0.000000
# 4 0.000000 0.000000 0.000000 0.039959 0.000000 -0.007410
# 5 -0.000381 -0.008685 -0.001545 0.000000 0.030758 0.000000
# 6 0.000000 0.000000 0.000000 -0.007410 0.000000 0.043399
#
#
# Mechanical properties :
#
#
# Convention : Reuss Voigt Hill
#
# Bulk Modulus (GPa) = 34.22018 52.12029 43.17023
# Shear Modulus (GPa) = 22.84940 28.10560 25.47750
#
# Velocity S-wave (km/s) = 3.40060 3.77150 3.59084
# Velocity P-wave (km/s) = 5.72168 6.73377 6.24825
#
# Compressibility (1/GPa) = 0.02922252
#
# Stress axis : x y z
#
# Youngs Moduli (GPa) = 69.40916 27.16768 91.92073
#
# Poissons Ratio (x) = 0.30665 0.30059
# Poissons Ratio (y) = 0.78344 0.17270
# Poissons Ratio (z) = 0.22697 0.05104
#
# Static dielectric constant tensor:
#      x y z
#    x 3.673580 0.000000 0.275840 
#    y 0.000000 3.387880 0.000000 
#    z 0.275840 0.000000 4.108870 
# 
# 
# High freq. dielectric constant tensor:
#      x y z
#    x 1.762160 0.000000 0.020300 
#    y 0.000000 1.754170 0.000000 
#    z 0.020300 0.000000 1.781730 
# 
# From -- ./inp_files/49480.got.cif
#   From: 2010.06.25/outbox.cif.g09.slc.cpg/sg11_25_cif.got.tgz:49480.got - 2010.06.27 23:14:04.
