data_PCOD8071480
_publ_section_title
;
Structure prediction by ZEFSAII (Michael W. Deem and Ramdas Pophale) SiO2 
 PCOD8071480
Probable space group: P 21/M
;
_chemical_formula_sum "Si O2"
_cell_formula_units_Z 32
_cell_length_a 28.121724
_cell_length_b 8.965925
_cell_length_c 21.583791
_cell_angle_alpha 90.000000
_cell_angle_beta 161.241924
_cell_angle_gamma 90.000000
_cell_volume 1750.025025
_symmetry_space_group_name_H-M "P 21/M"
_symmetry_group_IT_number 11
_symmetry_cell_setting 'monoclinic'
loop_
_space_group_symop_operation_xyz
x,y,z
-x,1/2+y,-z
-x,-y,-z
x,1/2-y,z
loop_
_atom_site_type_symbol
_atom_site_label
_atom_site_fract_x
_atom_site_fract_y
_atom_site_fract_z
Si Si1 0.675382 0.926504 0.603924
Si Si2 0.567029 0.074621 0.022117
Si Si3 0.337160 0.925072 0.171139
Si Si4 0.846875 0.925367 0.695298
Si Si5 0.417394 0.077670 0.711164
Si Si6 0.823283 0.072445 0.903582
Si Si7 0.681492 0.577692 0.974438
Si Si8 0.158112 0.425192 0.702149
O O1 0.689819 0.750000 0.629994
O O2 0.506799 0.974794 0.385776
O O3 0.768627 0.987406 0.660567
O O4 0.732953 0.005660 0.735865
O O5 0.591471 0.250000 0.063195
O O6 0.724239 0.001060 0.199117
O O7 0.447508 0.043563 0.820349
O O8 0.500000 0.000000 0.000000
O O9 0.320517 0.750000 0.143226
O O10 0.251182 0.983596 0.125122
O O11 0.261974 0.998155 0.018025
O O12 0.861374 0.750000 0.719738
O O13 0.750646 0.964788 0.515066
O O14 0.010248 0.993752 0.890966
O O15 0.450523 0.250000 0.736637
O O16 0.521621 0.982658 0.795697
O O17 0.819699 0.250000 0.893962
O O18 0.665608 0.750000 0.940772
O O19 0.796755 0.545060 0.171391
O O20 0.151145 0.250000 0.677908
O O21 0.000000 0.500000 0.500000
#
# Coordination Sequence:
#
# PCOD8071480 Si02
#       8
#     4   4   4   4   4   4   4   4
#     4  10  19  33  54  73  99 139 177 218 265 316
#     4  10  20  35  58  85 116 151 187 230 276 328
#     4  10  20  35  53  75 104 141 180 214 261 322
#     4   9  17  33  54  75 103 134 173 219 258 310
#     4   9  17  34  58  78 104 144 184 216 260 319
#     4  10  21  34  50  76 106 135 173 221 266 314
#     4  10  20  34  56  83 109 136 177 227 267 310
#     4  10  21  38  59  85 115 147 186 229 280 335
#
# _framework density 18.285453
#
# number of rings (size 3 to 8) (size 9 to 14) (size 15 to 20)
#    0.000    2.250    1.250    1.875    0.000    3.000 
#    2.250    0.625    0.000    0.000    0.000    0.000 
#    0.000    0.000    0.000    0.000    0.000    0.000 
#
# Total GULP energy -396803.351885 kJ/mol
# GULP energy per Si atom -12400.104746 kJ/mol
# Density = 1.824383 g / cm^3
# Si number density = 18.285453 Si / 1000 Ang^3
#
#
#
# Elastic Constant Matrix: (Units=GPa)
#
#
# Indices 1 2 3 4 5 6 
#
# 1 163.4649 54.4618 77.2728 0.0000 2.6410 0.0000
# 2 54.4618 57.9645 52.0285 0.0000 -0.7430 0.0000
# 3 77.2728 52.0285 103.3555 0.0000 2.7926 0.0000
# 4 0.0000 0.0000 0.0000 22.3445 0.0000 -5.5863
# 5 2.6410 -0.7430 2.7926 0.0000 28.4999 0.0000
# 6 0.0000 0.0000 0.0000 -5.5863 0.0000 30.3004
#
#
#
# Elastic Compliance Matrix: (Units=1/GPa)
#
#
# Indices 1 2 3 4 5 6 
#
# 1 0.010206 -0.005038 -0.005079 0.000000 -0.000579 0.000000
# 2 -0.005038 0.034121 -0.013482 0.000000 0.002677 0.000000
# 3 -0.005079 -0.013482 0.020310 0.000000 -0.001871 0.000000
# 4 0.000000 0.000000 0.000000 0.046916 0.000000 0.008650
# 5 -0.000579 0.002677 -0.001871 0.000000 0.035395 0.000000
# 6 0.000000 0.000000 0.000000 0.008650 0.000000 0.034598
#
#
# Mechanical properties :
#
#
# Convention : Reuss Voigt Hill
#
# Bulk Modulus (GPa) = 57.34158 76.92343 67.13251
# Shear Modulus (GPa) = 21.31677 25.63043 23.47360
#
# Velocity S-wave (km/s) = 3.41805 3.74797 3.58681
# Velocity P-wave (km/s) = 6.85599 7.80315 7.34485
#
# Compressibility (1/GPa) = 0.01743935
#
# Stress axis : x y z
#
# Youngs Moduli (GPa) = 97.97846 29.30706 49.23758
#
# Poissons Ratio (x) = 0.14766 0.25006
# Poissons Ratio (y) = 0.49365 0.66382
# Poissons Ratio (z) = 0.49761 0.39512
#
# Static dielectric constant tensor:
#      x y z
#    x 3.525570 0.000000 0.010120 
#    y 0.000000 3.268390 0.000000 
#    z 0.010120 0.000000 3.546190 
# 
# 
# High freq. dielectric constant tensor:
#      x y z
#    x 1.712610 0.000000 -0.008080 
#    y 0.000000 1.697180 0.000000 
#    z -0.008080 0.000000 1.711440 
# 
# From -- ./inp_files/67258.got.cif
#   From: 2010.06.25/outbox.cif.g09.slc.cpg/sg11_34_cif.got.tgz:67258.got - 2010.06.27 23:14:04.
