data_PCOD8071927
_publ_section_title
;
Structure prediction by ZEFSAII (Michael W. Deem and Ramdas Pophale) SiO2 
 PCOD8071927
Probable space group: P 21/M
;
_chemical_formula_sum "Si O2"
_cell_formula_units_Z 20
_cell_length_a 8.413629
_cell_length_b 18.246483
_cell_length_c 10.803508
_cell_angle_alpha 90.000000
_cell_angle_beta 36.645914
_cell_angle_gamma 90.000000
_cell_volume 989.932617
_symmetry_space_group_name_H-M "P 21/M"
_symmetry_group_IT_number 11
_symmetry_cell_setting 'monoclinic'
loop_
_space_group_symop_operation_xyz
x,y,z
-x,1/2+y,-z
-x,-y,-z
x,1/2-y,z
loop_
_atom_site_type_symbol
_atom_site_label
_atom_site_fract_x
_atom_site_fract_y
_atom_site_fract_z
Si Si1 0.608891 0.044423 0.278142
Si Si2 0.228911 0.331016 0.527672
Si Si3 0.111808 0.960486 0.650477
Si Si4 0.756383 0.087504 0.915393
Si Si5 0.785306 0.664708 0.754636
O O1 0.839639 0.027407 0.232871
O O2 0.738992 0.061281 0.066739
O O3 0.462267 0.115788 0.425247
O O4 0.385911 0.979972 0.406526
O O5 0.329184 0.250000 0.494098
O O6 0.168886 0.341488 0.419889
O O7 0.965435 0.346254 0.772290
O O8 0.028739 0.877588 0.669061
O O9 0.872693 0.018054 0.763632
O O10 0.479867 0.120549 0.038141
O O11 0.775380 0.750000 0.803573
#
# Coordination Sequence:
#
# PCOD8071927 Si02
#       5
#     4   4   4   4   4
#     4   9  20  35  54  78 104 136 174 212 255 306
#     4   9  19  35  53  75 105 140 174 210 254 305
#     4  10  20  35  54  78 105 134 171 215 258 302
#     4  10  19  34  56  78 103 136 174 212 253 306
#     4  10  21  35  52  76 105 136 171 212 258 306
#
# _framework density 20.203396000000001
#
# number of rings (size 3 to 8) (size 9 to 14) (size 15 to 20)
#    0.000    2.400    0.000    1.800    0.000   10.400 
#    0.000    0.000    0.000    0.000    0.000    0.000 
#    0.000    0.000    0.000    0.000    0.000    0.000 
#
# Total GULP energy -247890.936159 kJ/mol
# GULP energy per Si atom -12394.546808 kJ/mol
# Density = 2.015741 g / cm^3
# Si number density = 20.203396 Si / 1000 Ang^3
#
#
#
# Elastic Constant Matrix: (Units=GPa)
#
#
# Indices 1 2 3 4 5 6 
#
# 1 42.0129 38.9744 21.8970 0.0000 -15.9952 0.0000
# 2 38.9744 127.3104 29.7206 0.0000 -24.9556 0.0000
# 3 21.8970 29.7206 84.7604 0.0000 -11.8542 0.0000
# 4 0.0000 0.0000 0.0000 25.2240 0.0000 2.0877
# 5 -15.9952 -24.9556 -11.8542 0.0000 21.9229 0.0000
# 6 0.0000 0.0000 0.0000 2.0877 0.0000 26.4750
#
#
#
# Elastic Compliance Matrix: (Units=1/GPa)
#
#
# Indices 1 2 3 4 5 6 
#
# 1 0.040481 -0.007636 -0.005263 0.000000 0.017997 0.000000
# 2 -0.007636 0.011907 -0.001175 0.000000 0.007347 0.000000
# 3 -0.005263 -0.001175 0.013896 0.000000 0.002337 0.000000
# 4 0.000000 0.000000 0.000000 0.039905 0.000000 -0.003147
# 5 0.017997 0.007347 0.002337 0.000000 0.068372 0.000000
# 6 0.000000 0.000000 0.000000 -0.003147 0.000000 0.038020
#
#
# Mechanical properties :
#
#
# Convention : Reuss Voigt Hill
#
# Bulk Modulus (GPa) = 26.22197 48.36307 37.29252
# Shear Modulus (GPa) = 19.72830 25.62382 22.67606
#
# Velocity S-wave (km/s) = 3.12826 3.56517 3.35384
# Velocity P-wave (km/s) = 5.10443 6.39823 5.78760
#
# Compressibility (1/GPa) = 0.03813596
#
# Stress axis : x y z
#
# Youngs Moduli (GPa) = 24.70275 83.98359 71.96104
#
# Poissons Ratio (x) = 0.64132 0.37876
# Poissons Ratio (y) = 0.18864 0.08454
# Poissons Ratio (z) = 0.13002 0.09866
#
# Static dielectric constant tensor:
#      x y z
#    x 3.255600 0.000000 -0.126310 
#    y 0.000000 3.807840 0.000000 
#    z -0.126310 0.000000 3.798620 
# 
# 
# High freq. dielectric constant tensor:
#      x y z
#    x 1.755340 0.000000 -0.006700 
#    y 0.000000 1.793260 0.000000 
#    z -0.006700 0.000000 1.798850 
# 
# From -- ./inp_files/1888.got.cif
#   From: 2010.06.25/outbox.cif.g09.slc.cpg/sg11_1_cif.got.tgz:1888.got - 2010.06.27 23:14:04.
