data_PCOD8071815
_publ_section_title
;
Structure prediction by ZEFSAII (Michael W. Deem and Ramdas Pophale) SiO2 
 PCOD8071815
Probable space group: P 21/M
;
_chemical_formula_sum "Si O2"
_cell_formula_units_Z 20
_cell_length_a 26.949982
_cell_length_b 8.404683
_cell_length_c 9.663461
_cell_angle_alpha 90.000000
_cell_angle_beta 28.478708
_cell_angle_gamma 90.000000
_cell_volume 1043.705665
_symmetry_space_group_name_H-M "P 21/M"
_symmetry_group_IT_number 11
_symmetry_cell_setting 'monoclinic'
loop_
_space_group_symop_operation_xyz
x,y,z
-x,1/2+y,-z
-x,-y,-z
x,1/2-y,z
loop_
_atom_site_type_symbol
_atom_site_label
_atom_site_fract_x
_atom_site_fract_y
_atom_site_fract_z
Si Si1 0.884853 0.061528 0.801803
Si Si2 0.288090 0.938195 0.983177
Si Si3 0.444843 0.564599 0.369694
Si Si4 0.669709 0.064457 0.816896
Si Si5 0.728741 0.934616 0.393253
O O1 0.882450 0.250000 0.823182
O O2 0.816985 0.004213 0.835809
O O3 0.000000 0.000000 0.500000
O O4 0.837347 0.985397 0.057212
O O5 0.289718 0.750000 0.985798
O O6 0.388440 0.993905 0.648868
O O7 0.294587 0.007750 0.122150
O O8 0.474763 0.750000 0.300582
O O9 0.366537 0.536352 0.434536
O O10 0.547048 0.460874 0.097397
O O11 0.695376 0.250000 0.743121
O O12 0.735538 0.971617 0.539699
O O13 0.707483 0.750000 0.419499
#
# Coordination Sequence:
#
# PCOD8071815 Si02
#       5
#     4   4   4   4   4
#     4  10  20  39  62  83 103 132 172 218 266 318
#     4   8  18  34  54  78 107 138 175 217 261 310
#     4  10  19  34  53  77 108 145 181 217 257 310
#     4  11  20  33  52  78 110 144 175 215 263 310
#     4  11  22  36  53  78 107 141 180 219 258 308
#
# _framework density 19.162489000000001
#
# number of rings (size 3 to 8) (size 9 to 14) (size 15 to 20)
#    0.000    2.000    0.000    6.000    0.000    0.000 
#    0.000   12.000    0.000    0.000    0.000    0.000 
#    0.000    0.000    0.000    0.000    0.000    0.000 
#
# Total GULP energy -248036.894287 kJ/mol
# GULP energy per Si atom -12401.844714 kJ/mol
# Density = 1.911887 g / cm^3
# Si number density = 19.162489 Si / 1000 Ang^3
#
#
#
# Elastic Constant Matrix: (Units=GPa)
#
#
# Indices 1 2 3 4 5 6 
#
# 1 83.5774 19.5555 71.9922 0.0000 26.1931 0.0000
# 2 19.5555 60.2135 23.1506 0.0000 6.0001 0.0000
# 3 71.9922 23.1506 140.1120 0.0000 10.4269 0.0000
# 4 0.0000 0.0000 0.0000 32.5491 0.0000 -0.9200
# 5 26.1931 6.0001 10.4269 0.0000 36.1243 0.0000
# 6 0.0000 0.0000 0.0000 -0.9200 0.0000 20.2270
#
#
#
# Elastic Compliance Matrix: (Units=1/GPa)
#
#
# Indices 1 2 3 4 5 6 
#
# 1 0.029557 -0.002719 -0.013466 0.000000 -0.017093 0.000000
# 2 -0.002719 0.018149 -0.001558 0.000000 -0.000594 0.000000
# 3 -0.013466 -0.001558 0.013865 0.000000 0.006020 0.000000
# 4 0.000000 0.000000 0.000000 0.030762 0.000000 0.001399
# 5 -0.017093 -0.000594 0.006020 0.000000 0.038437 0.000000
# 6 0.000000 0.000000 0.000000 0.001399 0.000000 0.049503
#
#
# Mechanical properties :
#
#
# Convention : Reuss Voigt Hill
#
# Bulk Modulus (GPa) = 38.33324 57.03327 47.68326
# Shear Modulus (GPa) = 22.27636 29.06039 25.66837
#
# Velocity S-wave (km/s) = 3.41324 3.89848 3.66390
# Velocity P-wave (km/s) = 5.96501 7.07756 6.54497
#
# Compressibility (1/GPa) = 0.02608702
#
# Stress axis : x y z
#
# Youngs Moduli (GPa) = 33.83254 55.10088 72.12150
#
# Poissons Ratio (x) = 0.14981 0.97118
# Poissons Ratio (y) = 0.09198 0.11233
# Poissons Ratio (z) = 0.45558 0.08582
#
# Static dielectric constant tensor:
#      x y z
#    x 3.531670 0.000000 0.329270 
#    y 0.000000 3.362620 0.000000 
#    z 0.329270 0.000000 3.502670 
# 
# 
# High freq. dielectric constant tensor:
#      x y z
#    x 1.737460 0.000000 0.017500 
#    y 0.000000 1.740160 0.000000 
#    z 0.017500 0.000000 1.741000 
# 
# From -- ./inp_files/15948.got.cif
#   From: 2010.06.25/outbox.cif.g09.slc.cpg/sg11_8_cif.got.tgz:15948.got - 2010.06.27 23:14:04.
