data_PCOD8071817
_publ_section_title
;
Structure prediction by ZEFSAII (Michael W. Deem and Ramdas Pophale) SiO2 
 PCOD8071817
Probable space group: P 21/M
;
_chemical_formula_sum "Si O2"
_cell_formula_units_Z 32
_cell_length_a 12.701399
_cell_length_b 9.330184
_cell_length_c 25.394365
_cell_angle_alpha 90.000000
_cell_angle_beta 145.937194
_cell_angle_gamma 90.000000
_cell_volume 1685.565885
_symmetry_space_group_name_H-M "P 21/M"
_symmetry_group_IT_number 11
_symmetry_cell_setting 'monoclinic'
loop_
_space_group_symop_operation_xyz
x,y,z
-x,1/2+y,-z
-x,-y,-z
x,1/2-y,z
loop_
_atom_site_type_symbol
_atom_site_label
_atom_site_fract_x
_atom_site_fract_y
_atom_site_fract_z
Si Si1 0.618227 0.921353 0.002892
Si Si2 0.348757 0.908823 0.300415
Si Si3 0.329728 0.596297 0.415585
Si Si4 0.981563 0.902312 0.710360
Si Si5 0.004109 0.089480 0.161458
Si Si6 0.127677 0.416337 0.625520
Si Si7 0.231754 0.084069 0.548629
Si Si8 0.342707 0.587649 0.799714
O O1 0.624884 0.750000 0.017914
O O2 0.534644 0.949849 0.909619
O O3 0.500000 0.000000 0.000000
O O4 0.824805 0.986723 0.082377
O O5 0.335847 0.750000 0.268444
O O6 0.306316 0.890126 0.343957
O O7 0.558789 0.972519 0.378721
O O8 0.186795 0.013760 0.209587
O O9 0.500000 0.500000 0.500000
O O10 0.359237 0.750000 0.454393
O O11 0.144977 0.528463 0.365891
O O12 0.918490 0.750000 0.658820
O O13 0.949372 0.891235 0.758622
O O14 0.196284 0.932449 0.786686
O O15 0.971909 0.250000 0.123705
O O16 0.099317 0.250000 0.627179
O O17 0.204237 0.440393 0.598942
O O18 0.288673 0.481308 0.730159
O O19 0.927258 0.496661 0.549587
O O20 0.209781 0.250000 0.523569
O O21 0.345246 0.750000 0.778459
#
# Coordination Sequence:
#
# PCOD8071817 Si02
#       8
#     4   4   4   4   4   4   4   4
#     4  11  21  35  55  79 108 146 184 219 264 318
#     4   9  19  35  54  74  98 139 180 212 261 320
#     4  10  20  31  44  68  99 134 173 211 252 305
#     4   9  18  33  48  66  99 139 174 207 253 307
#     4  10  19  34  53  78 108 138 175 220 260 308
#     4  10  21  35  55  84 109 135 179 229 271 316
#     4   9  19  38  59  78 107 143 178 221 274 325
#     4  10  21  36  53  75 107 145 176 213 268 319
#
# _framework density 18.984724
#
# number of rings (size 3 to 8) (size 9 to 14) (size 15 to 20)
#    0.000    2.250    1.250    1.500    1.750    3.500 
#    0.000    0.000    0.000    0.750    0.000    0.000 
#    0.000    0.000    0.000    0.000    0.000    0.000 
#
# Total GULP energy -396527.038294 kJ/mol
# GULP energy per Si atom -12391.469947 kJ/mol
# Density = 1.894151 g / cm^3
# Si number density = 18.984724 Si / 1000 Ang^3
#
#
#
# Elastic Constant Matrix: (Units=GPa)
#
#
# Indices 1 2 3 4 5 6 
#
# 1 34.1872 22.6893 14.6311 0.0000 13.4550 0.0000
# 2 22.6893 140.9604 65.8522 0.0000 13.5080 0.0000
# 3 14.6311 65.8522 93.9659 0.0000 14.8856 0.0000
# 4 0.0000 0.0000 0.0000 34.4592 0.0000 4.3244
# 5 13.4550 13.5080 14.8856 0.0000 30.3233 0.0000
# 6 0.0000 0.0000 0.0000 4.3244 0.0000 24.4830
#
#
#
# Elastic Compliance Matrix: (Units=1/GPa)
#
#
# Indices 1 2 3 4 5 6 
#
# 1 0.038251 -0.004539 -0.000441 0.000000 -0.014734 0.000000
# 2 -0.004539 0.011124 -0.007181 0.000000 0.000584 0.000000
# 3 -0.000441 -0.007181 0.016488 0.000000 -0.004699 0.000000
# 4 0.000000 0.000000 0.000000 0.029678 0.000000 -0.005242
# 5 -0.014734 0.000584 -0.004699 0.000000 0.041562 0.000000
# 6 0.000000 0.000000 0.000000 -0.005242 0.000000 0.041771
#
#
# Mechanical properties :
#
#
# Convention : Reuss Voigt Hill
#
# Bulk Modulus (GPa) = 24.07315 52.82875 38.45095
# Shear Modulus (GPa) = 23.03698 28.91581 25.97640
#
# Velocity S-wave (km/s) = 3.48724 3.90694 3.70304
# Velocity P-wave (km/s) = 5.37794 6.94547 6.21135
#
# Compressibility (1/GPa) = 0.04154005
#
# Stress axis : x y z
#
# Youngs Moduli (GPa) = 26.14328 89.89769 60.65003
#
# Poissons Ratio (x) = 0.40805 0.02673
# Poissons Ratio (y) = 0.11867 0.43555
# Poissons Ratio (z) = 0.01152 0.64559
#
# Static dielectric constant tensor:
#      x y z
#    x 3.267640 0.000000 0.140770 
#    y 0.000000 3.977940 0.000000 
#    z 0.140770 0.000000 3.614320 
# 
# 
# High freq. dielectric constant tensor:
#      x y z
#    x 1.708310 0.000000 0.020450 
#    y 0.000000 1.751780 0.000000 
#    z 0.020450 0.000000 1.727440 
# 
# From -- ./inp_files/71626.got.cif
#   From: 2010.06.25/outbox.cif.g09.slc.cpg/sg11_36_cif.got.tgz:71626.got - 2010.06.27 23:14:04.
