data_PCOD8071468
_publ_section_title
;
Structure prediction by ZEFSAII (Michael W. Deem and Ramdas Pophale) SiO2 
 PCOD8071468
Probable space group: P 21/M
;
_chemical_formula_sum "Si O2"
_cell_formula_units_Z 32
_cell_length_a 30.283072
_cell_length_b 9.322380
_cell_length_c 12.531634
_cell_angle_alpha 90.000000
_cell_angle_beta 152.430584
_cell_angle_gamma 90.000000
_cell_volume 1637.379287
_symmetry_space_group_name_H-M "P 21/M"
_symmetry_group_IT_number 11
_symmetry_cell_setting 'monoclinic'
loop_
_space_group_symop_operation_xyz
x,y,z
-x,1/2+y,-z
-x,-y,-z
x,1/2-y,z
loop_
_atom_site_type_symbol
_atom_site_label
_atom_site_fract_x
_atom_site_fract_y
_atom_site_fract_z
Si Si1 0.095434 0.082749 0.730129
Si Si2 0.431756 0.085695 0.154545
Si Si3 0.225571 0.083205 0.644162
Si Si4 0.809738 0.584369 0.843521
Si Si5 0.636431 0.084594 0.557478
Si Si6 0.194744 0.591639 0.770600
Si Si7 0.600992 0.092032 0.718760
Si Si8 0.905144 0.582381 0.831248
O O1 0.086089 0.250000 0.682035
O O2 0.174749 0.008563 0.828409
O O3 0.122102 0.058255 0.910022
O O4 0.000000 0.000000 0.500000
O O5 0.416768 0.250000 0.150594
O O6 0.525726 0.061543 0.281990
O O7 0.459325 0.016895 0.332557
O O8 0.337309 0.033556 0.889213
O O9 0.214249 0.250000 0.649473
O O10 0.182492 0.050345 0.436351
O O11 0.163674 0.990279 0.595905
O O12 0.783873 0.750000 0.772442
O O13 0.708391 0.505336 0.639004
O O14 0.867987 0.526437 0.866183
O O15 0.667479 0.250000 0.614831
O O16 0.639151 0.033748 0.686708
O O17 0.144760 0.750000 0.669745
O O18 0.307640 0.609873 0.008903
O O19 0.553014 0.250000 0.603131
O O20 0.930741 0.750000 0.889288
O O21 0.000000 0.500000 0.000000
#
# Coordination Sequence:
#
# PCOD8071468 Si02
#       8
#     4   4   4   4   4   4   4   4
#     4  11  23  37  55  81 113 147 185 229 285 345
#     4   9  18  31  52  81 113 150 190 231 276 333
#     4   9  19  37  58  82 114 149 189 235 285 335
#     4  10  23  41  59  82 113 150 191 234 282 340
#     4  10  19  33  53  80 114 151 190 230 280 334
#     4  10  19  33  54  81 114 148 183 228 277 334
#     4   9  17  29  47  75 112 151 186 224 269 322
#     4  10  23  43  64  85 109 144 190 239 289 337
#
# _framework density 19.543424999999999
#
# number of rings (size 3 to 8) (size 9 to 14) (size 15 to 20)
#    0.000    2.250    1.250    1.125    1.750    3.000 
#    0.000    0.625    0.000    0.000    0.000    0.000 
#    0.000    0.000    0.000    0.000    0.000    0.000 
#
# Total GULP energy -396569.434756 kJ/mol
# GULP energy per Si atom -12392.794836 kJ/mol
# Density = 1.949894 g / cm^3
# Si number density = 19.543425 Si / 1000 Ang^3
#
#
#
# Elastic Constant Matrix: (Units=GPa)
#
#
# Indices 1 2 3 4 5 6 
#
# 1 148.1560 68.8418 57.3287 0.0000 3.2378 0.0000
# 2 68.8418 89.8100 42.9106 0.0000 2.0811 0.0000
# 3 57.3287 42.9106 101.7329 0.0000 2.1614 0.0000
# 4 0.0000 0.0000 0.0000 24.0225 0.0000 6.8035
# 5 3.2378 2.0811 2.1614 0.0000 29.4799 0.0000
# 6 0.0000 0.0000 0.0000 6.8035 0.0000 33.4573
#
#
#
# Elastic Compliance Matrix: (Units=1/GPa)
#
#
# Indices 1 2 3 4 5 6 
#
# 1 0.011366 -0.007071 -0.003412 0.000000 -0.000499 0.000000
# 2 -0.007071 0.018353 -0.003751 0.000000 -0.000244 0.000000
# 3 -0.003412 -0.003751 0.013342 0.000000 -0.000339 0.000000
# 4 0.000000 0.000000 0.000000 0.044172 0.000000 -0.008982
# 5 -0.000499 -0.000244 -0.000339 0.000000 0.034018 0.000000
# 6 0.000000 0.000000 0.000000 -0.008982 0.000000 0.031715
#
#
# Mechanical properties :
#
#
# Convention : Reuss Voigt Hill
#
# Bulk Modulus (GPa) = 68.52892 75.31792 71.92342
# Shear Modulus (GPa) = 26.83863 28.76647 27.80255
#
# Velocity S-wave (km/s) = 3.70980 3.84073 3.77583
# Velocity P-wave (km/s) = 7.31377 7.63483 7.47603
#
# Compressibility (1/GPa) = 0.01459238
#
# Stress axis : x y z
#
# Youngs Moduli (GPa) = 87.97899 54.48837 74.95126
#
# Poissons Ratio (x) = 0.38527 0.25575
# Poissons Ratio (y) = 0.62208 0.28117
# Poissons Ratio (z) = 0.30020 0.20441
#
# Static dielectric constant tensor:
#      x y z
#    x 3.770130 0.000000 0.105880 
#    y 0.000000 3.852510 0.000000 
#    z 0.105880 0.000000 3.731720 
# 
# 
# High freq. dielectric constant tensor:
#      x y z
#    x 1.742280 0.000000 0.010980 
#    y 0.000000 1.758940 0.000000 
#    z 0.010980 0.000000 1.769850 
# 
# From -- ./inp_files/45346.got.cif
#   From: 2010.06.25/outbox.cif.g09.slc.cpg/sg11_23_cif.got.tgz:45346.got - 2010.06.27 23:14:04.
