data_PCOD8071586
_publ_section_title
;
Structure prediction by ZEFSAII (Michael W. Deem and Ramdas Pophale) SiO2 
 PCOD8071586
Probable space group: P 21/M
;
_chemical_formula_sum "Si O2"
_cell_formula_units_Z 32
_cell_length_a 11.789191
_cell_length_b 8.927801
_cell_length_c 19.656894
_cell_angle_alpha 90.000000
_cell_angle_beta 49.507426
_cell_angle_gamma 90.000000
_cell_volume 1573.392170
_symmetry_space_group_name_H-M "P 21/M"
_symmetry_group_IT_number 11
_symmetry_cell_setting 'monoclinic'
loop_
_space_group_symop_operation_xyz
x,y,z
-x,1/2+y,-z
-x,-y,-z
x,1/2-y,z
loop_
_atom_site_type_symbol
_atom_site_label
_atom_site_fract_x
_atom_site_fract_y
_atom_site_fract_z
Si Si1 0.433448 0.075048 0.833277
Si Si2 0.083546 0.572764 0.164326
Si Si3 0.870049 0.427901 0.006158
Si Si4 0.512998 0.079270 0.323856
Si Si5 0.025943 0.579384 0.419070
Si Si6 0.737543 0.426673 0.778283
Si Si7 0.711309 0.920930 0.473877
Si Si8 0.219848 0.919449 0.683200
O O1 0.391722 0.250000 0.851947
O O2 0.563161 0.034451 0.837118
O O3 0.289955 0.975275 0.903476
O O4 0.497836 0.033470 0.734658
O O5 0.086019 0.750000 0.161555
O O6 0.206162 0.510577 0.170529
O O7 0.921288 0.523837 0.251030
O O8 0.118663 0.510732 0.075422
O O9 0.885621 0.250000 0.004568
O O10 0.000000 0.500000 0.000000
O O11 0.475658 0.250000 0.316041
O O12 0.392487 0.019928 0.424918
O O13 0.678724 0.071563 0.289586
O O14 0.060631 0.750000 0.423772
O O15 0.882799 0.563794 0.427274
O O16 0.000000 0.500000 0.500000
O O17 0.163342 0.506786 0.322701
O O18 0.764450 0.250000 0.766496
O O19 0.667621 0.750000 0.473756
O O20 0.683733 0.022227 0.418306
O O21 0.167442 0.750000 0.690092
#
# Coordination Sequence:
#
# PCOD8071586 Si02
#       8
#     4   4   4   4   4   4   4   4
#     4  11  23  39  62  89 120 156 193 242 300 354
#     4  10  21  41  65  85 113 158 202 241 296 361
#     4  11  24  42  67  94 121 155 196 243 296 358
#     4  10  22  38  56  83 120 158 200 250 299 351
#     4  10  19  33  55  80 112 154 199 246 289 341
#     4   9  19  38  60  84 116 154 198 244 290 348
#     4  10  20  36  57  80 113 160 202 243 299 357
#     4  11  22  35  55  86 120 152 193 250 300 349
#
# _framework density 20.338222999999999
#
# number of rings (size 3 to 8) (size 9 to 14) (size 15 to 20)
#    0.000    1.750    1.250    3.000    0.000    5.500 
#    0.000    1.875    0.000    0.000    0.000    0.000 
#    0.000    0.000    0.000    0.000    0.000    0.000 
#
# Total GULP energy -396866.970025 kJ/mol
# GULP energy per Si atom -12402.092813 kJ/mol
# Density = 2.029193 g / cm^3
# Si number density = 20.338223 Si / 1000 Ang^3
#
#
#
# Elastic Constant Matrix: (Units=GPa)
#
#
# Indices 1 2 3 4 5 6 
#
# 1 110.1732 30.5385 52.3180 0.0000 5.0605 0.0000
# 2 30.5385 38.9471 21.4856 0.0000 10.9013 0.0000
# 3 52.3180 21.4856 114.0724 0.0000 8.6037 0.0000
# 4 0.0000 0.0000 0.0000 27.5428 0.0000 1.3411
# 5 5.0605 10.9013 8.6037 0.0000 39.3585 0.0000
# 6 0.0000 0.0000 0.0000 1.3411 0.0000 22.4860
#
#
#
# Elastic Compliance Matrix: (Units=1/GPa)
#
#
# Indices 1 2 3 4 5 6 
#
# 1 0.013626 -0.008514 -0.004770 0.000000 0.001649 0.000000
# 2 -0.008514 0.035925 -0.002230 0.000000 -0.008368 0.000000
# 3 -0.004770 -0.002230 0.011470 0.000000 -0.001276 0.000000
# 4 0.000000 0.000000 0.000000 0.036413 0.000000 -0.002172
# 5 0.001649 -0.008368 -0.001276 0.000000 0.027792 0.000000
# 6 0.000000 0.000000 0.000000 -0.002172 0.000000 0.044602
#
#
# Mechanical properties :
#
#
# Convention : Reuss Voigt Hill
#
# Bulk Modulus (GPa) = 33.34265 52.43077 42.88671
# Shear Modulus (GPa) = 23.71302 28.46750 26.09026
#
# Velocity S-wave (km/s) = 3.41828 3.74532 3.58553
# Velocity P-wave (km/s) = 5.65767 6.67373 6.18659
#
# Compressibility (1/GPa) = 0.02999162
#
# Stress axis : x y z
#
# Youngs Moduli (GPa) = 73.38827 27.83610 87.18020
#
# Poissons Ratio (x) = 0.23701 0.41586
# Poissons Ratio (y) = 0.62485 0.19444
# Poissons Ratio (z) = 0.35008 0.06208
#
# Static dielectric constant tensor:
#      x y z
#    x 3.999990 0.000000 0.136100 
#    y 0.000000 3.499320 0.000000 
#    z 0.136100 0.000000 3.772930 
# 
# 
# High freq. dielectric constant tensor:
#      x y z
#    x 1.805350 0.000000 0.001160 
#    y 0.000000 1.775080 0.000000 
#    z 0.001160 0.000000 1.800690 
# 
# From -- ./inp_files/64338.got.cif
#   From: 2010.06.25/outbox.cif.g09.slc.cpg/sg11_33_cif.got.tgz:64338.got - 2010.06.27 23:14:04.
