data_PCOD8071881
_publ_section_title
;
Structure prediction by ZEFSAII (Michael W. Deem and Ramdas Pophale) SiO2 
 PCOD8071881
Probable space group: P 21/M
;
_chemical_formula_sum "Si O2"
_cell_formula_units_Z 20
_cell_length_a 14.161062
_cell_length_b 13.263965
_cell_length_c 10.043397
_cell_angle_alpha 90.000000
_cell_angle_beta 28.513743
_cell_angle_gamma 90.000000
_cell_volume 900.543147
_symmetry_space_group_name_H-M "P 21/M"
_symmetry_group_IT_number 11
_symmetry_cell_setting 'monoclinic'
loop_
_space_group_symop_operation_xyz
x,y,z
-x,1/2+y,-z
-x,-y,-z
x,1/2-y,z
loop_
_atom_site_type_symbol
_atom_site_label
_atom_site_fract_x
_atom_site_fract_y
_atom_site_fract_z
Si Si1 0.547674 0.365119 0.312154
Si Si2 0.964636 0.069713 0.858587
Si Si3 0.961425 0.633882 0.529999
Si Si4 0.347723 0.522998 0.071235
Si Si5 0.870187 0.637505 0.076498
O O1 0.569973 0.250000 0.234985
O O2 0.738278 0.397896 0.159485
O O3 0.366214 0.377504 0.638820
O O4 0.524822 0.434589 0.209060
O O5 0.982326 0.947414 0.851109
O O6 0.046752 0.105144 0.615724
O O7 0.085798 0.126653 0.821426
O O8 0.925433 0.750000 0.600237
O O9 0.173680 0.601962 0.329212
O O10 0.774295 0.576155 0.827428
O O11 0.500000 0.500000 0.000000
O O12 0.931334 0.750000 0.950949
#
# Coordination Sequence:
#
# PCOD8071881 Si02
#       5
#     4   4   4   4   4
#     4  10  20  36  57  78 104 139 177 216 264 321
#     4  10  19  34  55  78 107 140 177 217 257 314
#     4  10  21  37  56  78 108 146 182 219 270 327
#     4  10  20  34  56  83 106 134 180 230 268 314
#     4  10  20  33  54  81 107 140 177 216 263 311
#
# _framework density 22.208821
#
# number of rings (size 3 to 8) (size 9 to 14) (size 15 to 20)
#    0.000    2.000    0.000    5.400    0.000    3.200 
#    0.000   10.000    0.000   12.000    0.000    0.000 
#    0.000    0.000    0.000    0.000    0.000    0.000 
#
# Total GULP energy -247934.405134 kJ/mol
# GULP energy per Si atom -12396.720257 kJ/mol
# Density = 2.215827 g / cm^3
# Si number density = 22.208821 Si / 1000 Ang^3
#
#
#
# Elastic Constant Matrix: (Units=GPa)
#
#
# Indices 1 2 3 4 5 6 
#
# 1 48.1437 -2.0375 10.0034 0.0000 -11.6271 0.0000
# 2 -2.0375 170.8492 22.5749 0.0000 5.4615 0.0000
# 3 10.0034 22.5749 28.7177 0.0000 -6.6193 0.0000
# 4 0.0000 0.0000 0.0000 33.2299 0.0000 2.3594
# 5 -11.6271 5.4615 -6.6193 0.0000 22.7635 0.0000
# 6 0.0000 0.0000 0.0000 2.3594 0.0000 21.9404
#
#
#
# Elastic Compliance Matrix: (Units=1/GPa)
#
#
# Indices 1 2 3 4 5 6 
#
# 1 0.024763 0.000875 -0.006910 0.000000 0.010429 0.000000
# 2 0.000875 0.006799 -0.006348 0.000000 -0.003030 0.000000
# 3 -0.006910 -0.006348 0.044756 0.000000 0.011008 0.000000
# 4 0.000000 0.000000 0.000000 0.030325 0.000000 -0.003261
# 5 0.010429 -0.003030 0.011008 0.000000 0.053185 0.000000
# 6 0.000000 0.000000 0.000000 -0.003261 0.000000 0.045929
#
#
# Mechanical properties :
#
#
# Convention : Reuss Voigt Hill
#
# Bulk Modulus (GPa) = 19.39777 34.31024 26.85400
# Shear Modulus (GPa) = 20.18525 30.06478 25.12501
#
# Velocity S-wave (km/s) = 3.01804 3.68330 3.36714
# Velocity P-wave (km/s) = 4.57143 5.79408 5.21869
#
# Compressibility (1/GPa) = 0.05155233
#
# Stress axis : x y z
#
# Youngs Moduli (GPa) = 40.38356 147.07592 22.34337
#
# Poissons Ratio (x) = -0.12868 0.15438
# Poissons Ratio (y) = -0.03533 0.14184
# Poissons Ratio (z) = 0.27903 0.93365
#
# Static dielectric constant tensor:
#      x y z
#    x 3.804280 0.000000 -0.276110 
#    y 0.000000 4.224920 0.000000 
#    z -0.276110 0.000000 3.885080 
# 
# 
# High freq. dielectric constant tensor:
#      x y z
#    x 1.862490 0.000000 -0.017400 
#    y 0.000000 1.885870 0.000000 
#    z -0.017400 0.000000 1.861440 
# 
# From -- ./inp_files/34954.got.cif
#   From: 2010.06.25/outbox.cif.g09.slc.cpg/sg11_18_cif.got.tgz:34954.got - 2010.06.27 23:14:04.
