data_PCOD8071247
_publ_section_title
;
Structure prediction by ZEFSAII (Michael W. Deem and Ramdas Pophale) SiO2 
 PCOD8071247
Probable space group: P 21/M
;
_chemical_formula_sum "Si O2"
_cell_formula_units_Z 24
_cell_length_a 16.430133
_cell_length_b 9.178323
_cell_length_c 23.124158
_cell_angle_alpha 90.000000
_cell_angle_beta 22.911447
_cell_angle_gamma 90.000000
_cell_volume 1357.574446
_symmetry_space_group_name_H-M "P 21/M"
_symmetry_group_IT_number 11
_symmetry_cell_setting 'monoclinic'
loop_
_space_group_symop_operation_xyz
x,y,z
-x,1/2+y,-z
-x,-y,-z
x,1/2-y,z
loop_
_atom_site_type_symbol
_atom_site_label
_atom_site_fract_x
_atom_site_fract_y
_atom_site_fract_z
Si Si1 0.296402 0.917294 0.152638
Si Si2 0.720635 0.076994 0.348832
Si Si3 0.353067 0.082455 0.918578
Si Si4 0.011626 0.082357 0.052392
Si Si5 0.809216 0.081882 0.652240
Si Si6 0.935083 0.081655 0.809651
O O1 0.362606 0.750000 0.116438
O O2 0.221590 0.979989 0.262997
O O3 0.108112 0.935645 0.230220
O O4 0.500000 0.000000 0.000000
O O5 0.697007 0.250000 0.371183
O O6 0.500000 0.000000 0.500000
O O7 0.864670 0.015671 0.305970
O O8 0.826987 0.035845 0.217653
O O9 0.305743 0.250000 0.967885
O O10 0.236554 0.048663 0.934400
O O11 0.600470 0.055457 0.750505
O O12 0.268138 0.976092 0.023628
O O13 0.987544 0.250000 0.052694
O O14 0.000000 0.000000 0.000000
O O15 0.869453 0.250000 0.614875
O O16 0.000000 0.000000 0.500000
O O17 0.975530 0.250000 0.799876
#
# Coordination Sequence:
#
# PCOD8071247 Si02
#       6
#     4   4   4   4   4   4
#     4  10  20  34  56  82 108 139 179 224 265 316
#     4  10  21  38  58  81 111 144 177 221 272 320
#     4   9  18  35  56  76 106 143 181 221 267 319
#     4   9  19  35  56  80 105 137 178 220 264 318
#     4  10  21  37  54  76 110 145 178 222 270 316
#     4  10  19  32  55  85 110 137 179 222 266 322
#
# _framework density 17.678588999999999
#
# number of rings (size 3 to 8) (size 9 to 14) (size 15 to 20)
#    0.000    2.333    1.667    2.000    0.000    5.333 
#    3.000    0.000    0.000    0.000    0.000    0.000 
#    0.000    0.000    0.000    0.000    0.000    0.000 
#
# Total GULP energy -297574.139139 kJ/mol
# GULP energy per Si atom -12398.922464 kJ/mol
# Density = 1.763835 g / cm^3
# Si number density = 17.678589 Si / 1000 Ang^3
#
#
#
# Elastic Constant Matrix: (Units=GPa)
#
#
# Indices 1 2 3 4 5 6 
#
# 1 136.1568 56.3663 77.4557 0.0000 3.7849 0.0000
# 2 56.3663 80.2714 62.0563 0.0000 -1.4329 0.0000
# 3 77.4557 62.0563 143.0136 0.0000 -6.4468 0.0000
# 4 0.0000 0.0000 0.0000 36.2488 0.0000 -1.1275
# 5 3.7849 -1.4329 -6.4468 0.0000 25.9008 0.0000
# 6 0.0000 0.0000 0.0000 -1.1275 0.0000 30.2976
#
#
#
# Elastic Compliance Matrix: (Units=1/GPa)
#
#
# Indices 1 2 3 4 5 6 
#
# 1 0.012085 -0.005075 -0.004486 0.000000 -0.003163 0.000000
# 2 -0.005075 0.020903 -0.006307 0.000000 0.000328 0.000000
# 3 -0.004486 -0.006307 0.012310 0.000000 0.003371 0.000000
# 4 0.000000 0.000000 0.000000 0.027619 0.000000 0.001028
# 5 -0.003163 0.000328 0.003371 0.000000 0.039928 0.000000
# 6 0.000000 0.000000 0.000000 0.001028 0.000000 0.033044
#
#
# Mechanical properties :
#
#
# Convention : Reuss Voigt Hill
#
# Bulk Modulus (GPa) = 73.72709 83.46648 78.59679
# Shear Modulus (GPa) = 27.45054 29.39367 28.42211
#
# Velocity S-wave (km/s) = 3.94478 4.08201 4.01398
# Velocity P-wave (km/s) = 7.90842 8.33864 8.12638
#
# Compressibility (1/GPa) = 0.01356354
#
# Stress axis : x y z
#
# Youngs Moduli (GPa) = 82.74660 47.84064 81.23163
#
# Poissons Ratio (x) = 0.24277 0.36439
# Poissons Ratio (y) = 0.41991 0.51232
# Poissons Ratio (z) = 0.37119 0.30172
#
# Static dielectric constant tensor:
#      x y z
#    x 3.753960 0.000000 0.000700 
#    y 0.000000 3.334120 0.000000 
#    z 0.000700 0.000000 3.206710 
# 
# 
# High freq. dielectric constant tensor:
#      x y z
#    x 1.691340 0.000000 -0.010990 
#    y 0.000000 1.687910 0.000000 
#    z -0.010990 0.000000 1.668450 
# 
# From -- ./inp_files/46564.got.cif
#   From: 2010.06.25/outbox.cif.g09.slc.cpg/sg11_24_cif.got.tgz:46564.got - 2010.06.27 23:14:04.
