data_PCOD8071211
_publ_section_title
;
Structure prediction by ZEFSAII (Michael W. Deem and Ramdas Pophale) SiO2 
 PCOD8071211
Probable space group: P 21/M
;
_chemical_formula_sum "Si O2"
_cell_formula_units_Z 32
_cell_length_a 14.819011
_cell_length_b 12.872269
_cell_length_c 14.877001
_cell_angle_alpha 90.000000
_cell_angle_beta 144.102499
_cell_angle_gamma 90.000000
_cell_volume 1663.937613
_symmetry_space_group_name_H-M "P 21/M"
_symmetry_group_IT_number 11
_symmetry_cell_setting 'monoclinic'
loop_
_space_group_symop_operation_xyz
x,y,z
-x,1/2+y,-z
-x,-y,-z
x,1/2-y,z
loop_
_atom_site_type_symbol
_atom_site_label
_atom_site_fract_x
_atom_site_fract_y
_atom_site_fract_z
Si Si1 0.765822 0.993751 0.292830
Si Si2 0.029460 0.627375 0.413413
Si Si3 0.000673 0.502451 0.218956
Si Si4 0.557508 0.369852 0.671067
Si Si5 0.472387 0.365295 0.794947
Si Si6 0.836055 0.976948 0.908742
Si Si7 0.221973 0.865143 0.858269
Si Si8 0.743025 0.867961 0.671624
O O1 0.712187 0.073193 0.173440
O O2 0.842975 0.058061 0.435059
O O3 0.869204 0.903207 0.331847
O O4 0.614099 0.943265 0.210209
O O5 0.058784 0.750000 0.448655
O O6 0.037146 0.600527 0.312812
O O7 0.934428 0.413640 0.230358
O O8 0.150890 0.453284 0.293160
O O9 0.868276 0.539732 0.040912
O O10 0.607004 0.250000 0.715204
O O11 0.462698 0.401912 0.684018
O O12 0.716731 0.430909 0.790477
O O13 0.437009 0.391453 0.493225
O O14 0.401631 0.250000 0.749286
O O15 0.652379 0.364753 0.962592
O O16 0.768031 0.877441 0.800040
O O17 0.000000 0.000000 0.000000
O O18 0.180425 0.750000 0.791819
O O19 0.785140 0.750000 0.675982
#
# Coordination Sequence:
#
# PCOD8071211 Si02
#       8
#     4   4   4   4   4   4   4   4
#     4  10  20  34  53  79 111 150 189 233 278 324
#     4  10  21  36  54  77 111 150 192 233 276 330
#     4  10  20  36  57  84 111 152 187 232 282 325
#     4  10  20  36  58  84 112 144 181 226 279 332
#     4  10  19  32  55  82 111 146 184 228 277 330
#     4  10  21  36  57  83 109 143 180 226 279 333
#     4  10  19  32  54  82 113 147 189 233 276 326
#     4  10  21  36  58  85 113 144 183 231 279 334
#
# _framework density 19.231490999999998
#
# number of rings (size 3 to 8) (size 9 to 14) (size 15 to 20)
#    0.000    2.000    1.250    2.625    0.000    2.500 
#    0.000    5.625    0.000    7.500    0.000    0.000 
#    0.000    0.000    0.000    0.000    0.000    0.000 
#
# Total GULP energy -396625.752101 kJ/mol
# GULP energy per Si atom -12394.554753 kJ/mol
# Density = 1.918772 g / cm^3
# Si number density = 19.231491 Si / 1000 Ang^3
#
#
#
# Elastic Constant Matrix: (Units=GPa)
#
#
# Indices 1 2 3 4 5 6 
#
# 1 72.4632 43.1242 30.0693 0.0000 -1.7175 0.0000
# 2 43.1242 83.0017 26.7433 0.0000 -2.7722 0.0000
# 3 30.0693 26.7433 101.8156 0.0000 -14.1062 0.0000
# 4 0.0000 0.0000 0.0000 23.7759 0.0000 0.7893
# 5 -1.7175 -2.7722 -14.1062 0.0000 32.2397 0.0000
# 6 0.0000 0.0000 0.0000 0.7893 0.0000 26.7255
#
#
#
# Elastic Compliance Matrix: (Units=1/GPa)
#
#
# Indices 1 2 3 4 5 6 
#
# 1 0.021224 -0.009823 -0.003884 0.000000 -0.001413 0.000000
# 2 -0.009823 0.017713 -0.001717 0.000000 0.000248 0.000000
# 3 -0.003884 -0.001717 0.012104 0.000000 0.004942 0.000000
# 4 0.000000 0.000000 0.000000 0.042101 0.000000 -0.001243
# 5 -0.001413 0.000248 0.004942 0.000000 0.033126 0.000000
# 6 0.000000 0.000000 0.000000 -0.001243 0.000000 0.037454
#
#
# Mechanical properties :
#
#
# Convention : Reuss Voigt Hill
#
# Bulk Modulus (GPa) = 49.52033 50.79490 50.15761
# Shear Modulus (GPa) = 24.83839 27.03781 25.93810
#
# Velocity S-wave (km/s) = 3.59771 3.75362 3.67649
# Velocity P-wave (km/s) = 6.56228 6.72725 6.64528
#
# Compressibility (1/GPa) = 0.02019373
#
# Stress axis : x y z
#
# Youngs Moduli (GPa) = 47.11636 56.45537 82.61493
#
# Poissons Ratio (x) = 0.55456 0.32086
# Poissons Ratio (y) = 0.46282 0.14186
# Poissons Ratio (z) = 0.18299 0.09694
#
# Static dielectric constant tensor:
#      x y z
#    x 3.425430 0.000000 -0.335380 
#    y 0.000000 3.449290 0.000000 
#    z -0.335380 0.000000 3.803900 
# 
# 
# High freq. dielectric constant tensor:
#      x y z
#    x 1.737850 0.000000 -0.012000 
#    y 0.000000 1.735830 0.000000 
#    z -0.012000 0.000000 1.762840 
# 
# From -- ./inp_files/29242.got.cif
#   From: 2010.06.25/outbox.cif.g09.slc.cpg/sg11_15_cif.got.tgz:29242.got - 2010.06.27 23:14:04.
