data_PCOD8071648
_publ_section_title
;
Structure prediction by ZEFSAII (Michael W. Deem and Ramdas Pophale) SiO2 
 PCOD8071648
Probable space group: P 21/M
;
_chemical_formula_sum "Si O2"
_cell_formula_units_Z 32
_cell_length_a 12.425497
_cell_length_b 15.331760
_cell_length_c 18.281182
_cell_angle_alpha 90.000000
_cell_angle_beta 151.876435
_cell_angle_gamma 90.000000
_cell_volume 1641.633761
_symmetry_space_group_name_H-M "P 21/M"
_symmetry_group_IT_number 11
_symmetry_cell_setting 'monoclinic'
loop_
_space_group_symop_operation_xyz
x,y,z
-x,1/2+y,-z
-x,-y,-z
x,1/2-y,z
loop_
_atom_site_type_symbol
_atom_site_label
_atom_site_fract_x
_atom_site_fract_y
_atom_site_fract_z
Si Si1 0.097074 0.152720 0.088184
Si Si2 0.788841 0.351639 0.035744
Si Si3 0.767772 0.495886 0.145212
Si Si4 0.915273 0.521525 0.528432
Si Si5 0.538790 0.425245 0.386576
Si Si6 0.561208 0.654160 0.292883
Si Si7 0.912399 0.351446 0.715604
Si Si8 0.756906 0.092749 0.778044
O O1 0.027415 0.250000 0.020705
O O2 0.371070 0.145208 0.249772
O O3 0.016590 0.138629 0.123712
O O4 0.981041 0.082425 0.964057
O O5 0.756248 0.250000 0.040681
O O6 0.819401 0.414234 0.123608
O O7 0.578495 0.387522 0.859404
O O8 0.884284 0.477867 0.292737
O O9 0.870505 0.586482 0.173989
O O10 0.500000 0.500000 0.000000
O O11 0.708787 0.457176 0.425568
O O12 0.808880 0.616538 0.457263
O O13 0.000000 0.500000 0.500000
O O14 0.685043 0.382065 0.537939
O O15 0.370349 0.501679 0.315762
O O16 0.610550 0.750000 0.296294
O O17 0.416720 0.653403 0.281012
O O18 0.972783 0.250000 0.733468
O O19 0.844895 0.359299 0.759067
#
# Coordination Sequence:
#
# PCOD8071648 Si02
#       8
#     4   4   4   4   4   4   4   4
#     4  10  19  33  55  87 118 147 184 228 278 338
#     4   9  19  36  59  85 116 148 184 230 285 343
#     4  11  24  40  59  81 110 150 197 243 291 346
#     4  10  22  39  56  78 107 144 192 241 284 335
#     4  10  21  36  57  81 112 151 188 230 283 342
#     4   9  18  35  58  85 113 145 181 227 284 342
#     4  11  23  39  57  83 118 154 190 235 288 344
#     4  10  19  34  57  86 118 149 186 228 277 338
#
# _framework density 19.492777
#
# number of rings (size 3 to 8) (size 9 to 14) (size 15 to 20)
#    0.000    2.000    0.000    4.500    0.000    6.000 
#    0.000    5.625    0.000    0.000    0.000    0.000 
#    0.000    0.000    0.000    0.000    0.000    0.000 
#
# Total GULP energy -396540.928923 kJ/mol
# GULP energy per Si atom -12391.904029 kJ/mol
# Density = 1.944841 g / cm^3
# Si number density = 19.492777 Si / 1000 Ang^3
#
#
#
# Elastic Constant Matrix: (Units=GPa)
#
#
# Indices 1 2 3 4 5 6 
#
# 1 106.9738 48.4122 71.2618 0.0000 -9.3122 0.0000
# 2 48.4122 113.2790 59.0423 0.0000 -4.4971 0.0000
# 3 71.2618 59.0423 137.3381 0.0000 12.7038 0.0000
# 4 0.0000 0.0000 0.0000 30.8529 0.0000 -8.9253
# 5 -9.3122 -4.4971 12.7038 0.0000 29.5433 0.0000
# 6 0.0000 0.0000 0.0000 -8.9253 0.0000 10.6736
#
#
#
# Elastic Compliance Matrix: (Units=1/GPa)
#
#
# Indices 1 2 3 4 5 6 
#
# 1 0.016858 -0.002435 -0.008495 0.000000 0.008596 0.000000
# 2 -0.002435 0.012200 -0.004251 0.000000 0.002917 0.000000
# 3 -0.008495 -0.004251 0.014397 0.000000 -0.009516 0.000000
# 4 0.000000 0.000000 0.000000 0.042754 0.000000 0.035751
# 5 0.008596 0.002917 -0.009516 0.000000 0.041094 0.000000
# 6 0.000000 0.000000 0.000000 0.035751 0.000000 0.123584
#
#
# Mechanical properties :
#
#
# Convention : Reuss Voigt Hill
#
# Bulk Modulus (GPa) = 76.38579 79.44705 77.91642
# Shear Modulus (GPa) = 17.50616 26.13895 21.82255
#
# Velocity S-wave (km/s) = 3.00006 3.66588 3.34955
# Velocity P-wave (km/s) = 7.16046 7.66576 7.41742
#
# Compressibility (1/GPa) = 0.01309144
#
# Stress axis : x y z
#
# Youngs Moduli (GPa) = 59.31985 81.96642 69.45868
#
# Poissons Ratio (x) = 0.19963 0.59007
# Poissons Ratio (y) = 0.14447 0.29527
# Poissons Ratio (z) = 0.50394 0.34844
#
# Static dielectric constant tensor:
#      x y z
#    x 3.414420 0.000000 -0.038090 
#    y 0.000000 3.588560 0.000000 
#    z -0.038090 0.000000 3.826950 
# 
# 
# High freq. dielectric constant tensor:
#      x y z
#    x 1.747970 0.000000 -0.001500 
#    y 0.000000 1.758890 0.000000 
#    z -0.001500 0.000000 1.766240 
# 
# From -- ./inp_files/59493.got.cif
#   From: 2010.06.25/outbox.cif.g09.slc.cpg/sg11_30_cif.got.tgz:59493.got - 2010.06.27 23:14:04.
