data_PCOD8071985
_publ_section_title
;
Structure prediction by ZEFSAII (Michael W. Deem and Ramdas Pophale) SiO2 
 PCOD8071985
Probable space group: P 21/M
;
_chemical_formula_sum "Si O2"
_cell_formula_units_Z 28
_cell_length_a 10.144324
_cell_length_b 9.237737
_cell_length_c 29.773871
_cell_angle_alpha 90.000000
_cell_angle_beta 33.453771
_cell_angle_gamma 90.000000
_cell_volume 1538.096660
_symmetry_space_group_name_H-M "P 21/M"
_symmetry_group_IT_number 11
_symmetry_cell_setting 'monoclinic'
loop_
_space_group_symop_operation_xyz
x,y,z
-x,1/2+y,-z
-x,-y,-z
x,1/2-y,z
loop_
_atom_site_type_symbol
_atom_site_label
_atom_site_fract_x
_atom_site_fract_y
_atom_site_fract_z
Si Si1 0.132353 0.918009 0.234897
Si Si2 0.918066 0.917655 0.091967
Si Si3 0.144281 0.917967 0.334107
Si Si4 0.673714 0.915190 0.067804
Si Si5 0.385114 0.082988 0.491712
Si Si6 0.302165 0.918542 0.679862
Si Si7 0.584446 0.420286 0.251352
O O1 0.069124 0.750000 0.250004
O O2 0.110757 0.970331 0.292450
O O3 0.395542 0.950588 0.140901
O O4 0.948661 0.002330 0.255922
O O5 0.942615 0.750000 0.097881
O O6 0.740635 0.942034 0.100642
O O7 0.813045 0.004995 0.163629
O O8 0.180430 0.978698 0.006086
O O9 0.226595 0.750000 0.311824
O O10 0.898232 0.943806 0.430665
O O11 0.339978 0.015699 0.302130
O O12 0.733586 0.750000 0.037626
O O13 0.440833 0.250000 0.484471
O O14 0.502106 0.028468 0.412049
O O15 0.500000 0.000000 0.500000
O O16 0.249610 0.750000 0.689938
O O17 0.406844 0.956713 0.698591
O O18 0.592908 0.250000 0.239116
#
# Coordination Sequence:
#
# PCOD8071985 Si02
#       7
#     4   4   4   4   4   4   4
#     4  10  19  35  58  85 112 144 186 230 277 330
#     4  10  19  34  56  83 113 144 183 229 278 329
#     4  10  20  36  58  84 112 144 187 235 277 326
#     4   9  18  33  54  83 114 140 179 231 278 327
#     4  10  20  36  58  83 113 145 184 234 280 325
#     4  10  23  39  55  81 116 150 186 230 278 332
#     4  11  23  38  55  80 116 153 187 226 278 332
#
# _framework density 18.204319000000002
#
# number of rings (size 3 to 8) (size 9 to 14) (size 15 to 20)
#    0.000    2.000    2.857    0.857    0.000    4.000 
#    0.000    0.714    0.000    0.000    0.000    0.000 
#    0.000    0.000    0.000    0.000    0.000    0.000 
#
# Total GULP energy -347309.713729 kJ/mol
# GULP energy per Si atom -12403.918347 kJ/mol
# Density = 1.816289 g / cm^3
# Si number density = 18.204319 Si / 1000 Ang^3
#
#
#
# Elastic Constant Matrix: (Units=GPa)
#
#
# Indices 1 2 3 4 5 6 
#
# 1 77.8553 49.3898 42.4522 0.0000 0.9627 0.0000
# 2 49.3898 81.2351 55.1238 0.0000 4.5252 0.0000
# 3 42.4522 55.1238 110.2316 0.0000 5.2369 0.0000
# 4 0.0000 0.0000 0.0000 30.7706 0.0000 -4.8091
# 5 0.9627 4.5252 5.2369 0.0000 25.8141 0.0000
# 6 0.0000 0.0000 0.0000 -4.8091 0.0000 31.8393
#
#
#
# Elastic Compliance Matrix: (Units=1/GPa)
#
#
# Indices 1 2 3 4 5 6 
#
# 1 0.021476 -0.011330 -0.002687 0.000000 0.001730 0.000000
# 2 -0.011330 0.024659 -0.007859 0.000000 -0.002306 0.000000
# 3 -0.002687 -0.007859 0.014102 0.000000 -0.001383 0.000000
# 4 0.000000 0.000000 0.000000 0.033284 0.000000 0.005027
# 5 0.001730 -0.002306 -0.001383 0.000000 0.039359 0.000000
# 6 0.000000 0.000000 0.000000 0.005027 0.000000 0.032167
#
#
# Mechanical properties :
#
#
# Convention : Reuss Voigt Hill
#
# Bulk Modulus (GPa) = 60.65708 62.58374 61.62041
# Shear Modulus (GPa) = 23.33245 25.84188 24.58716
#
# Velocity S-wave (km/s) = 3.58397 3.77177 3.67907
# Velocity P-wave (km/s) = 7.10767 7.30900 7.20904
#
# Compressibility (1/GPa) = 0.01648612
#
# Stress axis : x y z
#
# Youngs Moduli (GPa) = 46.56458 40.55249 70.91075
#
# Poissons Ratio (x) = 0.45945 0.19054
# Poissons Ratio (y) = 0.52757 0.55726
# Poissons Ratio (z) = 0.12512 0.31869
#
# Static dielectric constant tensor:
#      x y z
#    x 3.166100 0.000000 0.037530 
#    y 0.000000 3.358610 0.000000 
#    z 0.037530 0.000000 3.576910 
# 
# 
# High freq. dielectric constant tensor:
#      x y z
#    x 1.686560 0.000000 -0.005270 
#    y 0.000000 1.706100 0.000000 
#    z -0.005270 0.000000 1.719910 
# 
# From -- ./inp_files/28302.got.cif
#   From: 2010.06.25/outbox.cif.g09.slc.cpg/sg11_15_cif.got.tgz:28302.got - 2010.06.27 23:14:04.
