data_PCOD8071472
_publ_section_title
;
Structure prediction by ZEFSAII (Michael W. Deem and Ramdas Pophale) SiO2 
 PCOD8071472
Probable space group: P 21/M
;
_chemical_formula_sum "Si O2"
_cell_formula_units_Z 32
_cell_length_a 5.330650
_cell_length_b 15.959979
_cell_length_c 16.407469
_cell_angle_alpha 90.000000
_cell_angle_beta 103.255968
_cell_angle_gamma 90.000000
_cell_volume 1358.706052
_symmetry_space_group_name_H-M "P 21/M"
_symmetry_group_IT_number 11
_symmetry_cell_setting 'monoclinic'
loop_
_space_group_symop_operation_xyz
x,y,z
-x,1/2+y,-z
-x,-y,-z
x,1/2-y,z
loop_
_atom_site_type_symbol
_atom_site_label
_atom_site_fract_x
_atom_site_fract_y
_atom_site_fract_z
Si Si1 0.380627 0.157555 0.159631
Si Si2 0.927206 0.651649 0.555479
Si Si3 0.641864 0.497020 0.925407
Si Si4 0.210185 0.059295 0.783100
Si Si5 0.107194 0.656143 0.125156
Si Si6 0.962169 0.386778 0.252614
Si Si7 0.634995 0.349144 0.529616
Si Si8 0.490281 0.657464 0.304655
O O1 0.354144 0.250000 0.118343
O O2 0.252408 0.091084 0.085392
O O3 0.684905 0.144211 0.199474
O O4 0.205764 0.157113 0.228188
O O5 0.912303 0.750000 0.539920
O O6 0.032561 0.632062 0.652115
O O7 0.129944 0.611902 0.505172
O O8 0.641181 0.613633 0.520656
O O9 0.463587 0.486460 0.833808
O O10 0.843296 0.418303 0.938465
O O11 0.500000 0.500000 0.000000
O O12 0.263085 0.099756 0.698100
O O13 0.151069 0.130739 0.846221
O O14 0.995522 0.987081 0.758771
O O15 0.081715 0.750000 0.084109
O O16 0.321618 0.657947 0.210873
O O17 0.638512 0.250000 0.517565
O O18 0.666564 0.374416 0.627942
O O19 0.598160 0.750000 0.332389
#
# Coordination Sequence:
#
# PCOD8071472 Si02
#       8
#     4   4   4   4   4   4   4   4
#     4  11  22  40  65  94 123 167 213 253 310 377
#     4  10  19  33  53  81 114 157 205 258 315 367
#     4  10  23  42  63  91 131 160 197 260 317 379
#     4  10  21  38  61  87 117 162 205 254 314 370
#     4  10  20  38  64  91 119 162 214 254 308 373
#     4  11  22  39  62  88 125 163 211 265 309 371
#     4   9  19  33  52  82 118 155 204 259 315 365
#     4   9  19  35  58  84 115 159 209 260 305 368
#
# _framework density 23.551819999999999
#
# number of rings (size 3 to 8) (size 9 to 14) (size 15 to 20)
#    0.000    2.000    1.250    2.250    1.750    2.500 
#    0.000    1.250    0.000    0.000    0.000    0.000 
#    0.000    0.000    0.000    0.000    0.000    0.000 
#
# Total GULP energy -396445.949352 kJ/mol
# GULP energy per Si atom -12388.935917 kJ/mol
# Density = 2.349822 g / cm^3
# Si number density = 23.551820 Si / 1000 Ang^3
#
#
#
# Elastic Constant Matrix: (Units=GPa)
#
#
# Indices 1 2 3 4 5 6 
#
# 1 98.5896 22.5938 17.3003 0.0000 -28.9813 0.0000
# 2 22.5938 133.2910 28.0983 0.0000 -21.8824 0.0000
# 3 17.3003 28.0983 84.6815 0.0000 -40.3357 0.0000
# 4 0.0000 0.0000 0.0000 -3.1181 0.0000 -25.0565
# 5 -28.9813 -21.8824 -40.3357 0.0000 41.8289 0.0000
# 6 0.0000 0.0000 0.0000 -25.0565 0.0000 15.4123
#
#
#
# Elastic Compliance Matrix: (Units=1/GPa)
#
#
# Indices 1 2 3 4 5 6 
#
# 1 0.013271 -0.000995 0.003238 0.000000 0.011796 0.000000
# 2 -0.000995 0.008355 -0.001508 0.000000 0.002227 0.000000
# 3 0.003238 -0.001508 0.022824 0.000000 0.023464 0.000000
# 4 0.000000 0.000000 0.000000 -0.022803 0.000000 -0.037072
# 5 0.011796 0.002227 0.023464 0.000000 0.055871 0.000000
# 6 0.000000 0.000000 0.000000 -0.037072 0.000000 0.004613
#
#
# Mechanical properties :
#
#
# Convention : Reuss Voigt Hill
#
# Bulk Modulus (GPa) = 21.77799 50.28300 36.03050
# Shear Modulus (GPa) = 52.10054 27.39593 39.74823
#
# Velocity S-wave (km/s) = 4.70847 3.41430 4.11261
# Velocity P-wave (km/s) = 6.23109 6.07779 6.15492
#
# Compressibility (1/GPa) = 0.04591791
#
# Stress axis : x y z
#
# Youngs Moduli (GPa) = 75.35461 119.69469 43.81293
#
# Poissons Ratio (x) = 0.11915 -0.14186
# Poissons Ratio (y) = 0.07501 0.06608
# Poissons Ratio (z) = -0.24399 0.18053
#
# Static dielectric constant tensor:
#      x y z
#    x 4.342910 0.000000 -0.230430 
#    y 0.000000 4.856920 0.000000 
#    z -0.230430 0.000000 3.954520 
# 
# 
# High freq. dielectric constant tensor:
#      x y z
#    x 1.930450 0.000000 -0.017550 
#    y 0.000000 1.929990 0.000000 
#    z -0.017550 0.000000 1.915860 
# 
# From -- ./inp_files/46048.got.cif
#   From: 2010.06.25/outbox.cif.g09.slc.cpg/sg11_24_cif.got.tgz:46048.got - 2010.06.27 23:14:04.
