data_PCOD8071898
_publ_section_title
;
Structure prediction by ZEFSAII (Michael W. Deem and Ramdas Pophale) SiO2 
 PCOD8071898
Probable space group: P 21/M
;
_chemical_formula_sum "Si O2"
_cell_formula_units_Z 32
_cell_length_a 21.090905
_cell_length_b 9.248428
_cell_length_c 26.262421
_cell_angle_alpha 90.000000
_cell_angle_beta 159.363821
_cell_angle_gamma 90.000000
_cell_volume 1805.402440
_symmetry_space_group_name_H-M "P 21/M"
_symmetry_group_IT_number 11
_symmetry_cell_setting 'monoclinic'
loop_
_space_group_symop_operation_xyz
x,y,z
-x,1/2+y,-z
-x,-y,-z
x,1/2-y,z
loop_
_atom_site_type_symbol
_atom_site_label
_atom_site_fract_x
_atom_site_fract_y
_atom_site_fract_z
Si Si1 0.040633 0.918178 0.606452
Si Si2 0.769302 0.418024 0.592875
Si Si3 0.940329 0.414951 0.906337
Si Si4 0.274871 0.419167 0.705477
Si Si5 0.474642 0.582441 0.428458
Si Si6 0.324700 0.918472 0.014658
Si Si7 0.985048 0.081311 0.296099
Si Si8 0.085558 0.416654 0.909188
O O1 0.084707 0.750000 0.634309
O O2 0.850005 0.956268 0.436914
O O3 0.035417 0.966529 0.661012
O O4 0.201899 0.003354 0.700947
O O5 0.723996 0.250000 0.549361
O O6 0.589589 0.505924 0.470697
O O7 0.854104 0.485966 0.605776
O O8 0.904229 0.439142 0.741077
O O9 0.995183 0.250000 0.955542
O O10 0.729328 0.431729 0.741371
O O11 0.044682 0.475092 0.935054
O O12 0.000000 0.500000 0.000000
O O13 0.277632 0.250000 0.719299
O O14 0.475192 0.477604 0.845308
O O15 0.500000 0.500000 0.500000
O O16 0.532101 0.750000 0.478059
O O17 0.328833 0.750000 0.030001
O O18 0.201162 0.953501 0.872904
O O19 0.249660 0.994633 0.008748
O O20 0.035511 0.250000 0.328929
O O21 0.142380 0.250000 0.952121
#
# Coordination Sequence:
#
# PCOD8071898 Si02
#       8
#     4   4   4   4   4   4   4   4
#     4   9  18  33  52  72 100 134 165 204 253 302
#     4  10  19  34  55  80 107 136 175 219 263 312
#     4  10  22  39  55  77 109 141 176 221 268 315
#     4   9  18  33  51  72 100 132 168 206 247 302
#     4  11  21  36  58  82 107 139 180 223 265 316
#     4   9  18  32  51  75  99 130 171 208 248 304
#     4   9  18  33  51  74 103 134 169 210 256 304
#     4   9  18  35  54  74 105 137 169 214 260 307
#
# _framework density 17.72458
#
# number of rings (size 3 to 8) (size 9 to 14) (size 15 to 20)
#    0.000    2.500    1.250    0.750    0.000    3.500 
#    2.250    0.000    0.000    0.000    0.000    0.000 
#    0.000    0.000    0.000    0.000    0.000    0.000 
#
# Total GULP energy -396857.251975 kJ/mol
# GULP energy per Si atom -12401.789124 kJ/mol
# Density = 1.768424 g / cm^3
# Si number density = 17.724580 Si / 1000 Ang^3
#
#
#
# Elastic Constant Matrix: (Units=GPa)
#
#
# Indices 1 2 3 4 5 6 
#
# 1 176.8576 70.6320 74.1582 0.0000 11.6790 0.0000
# 2 70.6320 79.7825 47.7055 0.0000 11.5642 0.0000
# 3 74.1582 47.7055 74.7532 0.0000 18.5660 0.0000
# 4 0.0000 0.0000 0.0000 25.1490 0.0000 4.9348
# 5 11.6790 11.5642 18.5660 0.0000 30.9556 0.0000
# 6 0.0000 0.0000 0.0000 4.9348 0.0000 37.2817
#
#
#
# Elastic Compliance Matrix: (Units=1/GPa)
#
#
# Indices 1 2 3 4 5 6 
#
# 1 0.011035 -0.005197 -0.008318 0.000000 0.002767 0.000000
# 2 -0.005197 0.022717 -0.009073 0.000000 -0.001084 0.000000
# 3 -0.008318 -0.009073 0.030313 0.000000 -0.011653 0.000000
# 4 0.000000 0.000000 0.000000 0.040823 0.000000 -0.005404
# 5 0.002767 -0.001084 -0.011653 0.000000 0.038655 0.000000
# 6 0.000000 0.000000 0.000000 -0.005404 0.000000 0.027538
#
#
# Mechanical properties :
#
#
# Convention : Reuss Voigt Hill
#
# Bulk Modulus (GPa) = 52.93663 79.59832 66.26747
# Shear Modulus (GPa) = 22.46677 27.93709 25.20193
#
# Velocity S-wave (km/s) = 3.56413 3.97442 3.77485
# Velocity P-wave (km/s) = 6.84605 8.12818 7.51451
#
# Compressibility (1/GPa) = 0.01889051
#
# Stress axis : x y z
#
# Youngs Moduli (GPa) = 90.62419 44.02024 32.98924
#
# Poissons Ratio (x) = 0.22875 0.27439
# Poissons Ratio (y) = 0.47093 0.29930
# Poissons Ratio (z) = 0.75377 0.39938
#
# Static dielectric constant tensor:
#      x y z
#    x 3.381150 0.000000 0.147180 
#    y 0.000000 3.326630 0.000000 
#    z 0.147180 0.000000 3.246910 
# 
# 
# High freq. dielectric constant tensor:
#      x y z
#    x 1.691070 0.000000 0.009500 
#    y 0.000000 1.685420 0.000000 
#    z 0.009500 0.000000 1.676000 
# 
# From -- ./inp_files/67154.got.cif
#   From: 2010.06.25/outbox.cif.g09.slc.cpg/sg11_34_cif.got.tgz:67154.got - 2010.06.27 23:14:04.
