data_PCOD8071629
_publ_section_title
;
Structure prediction by ZEFSAII (Michael W. Deem and Ramdas Pophale) SiO2 
 PCOD8071629
Probable space group: P 21/M
;
_chemical_formula_sum "Si O2"
_cell_formula_units_Z 28
_cell_length_a 11.954775
_cell_length_b 8.694441
_cell_length_c 15.697270
_cell_angle_alpha 90.000000
_cell_angle_beta 57.083761
_cell_angle_gamma 90.000000
_cell_volume 1369.652044
_symmetry_space_group_name_H-M "P 21/M"
_symmetry_group_IT_number 11
_symmetry_cell_setting 'monoclinic'
loop_
_space_group_symop_operation_xyz
x,y,z
-x,1/2+y,-z
-x,-y,-z
x,1/2-y,z
loop_
_atom_site_type_symbol
_atom_site_label
_atom_site_fract_x
_atom_site_fract_y
_atom_site_fract_z
Si Si1 0.403008 0.568673 0.800912
Si Si2 0.397594 0.931222 0.610081
Si Si3 0.870025 0.431593 0.010854
Si Si4 0.670228 0.567484 0.764546
Si Si5 0.863509 0.928498 0.348279
Si Si6 0.859713 0.926803 0.542704
Si Si7 0.131237 0.431434 0.173480
O O1 0.391588 0.750000 0.815751
O O2 0.442922 0.527597 0.687309
O O3 0.518884 0.504645 0.816483
O O4 0.260461 0.498886 0.887753
O O5 0.389397 0.750000 0.598434
O O6 0.500000 0.000000 0.500000
O O7 0.251198 0.003677 0.663545
O O8 0.878064 0.250000 0.016696
O O9 0.862047 0.475662 0.915958
O O10 0.000000 0.500000 0.000000
O O11 0.668060 0.750000 0.757812
O O12 0.753233 0.497542 0.650820
O O13 0.739061 0.518643 0.824822
O O14 0.888565 0.750000 0.315830
O O15 0.812012 0.950663 0.465850
O O16 0.998902 0.022954 0.279496
O O17 0.875732 0.750000 0.559185
O O18 0.000000 0.000000 0.500000
O O19 0.129160 0.250000 0.156460
#
# Coordination Sequence:
#
# PCOD8071629 Si02
#       7
#     4   4   4   4   4   4   4
#     4   9  20  39  61  84 114 156 198 242 298 355
#     4  11  22  38  61  88 121 157 200 247 303 365
#     4  11  23  41  65  89 116 152 199 251 301 357
#     4   9  18  35  58  84 117 156 195 237 294 361
#     4  11  22  36  58  87 121 158 204 254 299 354
#     4  10  19  33  55  83 117 157 196 241 293 352
#     4  11  22  37  60  88 119 155 196 244 302 362
#
# _framework density 20.443149999999999
#
# number of rings (size 3 to 8) (size 9 to 14) (size 15 to 20)
#    0.000    1.714    1.429    3.429    0.000    4.571 
#    0.000    2.143    0.000    6.857    0.000    0.000 
#    0.000    0.000    0.000    0.000    0.000    0.000 
#
# Total GULP energy -347167.688140 kJ/mol
# GULP energy per Si atom -12398.846005 kJ/mol
# Density = 2.039662 g / cm^3
# Si number density = 20.443150 Si / 1000 Ang^3
#
#
#
# Elastic Constant Matrix: (Units=GPa)
#
#
# Indices 1 2 3 4 5 6 
#
# 1 183.1594 29.8874 62.4785 0.0000 -8.7087 0.0000
# 2 29.8874 45.5012 19.7652 0.0000 2.1960 0.0000
# 3 62.4785 19.7652 118.3121 0.0000 -5.8424 0.0000
# 4 0.0000 0.0000 0.0000 29.1805 0.0000 -0.2730
# 5 -8.7087 2.1960 -5.8424 0.0000 34.6962 0.0000
# 6 0.0000 0.0000 0.0000 -0.2730 0.0000 26.6761
#
#
#
# Elastic Compliance Matrix: (Units=1/GPa)
#
#
# Indices 1 2 3 4 5 6 
#
# 1 0.007157 -0.003410 -0.003136 0.000000 0.001484 0.000000
# 2 -0.003410 0.025487 -0.002601 0.000000 -0.002907 0.000000
# 3 -0.003136 -0.002601 0.010600 0.000000 0.001162 0.000000
# 4 0.000000 0.000000 0.000000 0.034273 0.000000 0.000351
# 5 0.001484 -0.002907 0.001162 0.000000 0.029574 0.000000
# 6 0.000000 0.000000 0.000000 0.000351 0.000000 0.037490
#
#
# Mechanical properties :
#
#
# Convention : Reuss Voigt Hill
#
# Bulk Modulus (GPa) = 40.07984 63.47053 51.77519
# Shear Modulus (GPa) = 29.20700 33.76667 31.48684
#
# Velocity S-wave (km/s) = 3.78391 4.06856 3.92881
# Velocity P-wave (km/s) = 6.22404 7.29285 6.77954
#
# Compressibility (1/GPa) = 0.02495020
#
# Stress axis : x y z
#
# Youngs Moduli (GPa) = 139.73194 39.23514 94.33691
#
# Poissons Ratio (x) = 0.13379 0.29587
# Poissons Ratio (y) = 0.47649 0.24534
# Poissons Ratio (z) = 0.43824 0.10204
#
# Static dielectric constant tensor:
#      x y z
#    x 4.234400 0.000000 0.047920 
#    y 0.000000 3.535230 0.000000 
#    z 0.047920 0.000000 3.943750 
# 
# 
# High freq. dielectric constant tensor:
#      x y z
#    x 1.817330 0.000000 0.000960 
#    y 0.000000 1.773830 0.000000 
#    z 0.000960 0.000000 1.803340 
# 
# From -- ./inp_files/49168.got.cif
#   From: 2010.06.25/outbox.cif.g09.slc.cpg/sg11_25_cif.got.tgz:49168.got - 2010.06.27 23:14:04.
