data_PCOD8071479
_publ_section_title
;
Structure prediction by ZEFSAII (Michael W. Deem and Ramdas Pophale) SiO2 
 PCOD8071479
Probable space group: P 21/M
;
_chemical_formula_sum "Si O2"
_cell_formula_units_Z 24
_cell_length_a 5.082950
_cell_length_b 19.673593
_cell_length_c 15.121295
_cell_angle_alpha 90.000000
_cell_angle_beta 58.428441
_cell_angle_gamma 90.000000
_cell_volume 1288.313148
_symmetry_space_group_name_H-M "P 21/M"
_symmetry_group_IT_number 11
_symmetry_cell_setting 'monoclinic'
loop_
_space_group_symop_operation_xyz
x,y,z
-x,1/2+y,-z
-x,-y,-z
x,1/2-y,z
loop_
_atom_site_type_symbol
_atom_site_label
_atom_site_fract_x
_atom_site_fract_y
_atom_site_fract_z
Si Si1 0.932979 0.445500 0.388951
Si Si2 0.139092 0.671259 0.298779
Si Si3 0.791740 0.609904 0.200645
Si Si4 0.750756 0.909549 0.493501
Si Si5 0.235993 0.440135 0.971096
Si Si6 0.855911 0.518517 0.831389
O O1 0.615745 0.404746 0.437312
O O2 0.872201 0.523795 0.422159
O O3 0.131427 0.407070 0.427311
O O4 0.125204 0.441601 0.263989
O O5 0.223149 0.750000 0.286862
O O6 0.437357 0.629784 0.280706
O O7 0.027059 0.653567 0.218762
O O8 0.867934 0.654419 0.415864
O O9 0.852070 0.620206 0.083113
O O10 0.834712 0.528732 0.212965
O O11 0.579570 0.464130 0.885646
O O12 0.197137 0.423591 0.082734
O O13 0.000000 0.500000 0.000000
#
# Coordination Sequence:
#
# PCOD8071479 Si02
#       6
#     4   4   4   4   4   4
#     4  10  20  31  54  76 113 140 175 218 284 326
#     4  12  24  38  56  77 109 152 190 229 274 323
#     4  11  20  36  54  79 113 142 180 227 265 334
#     4  10  21  33  49  78 107 144 178 230 263 326
#     4   9  19  31  55  81 117 143 171 215 276 335
#     4  10  19  33  53  85 115 149 169 218 284 345
#
# _framework density 18.629011999999999
#
# number of rings (size 3 to 8) (size 9 to 14) (size 15 to 20)
#    0.000    1.667    3.333    1.500    9.333    0.000 
#    0.000    0.000    0.000    0.000    0.000    7.000 
#    0.000    0.000    0.000    0.000    0.000    0.000 
#
# Total GULP energy -297391.898010 kJ/mol
# GULP energy per Si atom -12391.329084 kJ/mol
# Density = 1.858661 g / cm^3
# Si number density = 18.629012 Si / 1000 Ang^3
#
#
#
# Elastic Constant Matrix: (Units=GPa)
#
#
# Indices 1 2 3 4 5 6 
#
# 1 112.2984 20.2271 45.2081 0.0000 8.7436 0.0000
# 2 20.2271 40.8020 32.2123 0.0000 3.2101 0.0000
# 3 45.2081 32.2123 134.5603 0.0000 22.9352 0.0000
# 4 0.0000 0.0000 0.0000 15.9502 0.0000 3.8578
# 5 8.7436 3.2101 22.9352 0.0000 35.7504 0.0000
# 6 0.0000 0.0000 0.0000 3.8578 0.0000 16.5924
#
#
#
# Elastic Compliance Matrix: (Units=1/GPa)
#
#
# Indices 1 2 3 4 5 6 
#
# 1 0.010599 -0.003051 -0.002734 0.000000 -0.000564 0.000000
# 2 -0.003051 0.031248 -0.006854 0.000000 0.002337 0.000000
# 3 -0.002734 -0.006854 0.010972 0.000000 -0.005755 0.000000
# 4 0.000000 0.000000 0.000000 0.066431 0.000000 -0.015445
# 5 -0.000564 0.002337 -0.005755 0.000000 0.031592 0.000000
# 6 0.000000 0.000000 0.000000 -0.015445 0.000000 0.063860
#
#
# Mechanical properties :
#
#
# Convention : Reuss Voigt Hill
#
# Bulk Modulus (GPa) = 36.31030 53.66175 44.98602
# Shear Modulus (GPa) = 20.06741 26.32615 23.19678
#
# Velocity S-wave (km/s) = 3.28565 3.76331 3.53256
# Velocity P-wave (km/s) = 5.82474 6.91023 6.39058
#
# Compressibility (1/GPa) = 0.02754039
#
# Stress axis : x y z
#
# Youngs Moduli (GPa) = 94.34720 32.00183 91.14231
#
# Poissons Ratio (x) = 0.09765 0.24922
# Poissons Ratio (y) = 0.28788 0.62467
# Poissons Ratio (z) = 0.25798 0.21933
#
# Static dielectric constant tensor:
#      x y z
#    x 3.122550 0.000000 0.314460 
#    y 0.000000 2.863350 0.000000 
#    z 0.314460 0.000000 3.911130 
# 
# 
# High freq. dielectric constant tensor:
#      x y z
#    x 1.753230 0.000000 0.011060 
#    y 0.000000 1.638970 0.000000 
#    z 0.011060 0.000000 1.731110 
# 
# From -- ./inp_files/46131.got.cif
#   From: 2010.06.25/outbox.cif.g09.slc.cpg/sg11_24_cif.got.tgz:46131.got - 2010.06.27 23:14:04.
