data_PCOD8071518
_publ_section_title
;
Structure prediction by ZEFSAII (Michael W. Deem and Ramdas Pophale) SiO2 
 PCOD8071518
Probable space group: P 21/M
;
_chemical_formula_sum "Si O2"
_cell_formula_units_Z 24
_cell_length_a 10.413454
_cell_length_b 24.224580
_cell_length_c 10.077636
_cell_angle_alpha 90.000000
_cell_angle_beta 152.457698
_cell_angle_gamma 90.000000
_cell_volume 1175.521895
_symmetry_space_group_name_H-M "P 21/M"
_symmetry_group_IT_number 11
_symmetry_cell_setting 'monoclinic'
loop_
_space_group_symop_operation_xyz
x,y,z
-x,1/2+y,-z
-x,-y,-z
x,1/2-y,z
loop_
_atom_site_type_symbol
_atom_site_label
_atom_site_fract_x
_atom_site_fract_y
_atom_site_fract_z
Si Si1 0.377804 0.052443 0.466230
Si Si2 0.593546 0.551010 0.974452
Si Si3 0.806527 0.314586 0.556447
Si Si4 0.739284 0.874348 0.880867
Si Si5 0.185856 0.941200 0.915659
Si Si6 0.947085 0.392428 0.462557
O O1 0.295091 0.104977 0.300677
O O2 0.100109 0.033446 0.288616
O O3 0.500000 0.000000 0.500000
O O4 0.610251 0.075992 0.779339
O O5 0.654712 0.485442 0.035012
O O6 0.743158 0.583657 0.232268
O O7 0.727155 0.570715 0.958432
O O8 0.268080 0.564335 0.668316
O O9 0.854570 0.250000 0.609001
O O10 0.485674 0.329071 0.280932
O O11 0.913597 0.334196 0.508309
O O12 0.966631 0.344903 0.823807
O O13 0.113182 0.889298 0.751608
#
# Coordination Sequence:
#
# PCOD8071518 Si02
#       6
#     4   4   4   4   4   4
#     4  12  24  36  55  82 123 163 194 220 269 351
#     4  10  19  33  54  79 117 151 187 229 270 340
#     4  10  21  39  64  83 105 141 190 255 300 325
#     4  10  21  36  57  85 113 145 195 236 277 332
#     4  12  22  34  55  80 123 162 188 217 282 338
#     4  10  21  35  54  85 112 144 191 236 286 336
#
# _framework density 20.416461999999999
#
# number of rings (size 3 to 8) (size 9 to 14) (size 15 to 20)
#    0.000    1.333    1.667    5.000    4.667    0.000 
#    0.000    0.000    0.000    6.000    0.000    0.000 
#    0.000    0.000    0.000    0.000    0.000    0.000 
#
# Total GULP energy -297567.789033 kJ/mol
# GULP energy per Si atom -12398.657876 kJ/mol
# Density = 2.036999 g / cm^3
# Si number density = 20.416462 Si / 1000 Ang^3
#
#
#
# Elastic Constant Matrix: (Units=GPa)
#
#
# Indices 1 2 3 4 5 6 
#
# 1 52.7363 13.4201 21.6173 0.0000 -25.8492 0.0000
# 2 13.4201 65.3102 1.8155 0.0000 -12.5728 0.0000
# 3 21.6173 1.8155 101.8408 0.0000 -18.2776 0.0000
# 4 0.0000 0.0000 0.0000 20.4528 0.0000 0.0604
# 5 -25.8492 -12.5728 -18.2776 0.0000 46.9122 0.0000
# 6 0.0000 0.0000 0.0000 0.0604 0.0000 15.4508
#
#
#
# Elastic Compliance Matrix: (Units=1/GPa)
#
#
# Indices 1 2 3 4 5 6 
#
# 1 0.027531 -0.003058 -0.003455 0.000000 0.013004 0.000000
# 2 -0.003058 0.016510 0.000910 0.000000 0.003095 0.000000
# 3 -0.003455 0.000910 0.011008 0.000000 0.002629 0.000000
# 4 0.000000 0.000000 0.000000 0.048894 0.000000 -0.000191
# 5 0.013004 0.003095 0.002629 0.000000 0.030335 0.000000
# 6 0.000000 0.000000 0.000000 -0.000191 0.000000 0.064722
#
#
# Mechanical properties :
#
#
# Convention : Reuss Voigt Hill
#
# Bulk Modulus (GPa) = 22.80843 32.62145 27.71494
# Shear Modulus (GPa) = 22.23989 28.76546 25.50268
#
# Velocity S-wave (km/s) = 3.30405 3.75765 3.53813
# Velocity P-wave (km/s) = 5.07460 5.90248 5.50413
#
# Compressibility (1/GPa) = 0.04384344
#
# Stress axis : x y z
#
# Youngs Moduli (GPa) = 36.32284 60.56835 90.84044
#
# Poissons Ratio (x) = 0.18520 0.31390
# Poissons Ratio (y) = 0.11106 -0.08267
# Poissons Ratio (z) = 0.12551 -0.05512
#
# Static dielectric constant tensor:
#      x y z
#    x 3.783620 0.000000 -0.076760 
#    y 0.000000 3.274770 0.000000 
#    z -0.076760 0.000000 4.004890 
# 
# 
# High freq. dielectric constant tensor:
#      x y z
#    x 1.796960 0.000000 -0.001850 
#    y 0.000000 1.741780 0.000000 
#    z -0.001850 0.000000 1.830060 
# 
# From -- ./inp_files/5301.got.cif
#   From: 2010.06.25/outbox.cif.g09.slc.cpg/sg11_3_cif.got.tgz:5301.got - 2010.06.27 23:14:04.
