data_PCOD8071696
_publ_section_title
;
Structure prediction by ZEFSAII (Michael W. Deem and Ramdas Pophale) SiO2 
 PCOD8071696
Probable space group: P 21/M
;
_chemical_formula_sum "Si O2"
_cell_formula_units_Z 32
_cell_length_a 12.130945
_cell_length_b 9.057883
_cell_length_c 20.565481
_cell_angle_alpha 90.000000
_cell_angle_beta 128.121288
_cell_angle_gamma 90.000000
_cell_volume 1777.757480
_symmetry_space_group_name_H-M "P 21/M"
_symmetry_group_IT_number 11
_symmetry_cell_setting 'monoclinic'
loop_
_space_group_symop_operation_xyz
x,y,z
-x,1/2+y,-z
-x,-y,-z
x,1/2-y,z
loop_
_atom_site_type_symbol
_atom_site_label
_atom_site_fract_x
_atom_site_fract_y
_atom_site_fract_z
Si Si1 0.439999 0.422154 0.040989
Si Si2 0.160165 0.920123 0.496332
Si Si3 0.450204 0.922925 0.546702
Si Si4 0.138087 0.079930 0.979012
Si Si5 0.851516 0.578393 0.375530
Si Si6 0.406143 0.576769 0.279354
Si Si7 0.424981 0.420471 0.789852
Si Si8 0.857885 0.922248 0.869206
O O1 0.467953 0.250000 0.044668
O O2 0.518641 0.476742 0.133376
O O3 0.500000 0.500000 0.000000
O O4 0.274765 0.456271 0.986222
O O5 0.154203 0.750000 0.513401
O O6 0.282715 0.951096 0.489362
O O7 0.009040 0.970214 0.411753
O O8 0.195489 0.003452 0.575132
O O9 0.485823 0.750000 0.557595
O O10 0.500000 0.000000 0.500000
O O11 0.525586 0.993891 0.635568
O O12 0.091731 0.250000 0.955277
O O13 0.173337 0.043747 0.066714
O O14 0.013852 0.976505 0.907772
O O15 0.843084 0.750000 0.387684
O O16 0.739841 0.539626 0.278684
O O17 0.398273 0.750000 0.291702
O O18 0.496206 0.542777 0.248230
O O19 0.250286 0.514004 0.213448
O O20 0.446790 0.250000 0.817530
O O21 0.844026 0.750000 0.847881
#
# Coordination Sequence:
#
# PCOD8071696 Si02
#       8
#     4   4   4   4   4   4   4   4
#     4  11  23  39  58  81 114 151 189 230 280 336
#     4   9  18  32  53  80 110 143 181 225 275 326
#     4  11  23  38  56  80 112 151 191 232 283 336
#     4   9  19  35  54  80 112 147 184 228 282 333
#     4   9  17  32  54  82 111 139 177 226 277 327
#     4  11  21  35  57  85 114 146 187 231 278 333
#     4  10  20  34  56  84 112 144 185 230 278 333
#     4  10  19  33  56  85 113 142 183 232 279 330
#
# _framework density 18.000205000000001
#
# number of rings (size 3 to 8) (size 9 to 14) (size 15 to 20)
#    0.000    2.000    2.500    1.500    0.000    3.000 
#    0.000    1.250    0.000    6.000    0.000    0.000 
#    0.000    0.000    0.000    0.000    0.000    0.000 
#
# Total GULP energy -396810.306555 kJ/mol
# GULP energy per Si atom -12400.322080 kJ/mol
# Density = 1.795924 g / cm^3
# Si number density = 18.000205 Si / 1000 Ang^3
#
#
#
# Elastic Constant Matrix: (Units=GPa)
#
#
# Indices 1 2 3 4 5 6 
#
# 1 118.5558 69.1144 65.5118 0.0000 5.4921 0.0000
# 2 69.1144 97.1208 62.7545 0.0000 3.3124 0.0000
# 3 65.5118 62.7545 101.5824 0.0000 9.5771 0.0000
# 4 0.0000 0.0000 0.0000 34.4288 0.0000 -0.9028
# 5 5.4921 3.3124 9.5771 0.0000 25.5529 0.0000
# 6 0.0000 0.0000 0.0000 -0.9028 0.0000 28.8500
#
#
#
# Elastic Compliance Matrix: (Units=1/GPa)
#
#
# Indices 1 2 3 4 5 6 
#
# 1 0.016069 -0.007905 -0.005443 0.000000 -0.000389 0.000000
# 2 -0.007905 0.021107 -0.008131 0.000000 0.002010 0.000000
# 3 -0.005443 -0.008131 0.018833 0.000000 -0.004835 0.000000
# 4 0.000000 0.000000 0.000000 0.029069 0.000000 0.000910
# 5 -0.000389 0.002010 -0.004835 0.000000 0.040770 0.000000
# 6 0.000000 0.000000 0.000000 0.000910 0.000000 0.034691
#
#
# Mechanical properties :
#
#
# Convention : Reuss Voigt Hill
#
# Bulk Modulus (GPa) = 76.61792 79.11338 77.86565
# Shear Modulus (GPa) = 24.05622 25.75823 24.90723
#
# Velocity S-wave (km/s) = 3.65970 3.78695 3.72387
# Velocity P-wave (km/s) = 7.77916 7.94784 7.86395
#
# Compressibility (1/GPa) = 0.01305178
#
# Stress axis : x y z
#
# Youngs Moduli (GPa) = 62.23223 47.37763 53.09766
#
# Poissons Ratio (x) = 0.37452 0.28901
# Poissons Ratio (y) = 0.49194 0.43173
# Poissons Ratio (z) = 0.33872 0.38522
#
# Static dielectric constant tensor:
#      x y z
#    x 3.213900 0.000000 0.653710 
#    y 0.000000 3.396240 0.000000 
#    z 0.653710 0.000000 2.940550 
# 
# 
# High freq. dielectric constant tensor:
#      x y z
#    x 1.690000 0.000000 0.024780 
#    y 0.000000 1.705530 0.000000 
#    z 0.024780 0.000000 1.691100 
# 
# From -- ./inp_files/42902.got.cif
#   From: 2010.06.25/outbox.cif.g09.slc.cpg/sg11_22_cif.got.tgz:42902.got - 2010.06.27 23:14:04.
