data_PCOD8071016
_publ_section_title
;
Structure prediction by ZEFSAII (Michael W. Deem and Ramdas Pophale) SiO2 
 PCOD8071016
Probable space group: P 21/M
;
_chemical_formula_sum "Si O2"
_cell_formula_units_Z 28
_cell_length_a 9.455435
_cell_length_b 9.078532
_cell_length_c 28.064751
_cell_angle_alpha 90.000000
_cell_angle_beta 39.893803
_cell_angle_gamma 90.000000
_cell_volume 1545.128884
_symmetry_space_group_name_H-M "P 21/M"
_symmetry_group_IT_number 11
_symmetry_cell_setting 'monoclinic'
loop_
_space_group_symop_operation_xyz
x,y,z
-x,1/2+y,-z
-x,-y,-z
x,1/2-y,z
loop_
_atom_site_type_symbol
_atom_site_label
_atom_site_fract_x
_atom_site_fract_y
_atom_site_fract_z
Si Si1 0.010960 0.917386 0.850644
Si Si2 0.148097 0.916728 0.424367
Si Si3 0.205104 0.084578 0.558644
Si Si4 0.355983 0.920156 0.607006
Si Si5 0.641042 0.924037 0.298651
Si Si6 0.457213 0.078652 0.060383
Si Si7 0.850041 0.924511 0.998539
O O1 0.094045 0.750000 0.828058
O O2 0.807859 0.936362 0.865413
O O3 0.948899 0.960093 0.920892
O O4 0.210383 0.020876 0.783260
O O5 0.164083 0.750000 0.438590
O O6 0.391985 0.983402 0.355542
O O7 0.035691 0.926333 0.401778
O O8 0.000000 0.000000 0.500000
O O9 0.254344 0.250000 0.564829
O O10 0.388456 0.044459 0.471204
O O11 0.207973 0.969329 0.600707
O O12 0.314587 0.750000 0.628392
O O13 0.273502 0.011229 0.673653
O O14 0.654191 0.750000 0.296483
O O15 0.526922 0.250000 0.040233
O O16 0.500000 0.000000 0.000000
O O17 0.602489 0.996390 0.063654
O O18 0.832675 0.750000 0.012531
O O19 0.000000 0.000000 0.000000
#
# Coordination Sequence:
#
# PCOD8071016 Si02
#       7
#     4   4   4   4   4   4   4
#     4   9  20  37  55  78 110 145 181 219 266 323
#     4  10  20  34  52  76 103 136 178 224 273 324
#     4   9  18  33  51  72  99 129 169 221 268 316
#     4  10  19  32  52  74  98 133 171 214 269 322
#     4  11  22  34  53  79 107 139 179 225 273 324
#     4   9  17  32  55  81 108 140 178 220 262 316
#     4  10  20  35  58  87 115 147 184 223 267 319
#
# _framework density 18.121465000000001
#
# number of rings (size 3 to 8) (size 9 to 14) (size 15 to 20)
#    0.000    2.286    1.429    2.571    0.000    5.143 
#    0.000    1.429    0.000    3.429    0.000    0.000 
#    0.000    0.000    0.000    0.000    0.000    0.000 
#
# Total GULP energy -347105.346356 kJ/mol
# GULP energy per Si atom -12396.619513 kJ/mol
# Density = 1.808022 g / cm^3
# Si number density = 18.121465 Si / 1000 Ang^3
#
#
#
# Elastic Constant Matrix: (Units=GPa)
#
#
# Indices 1 2 3 4 5 6 
#
# 1 109.3649 52.0979 40.9652 0.0000 -9.9422 0.0000
# 2 52.0979 98.5640 47.7459 0.0000 -6.2341 0.0000
# 3 40.9652 47.7459 84.3641 0.0000 -7.0458 0.0000
# 4 0.0000 0.0000 0.0000 31.0996 0.0000 1.3385
# 5 -9.9422 -6.2341 -7.0458 0.0000 21.9033 0.0000
# 6 0.0000 0.0000 0.0000 1.3385 0.0000 32.4614
#
#
#
# Elastic Compliance Matrix: (Units=1/GPa)
#
#
# Indices 1 2 3 4 5 6 
#
# 1 0.013105 -0.005188 -0.003138 0.000000 0.003463 0.000000
# 2 -0.005188 0.016078 -0.006571 0.000000 0.000107 0.000000
# 3 -0.003138 -0.006571 0.017286 0.000000 0.002266 0.000000
# 4 0.000000 0.000000 0.000000 0.032212 0.000000 -0.001328
# 5 0.003463 0.000107 0.002266 0.000000 0.047986 0.000000
# 6 0.000000 0.000000 0.000000 -0.001328 0.000000 0.030861
#
#
# Mechanical properties :
#
#
# Convention : Reuss Voigt Hill
#
# Bulk Modulus (GPa) = 59.97421 63.76788 61.87104
# Shear Modulus (GPa) = 25.92283 27.19180 26.55732
#
# Velocity S-wave (km/s) = 3.78630 3.87787 3.83236
# Velocity P-wave (km/s) = 7.23065 7.43747 7.33479
#
# Compressibility (1/GPa) = 0.01667383
#
# Stress axis : x y z
#
# Youngs Moduli (GPa) = 76.30476 62.19769 57.85192
#
# Poissons Ratio (x) = 0.32267 0.18156
# Poissons Ratio (y) = 0.39585 0.38016
# Poissons Ratio (z) = 0.23948 0.40871
#
# Static dielectric constant tensor:
#      x y z
#    x 3.508960 0.000000 -0.260790 
#    y 0.000000 3.432650 0.000000 
#    z -0.260790 0.000000 3.163880 
# 
# 
# High freq. dielectric constant tensor:
#      x y z
#    x 1.703210 0.000000 -0.011160 
#    y 0.000000 1.712680 0.000000 
#    z -0.011160 0.000000 1.671560 
# 
# From -- ./inp_files/29105.got.cif
#   From: 2010.06.25/outbox.cif.g09.slc.cpg/sg11_15_cif.got.tgz:29105.got - 2010.06.27 23:14:04.
