data_PCOD8071057
_publ_section_title
;
Structure prediction by ZEFSAII (Michael W. Deem and Ramdas Pophale) SiO2 
 PCOD8071057
Probable space group: P 21/M
;
_chemical_formula_sum "Si O2"
_cell_formula_units_Z 32
_cell_length_a 11.272349
_cell_length_b 15.122567
_cell_length_c 16.668242
_cell_angle_alpha 90.000000
_cell_angle_beta 143.676550
_cell_angle_gamma 90.000000
_cell_volume 1683.073129
_symmetry_space_group_name_H-M "P 21/M"
_symmetry_group_IT_number 11
_symmetry_cell_setting 'monoclinic'
loop_
_space_group_symop_operation_xyz
x,y,z
-x,1/2+y,-z
-x,-y,-z
x,1/2-y,z
loop_
_atom_site_type_symbol
_atom_site_label
_atom_site_fract_x
_atom_site_fract_y
_atom_site_fract_z
Si Si1 0.626421 0.482661 0.183797
Si Si2 0.121770 0.505698 0.146620
Si Si3 0.431899 0.503028 0.663190
Si Si4 0.935206 0.556541 0.623706
Si Si5 0.957274 0.109173 0.749079
Si Si6 0.395100 0.146943 0.942363
Si Si7 0.159482 0.349533 0.279627
Si Si8 0.586500 0.155651 0.462670
O O1 0.546447 0.488431 0.230007
O O2 0.583859 0.579987 0.122109
O O3 0.860012 0.456575 0.313348
O O4 0.514718 0.401620 0.078809
O O5 0.355145 0.524753 0.256911
O O6 0.042411 0.587653 0.156208
O O7 0.067705 0.414557 0.162973
O O8 0.000000 0.500000 0.000000
O O9 0.251572 0.436142 0.540184
O O10 0.366675 0.595634 0.588615
O O11 0.910093 0.479078 0.674155
O O12 0.935057 0.641645 0.682385
O O13 0.772056 0.170481 0.624169
O O14 0.163816 0.155704 0.839554
O O15 0.469189 0.250000 0.966807
O O16 0.117234 0.250000 0.227862
O O17 0.396085 0.374879 0.412121
O O18 0.535989 0.250000 0.396017
#
# Coordination Sequence:
#
# PCOD8071057 Si02
#       8
#     4   4   4   4   4   4   4   4
#     4  10  21  36  54  79 107 139 180 218 256 310
#     4  10  19  32  52  77 105 139 173 211 264 320
#     4  10  19  33  53  76 105 138 171 214 268 316
#     4   9  18  33  53  73  98 134 174 214 258 306
#     4   9  17  32  53  76 100 131 171 212 257 312
#     4  10  21  37  56  76 103 141 179 216 258 308
#     4   9  18  33  52  75 103 134 173 218 261 310
#     4   9  17  30  51  78 104 132 170 217 266 314
#
# _framework density 19.012839
#
# number of rings (size 3 to 8) (size 9 to 14) (size 15 to 20)
#    0.000    2.500    0.000    2.250    0.000    5.000 
#    0.000    4.375    0.000    3.750    0.000    0.000 
#    0.000    0.000    0.000    0.000    0.000    0.000 
#
# Total GULP energy -396466.898870 kJ/mol
# GULP energy per Si atom -12389.590590 kJ/mol
# Density = 1.896957 g / cm^3
# Si number density = 19.012839 Si / 1000 Ang^3
#
#
#
# Elastic Constant Matrix: (Units=GPa)
#
#
# Indices 1 2 3 4 5 6 
#
# 1 58.9578 20.0538 5.4520 0.0000 -16.9989 0.0000
# 2 20.0538 94.5109 25.3039 0.0000 -9.5937 0.0000
# 3 5.4520 25.3039 84.6232 0.0000 -8.1187 0.0000
# 4 0.0000 0.0000 0.0000 14.7202 0.0000 0.9403
# 5 -16.9989 -9.5937 -8.1187 0.0000 31.2785 0.0000
# 6 0.0000 0.0000 0.0000 0.9403 0.0000 18.2262
#
#
#
# Elastic Compliance Matrix: (Units=1/GPa)
#
#
# Indices 1 2 3 4 5 6 
#
# 1 0.021176 -0.003614 0.000732 0.000000 0.010590 0.000000
# 2 -0.003614 0.012346 -0.003368 0.000000 0.000948 0.000000
# 3 0.000732 -0.003368 0.013041 0.000000 0.002750 0.000000
# 4 0.000000 0.000000 0.000000 0.068158 0.000000 -0.003516
# 5 0.010590 0.000948 0.002750 0.000000 0.038731 0.000000
# 6 0.000000 0.000000 0.000000 -0.003516 0.000000 0.055047
#
#
# Mechanical properties :
#
#
# Convention : Reuss Voigt Hill
#
# Bulk Modulus (GPa) = 29.35705 37.74572 33.55138
# Shear Modulus (GPa) = 21.51896 25.33046 23.42471
#
# Velocity S-wave (km/s) = 3.36789 3.65400 3.51386
# Velocity P-wave (km/s) = 5.53152 6.13988 5.84363
#
# Compressibility (1/GPa) = 0.03406337
#
# Stress axis : x y z
#
# Youngs Moduli (GPa) = 47.22248 81.00032 76.68275
#
# Poissons Ratio (x) = 0.29277 -0.05617
# Poissons Ratio (y) = 0.17068 0.25825
# Poissons Ratio (z) = -0.03459 0.27279
#
# Static dielectric constant tensor:
#      x y z
#    x 3.453880 0.000000 0.139010 
#    y 0.000000 3.472680 0.000000 
#    z 0.139010 0.000000 3.493340 
# 
# 
# High freq. dielectric constant tensor:
#      x y z
#    x 1.735540 0.000000 0.011460 
#    y 0.000000 1.724090 0.000000 
#    z 0.011460 0.000000 1.737240 
# 
# From -- ./inp_files/50420.got.cif
#   From: 2010.06.25/outbox.cif.g09.slc.cpg/sg11_26_cif.got.tgz:50420.got - 2010.06.27 23:14:04.
