data_PCOD8071880
_publ_section_title
;
Structure prediction by ZEFSAII (Michael W. Deem and Ramdas Pophale) SiO2 
 PCOD8071880
Probable space group: P 21/M
;
_chemical_formula_sum "Si O2"
_cell_formula_units_Z 28
_cell_length_a 8.075680
_cell_length_b 9.382668
_cell_length_c 30.614966
_cell_angle_alpha 90.000000
_cell_angle_beta 39.111255
_cell_angle_gamma 90.000000
_cell_volume 1463.357234
_symmetry_space_group_name_H-M "P 21/M"
_symmetry_group_IT_number 11
_symmetry_cell_setting 'monoclinic'
loop_
_space_group_symop_operation_xyz
x,y,z
-x,1/2+y,-z
-x,-y,-z
x,1/2-y,z
loop_
_atom_site_type_symbol
_atom_site_label
_atom_site_fract_x
_atom_site_fract_y
_atom_site_fract_z
Si Si1 0.897271 0.084718 0.923170
Si Si2 0.567205 0.912632 0.923606
Si Si3 0.277386 0.080623 0.571601
Si Si4 0.178781 0.416113 0.217868
Si Si5 0.722805 0.412700 0.651288
Si Si6 0.523466 0.586175 0.209284
Si Si7 0.679619 0.581622 0.335423
O O1 0.899665 0.250000 0.910746
O O2 0.196085 0.031757 0.866090
O O3 0.765417 0.008489 0.909666
O O4 0.735043 0.052706 0.000983
O O5 0.633677 0.750000 0.921941
O O6 0.611291 0.942630 0.863749
O O7 0.303851 0.250000 0.560042
O O8 0.316092 0.040699 0.614563
O O9 0.999758 0.017898 0.609822
O O10 0.500000 0.000000 0.500000
O O11 0.125021 0.250000 0.236657
O O12 0.299757 0.485871 0.235996
O O13 0.906118 0.495032 0.263780
O O14 0.797199 0.250000 0.629679
O O15 0.498079 0.431617 0.734171
O O16 0.595304 0.467737 0.631622
O O17 0.468227 0.750000 0.206786
O O18 0.725784 0.750000 0.318843
#
# Coordination Sequence:
#
# PCOD8071880 Si02
#       7
#     4   4   4   4   4   4   4
#     4   9  18  33  54  76 100 140 191 234 275 333
#     4   9  19  34  49  73 110 143 178 232 289 333
#     4  10  21  38  59  86 118 147 180 223 272 327
#     4  11  22  34  51  78 114 147 180 229 286 334
#     4   9  18  35  59  85 110 142 186 233 271 315
#     4  10  19  34  55  78 105 141 190 236 272 323
#     4  10  20  38  63  84 109 148 191 230 271 321
#
# _framework density 19.134084000000001
#
# number of rings (size 3 to 8) (size 9 to 14) (size 15 to 20)
#    0.000    2.286    1.429    1.286    0.000    4.571 
#    0.000    1.429    0.000    0.000    0.000    0.000 
#    0.000    0.000    0.000    0.000    0.000    0.000 
#
# Total GULP energy -347045.284089 kJ/mol
# GULP energy per Si atom -12394.474432 kJ/mol
# Density = 1.909053 g / cm^3
# Si number density = 19.134084 Si / 1000 Ang^3
#
#
#
# Elastic Constant Matrix: (Units=GPa)
#
#
# Indices 1 2 3 4 5 6 
#
# 1 145.9554 31.1707 61.8896 0.0000 -10.3629 0.0000
# 2 31.1707 39.8587 33.9992 0.0000 -4.2946 0.0000
# 3 61.8896 33.9992 109.7478 0.0000 -14.0291 0.0000
# 4 0.0000 0.0000 0.0000 29.6501 0.0000 -5.5338
# 5 -10.3629 -4.2946 -14.0291 0.0000 27.2219 0.0000
# 6 0.0000 0.0000 0.0000 -5.5338 0.0000 17.1637
#
#
#
# Elastic Compliance Matrix: (Units=1/GPa)
#
#
# Indices 1 2 3 4 5 6 
#
# 1 0.009442 -0.003865 -0.004010 0.000000 0.000918 0.000000
# 2 -0.003865 0.035681 -0.008931 0.000000 -0.000445 0.000000
# 3 -0.004010 -0.008931 0.014736 0.000000 0.004659 0.000000
# 4 0.000000 0.000000 0.000000 0.035886 0.000000 0.011570
# 5 0.000918 -0.000445 0.004659 0.000000 0.039415 0.000000
# 6 0.000000 0.000000 0.000000 0.011570 0.000000 0.061993
#
#
# Mechanical properties :
#
#
# Convention : Reuss Voigt Hill
#
# Bulk Modulus (GPa) = 38.09964 61.07567 49.58765
# Shear Modulus (GPa) = 20.87554 26.04065 23.45810
#
# Velocity S-wave (km/s) = 3.30663 3.69312 3.50521
# Velocity P-wave (km/s) = 5.87653 7.08340 6.50800
#
# Compressibility (1/GPa) = 0.02624697
#
# Stress axis : x y z
#
# Youngs Moduli (GPa) = 105.90540 28.02584 67.86266
#
# Poissons Ratio (x) = 0.10831 0.27214
# Poissons Ratio (y) = 0.40929 0.60611
# Poissons Ratio (z) = 0.42470 0.25031
#
# Static dielectric constant tensor:
#      x y z
#    x 3.655520 0.000000 -0.124570 
#    y 0.000000 3.315960 0.000000 
#    z -0.124570 0.000000 3.600790 
# 
# 
# High freq. dielectric constant tensor:
#      x y z
#    x 1.742060 0.000000 -0.004470 
#    y 0.000000 1.722560 0.000000 
#    z -0.004470 0.000000 1.748000 
# 
# From -- ./inp_files/69847.got.cif
#   From: 2010.06.25/outbox.cif.g09.slc.cpg/sg11_35_cif.got.tgz:69847.got - 2010.06.27 23:14:04.
