data_PCOD8071943
_publ_section_title
;
Structure prediction by ZEFSAII (Michael W. Deem and Ramdas Pophale) SiO2 
 PCOD8071943
Probable space group: P 21/M
;
_chemical_formula_sum "Si O2"
_cell_formula_units_Z 28
_cell_length_a 18.024181
_cell_length_b 8.723914
_cell_length_c 15.640712
_cell_angle_alpha 90.000000
_cell_angle_beta 143.011660
_cell_angle_gamma 90.000000
_cell_volume 1479.684583
_symmetry_space_group_name_H-M "P 21/M"
_symmetry_group_IT_number 11
_symmetry_cell_setting 'monoclinic'
loop_
_space_group_symop_operation_xyz
x,y,z
-x,1/2+y,-z
-x,-y,-z
x,1/2-y,z
loop_
_atom_site_type_symbol
_atom_site_label
_atom_site_fract_x
_atom_site_fract_y
_atom_site_fract_z
Si Si1 0.399740 0.569841 0.843502
Si Si2 0.167991 0.578788 0.120714
Si Si3 0.122802 0.571593 0.574407
Si Si4 0.150066 0.426733 0.422776
Si Si5 0.967861 0.075656 0.836220
Si Si6 0.597338 0.069606 0.350401
Si Si7 0.455643 0.925429 0.371390
O O1 0.403866 0.750000 0.860418
O O2 0.258216 0.511282 0.732859
O O3 0.436707 0.527476 0.779509
O O4 0.500000 0.500000 0.000000
O O5 0.119288 0.750000 0.054842
O O6 0.138284 0.541774 0.191982
O O7 0.310460 0.564988 0.236184
O O8 0.101572 0.456584 0.998950
O O9 0.115640 0.750000 0.585742
O O10 0.115978 0.537550 0.468601
O O11 0.000000 0.500000 0.500000
O O12 0.146418 0.250000 0.447756
O O13 0.050336 0.458232 0.257967
O O14 0.283345 0.474849 0.510209
O O15 0.962430 0.250000 0.798229
O O16 0.623394 0.250000 0.382673
O O17 0.493499 0.019011 0.321590
O O18 0.502441 0.750000 0.409790
O O19 0.500000 0.000000 0.500000
#
# Coordination Sequence:
#
# PCOD8071943 Si02
#       7
#     4   4   4   4   4   4   4
#     4   9  20  38  61  86 115 152 193 239 293 348
#     4   9  20  36  52  75 109 145 185 231 276 328
#     4  10  21  39  60  87 118 150 190 240 289 345
#     4  11  21  35  58  84 110 145 186 229 280 338
#     4  10  19  34  56  79 106 144 185 229 280 332
#     4  10  21  38  57  82 115 148 190 239 280 339
#     4  11  22  36  56  82 113 151 190 234 284 335
#
# _framework density 18.922951000000001
#
# number of rings (size 3 to 8) (size 9 to 14) (size 15 to 20)
#    0.000    2.000    0.000    4.714    0.000    6.286 
#    2.571    0.000    0.000    0.000    0.000    0.000 
#    0.000    0.000    0.000    0.000    0.000    0.000 
#
# Total GULP energy -347096.917798 kJ/mol
# GULP energy per Si atom -12396.318493 kJ/mol
# Density = 1.887988 g / cm^3
# Si number density = 18.922951 Si / 1000 Ang^3
#
#
#
# Elastic Constant Matrix: (Units=GPa)
#
#
# Indices 1 2 3 4 5 6 
#
# 1 96.6348 28.0303 60.4526 0.0000 8.2171 0.0000
# 2 28.0303 69.5793 41.1307 0.0000 0.1274 0.0000
# 3 60.4526 41.1307 104.8126 0.0000 -5.7799 0.0000
# 4 0.0000 0.0000 0.0000 35.4675 0.0000 -1.2916
# 5 8.2171 0.1274 -5.7799 0.0000 22.5019 0.0000
# 6 0.0000 0.0000 0.0000 -1.2916 0.0000 32.4840
#
#
#
# Elastic Compliance Matrix: (Units=1/GPa)
#
#
# Indices 1 2 3 4 5 6 
#
# 1 0.017993 -0.001035 -0.010482 0.000000 -0.009257 0.000000
# 2 -0.001035 0.018864 -0.006888 0.000000 -0.001498 0.000000
# 3 -0.010482 -0.006888 0.018769 0.000000 0.008688 0.000000
# 4 0.000000 0.000000 0.000000 0.028236 0.000000 0.001123
# 5 -0.009257 -0.001498 0.008688 0.000000 0.050061 0.000000
# 6 0.000000 0.000000 0.000000 0.001123 0.000000 0.030829
#
#
# Mechanical properties :
#
#
# Convention : Reuss Voigt Hill
#
# Bulk Modulus (GPa) = 53.15003 58.91709 56.03356
# Shear Modulus (GPa) = 24.05776 27.51823 25.78799
#
# Velocity S-wave (km/s) = 3.56947 3.81757 3.69560
# Velocity P-wave (km/s) = 6.71839 7.11580 6.91995
#
# Compressibility (1/GPa) = 0.01881467
#
# Stress axis : x y z
#
# Youngs Moduli (GPa) = 55.57709 53.01208 53.28055
#
# Poissons Ratio (x) = 0.05489 0.55849
# Poissons Ratio (y) = 0.05754 0.36699
# Poissons Ratio (z) = 0.58256 0.36514
#
# Static dielectric constant tensor:
#      x y z
#    x 3.702980 0.000000 0.055760 
#    y 0.000000 3.705100 0.000000 
#    z 0.055760 0.000000 3.162480 
# 
# 
# High freq. dielectric constant tensor:
#      x y z
#    x 1.731980 0.000000 0.001080 
#    y 0.000000 1.742660 0.000000 
#    z 0.001080 0.000000 1.733890 
# 
# From -- ./inp_files/53296.got.cif
#   From: 2010.06.25/outbox.cif.g09.slc.cpg/sg11_27_cif.got.tgz:53296.got - 2010.06.27 23:14:04.
