data_PCOD8071119
_publ_section_title
;
Structure prediction by ZEFSAII (Michael W. Deem and Ramdas Pophale) SiO2 
 PCOD8071119
Probable space group: P 21/M
;
_chemical_formula_sum "Si O2"
_cell_formula_units_Z 32
_cell_length_a 24.151901
_cell_length_b 9.256741
_cell_length_c 20.032293
_cell_angle_alpha 90.000000
_cell_angle_beta 23.774219
_cell_angle_gamma 90.000000
_cell_volume 1805.464888
_symmetry_space_group_name_H-M "P 21/M"
_symmetry_group_IT_number 11
_symmetry_cell_setting 'monoclinic'
loop_
_space_group_symop_operation_xyz
x,y,z
-x,1/2+y,-z
-x,-y,-z
x,1/2-y,z
loop_
_atom_site_type_symbol
_atom_site_label
_atom_site_fract_x
_atom_site_fract_y
_atom_site_fract_z
Si Si1 0.261939 0.918491 0.566583
Si Si2 0.043651 0.920126 0.271159
Si Si3 0.814432 0.417305 0.022669
Si Si4 0.495174 0.918462 0.074350
Si Si5 0.286927 0.417732 0.057465
Si Si6 0.226687 0.581172 0.450950
Si Si7 0.974072 0.921049 0.097463
Si Si8 0.574604 0.916676 0.233297
O O1 0.228719 0.750000 0.615933
O O2 0.243802 0.958309 0.509413
O O3 0.416184 0.956693 0.419122
O O4 0.164683 0.019006 0.717467
O O5 0.033188 0.750000 0.293519
O O6 0.149811 0.985852 0.207602
O O7 0.093156 0.963391 0.142411
O O8 0.896018 0.990457 0.446228
O O9 0.779827 0.250000 0.057710
O O10 0.668673 0.498542 0.182584
O O11 0.896773 0.459024 0.998152
O O12 0.487657 0.750000 0.067570
O O13 0.363598 0.967453 0.261917
O O14 0.631615 0.956970 0.965352
O O15 0.500000 0.000000 0.000000
O O16 0.245088 0.250000 0.101602
O O17 0.384413 0.456895 0.887494
O O18 0.196239 0.750000 0.475322
O O19 0.958936 0.750000 0.103814
O O20 0.000000 0.000000 0.000000
O O21 0.600849 0.750000 0.218262
#
# Coordination Sequence:
#
# PCOD8071119 Si02
#       8
#     4   4   4   4   4   4   4   4
#     4  10  19  34  57  84 109 138 180 226 269 318
#     4  10  19  32  52  82 112 137 175 227 274 317
#     4   9  19  34  51  77 112 141 171 219 272 316
#     4  10  21  37  56  80 112 146 183 224 271 327
#     4   9  17  33  54  78 108 143 179 220 270 323
#     4  10  19  34  56  81 109 142 181 223 268 322
#     4  11  23  39  56  79 112 147 182 221 269 324
#     4   9  17  31  55  83 107 135 178 223 265 319
#
# _framework density 17.723967999999999
#
# number of rings (size 3 to 8) (size 9 to 14) (size 15 to 20)
#    0.000    2.250    2.500    0.750    0.000    3.000 
#    0.000    1.250    0.000    0.000    0.000    0.000 
#    0.000    0.000    0.000    0.000    0.000    0.000 
#
# Total GULP energy -396868.948912 kJ/mol
# GULP energy per Si atom -12402.154654 kJ/mol
# Density = 1.768363 g / cm^3
# Si number density = 17.723968 Si / 1000 Ang^3
#
#
#
# Elastic Constant Matrix: (Units=GPa)
#
#
# Indices 1 2 3 4 5 6 
#
# 1 114.6173 53.6048 59.2441 0.0000 -13.7850 0.0000
# 2 53.6048 65.5559 51.7848 0.0000 -12.7462 0.0000
# 3 59.2441 51.7848 96.7406 0.0000 -15.1737 0.0000
# 4 0.0000 0.0000 0.0000 29.7078 0.0000 -1.7394
# 5 -13.7850 -12.7462 -15.1737 0.0000 31.5352 0.0000
# 6 0.0000 0.0000 0.0000 -1.7394 0.0000 32.6936
#
#
#
# Elastic Compliance Matrix: (Units=1/GPa)
#
#
# Indices 1 2 3 4 5 6 
#
# 1 0.015255 -0.008708 -0.004529 0.000000 0.000970 0.000000
# 2 -0.008708 0.031923 -0.011172 0.000000 0.003721 0.000000
# 3 -0.004529 -0.011172 0.019547 0.000000 0.002910 0.000000
# 4 0.000000 0.000000 0.000000 0.033766 0.000000 0.001796
# 5 0.000970 0.003721 0.002910 0.000000 0.035039 0.000000
# 6 0.000000 0.000000 0.000000 0.001796 0.000000 0.030683
#
#
# Mechanical properties :
#
#
# Convention : Reuss Voigt Hill
#
# Bulk Modulus (GPa) = 55.84120 67.35347 61.59734
# Shear Modulus (GPa) = 22.62461 26.27268 24.44865
#
# Velocity S-wave (km/s) = 3.57669 3.85427 3.71807
# Velocity P-wave (km/s) = 6.97362 7.60862 7.29803
#
# Compressibility (1/GPa) = 0.01790792
#
# Stress axis : x y z
#
# Youngs Moduli (GPa) = 65.55405 31.32535 51.15866
#
# Poissons Ratio (x) = 0.27277 0.23168
# Poissons Ratio (y) = 0.57083 0.57154
# Poissons Ratio (z) = 0.29687 0.34997
#
# Static dielectric constant tensor:
#      x y z
#    x 3.187370 0.000000 -0.402430 
#    y 0.000000 3.239610 0.000000 
#    z -0.402430 0.000000 2.909230 
# 
# 
# High freq. dielectric constant tensor:
#      x y z
#    x 1.681970 0.000000 -0.020100 
#    y 0.000000 1.684300 0.000000 
#    z -0.020100 0.000000 1.677480 
# 
# From -- ./inp_files/67119.got.cif
#   From: 2010.06.25/outbox.cif.g09.slc.cpg/sg11_34_cif.got.tgz:67119.got - 2010.06.27 23:14:04.
