data_PCOD8071153
_publ_section_title
;
Structure prediction by ZEFSAII (Michael W. Deem and Ramdas Pophale) SiO2 
 PCOD8071153
Probable space group: P 21/M
;
_chemical_formula_sum "Si O2"
_cell_formula_units_Z 32
_cell_length_a 22.634369
_cell_length_b 8.751351
_cell_length_c 9.298633
_cell_angle_alpha 90.000000
_cell_angle_beta 114.923988
_cell_angle_gamma 90.000000
_cell_volume 1670.346289
_symmetry_space_group_name_H-M "P 21/M"
_symmetry_group_IT_number 11
_symmetry_cell_setting 'monoclinic'
loop_
_space_group_symop_operation_xyz
x,y,z
-x,1/2+y,-z
-x,-y,-z
x,1/2-y,z
loop_
_atom_site_type_symbol
_atom_site_label
_atom_site_fract_x
_atom_site_fract_y
_atom_site_fract_z
Si Si1 0.884727 0.568318 0.223177
Si Si2 0.389998 0.068929 0.540740
Si Si3 0.007521 0.569010 0.164776
Si Si4 0.380522 0.071107 0.205016
Si Si5 0.123353 0.068790 0.460050
Si Si6 0.233766 0.069824 0.082999
Si Si7 0.506974 0.069785 0.852240
Si Si8 0.247131 0.431099 0.414673
O O1 0.881080 0.750000 0.223267
O O2 0.886819 0.506846 0.388777
O O3 0.821300 0.498858 0.077717
O O4 0.948547 0.510889 0.204964
O O5 0.391450 0.250000 0.551568
O O6 0.398842 0.018398 0.384766
O O7 0.448900 0.999612 0.694377
O O8 0.319873 0.008362 0.527968
O O9 0.007221 0.750000 0.151482
O O10 0.074050 0.513046 0.302783
O O11 0.000000 0.500000 0.000000
O O12 0.393965 0.250000 0.196320
O O13 0.423275 0.974906 0.139054
O O14 0.305231 0.030924 0.094936
O O15 0.113015 0.250000 0.438093
O O16 0.196015 0.020308 0.484602
O O17 0.223712 0.250000 0.078593
O O18 0.225465 0.003347 0.236192
O O19 0.501211 0.250000 0.856495
O O20 0.500000 0.000000 0.000000
O O21 0.250764 0.250000 0.403960
#
# Coordination Sequence:
#
# PCOD8071153 Si02
#       8
#     4   4   4   4   4   4   4   4
#     4   9  18  31  50  78 106 133 167 207 250 299
#     4   8  16  31  52  77 100 128 169 212 250 295
#     4  11  22  36  54  75 102 135 174 216 254 296
#     4   9  17  32  55  78  99 126 164 210 257 302
#     4  10  19  32  53  79 105 132 163 203 254 306
#     4   8  14  27  49  76 101 126 163 208 247 291
#     4  11  22  34  49  72 104 137 171 211 255 303
#     4   8  14  27  50  77 101 127 166 211 248 292
#
# _framework density 19.157705
#
# number of rings (size 3 to 8) (size 9 to 14) (size 15 to 20)
#    0.000    2.750    0.000    3.750    0.000    3.000 
#    0.000    5.000    0.000   11.250    0.000    0.000 
#    0.000    0.000    0.000    0.000    0.000    0.000 
#
# Total GULP energy -396697.609752 kJ/mol
# GULP energy per Si atom -12396.800305 kJ/mol
# Density = 1.911410 g / cm^3
# Si number density = 19.157705 Si / 1000 Ang^3
#
#
#
# Elastic Constant Matrix: (Units=GPa)
#
#
# Indices 1 2 3 4 5 6 
#
# 1 144.7670 28.7486 53.8142 0.0000 -14.6098 0.0000
# 2 28.7486 30.6485 19.1826 0.0000 -3.1350 0.0000
# 3 53.8142 19.1826 86.5740 0.0000 -10.7962 0.0000
# 4 0.0000 0.0000 0.0000 21.5375 0.0000 0.0787
# 5 -14.6098 -3.1350 -10.7962 0.0000 32.9103 0.0000
# 6 0.0000 0.0000 0.0000 0.0787 0.0000 24.4189
#
#
#
# Elastic Compliance Matrix: (Units=1/GPa)
#
#
# Indices 1 2 3 4 5 6 
#
# 1 0.010117 -0.006381 -0.004578 0.000000 0.002382 0.000000
# 2 -0.006381 0.041931 -0.005401 0.000000 -0.000610 0.000000
# 3 -0.004578 -0.005401 0.015927 0.000000 0.002678 0.000000
# 4 0.000000 0.000000 0.000000 0.046431 0.000000 -0.000150
# 5 0.002382 -0.000610 0.002678 0.000000 0.032263 0.000000
# 6 0.000000 0.000000 0.000000 -0.000150 0.000000 0.040952
#
#
# Mechanical properties :
#
#
# Convention : Reuss Voigt Hill
#
# Bulk Modulus (GPa) = 28.36364 51.72003 40.04184
# Shear Modulus (GPa) = 21.54314 26.45629 23.99972
#
# Velocity S-wave (km/s) = 3.35702 3.72018 3.54325
# Velocity P-wave (km/s) = 5.46476 6.74600 6.13890
#
# Compressibility (1/GPa) = 0.03525641
#
# Stress axis : x y z
#
# Youngs Moduli (GPa) = 98.84510 23.84863 62.78665
#
# Poissons Ratio (x) = 0.15218 0.28742
# Poissons Ratio (y) = 0.63072 0.33908
# Poissons Ratio (z) = 0.45249 0.12880
#
# Static dielectric constant tensor:
#      x y z
#    x 3.781160 0.000000 0.159240 
#    y 0.000000 2.985150 0.000000 
#    z 0.159240 0.000000 3.825640 
# 
# 
# High freq. dielectric constant tensor:
#      x y z
#    x 1.761030 0.000000 0.004860 
#    y 0.000000 1.689850 0.000000 
#    z 0.004860 0.000000 1.751290 
# 
# From -- ./inp_files/26420.got.cif
#   From: 2010.06.25/outbox.cif.g09.slc.cpg/sg11_14_cif.got.tgz:26420.got - 2010.06.27 23:14:04.
