data_PCOD8071498
_publ_section_title
;
Structure prediction by ZEFSAII (Michael W. Deem and Ramdas Pophale) SiO2 
 PCOD8071498
Probable space group: P 21/M
;
_chemical_formula_sum "Si O2"
_cell_formula_units_Z 28
_cell_length_a 17.236123
_cell_length_b 11.509689
_cell_length_c 8.558647
_cell_angle_alpha 90.000000
_cell_angle_beta 118.237860
_cell_angle_gamma 90.000000
_cell_volume 1495.821472
_symmetry_space_group_name_H-M "P 21/M"
_symmetry_group_IT_number 11
_symmetry_cell_setting 'monoclinic'
loop_
_space_group_symop_operation_xyz
x,y,z
-x,1/2+y,-z
-x,-y,-z
x,1/2-y,z
loop_
_atom_site_type_symbol
_atom_site_label
_atom_site_fract_x
_atom_site_fract_y
_atom_site_fract_z
Si Si1 0.188946 0.377425 0.984187
Si Si2 0.182762 0.878669 0.457352
Si Si3 0.403393 0.881451 0.110921
Si Si4 0.595847 0.617977 0.370023
Si Si5 0.300899 0.537646 0.302466
Si Si6 0.284329 0.465774 0.781443
Si Si7 0.996059 0.113650 0.883731
O O1 0.210895 0.250000 0.070899
O O2 0.235239 0.387749 0.860981
O O3 0.084312 0.393136 0.864602
O O4 0.224031 0.466695 0.144660
O O5 0.183540 0.750000 0.528020
O O6 0.208438 0.962549 0.622390
O O7 0.085941 0.911349 0.306210
O O8 0.253888 0.882415 0.385309
O O9 0.408724 0.750000 0.056357
O O10 0.501436 0.933023 0.226861
O O11 0.351267 0.884330 0.224757
O O12 0.355612 0.952082 0.930421
O O13 0.584291 0.750000 0.414713
O O14 0.628564 0.546490 0.549925
O O15 0.664945 0.614176 0.293781
O O16 0.988286 0.250000 0.946826
O O17 0.000000 0.000000 0.000000
#
# Coordination Sequence:
#
# PCOD8071498 Si02
#       7
#     4   4   4   4   4   4   4
#     4  10  20  35  55  78 108 140 176 221 269 322
#     4  10  20  35  55  78 108 140 176 221 269 322
#     4  10  20  34  52  75 104 138 177 221 266 314
#     4  10  20  34  52  75 104 138 177 221 266 314
#     4  10  19  33  54  78 104 134 180 219 271 316
#     4  10  21  35  52  76 106 142 178 213 265 320
#     4  10  20  37  58  84 112 142 178 225 274 324
#
# _framework density 18.718812
#
# number of rings (size 3 to 8) (size 9 to 14) (size 15 to 20)
#    0.000    2.000    1.429    2.571    0.000    0.571 
#    0.000    1.429    0.000   13.714    0.000    0.000 
#    0.000    0.000    0.000    0.000    0.000    0.000 
#
# Total GULP energy -347082.459719 kJ/mol
# GULP energy per Si atom -12395.802133 kJ/mol
# Density = 1.867621 g / cm^3
# Si number density = 18.718812 Si / 1000 Ang^3
#
#
#
# Elastic Constant Matrix: (Units=GPa)
#
#
# Indices 1 2 3 4 5 6 
#
# 1 59.1474 11.0121 18.8394 0.0000 22.1355 0.0000
# 2 11.0121 70.8828 26.5521 0.0000 16.6733 0.0000
# 3 18.8394 26.5521 88.8686 0.0000 24.2988 0.0000
# 4 0.0000 0.0000 0.0000 813.6303 0.0000 -709.2558
# 5 22.1355 16.6733 24.2988 0.0000 35.9307 0.0000
# 6 0.0000 0.0000 0.0000 -709.2558 0.0000 664.7201
#
#
#
# Elastic Compliance Matrix: (Units=1/GPa)
#
#
# Indices 1 2 3 4 5 6 
#
# 1 0.022073 0.000028 -0.001185 0.000000 -0.012810 0.000000
# 2 0.000028 0.016688 -0.003521 0.000000 -0.005380 0.000000
# 3 -0.001185 -0.003521 0.014611 0.000000 -0.007517 0.000000
# 4 0.000000 0.000000 0.000000 0.017589 0.000000 0.018767
# 5 -0.012810 -0.005380 -0.007517 0.000000 0.043303 0.000000
# 6 0.000000 0.000000 0.000000 0.018767 0.000000 0.021529
#
#
# Mechanical properties :
#
#
# Convention : Reuss Voigt Hill
#
# Bulk Modulus (GPa) = 22.71902 36.85622 29.78762
# Shear Modulus (GPa) = 31.28500 313.68924 172.48712
#
# Velocity S-wave (km/s) = 4.09260 12.95930 9.60971
# Velocity P-wave (km/s) = 5.87332 15.60951 11.79306
#
# Compressibility (1/GPa) = 0.04401598
#
# Stress axis : x y z
#
# Youngs Moduli (GPa) = 45.30378 59.92378 68.44094
#
# Poissons Ratio (x) = -0.00167 0.08111
# Poissons Ratio (y) = -0.00127 0.24097
# Poissons Ratio (z) = 0.05369 0.21099
#
# Static dielectric constant tensor:
#      x y z
#    x 3.453020 0.000000 0.181520 
#    y 0.000000 3.474950 0.000000 
#    z 0.181520 0.000000 3.395580 
# 
# 
# High freq. dielectric constant tensor:
#      x y z
#    x 1.731780 0.000000 0.016620 
#    y 0.000000 1.730890 0.000000 
#    z 0.016620 0.000000 1.724120 
# 
# From -- ./inp_files/20948.got.cif
#   From: 2010.06.25/outbox.cif.g09.slc.cpg/sg11_11_cif.got.tgz:20948.got - 2010.06.27 23:14:04.
