data_PCOD8071860
_publ_section_title
;
Structure prediction by ZEFSAII (Michael W. Deem and Ramdas Pophale) SiO2 
 PCOD8071860
Probable space group: P 21/M
;
_chemical_formula_sum "Si O2"
_cell_formula_units_Z 32
_cell_length_a 9.454134
_cell_length_b 11.075945
_cell_length_c 20.917595
_cell_angle_alpha 90.000000
_cell_angle_beta 132.018830
_cell_angle_gamma 90.000000
_cell_volume 1627.268419
_symmetry_space_group_name_H-M "P 21/M"
_symmetry_group_IT_number 11
_symmetry_cell_setting 'monoclinic'
loop_
_space_group_symop_operation_xyz
x,y,z
-x,1/2+y,-z
-x,-y,-z
x,1/2-y,z
loop_
_atom_site_type_symbol
_atom_site_label
_atom_site_fract_x
_atom_site_fract_y
_atom_site_fract_z
Si Si1 0.049113 0.610914 0.668183
Si Si2 0.352940 0.388878 0.967074
Si Si3 0.681355 0.393690 0.359603
Si Si4 0.860606 0.613835 0.966001
Si Si5 0.721374 0.014846 0.504000
Si Si6 0.265379 0.114835 0.211069
Si Si7 0.653925 0.377843 0.609246
Si Si8 0.997287 0.971435 0.216311
O O1 0.082328 0.750000 0.691267
O O2 0.210396 0.556006 0.670153
O O3 0.847456 0.594105 0.570760
O O4 0.065262 0.549687 0.741827
O O5 0.437670 0.250000 0.986277
O O6 0.183133 0.397826 0.864056
O O7 0.500000 0.500000 0.000000
O O8 0.273737 0.407696 0.014133
O O9 0.684605 0.250000 0.359258
O O10 0.792234 0.439286 0.456514
O O11 0.465084 0.443979 0.293938
O O12 0.957600 0.750000 0.000831
O O13 0.729727 0.612693 0.863973
O O14 0.000000 0.500000 0.000000
O O15 0.732904 0.120205 0.560292
O O16 0.500155 0.981272 0.427371
O O17 0.255234 0.250000 0.234902
O O18 0.079077 0.050150 0.182544
O O19 0.553754 0.250000 0.591397
O O20 0.831311 0.385012 0.710998
#
# Coordination Sequence:
#
# PCOD8071860 Si02
#       8
#     4   4   4   4   4   4   4   4
#     4  10  22  35  55  86 121 159 200 250 297 360
#     4  11  26  44  67  94 128 166 207 255 314 384
#     4  10  20  35  55  81 115 154 200 248 300 357
#     4  10  21  40  65  94 124 159 202 255 311 372
#     4  10  19  34  54  80 112 156 194 242 297 348
#     4  10  20  35  59  87 116 151 197 249 302 364
#     4  10  20  33  54  81 111 145 191 242 291 344
#     4  11  21  39  61  85 118 153 197 244 304 358
#
# _framework density 19.664856
#
# number of rings (size 3 to 8) (size 9 to 14) (size 15 to 20)
#    0.000    1.750    2.500    1.875    1.750    1.500 
#    0.000    0.000    0.000    2.250    0.000    0.000 
#    0.000    0.000    0.000    0.000    0.000    0.000 
#
# Total GULP energy -396485.370573 kJ/mol
# GULP energy per Si atom -12390.167830 kJ/mol
# Density = 1.962010 g / cm^3
# Si number density = 19.664856 Si / 1000 Ang^3
#
#
#
# Elastic Constant Matrix: (Units=GPa)
#
#
# Indices 1 2 3 4 5 6 
#
# 1 103.4357 41.2062 35.1783 0.0000 -18.8935 0.0000
# 2 41.2062 99.4589 31.9638 0.0000 -0.3826 0.0000
# 3 35.1783 31.9638 99.0693 0.0000 -11.1383 0.0000
# 4 0.0000 0.0000 0.0000 -137.5964 0.0000 25.6701
# 5 -18.8935 -0.3826 -11.1383 0.0000 37.6740 0.0000
# 6 0.0000 0.0000 0.0000 25.6701 0.0000 25.2081
#
#
#
# Elastic Compliance Matrix: (Units=1/GPa)
#
#
# Indices 1 2 3 4 5 6 
#
# 1 0.013535 -0.004748 -0.002603 0.000000 0.005970 0.000000
# 2 -0.004748 0.012919 -0.002829 0.000000 -0.003086 0.000000
# 3 -0.002603 -0.002829 0.012186 0.000000 0.002269 0.000000
# 4 0.000000 0.000000 0.000000 -0.006107 0.000000 0.006219
# 5 0.005970 -0.003086 0.002269 0.000000 0.030177 0.000000
# 6 0.000000 0.000000 0.000000 0.006219 0.000000 0.033336
#
#
# Mechanical properties :
#
#
# Convention : Reuss Voigt Hill
#
# Bulk Modulus (GPa) = 54.70596 57.62893 56.16744
# Shear Modulus (GPa) = 40.81632 -2.03513 19.39060
#
# Velocity S-wave (km/s) = 4.56082 -1.01841 3.14356
# Velocity P-wave (km/s) = 7.45750 5.29021 6.46531
#
# Compressibility (1/GPa) = 0.01827954
#
# Stress axis : x y z
#
# Youngs Moduli (GPa) = 73.88167 77.40572 82.06066
#
# Poissons Ratio (x) = 0.36753 0.21360
# Poissons Ratio (y) = 0.35080 0.23216
# Poissons Ratio (z) = 0.19231 0.21899
#
# Static dielectric constant tensor:
#      x y z
#    x 3.645290 0.000000 -0.161950 
#    y 0.000000 3.537400 0.000000 
#    z -0.161950 0.000000 3.616810 
# 
# 
# High freq. dielectric constant tensor:
#      x y z
#    x 1.762980 0.000000 -0.017350 
#    y 0.000000 1.755050 0.000000 
#    z -0.017350 0.000000 1.773490 
# 
# From -- ./inp_files/26586.got.cif
#   From: 2010.06.25/outbox.cif.g09.slc.cpg/sg11_14_cif.got.tgz:26586.got - 2010.06.27 23:14:04.
