data_PCOD8071138
_publ_section_title
;
Structure prediction by ZEFSAII (Michael W. Deem and Ramdas Pophale) SiO2 
 PCOD8071138
Probable space group: P 21/M
;
_chemical_formula_sum "Si O2"
_cell_formula_units_Z 32
_cell_length_a 23.017612
_cell_length_b 11.204293
_cell_length_c 8.894599
_cell_angle_alpha 90.000000
_cell_angle_beta 132.392577
_cell_angle_gamma 90.000000
_cell_volume 1694.129879
_symmetry_space_group_name_H-M "P 21/M"
_symmetry_group_IT_number 11
_symmetry_cell_setting 'monoclinic'
loop_
_space_group_symop_operation_xyz
x,y,z
-x,1/2+y,-z
-x,-y,-z
x,1/2-y,z
loop_
_atom_site_type_symbol
_atom_site_label
_atom_site_fract_x
_atom_site_fract_y
_atom_site_fract_z
Si Si1 0.330716 0.389114 0.337362
Si Si2 0.994670 0.997583 0.238295
Si Si3 0.378987 0.495321 0.854388
Si Si4 0.278902 0.612883 0.443226
Si Si5 0.731712 0.612250 0.096739
Si Si6 0.525734 0.618919 0.226865
Si Si7 0.096461 0.385175 0.647243
Si Si8 0.100318 0.883696 0.186721
O O1 0.304442 0.250000 0.337075
O O2 0.285869 0.500595 0.339695
O O3 0.319777 0.407222 0.141816
O O4 0.423729 0.404493 0.533857
O O5 0.059596 0.914084 0.273728
O O6 0.946466 0.929806 0.280019
O O7 0.042695 0.102589 0.405036
O O8 0.932396 0.038675 0.006942
O O9 0.344586 0.600703 0.688407
O O10 0.413420 0.393062 0.806204
O O11 0.308639 0.450076 0.833250
O O12 0.450932 0.533501 0.086831
O O13 0.287678 0.750000 0.390757
O O14 0.193170 0.597869 0.366783
O O15 0.739073 0.750000 0.152427
O O16 0.818159 0.552711 0.225416
O O17 0.489901 0.750000 0.163263
O O18 0.115346 0.250000 0.712409
O O19 0.078505 0.750000 0.105889
#
# Coordination Sequence:
#
# PCOD8071138 Si02
#       8
#     4   4   4   4   4   4   4   4
#     4   9  19  36  56  79 108 142 178 216 260 312
#     4  10  20  34  52  74 100 134 175 212 258 312
#     4  10  19  32  53  77 104 136 174 213 259 311
#     4  10  20  35  54  78 109 142 177 219 265 313
#     4  10  20  34  53  78 106 136 175 220 263 310
#     4   9  18  33  52  74 102 136 173 214 257 305
#     4  10  20  34  52  74 102 134 169 213 260 308
#     4  10  20  34  52  75 104 136 173 218 263 308
#
# _framework density 18.888753000000001
#
# number of rings (size 3 to 8) (size 9 to 14) (size 15 to 20)
#    0.000    2.250    0.000    3.000    0.000    1.000 
#    0.000    5.000    0.000    6.000    0.000    0.000 
#    0.000    0.000    0.000    0.000    0.000    0.000 
#
# Total GULP energy -396481.995766 kJ/mol
# GULP energy per Si atom -12390.062368 kJ/mol
# Density = 1.884576 g / cm^3
# Si number density = 18.888753 Si / 1000 Ang^3
#
#
#
# Elastic Constant Matrix: (Units=GPa)
#
#
# Indices 1 2 3 4 5 6 
#
# 1 74.1019 18.2046 25.7711 0.0000 1.9219 0.0000
# 2 18.2046 73.8988 9.9422 0.0000 1.1555 0.0000
# 3 25.7711 9.9422 80.5076 0.0000 4.4134 0.0000
# 4 0.0000 0.0000 0.0000 22.2752 0.0000 3.5910
# 5 1.9219 1.1555 4.4134 0.0000 22.4820 0.0000
# 6 0.0000 0.0000 0.0000 3.5910 0.0000 13.1913
#
#
#
# Elastic Compliance Matrix: (Units=1/GPa)
#
#
# Indices 1 2 3 4 5 6 
#
# 1 0.015939 -0.003292 -0.004680 0.000000 -0.000275 0.000000
# 2 -0.003292 0.014444 -0.000712 0.000000 -0.000321 0.000000
# 3 -0.004680 -0.000712 0.014136 0.000000 -0.002338 0.000000
# 4 0.000000 0.000000 0.000000 0.046954 0.000000 -0.012782
# 5 -0.000275 -0.000321 -0.002338 0.000000 0.044979 0.000000
# 6 0.000000 0.000000 0.000000 -0.012782 0.000000 0.079287
#
#
# Mechanical properties :
#
#
# Convention : Reuss Voigt Hill
#
# Bulk Modulus (GPa) = 36.83511 37.37158 37.10335
# Shear Modulus (GPa) = 20.64777 23.22908 21.93842
#
# Velocity S-wave (km/s) = 3.30983 3.51063 3.41171
# Velocity P-wave (km/s) = 5.84381 6.02169 5.93341
#
# Compressibility (1/GPa) = 0.02714801
#
# Stress axis : x y z
#
# Youngs Moduli (GPa) = 62.74052 69.23321 70.74350
#
# Poissons Ratio (x) = 0.22795 0.33111
# Poissons Ratio (y) = 0.20657 0.05038
# Poissons Ratio (z) = 0.29365 0.04931
#
# Static dielectric constant tensor:
#      x y z
#    x 3.362980 0.000000 0.121530 
#    y 0.000000 3.491370 0.000000 
#    z 0.121530 0.000000 3.599870 
# 
# 
# High freq. dielectric constant tensor:
#      x y z
#    x 1.722920 0.000000 0.010890 
#    y 0.000000 1.726510 0.000000 
#    z 0.010890 0.000000 1.748520 
# 
# From -- ./inp_files/26589.got.cif
#   From: 2010.06.25/outbox.cif.g09.slc.cpg/sg11_14_cif.got.tgz:26589.got - 2010.06.27 23:14:04.
