data_PCOD8071439
_publ_section_title
;
Structure prediction by ZEFSAII (Michael W. Deem and Ramdas Pophale) SiO2 
 PCOD8071439
Probable space group: P 21/M
;
_chemical_formula_sum "Si O2"
_cell_formula_units_Z 20
_cell_length_a 9.102870
_cell_length_b 13.167619
_cell_length_c 13.311098
_cell_angle_alpha 90.000000
_cell_angle_beta 49.021566
_cell_angle_gamma 90.000000
_cell_volume 1204.540432
_symmetry_space_group_name_H-M "P 21/M"
_symmetry_group_IT_number 11
_symmetry_cell_setting 'monoclinic'
loop_
_space_group_symop_operation_xyz
x,y,z
-x,1/2+y,-z
-x,-y,-z
x,1/2-y,z
loop_
_atom_site_type_symbol
_atom_site_label
_atom_site_fract_x
_atom_site_fract_y
_atom_site_fract_z
Si Si1 0.417111 0.511822 0.927102
Si Si2 0.309189 0.506444 0.362866
Si Si3 0.981301 0.870767 0.401606
Si Si4 0.340213 0.130406 0.795711
Si Si5 0.044989 0.869127 0.144434
O O1 0.592771 0.552190 0.776727
O O2 0.342798 0.404216 0.912441
O O3 0.500000 0.500000 0.000000
O O4 0.237339 0.588148 0.006383
O O5 0.223696 0.422466 0.476377
O O6 0.478154 0.573776 0.341260
O O7 0.146838 0.586820 0.400212
O O8 0.963547 0.750000 0.421369
O O9 0.030516 0.903708 0.266303
O O10 0.367841 0.250000 0.775874
O O11 0.143722 0.092152 0.830872
O O12 0.060077 0.750000 0.129574
#
# Coordination Sequence:
#
# PCOD8071439 Si02
#       5
#     4   4   4   4   4
#     4  10  19  33  53  78 101 131 171 209 249 298
#     4   9  20  32  53  74 100 136 167 212 249 296
#     4  10  19  34  52  75 102 133 171 210 251 302
#     4   9  19  34  53  75 101 135 169 208 254 303
#     4  10  19  33  55  76 101 134 168 205 257 308
#
# _framework density 16.603843000000001
#
# number of rings (size 3 to 8) (size 9 to 14) (size 15 to 20)
#    1.200    1.200    2.000    1.200    0.000    2.400 
#    0.000    0.000    0.000    0.000    0.000    0.000 
#    0.000    0.000    0.000    0.000    0.000    0.000 
#
# Total GULP energy -247795.623674 kJ/mol
# GULP energy per Si atom -12389.781184 kJ/mol
# Density = 1.656605 g / cm^3
# Si number density = 16.603843 Si / 1000 Ang^3
#
#
#
# Elastic Constant Matrix: (Units=GPa)
#
#
# Indices 1 2 3 4 5 6 
#
# 1 68.7769 29.8558 9.8519 0.0000 -20.1325 0.0000
# 2 29.8558 55.5938 41.4646 0.0000 -4.8087 0.0000
# 3 9.8519 41.4646 89.4217 0.0000 -18.3046 0.0000
# 4 0.0000 0.0000 0.0000 32.1176 0.0000 -3.7359
# 5 -20.1325 -4.8087 -18.3046 0.0000 24.6785 0.0000
# 6 0.0000 0.0000 0.0000 -3.7359 0.0000 25.7832
#
#
#
# Elastic Compliance Matrix: (Units=1/GPa)
#
#
# Indices 1 2 3 4 5 6 
#
# 1 0.034108 -0.027187 0.015870 0.000000 0.034299 0.000000
# 2 -0.027187 0.049666 -0.026638 0.000000 -0.032259 0.000000
# 3 0.015870 -0.026638 0.027558 0.000000 0.028196 0.000000
# 4 0.000000 0.000000 0.000000 0.031669 0.000000 0.004589
# 5 0.034299 -0.032259 0.028196 0.000000 0.083130 0.000000
# 6 0.000000 0.000000 0.000000 0.004589 0.000000 0.039450
#
#
# Mechanical properties :
#
#
# Convention : Reuss Voigt Hill
#
# Bulk Modulus (GPa) = 28.23140 41.79299 35.01220
# Shear Modulus (GPa) = 14.15231 25.35719 19.75475
#
# Velocity S-wave (km/s) = 2.92267 3.91216 3.45305
# Velocity P-wave (km/s) = 5.33190 6.75515 6.08528
#
# Compressibility (1/GPa) = 0.03542155
#
# Stress axis : x y z
#
# Youngs Moduli (GPa) = 29.31835 20.13468 36.28667
#
# Poissons Ratio (x) = 0.54740 -0.57586
# Poissons Ratio (y) = 0.79708 0.96660
# Poissons Ratio (z) = -0.46527 0.53635
#
# Static dielectric constant tensor:
#      x y z
#    x 3.218590 0.000000 -0.150410 
#    y 0.000000 2.906800 0.000000 
#    z -0.150410 0.000000 3.227860 
# 
# 
# High freq. dielectric constant tensor:
#      x y z
#    x 1.646100 0.000000 -0.015270 
#    y 0.000000 1.624120 0.000000 
#    z -0.015270 0.000000 1.636830 
# 
# From -- ./inp_files/12131.got.cif
#   From: 2010.06.25/outbox.cif.g09.slc.cpg/sg11_7_cif.got.tgz:12131.got - 2010.06.27 23:14:04.
