data_PCOD8071461
_publ_section_title
;
Structure prediction by ZEFSAII (Michael W. Deem and Ramdas Pophale) SiO2 
 PCOD8071461
Probable space group: P 21/M
;
_chemical_formula_sum "Si O2"
_cell_formula_units_Z 28
_cell_length_a 9.537468
_cell_length_b 9.123383
_cell_length_c 24.837701
_cell_angle_alpha 90.000000
_cell_angle_beta 138.859567
_cell_angle_gamma 90.000000
_cell_volume 1421.886113
_symmetry_space_group_name_H-M "P 21/M"
_symmetry_group_IT_number 11
_symmetry_cell_setting 'monoclinic'
loop_
_space_group_symop_operation_xyz
x,y,z
-x,1/2+y,-z
-x,-y,-z
x,1/2-y,z
loop_
_atom_site_type_symbol
_atom_site_label
_atom_site_fract_x
_atom_site_fract_y
_atom_site_fract_z
Si Si1 0.854200 0.578516 0.002170
Si Si2 0.844747 0.077209 0.313898
Si Si3 0.363947 0.924557 0.855298
Si Si4 0.667183 0.585513 0.687740
Si Si5 0.793081 0.078877 0.417354
Si Si6 0.296224 0.412750 0.424692
Si Si7 0.049968 0.077443 0.847575
O O1 0.873119 0.750000 0.996099
O O2 0.928736 0.537682 0.083631
O O3 0.609399 0.526690 0.927690
O O4 0.000000 0.500000 0.000000
O O5 0.862285 0.250000 0.309900
O O6 0.719882 0.013288 0.226425
O O7 0.736503 0.036614 0.339093
O O8 0.085155 0.013520 0.388659
O O9 0.338786 0.750000 0.854052
O O10 0.233525 0.997386 0.866351
O O11 0.676301 0.750000 0.715653
O O12 0.421440 0.530688 0.613803
O O13 0.753405 0.588699 0.652682
O O14 0.814095 0.476398 0.763912
O O15 0.840936 0.250000 0.437195
O O16 0.000000 0.000000 0.500000
O O17 0.500000 0.500000 0.500000
O O18 0.332999 0.250000 0.457721
O O19 0.070678 0.250000 0.843135
#
# Coordination Sequence:
#
# PCOD8071461 Si02
#       7
#     4   4   4   4   4   4   4
#     4  10  24  41  63  93 123 155 193 238 292 352
#     4   9  18  34  56  81 109 144 192 237 275 337
#     4  10  20  40  65  87 115 157 200 238 288 354
#     4  10  21  37  58  83 113 156 201 234 280 357
#     4  10  21  36  56  82 113 151 196 242 292 348
#     4  10  19  33  53  79 110 144 189 238 281 336
#     4  11  23  39  59  91 125 152 191 246 298 344
#
# _framework density 19.692153999999999
#
# number of rings (size 3 to 8) (size 9 to 14) (size 15 to 20)
#    0.000    2.000    1.429    1.714    2.000    2.857 
#    0.000    0.714    0.000    0.000    0.000    0.000 
#    0.000    0.000    0.000    0.000    0.000    0.000 
#
# Total GULP energy -347112.431749 kJ/mol
# GULP energy per Si atom -12396.872562 kJ/mol
# Density = 1.964733 g / cm^3
# Si number density = 19.692154 Si / 1000 Ang^3
#
#
#
# Elastic Constant Matrix: (Units=GPa)
#
#
# Indices 1 2 3 4 5 6 
#
# 1 100.5606 34.9516 32.2610 0.0000 7.2479 0.0000
# 2 34.9516 59.1798 42.8965 0.0000 3.3926 0.0000
# 3 32.2610 42.8965 118.7880 0.0000 9.3711 0.0000
# 4 0.0000 0.0000 0.0000 32.5409 0.0000 3.4582
# 5 7.2479 3.3926 9.3711 0.0000 35.4531 0.0000
# 6 0.0000 0.0000 0.0000 3.4582 0.0000 29.2887
#
#
#
# Elastic Compliance Matrix: (Units=1/GPa)
#
#
# Indices 1 2 3 4 5 6 
#
# 1 0.012701 -0.006774 -0.000868 0.000000 -0.001719 0.000000
# 2 -0.006774 0.026501 -0.007802 0.000000 0.000911 0.000000
# 3 -0.000868 -0.007802 0.011641 0.000000 -0.002153 0.000000
# 4 0.000000 0.000000 0.000000 0.031121 0.000000 -0.003675
# 5 -0.001719 0.000911 -0.002153 0.000000 0.029040 0.000000
# 6 0.000000 0.000000 0.000000 -0.003675 0.000000 0.034577
#
#
# Mechanical properties :
#
#
# Convention : Reuss Voigt Hill
#
# Bulk Modulus (GPa) = 50.10941 55.41628 52.76284
# Shear Modulus (GPa) = 27.30440 30.68450 28.99445
#
# Velocity S-wave (km/s) = 3.72770 3.95170 3.84133
# Velocity P-wave (km/s) = 6.63545 7.00169 6.82103
#
# Compressibility (1/GPa) = 0.01995633
#
# Stress axis : x y z
#
# Youngs Moduli (GPa) = 78.73529 37.73373 85.89996
#
# Poissons Ratio (x) = 0.25559 0.07453
# Poissons Ratio (y) = 0.53332 0.67023
# Poissons Ratio (z) = 0.06832 0.29441
#
# Static dielectric constant tensor:
#      x y z
#    x 3.758000 0.000000 0.006280 
#    y 0.000000 3.363090 0.000000 
#    z 0.006280 0.000000 3.665110 
# 
# 
# High freq. dielectric constant tensor:
#      x y z
#    x 1.782190 0.000000 0.003670 
#    y 0.000000 1.739200 0.000000 
#    z 0.003670 0.000000 1.779030 
# 
# From -- ./inp_files/28562.got.cif
#   From: 2010.06.25/outbox.cif.g09.slc.cpg/sg11_15_cif.got.tgz:28562.got - 2010.06.27 23:14:04.
