data_PCOD8071484
_publ_section_title
;
Structure prediction by ZEFSAII (Michael W. Deem and Ramdas Pophale) SiO2 
 PCOD8071484
Probable space group: P 21/M
;
_chemical_formula_sum "Si O2"
_cell_formula_units_Z 28
_cell_length_a 14.092883
_cell_length_b 13.022561
_cell_length_c 8.433055
_cell_angle_alpha 90.000000
_cell_angle_beta 82.800258
_cell_angle_gamma 90.000000
_cell_volume 1535.476987
_symmetry_space_group_name_H-M "P 21/M"
_symmetry_group_IT_number 11
_symmetry_cell_setting 'monoclinic'
loop_
_space_group_symop_operation_xyz
x,y,z
-x,1/2+y,-z
-x,-y,-z
x,1/2-y,z
loop_
_atom_site_type_symbol
_atom_site_label
_atom_site_fract_x
_atom_site_fract_y
_atom_site_fract_z
Si Si1 0.852933 0.042939 0.125580
Si Si2 0.953461 0.863778 0.949211
Si Si3 0.317656 0.489803 0.046429
Si Si4 0.604476 0.631530 0.261180
Si Si5 0.740341 0.504311 0.450641
Si Si6 0.613944 0.131710 0.701165
Si Si7 0.187818 0.131802 0.290792
O O1 0.931489 0.131558 0.085766
O O2 0.771015 0.052481 0.010430
O O3 0.805886 0.051608 0.307578
O O4 0.909955 0.935286 0.095465
O O5 0.922354 0.750000 0.005182
O O6 0.909082 0.891555 0.786568
O O7 0.381619 0.436398 0.899177
O O8 0.378370 0.572071 0.133202
O O9 0.279990 0.398892 0.166947
O O10 0.633543 0.750000 0.223204
O O11 0.668582 0.586982 0.389100
O O12 0.494598 0.623519 0.337141
O O13 0.681966 0.416416 0.553760
O O14 0.812938 0.563390 0.551384
O O15 0.643494 0.250000 0.721308
O O16 0.196778 0.250000 0.336885
#
# Coordination Sequence:
#
# PCOD8071484 Si02
#       7
#     4   4   4   4   4   4   4
#     4   9  19  33  51  74  96 126 164 202 246 296
#     4   9  18  33  51  71  97 126 161 205 247 292
#     4   9  18  33  52  73  99 131 169 211 248 291
#     4  10  19  33  54  77 100 130 170 213 255 294
#     4  10  20  33  51  74 104 133 164 205 250 300
#     4  10  21  35  50  72 104 139 171 204 246 297
#     4   9  17  30  49  73  99 127 161 204 254 300
#
# _framework density 18.235375000000001
#
# number of rings (size 3 to 8) (size 9 to 14) (size 15 to 20)
#    0.000    2.571    0.000    1.714    0.000    5.714 
#    0.000    2.143    0.000   12.000    0.000    0.000 
#    0.000    0.000    0.000    0.000    0.000    0.000 
#
# Total GULP energy -347186.637814 kJ/mol
# GULP energy per Si atom -12399.522779 kJ/mol
# Density = 1.819387 g / cm^3
# Si number density = 18.235375 Si / 1000 Ang^3
#
#
#
# Elastic Constant Matrix: (Units=GPa)
#
#
# Indices 1 2 3 4 5 6 
#
# 1 68.7962 24.6618 14.8473 0.0000 -4.5193 0.0000
# 2 24.6618 82.4197 25.1368 0.0000 1.8252 0.0000
# 3 14.8473 25.1368 75.5010 0.0000 0.0599 0.0000
# 4 0.0000 0.0000 0.0000 18.9403 0.0000 3.4688
# 5 -4.5193 1.8252 0.0599 0.0000 20.4676 0.0000
# 6 0.0000 0.0000 0.0000 3.4688 0.0000 24.8614
#
#
#
# Elastic Compliance Matrix: (Units=1/GPa)
#
#
# Indices 1 2 3 4 5 6 
#
# 1 0.016836 -0.004584 -0.001788 0.000000 0.004131 0.000000
# 2 -0.004584 0.014781 -0.004018 0.000000 -0.002319 0.000000
# 3 -0.001788 -0.004018 0.014934 0.000000 -0.000080 0.000000
# 4 0.000000 0.000000 0.000000 0.054182 0.000000 -0.007560
# 5 0.004131 -0.002319 -0.000080 0.000000 0.049977 0.000000
# 6 0.000000 0.000000 0.000000 -0.007560 0.000000 0.041278
#
#
# Mechanical properties :
#
#
# Convention : Reuss Voigt Hill
#
# Bulk Modulus (GPa) = 38.80167 39.55654 39.17910
# Shear Modulus (GPa) = 22.58775 23.65860 23.12317
#
# Velocity S-wave (km/s) = 3.52330 3.60585 3.56482
# Velocity P-wave (km/s) = 6.15435 6.25104 6.20288
#
# Compressibility (1/GPa) = 0.02577209
#
# Stress axis : x y z
#
# Youngs Moduli (GPa) = 59.39584 67.65256 66.96028
#
# Poissons Ratio (x) = 0.31012 0.11972
# Poissons Ratio (y) = 0.27227 0.26904
# Poissons Ratio (z) = 0.10620 0.27183
#
# Static dielectric constant tensor:
#      x y z
#    x 3.415840 0.000000 0.092770 
#    y 0.000000 3.260620 0.000000 
#    z 0.092770 0.000000 3.272170 
# 
# 
# High freq. dielectric constant tensor:
#      x y z
#    x 1.710580 0.000000 0.004500 
#    y 0.000000 1.701560 0.000000 
#    z 0.004500 0.000000 1.698980 
# 
# From -- ./inp_files/21143.got.cif
#   From: 2010.06.25/outbox.cif.g09.slc.cpg/sg11_11_cif.got.tgz:21143.got - 2010.06.27 23:14:04.
