data_PCOD8071620
_publ_section_title
;
Structure prediction by ZEFSAII (Michael W. Deem and Ramdas Pophale) SiO2 
 PCOD8071620
Probable space group: P 21/M
;
_chemical_formula_sum "Si O2"
_cell_formula_units_Z 32
_cell_length_a 11.255440
_cell_length_b 15.285937
_cell_length_c 14.314741
_cell_angle_alpha 90.000000
_cell_angle_beta 136.554012
_cell_angle_gamma 90.000000
_cell_volume 1693.629507
_symmetry_space_group_name_H-M "P 21/M"
_symmetry_group_IT_number 11
_symmetry_cell_setting 'monoclinic'
loop_
_space_group_symop_operation_xyz
x,y,z
-x,1/2+y,-z
-x,-y,-z
x,1/2-y,z
loop_
_atom_site_type_symbol
_atom_site_label
_atom_site_fract_x
_atom_site_fract_y
_atom_site_fract_z
Si Si1 0.444045 0.520990 0.668675
Si Si2 0.381325 0.151832 0.736122
Si Si3 0.167729 0.982287 0.362113
Si Si4 0.237877 0.846222 0.028871
Si Si5 0.961899 0.147097 0.261446
Si Si6 0.043411 0.348792 0.648511
Si Si7 0.182250 0.974747 0.150357
Si Si8 0.236523 0.651549 0.666489
O O1 0.386322 0.421664 0.658783
O O2 0.347594 0.544193 0.515838
O O3 0.651191 0.536207 0.778339
O O4 0.385071 0.585408 0.718115
O O5 0.345457 0.250000 0.673037
O O6 0.564761 0.151237 0.893752
O O7 0.240071 0.129747 0.733882
O O8 0.125944 0.083070 0.366722
O O9 0.179974 0.965677 0.259434
O O10 0.015197 0.917760 0.307562
O O11 0.164439 0.750000 0.996356
O O12 0.223865 0.883471 0.124921
O O13 0.120943 0.889902 0.882162
O O14 0.017575 0.250000 0.291332
O O15 0.819609 0.131425 0.259978
O O16 0.023638 0.250000 0.676538
O O17 0.934425 0.361463 0.492264
O O18 0.000000 0.000000 0.000000
O O19 0.309512 0.750000 0.698678
#
# Coordination Sequence:
#
# PCOD8071620 Si02
#       8
#     4   4   4   4   4   4   4   4
#     4  10  21  36  56  82 107 141 181 225 269 318
#     4   9  17  32  54  81 112 140 173 219 270 323
#     4  11  21  35  57  81 109 142 183 223 267 314
#     4   9  19  36  55  75 106 144 183 223 265 318
#     4  10  19  33  55  83 111 141 175 218 271 327
#     4   9  18  33  54  82 112 140 172 216 268 325
#     4  11  22  40  55  74 105 145 186 226 266 310
#     4   9  18  34  55  80 112 141 170 215 272 326
#
# _framework density 18.894334000000001
#
# number of rings (size 3 to 8) (size 9 to 14) (size 15 to 20)
#    0.000    2.250    1.250    1.875    0.000    4.000 
#    2.250    3.125    0.000    3.000    0.000    0.000 
#    0.000    0.000    0.000    0.000    0.000    0.000 
#
# Total GULP energy -396503.899840 kJ/mol
# GULP energy per Si atom -12390.746870 kJ/mol
# Density = 1.885133 g / cm^3
# Si number density = 18.894334 Si / 1000 Ang^3
#
#
#
# Elastic Constant Matrix: (Units=GPa)
#
#
# Indices 1 2 3 4 5 6 
#
# 1 111.9940 52.8550 45.0437 0.0000 1.2834 0.0000
# 2 52.8550 80.3053 31.1348 0.0000 -0.9708 0.0000
# 3 45.0437 31.1348 75.5971 0.0000 4.2335 0.0000
# 4 0.0000 0.0000 0.0000 21.7057 0.0000 -1.9033
# 5 1.2834 -0.9708 4.2335 0.0000 36.9867 0.0000
# 6 0.0000 0.0000 0.0000 -1.9033 0.0000 20.5494
#
#
#
# Elastic Compliance Matrix: (Units=1/GPa)
#
#
# Indices 1 2 3 4 5 6 
#
# 1 0.014767 -0.007509 -0.005703 0.000000 -0.000057 0.000000
# 2 -0.007509 0.018681 -0.003283 0.000000 0.001127 0.000000
# 3 -0.005703 -0.003283 0.018088 0.000000 -0.001959 0.000000
# 4 0.000000 0.000000 0.000000 0.046448 0.000000 0.004302
# 5 -0.000057 0.001127 -0.001959 0.000000 0.027292 0.000000
# 6 0.000000 0.000000 0.000000 0.004302 0.000000 0.049062
#
#
# Mechanical properties :
#
#
# Convention : Reuss Voigt Hill
#
# Bulk Modulus (GPa) = 53.91884 58.44038 56.17961
# Shear Modulus (GPa) = 23.41801 25.10587 24.26194
#
# Velocity S-wave (km/s) = 3.52436 3.64916 3.58730
# Velocity P-wave (km/s) = 6.72015 6.98229 6.85248
#
# Compressibility (1/GPa) = 0.01854639
#
# Stress axis : x y z
#
# Youngs Moduli (GPa) = 67.71695 53.52992 55.28560
#
# Poissons Ratio (x) = 0.40196 0.31530
# Poissons Ratio (y) = 0.50849 0.18149
# Poissons Ratio (z) = 0.38620 0.17573
#
# Static dielectric constant tensor:
#      x y z
#    x 3.503430 0.000000 0.100380 
#    y 0.000000 3.597850 0.000000 
#    z 0.100380 0.000000 3.505030 
# 
# 
# High freq. dielectric constant tensor:
#      x y z
#    x 1.726260 0.000000 0.004880 
#    y 0.000000 1.732540 0.000000 
#    z 0.004880 0.000000 1.728710 
# 
# From -- ./inp_files/50388.got.cif
#   From: 2010.06.25/outbox.cif.g09.slc.cpg/sg11_26_cif.got.tgz:50388.got - 2010.06.27 23:14:04.
