data_PCOD8071364
_publ_section_title
;
Structure prediction by ZEFSAII (Michael W. Deem and Ramdas Pophale) SiO2 
 PCOD8071364
Probable space group: P 21/M
;
_chemical_formula_sum "Si O2"
_cell_formula_units_Z 32
_cell_length_a 24.016854
_cell_length_b 8.824700
_cell_length_c 17.419782
_cell_angle_alpha 90.000000
_cell_angle_beta 27.424906
_cell_angle_gamma 90.000000
_cell_volume 1700.470896
_symmetry_space_group_name_H-M "P 21/M"
_symmetry_group_IT_number 11
_symmetry_cell_setting 'monoclinic'
loop_
_space_group_symop_operation_xyz
x,y,z
-x,1/2+y,-z
-x,-y,-z
x,1/2-y,z
loop_
_atom_site_type_symbol
_atom_site_label
_atom_site_fract_x
_atom_site_fract_y
_atom_site_fract_z
Si Si1 0.208409 0.428950 0.262448
Si Si2 0.131869 0.428098 0.192699
Si Si3 0.627120 0.075161 0.358274
Si Si4 0.343769 0.576402 0.846727
Si Si5 0.476243 0.428710 0.947876
Si Si6 0.700265 0.429664 0.574054
Si Si7 0.889100 0.929708 0.456391
Si Si8 0.374096 0.072001 0.488868
O O1 0.207307 0.250000 0.271265
O O2 0.130302 0.479518 0.284311
O O3 0.157062 0.496267 0.405023
O O4 0.345258 0.485270 0.080017
O O5 0.108774 0.250000 0.212654
O O6 0.027968 0.520676 0.276131
O O7 0.261780 0.466667 0.997885
O O8 0.609748 0.250000 0.401249
O O9 0.699026 0.057804 0.189937
O O10 0.500000 0.000000 0.500000
O O11 0.687406 0.989369 0.356903
O O12 0.325733 0.750000 0.894929
O O13 0.483701 0.528450 0.687259
O O14 0.481795 0.250000 0.950342
O O15 0.576604 0.485863 0.765378
O O16 0.500000 0.500000 0.000000
O O17 0.711736 0.250000 0.558780
O O18 0.813810 0.497349 0.480005
O O19 0.699151 0.493018 0.489643
O O20 0.877380 0.750000 0.465833
O O21 0.354650 0.250000 0.507957
#
# Coordination Sequence:
#
# PCOD8071364 Si02
#       8
#     4   4   4   4   4   4   4   4
#     4   9  19  35  54  76 104 137 176 222 273 320
#     4  11  22  36  55  78 105 138 182 230 271 318
#     4   9  17  31  53  81 114 145 176 216 264 321
#     4   9  19  35  54  81 113 143 176 214 264 320
#     4  10  19  33  52  76 105 137 174 216 266 320
#     4  11  22  35  54  80 110 143 182 225 270 322
#     4  11  22  38  56  72 102 144 185 229 273 320
#     4  10  20  34  55  84 115 145 179 217 265 325
#
# _framework density 18.818318000000001
#
# number of rings (size 3 to 8) (size 9 to 14) (size 15 to 20)
#    0.000    2.000    1.250    3.750    0.000    4.500 
#    0.000    3.125    0.000    0.750    0.000    0.000 
#    0.000    0.000    0.000    0.000    0.000    0.000 
#
# Total GULP energy -396755.339351 kJ/mol
# GULP energy per Si atom -12398.604355 kJ/mol
# Density = 1.877549 g / cm^3
# Si number density = 18.818318 Si / 1000 Ang^3
#
#
#
# Elastic Constant Matrix: (Units=GPa)
#
#
# Indices 1 2 3 4 5 6 
#
# 1 143.1534 45.1196 32.9271 0.0000 5.0891 0.0000
# 2 45.1196 70.5643 18.0900 0.0000 1.8883 0.0000
# 3 32.9271 18.0900 37.5235 0.0000 -4.0072 0.0000
# 4 0.0000 0.0000 0.0000 25.7418 0.0000 2.3821
# 5 5.0891 1.8883 -4.0072 0.0000 29.9500 0.0000
# 6 0.0000 0.0000 0.0000 2.3821 0.0000 32.4500
#
#
#
# Elastic Compliance Matrix: (Units=1/GPa)
#
#
# Indices 1 2 3 4 5 6 
#
# 1 0.010116 -0.004639 -0.006891 0.000000 -0.002349 0.000000
# 2 -0.004639 0.018427 -0.004923 0.000000 -0.001032 0.000000
# 3 -0.006891 -0.004923 0.035740 0.000000 0.006263 0.000000
# 4 0.000000 0.000000 0.000000 0.039113 0.000000 -0.002871
# 5 -0.002349 -0.001032 0.006263 0.000000 0.034691 0.000000
# 6 0.000000 0.000000 0.000000 -0.002871 0.000000 0.031027
#
#
# Mechanical properties :
#
#
# Convention : Reuss Voigt Hill
#
# Bulk Modulus (GPa) = 31.87171 49.27942 40.57557
# Shear Modulus (GPa) = 23.53152 27.96866 25.75009
#
# Velocity S-wave (km/s) = 3.54002 3.85937 3.70314
# Velocity P-wave (km/s) = 5.80364 6.78995 6.31608
#
# Compressibility (1/GPa) = 0.03137578
#
# Stress axis : x y z
#
# Youngs Moduli (GPa) = 98.85113 54.26690 27.98013
#
# Poissons Ratio (x) = 0.25174 0.19282
# Poissons Ratio (y) = 0.45856 0.13776
# Poissons Ratio (z) = 0.68123 0.26718
#
# Static dielectric constant tensor:
#      x y z
#    x 3.671490 0.000000 0.198580 
#    y 0.000000 3.377400 0.000000 
#    z 0.198580 0.000000 3.752150 
# 
# 
# High freq. dielectric constant tensor:
#      x y z
#    x 1.738270 0.000000 0.010060 
#    y 0.000000 1.729180 0.000000 
#    z 0.010060 0.000000 1.704230 
# 
# From -- ./inp_files/61765.got.cif
#   From: 2010.06.25/outbox.cif.g09.slc.cpg/sg11_31_cif.got.tgz:61765.got - 2010.06.27 23:14:04.
