data_PCOD8071268
_publ_section_title
;
Structure prediction by ZEFSAII (Michael W. Deem and Ramdas Pophale) SiO2 
 PCOD8071268
Probable space group: P 21/M
;
_chemical_formula_sum "Si O2"
_cell_formula_units_Z 28
_cell_length_a 29.576112
_cell_length_b 8.957434
_cell_length_c 10.133935
_cell_angle_alpha 90.000000
_cell_angle_beta 33.843173
_cell_angle_gamma 90.000000
_cell_volume 1495.191729
_symmetry_space_group_name_H-M "P 21/M"
_symmetry_group_IT_number 11
_symmetry_cell_setting 'monoclinic'
loop_
_space_group_symop_operation_xyz
x,y,z
-x,1/2+y,-z
-x,-y,-z
x,1/2-y,z
loop_
_atom_site_type_symbol
_atom_site_label
_atom_site_fract_x
_atom_site_fract_y
_atom_site_fract_z
Si Si1 0.765100 0.075337 0.078190
Si Si2 0.154228 0.073022 0.362269
Si Si3 0.426262 0.575249 0.845316
Si Si4 0.822220 0.579198 0.197164
Si Si5 0.587177 0.423429 0.424389
Si Si6 0.271568 0.424588 0.311268
Si Si7 0.002594 0.922667 0.852819
O O1 0.779478 0.250000 0.016268
O O2 0.670406 0.034020 0.294654
O O3 0.792678 0.033169 0.157083
O O4 0.817447 0.980079 0.849190
O O5 0.143528 0.250000 0.390106
O O6 0.218858 0.019134 0.314796
O O7 0.068022 0.999226 0.600353
O O8 0.426636 0.750000 0.865969
O O9 0.514574 0.512653 0.671312
O O10 0.405590 0.527976 0.745687
O O11 0.358009 0.506314 0.105229
O O12 0.801687 0.750000 0.208554
O O13 0.776713 0.532220 0.440710
O O14 0.917549 0.558221 0.985543
O O15 0.566447 0.250000 0.485811
O O16 0.287652 0.250000 0.261482
O O17 0.024248 0.750000 0.822096
O O18 0.000000 0.000000 0.000000
#
# Coordination Sequence:
#
# PCOD8071268 Si02
#       7
#     4   4   4   4   4   4   4
#     4  11  23  40  60  88 120 155 195 241 294 347
#     4  11  22  38  62  89 117 155 197 240 293 349
#     4  10  19  32  56  88 116 146 192 241 289 340
#     4  10  23  42  60  84 118 157 195 237 292 353
#     4   9  19  35  54  82 119 151 187 237 290 344
#     4  10  20  37  59  85 117 152 194 239 289 344
#     4  11  22  39  62  89 120 152 196 247 293 344
#
# _framework density 18.726696
#
# number of rings (size 3 to 8) (size 9 to 14) (size 15 to 20)
#    0.000    1.714    2.857    1.714    0.000    4.571 
#    0.000    0.714    0.000    0.000    0.000    0.000 
#    0.000    0.000    0.000    0.000    0.000    0.000 
#
# Total GULP energy -347350.798963 kJ/mol
# GULP energy per Si atom -12405.385677 kJ/mol
# Density = 1.868407 g / cm^3
# Si number density = 18.726696 Si / 1000 Ang^3
#
#
#
# Elastic Constant Matrix: (Units=GPa)
#
#
# Indices 1 2 3 4 5 6 
#
# 1 78.5833 38.4027 37.9545 0.0000 -5.7964 0.0000
# 2 38.4027 80.3396 55.6661 0.0000 -10.0599 0.0000
# 3 37.9545 55.6661 132.8451 0.0000 -20.6123 0.0000
# 4 0.0000 0.0000 0.0000 35.7104 0.0000 -1.2900
# 5 -5.7964 -10.0599 -20.6123 0.0000 26.0005 0.0000
# 6 0.0000 0.0000 0.0000 -1.2900 0.0000 30.0063
#
#
#
# Elastic Compliance Matrix: (Units=1/GPa)
#
#
# Indices 1 2 3 4 5 6 
#
# 1 0.016995 -0.006719 -0.002116 0.000000 -0.000488 0.000000
# 2 -0.006719 0.020223 -0.006355 0.000000 0.001289 0.000000
# 3 -0.002116 -0.006355 0.011790 0.000000 0.006417 0.000000
# 4 0.000000 0.000000 0.000000 0.028047 0.000000 0.001206
# 5 -0.000488 0.001289 0.006417 0.000000 0.043938 0.000000
# 6 0.000000 0.000000 0.000000 0.001206 0.000000 0.033378
#
#
# Mechanical properties :
#
#
# Convention : Reuss Voigt Hill
#
# Bulk Modulus (GPa) = 53.67659 61.75716 57.71687
# Shear Modulus (GPa) = 26.18372 28.99309 27.58841
#
# Velocity S-wave (km/s) = 3.74331 3.93901 3.84241
# Velocity P-wave (km/s) = 6.88539 7.33059 7.11147
#
# Compressibility (1/GPa) = 0.01863010
#
# Stress axis : x y z
#
# Youngs Moduli (GPa) = 58.84243 49.44869 84.81437
#
# Poissons Ratio (x) = 0.33222 0.17946
# Poissons Ratio (y) = 0.39533 0.53895
# Poissons Ratio (z) = 0.12451 0.31422
#
# Static dielectric constant tensor:
#      x y z
#    x 3.308170 0.000000 -0.162030 
#    y 0.000000 3.450580 0.000000 
#    z -0.162030 0.000000 3.837350 
# 
# 
# High freq. dielectric constant tensor:
#      x y z
#    x 1.713050 0.000000 -0.013360 
#    y 0.000000 1.733390 0.000000 
#    z -0.013360 0.000000 1.737210 
# 
# From -- ./inp_files/28304.got.cif
#   From: 2010.06.25/outbox.cif.g09.slc.cpg/sg11_15_cif.got.tgz:28304.got - 2010.06.27 23:14:04.
