data_PCOD8071906
_publ_section_title
;
Structure prediction by ZEFSAII (Michael W. Deem and Ramdas Pophale) SiO2 
 PCOD8071906
Probable space group: P 21/M
;
_chemical_formula_sum "Si O2"
_cell_formula_units_Z 28
_cell_length_a 16.498064
_cell_length_b 9.166678
_cell_length_c 21.784093
_cell_angle_alpha 90.000000
_cell_angle_beta 25.919183
_cell_angle_gamma 90.000000
_cell_volume 1440.018832
_symmetry_space_group_name_H-M "P 21/M"
_symmetry_group_IT_number 11
_symmetry_cell_setting 'monoclinic'
loop_
_space_group_symop_operation_xyz
x,y,z
-x,1/2+y,-z
-x,-y,-z
x,1/2-y,z
loop_
_atom_site_type_symbol
_atom_site_label
_atom_site_fract_x
_atom_site_fract_y
_atom_site_fract_z
Si Si1 0.771372 0.418243 0.302106
Si Si2 0.197968 0.079400 0.028333
Si Si3 0.519401 0.421670 0.719367
Si Si4 0.686109 0.910177 0.817031
Si Si5 0.193911 0.921737 0.375905
Si Si6 0.509439 0.421835 0.588821
Si Si7 0.738060 0.410483 0.890440
O O1 0.725916 0.250000 0.320419
O O2 0.689836 0.462646 0.424828
O O3 0.675261 0.511612 0.314706
O O4 0.988774 0.449807 0.149451
O O5 0.231971 0.250000 0.020089
O O6 0.231274 0.986145 0.065903
O O7 0.337435 0.022320 0.880229
O O8 0.501793 0.250000 0.726401
O O9 0.708411 0.463529 0.626349
O O10 0.531753 0.488293 0.642324
O O11 0.775638 0.750000 0.741677
O O12 0.675390 0.016332 0.766137
O O13 0.811260 0.984848 0.785617
O O14 0.476179 0.885873 0.980012
O O15 0.170860 0.750000 0.383761
O O16 0.000000 0.000000 0.500000
O O17 0.480937 0.250000 0.611457
O O18 0.834967 0.250000 0.823884
#
# Coordination Sequence:
#
# PCOD8071906 Si02
#       7
#     4   4   4   4   4   4   4
#     4   9  19  34  55  82 109 139 178 223 272 329
#     4  10  19  34  55  80 110 145 184 226 275 332
#     4   9  19  35  56  78 106 145 184 224 275 334
#     4  10  20  35  54  76 105 143 185 226 275 330
#     4  11  22  37  56  79 110 146 189 234 282 335
#     4   9  18  36  57  77 105 142 180 219 271 332
#     4  10  20  33  53  80 108 139 180 228 277 325
#
# _framework density 19.444189999999999
#
# number of rings (size 3 to 8) (size 9 to 14) (size 15 to 20)
#    0.000    2.286    1.429    1.286    0.000    3.429 
#    0.000    5.000    0.000    0.000    0.000    0.000 
#    0.000    0.000    0.000    0.000    0.000    0.000 
#
# Total GULP energy -347062.896686 kJ/mol
# GULP energy per Si atom -12395.103453 kJ/mol
# Density = 1.939993 g / cm^3
# Si number density = 19.444190 Si / 1000 Ang^3
#
#
#
# Elastic Constant Matrix: (Units=GPa)
#
#
# Indices 1 2 3 4 5 6 
#
# 1 158.0461 59.5626 47.2900 0.0000 17.6870 0.0000
# 2 59.5626 87.1250 33.7375 0.0000 1.4145 0.0000
# 3 47.2900 33.7375 58.0863 0.0000 -9.5204 0.0000
# 4 0.0000 0.0000 0.0000 22.0319 0.0000 -0.5381
# 5 17.6870 1.4145 -9.5204 0.0000 27.3934 0.0000
# 6 0.0000 0.0000 0.0000 -0.5381 0.0000 32.3808
#
#
#
# Elastic Compliance Matrix: (Units=1/GPa)
#
#
# Indices 1 2 3 4 5 6 
#
# 1 0.011795 -0.004537 -0.008671 0.000000 -0.010395 0.000000
# 2 -0.004537 0.016975 -0.006181 0.000000 -0.000095 0.000000
# 3 -0.008671 -0.006181 0.030577 0.000000 0.016545 0.000000
# 4 0.000000 0.000000 0.000000 0.045407 0.000000 0.000755
# 5 -0.010395 -0.000095 0.016545 0.000000 0.048972 0.000000
# 6 0.000000 0.000000 0.000000 0.000755 0.000000 0.030895
#
#
# Mechanical properties :
#
#
# Convention : Reuss Voigt Hill
#
# Bulk Modulus (GPa) = 48.61911 64.93751 56.77831
# Shear Modulus (GPa) = 21.71505 27.20571 24.46038
#
# Velocity S-wave (km/s) = 3.34546 3.74460 3.55065
# Velocity P-wave (km/s) = 6.32310 7.22257 6.78775
#
# Compressibility (1/GPa) = 0.02056804
#
# Stress axis : x y z
#
# Youngs Moduli (GPa) = 84.78129 58.91186 32.70433
#
# Poissons Ratio (x) = 0.26729 0.28359
# Poissons Ratio (y) = 0.38466 0.20214
# Poissons Ratio (z) = 0.73516 0.36413
#
# Static dielectric constant tensor:
#      x y z
#    x 3.704140 0.000000 0.252300 
#    y 0.000000 3.713940 0.000000 
#    z 0.252300 0.000000 3.717840 
# 
# 
# High freq. dielectric constant tensor:
#      x y z
#    x 1.757610 0.000000 0.007550 
#    y 0.000000 1.749490 0.000000 
#    z 0.007550 0.000000 1.745330 
# 
# From -- ./inp_files/54455.got.cif
#   From: 2010.06.25/outbox.cif.g09.slc.cpg/sg11_28_cif.got.tgz:54455.got - 2010.06.27 23:14:04.
