data_PCOD8071695
_publ_section_title
;
Structure prediction by ZEFSAII (Michael W. Deem and Ramdas Pophale) SiO2 
 PCOD8071695
Probable space group: P 21/M
;
_chemical_formula_sum "Si O2"
_cell_formula_units_Z 24
_cell_length_a 23.834362
_cell_length_b 9.217042
_cell_length_c 12.010108
_cell_angle_alpha 90.000000
_cell_angle_beta 28.114769
_cell_angle_gamma 90.000000
_cell_volume 1243.321564
_symmetry_space_group_name_H-M "P 21/M"
_symmetry_group_IT_number 11
_symmetry_cell_setting 'monoclinic'
loop_
_space_group_symop_operation_xyz
x,y,z
-x,1/2+y,-z
-x,-y,-z
x,1/2-y,z
loop_
_atom_site_type_symbol
_atom_site_label
_atom_site_fract_x
_atom_site_fract_y
_atom_site_fract_z
Si Si1 0.251583 0.919017 0.678502
Si Si2 0.674386 0.578691 0.906588
Si Si3 0.245625 0.580594 0.440961
Si Si4 0.926081 0.910059 0.544045
Si Si5 0.993384 0.913985 0.179660
Si Si6 0.529368 0.078000 0.563926
O O1 0.238147 0.750000 0.726524
O O2 0.301086 0.944893 0.466824
O O3 0.344912 0.980108 0.606613
O O4 0.119080 0.985945 0.922346
O O5 0.680302 0.750000 0.871306
O O6 0.667431 0.498081 0.799490
O O7 0.794608 0.523854 0.756431
O O8 0.566366 0.534997 0.174726
O O9 0.237423 0.750000 0.425836
O O10 0.112635 0.515773 0.676517
O O11 0.912678 0.750000 0.617844
O O12 0.998108 0.908211 0.303953
O O13 0.000000 0.000000 0.500000
O O14 0.975389 0.750000 0.163705
O O15 0.528878 0.250000 0.544292
O O16 0.500000 0.000000 0.500000
#
# Coordination Sequence:
#
# PCOD8071695 Si02
#       6
#     4   4   4   4   4   4
#     4   9  19  35  56  81 111 145 179 219 274 324
#     4   9  20  38  55  75 109 145 177 220 274 322
#     4  10  19  33  56  85 110 138 181 227 266 318
#     4   9  18  30  48  73 101 137 176 214 260 312
#     4   9  18  34  53  77 111 146 174 214 276 331
#     4  10  22  40  59  79 108 146 183 224 269 319
#
# _framework density 19.303132999999999
#
# number of rings (size 3 to 8) (size 9 to 14) (size 15 to 20)
#    0.000    2.667    0.000    2.000    2.333    4.000 
#    0.000    3.333    0.000    0.000    0.000    0.000 
#    0.000    0.000    0.000    0.000    0.000    0.000 
#
# Total GULP energy -297496.173517 kJ/mol
# GULP energy per Si atom -12395.673897 kJ/mol
# Density = 1.925920 g / cm^3
# Si number density = 19.303133 Si / 1000 Ang^3
#
#
#
# Elastic Constant Matrix: (Units=GPa)
#
#
# Indices 1 2 3 4 5 6 
#
# 1 112.3909 39.9630 39.3698 0.0000 7.4626 0.0000
# 2 39.9630 56.4935 28.9026 0.0000 5.5559 0.0000
# 3 39.3698 28.9026 113.6014 0.0000 8.6283 0.0000
# 4 0.0000 0.0000 0.0000 24.5312 0.0000 4.3022
# 5 7.4626 5.5559 8.6283 0.0000 14.5939 0.0000
# 6 0.0000 0.0000 0.0000 4.3022 0.0000 30.4776
#
#
#
# Elastic Compliance Matrix: (Units=1/GPa)
#
#
# Indices 1 2 3 4 5 6 
#
# 1 0.012489 -0.007460 -0.002263 0.000000 -0.002209 0.000000
# 2 -0.007460 0.025147 -0.003534 0.000000 -0.003669 0.000000
# 3 -0.002263 -0.003534 0.010780 0.000000 -0.003871 0.000000
# 4 0.000000 0.000000 0.000000 0.041799 0.000000 -0.005900
# 5 -0.002209 -0.003669 -0.003871 0.000000 0.073337 0.000000
# 6 0.000000 0.000000 0.000000 -0.005900 0.000000 0.033644
#
#
# Mechanical properties :
#
#
# Convention : Reuss Voigt Hill
#
# Bulk Modulus (GPa) = 45.65501 55.43962 50.54731
# Shear Modulus (GPa) = 21.64400 25.53722 23.59061
#
# Velocity S-wave (km/s) = 3.35217 3.64119 3.49967
# Velocity P-wave (km/s) = 6.21978 6.81620 6.52481
#
# Compressibility (1/GPa) = 0.02190340
#
# Stress axis : x y z
#
# Youngs Moduli (GPa) = 80.06834 39.76582 92.76491
#
# Poissons Ratio (x) = 0.29666 0.20989
# Poissons Ratio (y) = 0.59732 0.32782
# Poissons Ratio (z) = 0.18116 0.14053
#
# Static dielectric constant tensor:
#      x y z
#    x 3.499670 0.000000 0.005280 
#    y 0.000000 3.591950 0.000000 
#    z 0.005280 0.000000 3.842570 
# 
# 
# High freq. dielectric constant tensor:
#      x y z
#    x 1.752060 0.000000 0.003950 
#    y 0.000000 1.726520 0.000000 
#    z 0.003950 0.000000 1.755680 
# 
# From -- ./inp_files/33926.got.cif
#   From: 2010.06.25/outbox.cif.g09.slc.cpg/sg11_17_cif.got.tgz:33926.got - 2010.06.27 23:14:04.
