data_PCOD8071084
_publ_section_title
;
Structure prediction by ZEFSAII (Michael W. Deem and Ramdas Pophale) SiO2 
 PCOD8071084
Probable space group: P 21/M
;
_chemical_formula_sum "Si O2"
_cell_formula_units_Z 24
_cell_length_a 12.035206
_cell_length_b 9.678819
_cell_length_c 22.888305
_cell_angle_alpha 90.000000
_cell_angle_beta 152.400551
_cell_angle_gamma 90.000000
_cell_volume 1235.208078
_symmetry_space_group_name_H-M "P 21/M"
_symmetry_group_IT_number 11
_symmetry_cell_setting 'monoclinic'
loop_
_space_group_symop_operation_xyz
x,y,z
-x,1/2+y,-z
-x,-y,-z
x,1/2-y,z
loop_
_atom_site_type_symbol
_atom_site_label
_atom_site_fract_x
_atom_site_fract_y
_atom_site_fract_z
Si Si1 0.218655 0.088501 0.626268
Si Si2 0.625203 0.594040 0.511594
Si Si3 0.863159 0.092451 0.203701
Si Si4 0.951264 0.408511 0.113010
Si Si5 0.381956 0.910081 0.278903
Si Si6 0.585938 0.592190 0.158084
O O1 0.154145 0.250000 0.589272
O O2 0.462277 0.053869 0.705230
O O3 0.268342 0.047477 0.716449
O O4 0.000000 0.000000 0.500000
O O5 0.500000 0.500000 0.500000
O O6 0.546206 0.750000 0.488733
O O7 0.545720 0.548827 0.410336
O O8 0.910259 0.577965 0.648001
O O9 0.770130 0.250000 0.156667
O O10 0.931574 0.039809 0.170912
O O11 0.654871 0.999657 0.134324
O O12 0.039278 0.250000 0.152837
O O13 0.140879 0.500195 0.166093
O O14 0.697085 0.425739 0.962252
O O15 0.307053 0.750000 0.245226
O O16 0.644532 0.750000 0.169058
#
# Coordination Sequence:
#
# PCOD8071084 Si02
#       6
#     4   4   4   4   4   4
#     4  10  22  41  61  83 112 145 185 231 279 331
#     4  10  19  32  52  79 108 139 177 223 272 322
#     4  10  20  35  56  82 114 149 186 230 276 329
#     4  10  21  37  56  82 115 148 186 230 277 329
#     4  10  21  36  56  82 113 147 185 230 277 328
#     4  10  22  38  57  82 112 148 188 231 276 327
#
# _framework density 19.429925000000001
#
# number of rings (size 3 to 8) (size 9 to 14) (size 15 to 20)
#    0.000    2.000    1.667    1.500    0.000    5.333 
#    0.000    0.000    0.000    0.000    0.000    0.000 
#    0.000    0.000    0.000    0.000    0.000    0.000 
#
# Total GULP energy -297678.784158 kJ/mol
# GULP energy per Si atom -12403.282673 kJ/mol
# Density = 1.938570 g / cm^3
# Si number density = 19.429925 Si / 1000 Ang^3
#
#
#
# Elastic Constant Matrix: (Units=GPa)
#
#
# Indices 1 2 3 4 5 6 
#
# 1 95.8689 53.5040 23.1282 0.0000 12.6694 0.0000
# 2 53.5040 73.6845 36.4348 0.0000 12.5682 0.0000
# 3 23.1282 36.4348 84.3707 0.0000 3.4754 0.0000
# 4 0.0000 0.0000 0.0000 33.7189 0.0000 8.2520
# 5 12.6694 12.5682 3.4754 0.0000 27.6407 0.0000
# 6 0.0000 0.0000 0.0000 8.2520 0.0000 32.9405
#
#
#
# Elastic Compliance Matrix: (Units=1/GPa)
#
#
# Indices 1 2 3 4 5 6 
#
# 1 0.017732 -0.012861 0.000791 0.000000 -0.002379 0.000000
# 2 -0.012861 0.028021 -0.008336 0.000000 -0.005798 0.000000
# 3 0.000791 -0.008336 0.015173 0.000000 0.001520 0.000000
# 4 0.000000 0.000000 0.000000 0.031594 0.000000 -0.007915
# 5 -0.002379 -0.005798 0.001520 0.000000 0.039714 0.000000
# 6 0.000000 0.000000 0.000000 -0.007915 0.000000 0.032340
#
#
# Mechanical properties :
#
#
# Convention : Reuss Voigt Hill
#
# Bulk Modulus (GPa) = 49.71742 53.33979 51.52861
# Shear Modulus (GPa) = 23.57468 28.25051 25.91259
#
# Velocity S-wave (km/s) = 3.48705 3.81723 3.65587
# Velocity P-wave (km/s) = 6.46965 6.85130 6.66321
#
# Compressibility (1/GPa) = 0.02011367
#
# Stress axis : x y z
#
# Youngs Moduli (GPa) = 56.39457 35.68740 65.90682
#
# Poissons Ratio (x) = 0.45898 -0.05214
# Poissons Ratio (y) = 0.72530 0.54942
# Poissons Ratio (z) = -0.04461 0.29750
#
# Static dielectric constant tensor:
#      x y z
#    x 3.801690 0.000000 -0.364640 
#    y 0.000000 3.480230 0.000000 
#    z -0.364640 0.000000 3.775620 
# 
# 
# High freq. dielectric constant tensor:
#      x y z
#    x 1.751830 0.000000 -0.004940 
#    y 0.000000 1.750340 0.000000 
#    z -0.004940 0.000000 1.763440 
# 
# From -- ./inp_files/33900.got.cif
#   From: 2010.06.25/outbox.cif.g09.slc.cpg/sg11_17_cif.got.tgz:33900.got - 2010.06.27 23:14:04.
