data_PCOD8071335
_publ_section_title
;
Structure prediction by ZEFSAII (Michael W. Deem and Ramdas Pophale) SiO2 
 PCOD8071335
Probable space group: P 21/M
;
_chemical_formula_sum "Si O2"
_cell_formula_units_Z 28
_cell_length_a 15.478081
_cell_length_b 9.087088
_cell_length_c 19.307346
_cell_angle_alpha 90.000000
_cell_angle_beta 37.435111
_cell_angle_gamma 90.000000
_cell_volume 1650.706314
_symmetry_space_group_name_H-M "P 21/M"
_symmetry_group_IT_number 11
_symmetry_cell_setting 'monoclinic'
loop_
_space_group_symop_operation_xyz
x,y,z
-x,1/2+y,-z
-x,-y,-z
x,1/2-y,z
loop_
_atom_site_type_symbol
_atom_site_label
_atom_site_fract_x
_atom_site_fract_y
_atom_site_fract_z
Si Si1 0.609672 0.424143 0.879791
Si Si2 0.877260 0.921538 0.120213
Si Si3 0.401401 0.079675 0.256367
Si Si4 0.929700 0.421367 0.883456
Si Si5 0.914526 0.075805 0.740224
Si Si6 0.909135 0.922216 0.499270
Si Si7 0.693418 0.078431 0.140243
O O1 0.591572 0.250000 0.895662
O O2 0.579964 0.476661 0.821342
O O3 0.765690 0.476655 0.803063
O O4 0.500000 0.500000 0.000000
O O5 0.873901 0.750000 0.104624
O O6 0.917969 0.947600 0.175234
O O7 0.728896 0.994954 0.190245
O O8 0.000000 0.000000 0.000000
O O9 0.403695 0.250000 0.231131
O O10 0.256774 0.039548 0.388417
O O11 0.530386 0.045683 0.226205
O O12 0.899651 0.250000 0.892878
O O13 0.935057 0.495523 0.803727
O O14 0.796872 0.483227 0.013197
O O15 0.918880 0.250000 0.743646
O O16 0.039214 0.021717 0.609179
O O17 0.938633 0.750000 0.488747
O O18 0.000000 0.000000 0.500000
O O19 0.722447 0.250000 0.133741
#
# Coordination Sequence:
#
# PCOD8071335 Si02
#       7
#     4   4   4   4   4   4   4
#     4  11  21  32  48  71 100 131 161 198 246 297
#     4   9  16  27  46  71  96 125 158 196 240 292
#     4  10  20  33  50  71  97 129 166 206 246 291
#     4   8  14  26  45  67  92 121 156 192 233 288
#     4   9  17  30  48  69  94 127 162 198 242 292
#     4  10  19  33  52  71  93 125 169 210 245 290
#     4   9  17  30  47  68  96 129 160 198 245 294
#
# _framework density 16.962436
#
# number of rings (size 3 to 8) (size 9 to 14) (size 15 to 20)
#    0.000    2.571    1.429    2.571    0.000    2.857 
#    0.000    0.000    0.000    7.714    0.000    0.000 
#    0.000    0.000    0.000    0.000    0.000    0.571 
#
# Total GULP energy -347040.652054 kJ/mol
# GULP energy per Si atom -12394.309002 kJ/mol
# Density = 1.692383 g / cm^3
# Si number density = 16.962436 Si / 1000 Ang^3
#
#
#
# Elastic Constant Matrix: (Units=GPa)
#
#
# Indices 1 2 3 4 5 6 
#
# 1 127.4071 39.6076 50.7560 0.0000 -16.5839 0.0000
# 2 39.6076 48.8308 26.6573 0.0000 -7.0064 0.0000
# 3 50.7560 26.6573 103.6222 0.0000 -14.7077 0.0000
# 4 0.0000 0.0000 0.0000 17.0746 0.0000 -0.6584
# 5 -16.5839 -7.0064 -14.7077 0.0000 18.0441 0.0000
# 6 0.0000 0.0000 0.0000 -0.6584 0.0000 28.0950
#
#
#
# Elastic Compliance Matrix: (Units=1/GPa)
#
#
# Indices 1 2 3 4 5 6 
#
# 1 0.012148 -0.007248 -0.003280 0.000000 0.005677 0.000000
# 2 -0.007248 0.028525 -0.003575 0.000000 0.001501 0.000000
# 3 -0.003280 -0.003575 0.013063 0.000000 0.006245 0.000000
# 4 0.000000 0.000000 0.000000 0.058619 0.000000 0.001374
# 5 0.005677 0.001501 0.006245 0.000000 0.066310 0.000000
# 6 0.000000 0.000000 0.000000 0.001374 0.000000 0.035626
#
#
# Mechanical properties :
#
#
# Convention : Reuss Voigt Hill
#
# Bulk Modulus (GPa) = 39.16985 57.10022 48.13503
# Shear Modulus (GPa) = 19.91981 23.49869 21.70925
#
# Velocity S-wave (km/s) = 3.43059 3.72605 3.58137
# Velocity P-wave (km/s) = 6.23171 7.22821 6.74838
#
# Compressibility (1/GPa) = 0.02552984
#
# Stress axis : x y z
#
# Youngs Moduli (GPa) = 82.32055 35.05711 76.55217
#
# Poissons Ratio (x) = 0.25410 0.25107
# Poissons Ratio (y) = 0.59668 0.27367
# Poissons Ratio (z) = 0.26999 0.12533
#
# Static dielectric constant tensor:
#      x y z
#    x 3.788510 0.000000 -0.106080 
#    y 0.000000 3.104010 0.000000 
#    z -0.106080 0.000000 3.103200 
# 
# 
# High freq. dielectric constant tensor:
#      x y z
#    x 1.664190 0.000000 -0.001370 
#    y 0.000000 1.631900 0.000000 
#    z -0.001370 0.000000 1.632580 
# 
# From -- ./inp_files/42381.got.cif
#   From: 2010.06.25/outbox.cif.g09.slc.cpg/sg11_22_cif.got.tgz:42381.got - 2010.06.27 23:14:04.
