data_PCOD8071020
_publ_section_title
;
Structure prediction by ZEFSAII (Michael W. Deem and Ramdas Pophale) SiO2 
 PCOD8071020
Probable space group: P 21/M
;
_chemical_formula_sum "Si O2"
_cell_formula_units_Z 32
_cell_length_a 22.569559
_cell_length_b 8.979333
_cell_length_c 14.573995
_cell_angle_alpha 90.000000
_cell_angle_beta 36.464593
_cell_angle_gamma 90.000000
_cell_volume 1755.377125
_symmetry_space_group_name_H-M "P 21/M"
_symmetry_group_IT_number 11
_symmetry_cell_setting 'monoclinic'
loop_
_space_group_symop_operation_xyz
x,y,z
-x,1/2+y,-z
-x,-y,-z
x,1/2-y,z
loop_
_atom_site_type_symbol
_atom_site_label
_atom_site_fract_x
_atom_site_fract_y
_atom_site_fract_z
Si Si1 0.130007 0.426831 0.159654
Si Si2 0.391787 0.572726 0.138883
Si Si3 0.482206 0.420669 0.617128
Si Si4 0.263651 0.077896 0.449647
Si Si5 0.268751 0.421307 0.833792
Si Si6 0.231211 0.423813 0.217873
Si Si7 0.077217 0.081003 0.567890
Si Si8 0.336954 0.423952 0.554096
O O1 0.133301 0.250000 0.155947
O O2 0.197286 0.483637 0.160798
O O3 0.016558 0.474303 0.309584
O O4 0.176927 0.491525 0.005844
O O5 0.401142 0.750000 0.123520
O O6 0.339564 0.524857 0.298914
O O7 0.326588 0.516478 0.133565
O O8 0.500000 0.500000 0.000000
O O9 0.500000 0.500000 0.500000
O O10 0.514168 0.250000 0.571289
O O11 0.364411 0.437824 0.782954
O O12 0.554783 0.500722 0.599949
O O13 0.291455 0.250000 0.393819
O O14 0.149919 0.046189 0.562837
O O15 0.268795 0.041736 0.551309
O O16 0.244966 0.250000 0.844843
O O17 0.285872 0.492626 0.710750
O O18 0.261032 0.250000 0.180772
O O19 0.136788 0.451910 0.400875
O O20 0.038596 0.250000 0.618790
O O21 0.356513 0.250000 0.543861
#
# Coordination Sequence:
#
# PCOD8071020 Si02
#       8
#     4   4   4   4   4   4   4   4
#     4  10  19  32  52  75 100 131 168 211 257 303
#     4  11  22  36  55  79 108 137 167 207 251 298
#     4   9  16  28  46  68  96 129 165 203 246 296
#     4   9  19  36  55  74 100 136 174 209 251 304
#     4   8  16  30  47  71 101 131 163 202 249 298
#     4   9  19  35  53  74 102 136 170 206 253 307
#     4   9  18  33  50  70  98 130 169 215 260 306
#     4   9  17  32  53  73  98 134 170 205 251 304
#
# _framework density 18.229700000000001
#
# number of rings (size 3 to 8) (size 9 to 14) (size 15 to 20)
#    0.000    2.750    0.000    3.375    0.000    4.000 
#    0.000    5.000    0.000    0.000    0.000    0.000 
#    0.000    0.000    0.000    0.000    0.000    0.000 
#
# Total GULP energy -396572.457509 kJ/mol
# GULP energy per Si atom -12392.889297 kJ/mol
# Density = 1.818821 g / cm^3
# Si number density = 18.229700 Si / 1000 Ang^3
#
#
#
# Elastic Constant Matrix: (Units=GPa)
#
#
# Indices 1 2 3 4 5 6 
#
# 1 130.0043 40.6135 60.1004 0.0000 2.4867 0.0000
# 2 40.6135 65.8119 37.4407 0.0000 -7.0907 0.0000
# 3 60.1004 37.4407 90.9924 0.0000 -7.5546 0.0000
# 4 0.0000 0.0000 0.0000 24.6867 0.0000 -7.2758
# 5 2.4867 -7.0907 -7.5546 0.0000 23.6533 0.0000
# 6 0.0000 0.0000 0.0000 -7.2758 0.0000 27.1866
#
#
#
# Elastic Compliance Matrix: (Units=1/GPa)
#
#
# Indices 1 2 3 4 5 6 
#
# 1 0.012203 -0.004216 -0.006715 0.000000 -0.004692 0.000000
# 2 -0.004216 0.021570 -0.005667 0.000000 0.005099 0.000000
# 3 -0.006715 -0.005667 0.018156 0.000000 0.004806 0.000000
# 4 0.000000 0.000000 0.000000 0.043976 0.000000 0.011769
# 5 -0.004692 0.005099 0.004806 0.000000 0.045834 0.000000
# 6 0.000000 0.000000 0.000000 0.011769 0.000000 0.039933
#
#
# Mechanical properties :
#
#
# Convention : Reuss Voigt Hill
#
# Bulk Modulus (GPa) = 53.38259 62.56866 57.97563
# Shear Modulus (GPa) = 22.61279 25.01557 23.81418
#
# Velocity S-wave (km/s) = 3.52580 3.70840 3.61825
# Velocity P-wave (km/s) = 6.77657 7.26176 7.02336
#
# Compressibility (1/GPa) = 0.01873270
#
# Stress axis : x y z
#
# Youngs Moduli (GPa) = 81.94587 46.36009 55.07790
#
# Poissons Ratio (x) = 0.19546 0.36984
# Poissons Ratio (y) = 0.34549 0.31215
# Poissons Ratio (z) = 0.55026 0.26274
#
# Static dielectric constant tensor:
#      x y z
#    x 3.629630 0.000000 -0.030820 
#    y 0.000000 3.378710 0.000000 
#    z -0.030820 0.000000 3.465430 
# 
# 
# High freq. dielectric constant tensor:
#      x y z
#    x 1.708990 0.000000 -0.002650 
#    y 0.000000 1.688900 0.000000 
#    z -0.002650 0.000000 1.695380 
# 
# From -- ./inp_files/55588.got.cif
#   From: 2010.06.25/outbox.cif.g09.slc.cpg/sg11_28_cif.got.tgz:55588.got - 2010.06.27 23:14:04.
