data_PCOD8071002
_publ_section_title
;
Structure prediction by ZEFSAII (Michael W. Deem and Ramdas Pophale) SiO2 
 PCOD8071002
Probable space group: P 21/M
;
_chemical_formula_sum "Si O2"
_cell_formula_units_Z 28
_cell_length_a 10.228963
_cell_length_b 8.803319
_cell_length_c 31.226810
_cell_angle_alpha 90.000000
_cell_angle_beta 147.743892
_cell_angle_gamma 90.000000
_cell_volume 1500.744195
_symmetry_space_group_name_H-M "P 21/M"
_symmetry_group_IT_number 11
_symmetry_cell_setting 'monoclinic'
loop_
_space_group_symop_operation_xyz
x,y,z
-x,1/2+y,-z
-x,-y,-z
x,1/2-y,z
loop_
_atom_site_type_symbol
_atom_site_label
_atom_site_fract_x
_atom_site_fract_y
_atom_site_fract_z
Si Si1 0.525409 0.570168 0.404479
Si Si2 0.540547 0.930303 0.312144
Si Si3 0.033758 0.430035 0.414723
Si Si4 0.856443 0.926029 0.998758
Si Si5 0.420333 0.576674 0.822271
Si Si6 0.214242 0.073241 0.154538
Si Si7 0.928431 0.428501 0.665219
O O1 0.530868 0.750000 0.405005
O O2 0.531924 0.505640 0.358128
O O3 0.763591 0.509992 0.495699
O O4 0.279278 0.514403 0.359552
O O5 0.547331 0.750000 0.312822
O O6 0.299343 0.989144 0.221113
O O7 0.777105 0.993884 0.354010
O O8 0.002606 0.250000 0.407650
O O9 0.116269 0.479517 0.390550
O O10 0.925949 0.750000 0.020766
O O11 0.567757 0.947092 0.907933
O O12 0.945299 0.008397 0.066936
O O13 0.000000 0.000000 0.000000
O O14 0.328151 0.750000 0.792784
O O15 0.593063 0.538214 0.829816
O O16 0.190614 0.464649 0.758837
O O17 0.188846 0.250000 0.157012
O O18 0.909078 0.250000 0.650442
#
# Coordination Sequence:
#
# PCOD8071002 Si02
#       7
#     4   4   4   4   4   4   4
#     4   9  22  39  54  77 108 142 180 226 271 316
#     4  11  21  36  57  79 106 141 182 223 269 321
#     4  11  21  37  57  78 108 139 177 228 274 316
#     4   9  17  29  48  75 108 140 175 217 266 314
#     4   9  18  32  50  76 110 140 171 217 268 310
#     4  10  19  32  51  78 111 139 173 218 270 318
#     4  11  21  35  56  80 107 142 183 220 264 321
#
# _framework density 18.657409999999999
#
# number of rings (size 3 to 8) (size 9 to 14) (size 15 to 20)
#    0.000    2.000    1.429    3.857    0.000    2.857 
#    0.000    7.143    0.000    0.857    0.000    0.000 
#    0.000    0.000    0.000    0.000    0.000    0.000 
#
# Total GULP energy -347188.071238 kJ/mol
# GULP energy per Si atom -12399.573973 kJ/mol
# Density = 1.861494 g / cm^3
# Si number density = 18.657410 Si / 1000 Ang^3
#
#
#
# Elastic Constant Matrix: (Units=GPa)
#
#
# Indices 1 2 3 4 5 6 
#
# 1 56.0815 18.3768 27.4355 0.0000 -13.9278 0.0000
# 2 18.3768 76.9740 40.2312 0.0000 -5.9144 0.0000
# 3 27.4355 40.2312 143.9082 0.0000 -19.9480 0.0000
# 4 0.0000 0.0000 0.0000 32.8718 0.0000 -3.1447
# 5 -13.9278 -5.9144 -19.9480 0.0000 14.4761 0.0000
# 6 0.0000 0.0000 0.0000 -3.1447 0.0000 13.1852
#
#
#
# Elastic Compliance Matrix: (Units=1/GPa)
#
#
# Indices 1 2 3 4 5 6 
#
# 1 0.024724 -0.003918 -0.000671 0.000000 0.021262 0.000000
# 2 -0.003918 0.015838 -0.004087 0.000000 -0.002931 0.000000
# 3 -0.000671 -0.004087 0.009763 0.000000 0.011139 0.000000
# 4 0.000000 0.000000 0.000000 0.031132 0.000000 0.007425
# 5 0.021262 -0.002931 0.011139 0.000000 0.103687 0.000000
# 6 0.000000 0.000000 0.000000 0.007425 0.000000 0.077614
#
#
# Mechanical properties :
#
#
# Convention : Reuss Voigt Hill
#
# Bulk Modulus (GPa) = 30.32799 49.89452 40.11125
# Shear Modulus (GPa) = 17.17622 24.83464 21.00543
#
# Velocity S-wave (km/s) = 3.03745 3.65236 3.35901
# Velocity P-wave (km/s) = 5.34714 6.67734 6.04892
#
# Compressibility (1/GPa) = 0.03297284
#
# Stress axis : x y z
#
# Youngs Moduli (GPa) = 40.44697 63.14050 102.42456
#
# Poissons Ratio (x) = 0.24740 0.06871
# Poissons Ratio (y) = 0.15848 0.41860
# Poissons Ratio (z) = 0.02713 0.25805
#
# Static dielectric constant tensor:
#      x y z
#    x 3.213860 0.000000 -0.126920 
#    y 0.000000 3.400440 0.000000 
#    z -0.126920 0.000000 4.010440 
# 
# 
# High freq. dielectric constant tensor:
#      x y z
#    x 1.683290 0.000000 -0.006510 
#    y 0.000000 1.723960 0.000000 
#    z -0.006510 0.000000 1.747880 
# 
# From -- ./inp_files/70888.got.cif
#   From: 2010.06.25/outbox.cif.g09.slc.cpg/sg11_36_cif.got.tgz:70888.got - 2010.06.27 23:14:04.
