data_PCOD8071634
_publ_section_title
;
Structure prediction by ZEFSAII (Michael W. Deem and Ramdas Pophale) SiO2 
 PCOD8071634
Probable space group: P 21/M
;
_chemical_formula_sum "Si O2"
_cell_formula_units_Z 28
_cell_length_a 14.101248
_cell_length_b 9.113915
_cell_length_c 10.467945
_cell_angle_alpha 90.000000
_cell_angle_beta 107.097805
_cell_angle_gamma 90.000000
_cell_volume 1285.857751
_symmetry_space_group_name_H-M "P 21/M"
_symmetry_group_IT_number 11
_symmetry_cell_setting 'monoclinic'
loop_
_space_group_symop_operation_xyz
x,y,z
-x,1/2+y,-z
-x,-y,-z
x,1/2-y,z
loop_
_atom_site_type_symbol
_atom_site_label
_atom_site_fract_x
_atom_site_fract_y
_atom_site_fract_z
Si Si1 0.288116 0.578241 0.769120
Si Si2 0.676658 0.582973 0.981278
Si Si3 0.758847 0.915356 0.732138
Si Si4 0.070620 0.921219 0.629657
Si Si5 0.020532 0.422531 0.142368
Si Si6 0.582459 0.089665 0.601396
Si Si7 0.508302 0.916350 0.160406
O O1 0.314340 0.750000 0.779487
O O2 0.187663 0.547957 0.646647
O O3 0.384187 0.485494 0.760766
O O4 0.260489 0.522704 0.900877
O O5 0.680133 0.750000 0.031240
O O6 0.722982 0.569994 0.862311
O O7 0.561348 0.526164 0.953352
O O8 0.746946 0.750000 0.677534
O O9 0.870624 0.969831 0.766597
O O10 0.689542 0.017047 0.617474
O O11 0.046069 0.750000 0.609349
O O12 0.049714 0.972102 0.768194
O O13 0.000000 0.000000 0.500000
O O14 0.014740 0.250000 0.112594
O O15 0.000000 0.500000 0.000000
O O16 0.586770 0.250000 0.540557
O O17 0.557833 0.095780 0.739750
O O18 0.500000 0.000000 0.500000
O O19 0.519782 0.750000 0.109680
#
# Coordination Sequence:
#
# PCOD8071634 Si02
#       7
#     4   4   4   4   4   4   4
#     4  11  22  36  55  80 111 148 187 231 280 334
#     4  10  19  33  55  84 115 146 180 225 280 340
#     4   9  19  35  56  82 112 144 183 232 284 335
#     4  10  24  43  61  84 118 157 199 246 295 346
#     4  10  21  39  63  91 119 151 194 245 296 349
#     4  10  21  36  55  78 107 142 180 223 275 335
#     4  10  21  36  54  79 109 144 183 224 274 335
#
# _framework density 21.775348000000001
#
# number of rings (size 3 to 8) (size 9 to 14) (size 15 to 20)
#    0.000    2.000    0.000    3.000    0.000    5.714 
#    0.000    4.286    0.000    0.000    0.000    0.000 
#    0.000    0.000    0.000    0.000    0.000    0.000 
#
# Total GULP energy -347014.251926 kJ/mol
# GULP energy per Si atom -12393.366140 kJ/mol
# Density = 2.172579 g / cm^3
# Si number density = 21.775348 Si / 1000 Ang^3
#
#
#
# Elastic Constant Matrix: (Units=GPa)
#
#
# Indices 1 2 3 4 5 6 
#
# 1 96.3978 39.9335 18.8727 0.0000 24.9536 0.0000
# 2 39.9335 131.2133 45.9231 0.0000 28.7238 0.0000
# 3 18.8727 45.9231 79.2006 0.0000 28.2896 0.0000
# 4 0.0000 0.0000 0.0000 40.8107 0.0000 6.6302
# 5 24.9536 28.7238 28.2896 0.0000 32.4563 0.0000
# 6 0.0000 0.0000 0.0000 6.6302 0.0000 29.8844
#
#
#
# Elastic Compliance Matrix: (Units=1/GPa)
#
#
# Indices 1 2 3 4 5 6 
#
# 1 0.013626 -0.002641 0.001730 0.000000 -0.009647 0.000000
# 2 -0.002641 0.010737 -0.004251 0.000000 -0.003767 0.000000
# 3 0.001730 -0.004251 0.020053 0.000000 -0.015047 0.000000
# 4 0.000000 0.000000 0.000000 0.025420 0.000000 -0.005640
# 5 -0.009647 -0.003767 -0.015047 0.000000 0.054677 0.000000
# 6 0.000000 0.000000 0.000000 -0.005640 0.000000 0.034713
#
#
# Mechanical properties :
#
#
# Convention : Reuss Voigt Hill
#
# Bulk Modulus (GPa) = 29.33104 57.36336 43.34720
# Shear Modulus (GPa) = 27.63737 34.10246 30.86992
#
# Velocity S-wave (km/s) = 3.56645 3.96170 3.76926
# Velocity P-wave (km/s) = 5.51893 6.87947 6.23641
#
# Compressibility (1/GPa) = 0.03409357
#
# Stress axis : x y z
#
# Youngs Moduli (GPa) = 73.38813 93.13355 49.86692
#
# Poissons Ratio (x) = 0.24593 -0.08627
# Poissons Ratio (y) = 0.19379 0.21199
# Poissons Ratio (z) = -0.12696 0.39592
#
# Static dielectric constant tensor:
#      x y z
#    x 7.912140 0.000000 -4.005270 
#    y 0.000000 -1.622840 0.000000 
#    z -4.005270 0.000000 7.950920 
# 
# 
# High freq. dielectric constant tensor:
#      x y z
#    x 1.869730 0.000000 0.006970 
#    y 0.000000 1.857160 0.000000 
#    z 0.006970 0.000000 1.844710 
# 
# From -- ./inp_files/38391.got.cif
#   From: 2010.06.25/outbox.cif.g09.slc.cpg/sg11_20_cif.got.tgz:38391.got - 2010.06.27 23:14:04.
