data_PCOD8071637
_publ_section_title
;
Structure prediction by ZEFSAII (Michael W. Deem and Ramdas Pophale) SiO2 
 PCOD8071637
Probable space group: P 21/M
;
_chemical_formula_sum "Si O2"
_cell_formula_units_Z 24
_cell_length_a 12.182572
_cell_length_b 9.098469
_cell_length_c 23.159559
_cell_angle_alpha 90.000000
_cell_angle_beta 152.946020
_cell_angle_gamma 90.000000
_cell_volume 1167.579462
_symmetry_space_group_name_H-M "P 21/M"
_symmetry_group_IT_number 11
_symmetry_cell_setting 'monoclinic'
loop_
_space_group_symop_operation_xyz
x,y,z
-x,1/2+y,-z
-x,-y,-z
x,1/2-y,z
loop_
_atom_site_type_symbol
_atom_site_label
_atom_site_fract_x
_atom_site_fract_y
_atom_site_fract_z
Si Si1 0.488082 0.078382 0.933240
Si Si2 0.305300 0.084599 0.374235
Si Si3 0.616561 0.079062 0.418218
Si Si4 0.130064 0.916542 0.982649
Si Si5 0.028497 0.922875 0.685418
Si Si6 0.665995 0.417739 0.801242
O O1 0.432170 0.250000 0.915952
O O2 0.739809 0.055827 0.017470
O O3 0.281408 0.005221 0.796585
O O4 0.500000 0.000000 0.000000
O O5 0.367871 0.250000 0.418270
O O6 0.356846 0.056208 0.330532
O O7 0.044731 0.049401 0.280655
O O8 0.500000 0.000000 0.500000
O O9 0.687727 0.250000 0.446668
O O10 0.833691 0.992611 0.550579
O O11 0.561125 0.011815 0.329295
O O12 0.025497 0.750000 0.935902
O O13 0.325053 0.937393 0.125542
O O14 0.917298 0.031667 0.890762
O O15 0.055782 0.750000 0.684537
O O16 0.624240 0.250000 0.763504
#
# Coordination Sequence:
#
# PCOD8071637 Si02
#       6
#     4   4   4   4   4   4
#     4  11  24  41  60  83 114 154 193 232 283 342
#     4   8  16  29  47  72 106 143 177 218 269 321
#     4  10  19  33  55  84 116 151 187 231 288 340
#     4   9  21  41  60  81 115 152 190 237 285 336
#     4  10  20  36  55  81 115 151 191 236 281 334
#     4  10  20  36  61  89 113 145 191 240 286 335
#
# _framework density 20.555346
#
# number of rings (size 3 to 8) (size 9 to 14) (size 15 to 20)
#    0.000    2.333    0.000    2.000    2.333    3.333 
#    0.000    0.833    0.000    0.000    0.000    0.000 
#    0.000    0.000    0.000    0.000    0.000    0.000 
#
# Total GULP energy -297383.857784 kJ/mol
# GULP energy per Si atom -12390.994074 kJ/mol
# Density = 2.050856 g / cm^3
# Si number density = 20.555346 Si / 1000 Ang^3
#
#
#
# Elastic Constant Matrix: (Units=GPa)
#
#
# Indices 1 2 3 4 5 6 
#
# 1 65.5868 31.5677 14.2185 0.0000 -11.1852 0.0000
# 2 31.5677 117.4131 37.4022 0.0000 -7.5328 0.0000
# 3 14.2185 37.4022 59.7840 0.0000 -12.9021 0.0000
# 4 0.0000 0.0000 0.0000 39.6384 0.0000 -2.8709
# 5 -11.1852 -7.5328 -12.9021 0.0000 27.3957 0.0000
# 6 0.0000 0.0000 0.0000 -2.8709 0.0000 24.5230
#
#
#
# Elastic Compliance Matrix: (Units=1/GPa)
#
#
# Indices 1 2 3 4 5 6 
#
# 1 0.018527 -0.004504 -0.000249 0.000000 0.006209 0.000000
# 2 -0.004504 0.011733 -0.006645 0.000000 -0.001742 0.000000
# 3 -0.000249 -0.006645 0.022850 0.000000 0.008832 0.000000
# 4 0.000000 0.000000 0.000000 0.025444 0.000000 0.002979
# 5 0.006209 -0.001742 0.008832 0.000000 0.042718 0.000000
# 6 0.000000 0.000000 0.000000 0.002979 0.000000 0.041127
#
#
# Mechanical properties :
#
#
# Convention : Reuss Voigt Hill
#
# Bulk Modulus (GPa) = 32.98760 45.46228 39.22494
# Shear Modulus (GPa) = 25.60183 28.95111 27.27647
#
# Velocity S-wave (km/s) = 3.53300 3.75700 3.64672
# Velocity P-wave (km/s) = 5.72065 6.40196 6.07087
#
# Compressibility (1/GPa) = 0.03031442
#
# Stress axis : x y z
#
# Youngs Moduli (GPa) = 53.97392 85.23057 43.76441
#
# Poissons Ratio (x) = 0.38385 0.01089
# Poissons Ratio (y) = 0.24308 0.29083
# Poissons Ratio (z) = 0.01343 0.56638
#
# Static dielectric constant tensor:
#      x y z
#    x 3.643840 0.000000 -0.060010 
#    y 0.000000 3.755430 0.000000 
#    z -0.060010 0.000000 3.530570 
# 
# 
# High freq. dielectric constant tensor:
#      x y z
#    x 1.788500 0.000000 -0.013000 
#    y 0.000000 1.813760 0.000000 
#    z -0.013000 0.000000 1.797490 
# 
# From -- ./inp_files/68466.got.cif
#   From: 2010.06.25/outbox.cif.g09.slc.cpg/sg11_35_cif.got.tgz:68466.got - 2010.06.27 23:14:04.
