data_PCOD8071961
_publ_section_title
;
Structure prediction by ZEFSAII (Michael W. Deem and Ramdas Pophale) SiO2 
 PCOD8071961
Probable space group: P 21/M
;
_chemical_formula_sum "Si O2"
_cell_formula_units_Z 32
_cell_length_a 15.643591
_cell_length_b 20.007745
_cell_length_c 9.160634
_cell_angle_alpha 90.000000
_cell_angle_beta 143.937709
_cell_angle_gamma 90.000000
_cell_volume 1687.827042
_symmetry_space_group_name_H-M "P 21/M"
_symmetry_group_IT_number 11
_symmetry_cell_setting 'monoclinic'
loop_
_space_group_symop_operation_xyz
x,y,z
-x,1/2+y,-z
-x,-y,-z
x,1/2-y,z
loop_
_atom_site_type_symbol
_atom_site_label
_atom_site_fract_x
_atom_site_fract_y
_atom_site_fract_z
Si Si1 0.842336 0.063762 0.714147
Si Si2 0.337567 0.673930 0.039168
Si Si3 0.821123 0.436240 0.359570
Si Si4 0.179861 0.440211 0.137861
Si Si5 0.151134 0.325700 0.542679
Si Si6 0.666493 0.825796 0.482322
Si Si7 0.836743 0.564709 0.210784
Si Si8 0.132978 0.826000 0.019249
O O1 0.765436 0.066764 0.449977
O O2 0.831988 0.133153 0.786714
O O3 0.761038 0.005550 0.694723
O O4 0.008666 0.049157 0.907958
O O5 0.330969 0.750000 0.971583
O O6 0.502496 0.647801 0.270168
O O7 0.275163 0.669360 0.115904
O O8 0.241420 0.629657 0.800303
O O9 0.766770 0.503877 0.206151
O O10 0.992720 0.438307 0.579313
O O11 0.226395 0.371498 0.276609
O O12 0.238320 0.437371 0.052224
O O13 0.118045 0.250000 0.547504
O O14 0.287570 0.329084 0.622946
O O15 0.195456 0.367212 0.746537
O O16 0.007104 0.355159 0.262284
O O17 0.680750 0.750000 0.561561
O O18 0.098202 0.750000 0.018403
#
# Coordination Sequence:
#
# PCOD8071961 Si02
#       8
#     4   4   4   4   4   4   4   4
#     4  10  20  33  56  83 112 143 184 235 276 318
#     4  10  21  38  58  81 114 150 182 223 277 334
#     4  10  20  34  54  83 113 146 183 229 278 326
#     4  10  20  34  54  83 113 146 183 229 278 326
#     4  10  19  34  56  81 109 143 186 228 269 323
#     4  10  21  38  58  81 114 150 182 223 277 334
#     4  10  20  33  56  83 112 143 184 235 276 318
#     4  10  19  34  56  81 109 143 186 228 269 323
#
# _framework density 18.959288000000001
#
# number of rings (size 3 to 8) (size 9 to 14) (size 15 to 20)
#    0.000    2.000    2.500    1.500    3.500    1.000 
#    0.000    8.750    0.000    4.500    0.000    0.000 
#    0.000    0.000    0.000    0.000    0.000    0.000 
#
# Total GULP energy -396748.636639 kJ/mol
# GULP energy per Si atom -12398.394895 kJ/mol
# Density = 1.891614 g / cm^3
# Si number density = 18.959288 Si / 1000 Ang^3
#
#
#
# Elastic Constant Matrix: (Units=GPa)
#
#
# Indices 1 2 3 4 5 6 
#
# 1 87.2675 35.1541 32.9547 0.0000 -21.1513 0.0000
# 2 35.1541 102.5325 33.8866 0.0000 -29.9843 0.0000
# 3 32.9547 33.8866 39.6417 0.0000 -22.6238 0.0000
# 4 0.0000 0.0000 0.0000 7.8872 0.0000 -4.7129
# 5 -21.1513 -29.9843 -22.6238 0.0000 42.5537 0.0000
# 6 0.0000 0.0000 0.0000 -4.7129 0.0000 31.4364
#
#
#
# Elastic Compliance Matrix: (Units=1/GPa)
#
#
# Indices 1 2 3 4 5 6 
#
# 1 0.016907 -0.001489 -0.012325 0.000000 0.000802 0.000000
# 2 -0.001489 0.014470 -0.008233 0.000000 0.005079 0.000000
# 3 -0.012325 -0.008233 0.051254 0.000000 0.015322 0.000000
# 4 0.000000 0.000000 0.000000 0.139264 0.000000 0.020878
# 5 0.000802 0.005079 0.015322 0.000000 0.035623 0.000000
# 6 0.000000 0.000000 0.000000 0.020878 0.000000 0.034940
#
#
# Mechanical properties :
#
#
# Convention : Reuss Voigt Hill
#
# Bulk Modulus (GPa) = 25.94860 48.15915 37.05388
# Shear Modulus (GPa) = 14.31039 24.87187 19.59113
#
# Velocity S-wave (km/s) = 2.75034 3.62589 3.21803
# Velocity P-wave (km/s) = 4.87873 6.55636 5.77875
#
# Compressibility (1/GPa) = 0.03853772
#
# Stress axis : x y z
#
# Youngs Moduli (GPa) = 59.14556 69.11072 19.51082
#
# Poissons Ratio (x) = 0.10290 0.24047
# Poissons Ratio (y) = 0.08807 0.16063
# Poissons Ratio (z) = 0.72895 0.56897
#
# Static dielectric constant tensor:
#      x y z
#    x 3.638150 0.000000 -0.162550 
#    y 0.000000 3.539540 0.000000 
#    z -0.162550 0.000000 3.216730 
# 
# 
# High freq. dielectric constant tensor:
#      x y z
#    x 1.738160 0.000000 -0.014640 
#    y 0.000000 1.745650 0.000000 
#    z -0.014640 0.000000 1.697900 
# 
# From -- ./inp_files/23136.got.cif
#   From: 2010.06.25/outbox.cif.g09.slc.cpg/sg11_12_cif.got.tgz:23136.got - 2010.06.27 23:14:04.
