data_PCOD8071538
_publ_section_title
;
Structure prediction by ZEFSAII (Michael W. Deem and Ramdas Pophale) SiO2 
 PCOD8071538
Probable space group: P 21/M
;
_chemical_formula_sum "Si O2"
_cell_formula_units_Z 32
_cell_length_a 11.918448
_cell_length_b 8.632361
_cell_length_c 18.912675
_cell_angle_alpha 90.000000
_cell_angle_beta 106.847725
_cell_angle_gamma 90.000000
_cell_volume 1862.300590
_symmetry_space_group_name_H-M "P 21/M"
_symmetry_group_IT_number 11
_symmetry_cell_setting 'monoclinic'
loop_
_space_group_symop_operation_xyz
x,y,z
-x,1/2+y,-z
-x,-y,-z
x,1/2-y,z
loop_
_atom_site_type_symbol
_atom_site_label
_atom_site_fract_x
_atom_site_fract_y
_atom_site_fract_z
Si Si1 0.196890 0.929237 0.694564
Si Si2 0.629351 0.929929 0.377369
Si Si3 0.171776 0.929643 0.221551
Si Si4 0.037093 0.073965 0.079636
Si Si5 0.988070 0.429346 0.574410
Si Si6 0.943105 0.425436 0.204522
Si Si7 0.381680 0.069632 0.344767
Si Si8 0.281450 0.572537 0.463274
O O1 0.228084 0.750000 0.687089
O O2 0.176227 0.968185 0.774723
O O3 0.300766 0.032381 0.682072
O O4 0.071206 0.969251 0.638745
O O5 0.639211 0.750000 0.396079
O O6 0.495817 0.976765 0.341172
O O7 0.689038 0.022735 0.451966
O O8 0.203245 0.750000 0.230469
O O9 0.278710 0.025097 0.272821
O O10 0.147945 0.984948 0.135906
O O11 0.053811 0.964636 0.245957
O O12 0.074616 0.250000 0.072308
O O13 0.927789 0.063483 0.115968
O O14 0.000000 0.000000 0.000000
O O15 0.027721 0.250000 0.580974
O O16 0.855620 0.447106 0.577290
O O17 0.000000 0.500000 0.500000
O O18 0.978919 0.250000 0.231847
O O19 0.408502 0.250000 0.344094
O O20 0.352968 0.029740 0.420699
O O21 0.320222 0.750000 0.460468
#
# Coordination Sequence:
#
# PCOD8071538 Si02
#       8
#     4   4   4   4   4   4   4   4
#     4  11  21  36  53  73 102 136 174 218 264 315
#     4  12  25  39  54  73  99 135 180 228 272 318
#     4  10  19  33  54  81 110 140 174 212 257 310
#     4   9  17  32  52  83 116 146 173 206 253 307
#     4  11  22  34  52  74 100 132 171 217 267 321
#     4   8  18  33  52  77 109 140 170 205 253 308
#     4  12  24  39  56  74 101 137 178 225 269 316
#     4  11  23  39  56  76 100 133 177 225 274 322
#
# _framework density 17.183047999999999
#
# number of rings (size 3 to 8) (size 9 to 14) (size 15 to 20)
#    0.750    0.750    1.250    5.625    0.000    4.500 
#    0.000    0.000    0.000    0.000    0.000    0.875 
#    0.000    0.000    0.000    0.000    0.000    0.000 
#
# Total GULP energy -396628.220630 kJ/mol
# GULP energy per Si atom -12394.631895 kJ/mol
# Density = 1.714394 g / cm^3
# Si number density = 17.183048 Si / 1000 Ang^3
#
#
#
# Elastic Constant Matrix: (Units=GPa)
#
#
# Indices 1 2 3 4 5 6 
#
# 1 86.3208 17.5655 29.4093 0.0000 -11.0003 0.0000
# 2 17.5655 64.7259 15.8643 0.0000 -3.4298 0.0000
# 3 29.4093 15.8643 78.8500 0.0000 -13.5195 0.0000
# 4 0.0000 0.0000 0.0000 28.3278 0.0000 -0.2319
# 5 -11.0003 -3.4298 -13.5195 0.0000 15.6131 0.0000
# 6 0.0000 0.0000 0.0000 -0.2319 0.0000 28.4237
#
#
#
# Elastic Compliance Matrix: (Units=1/GPa)
#
#
# Indices 1 2 3 4 5 6 
#
# 1 0.014165 -0.002610 -0.003694 0.000000 0.006209 0.000000
# 2 -0.002610 0.016742 -0.002442 0.000000 -0.000276 0.000000
# 3 -0.003694 -0.002442 0.016456 0.000000 0.011111 0.000000
# 4 0.000000 0.000000 0.000000 0.035303 0.000000 0.000288
# 5 0.006209 -0.000276 0.011111 0.000000 0.077983 0.000000
# 6 0.000000 0.000000 0.000000 0.000288 0.000000 0.035184
#
#
# Mechanical properties :
#
#
# Convention : Reuss Voigt Hill
#
# Bulk Modulus (GPa) = 33.47626 39.50834 36.49230
# Shear Modulus (GPa) = 22.39298 25.61010 24.00154
#
# Velocity S-wave (km/s) = 3.61391 3.86479 3.74145
# Velocity P-wave (km/s) = 6.07768 6.55424 6.32045
#
# Compressibility (1/GPa) = 0.02987192
#
# Stress axis : x y z
#
# Youngs Moduli (GPa) = 70.59428 59.72985 60.76657
#
# Poissons Ratio (x) = 0.15589 0.22446
# Poissons Ratio (y) = 0.18425 0.14841
# Poissons Ratio (z) = 0.26076 0.14588
#
# Static dielectric constant tensor:
#      x y z
#    x 3.165950 0.000000 -0.143160 
#    y 0.000000 3.414280 0.000000 
#    z -0.143160 0.000000 3.118580 
# 
# 
# High freq. dielectric constant tensor:
#      x y z
#    x 1.646760 0.000000 -0.015540 
#    y 0.000000 1.681620 0.000000 
#    z -0.015540 0.000000 1.640370 
# 
# From -- ./inp_files/64098.got.cif
#   From: 2010.06.25/outbox.cif.g09.slc.cpg/sg11_33_cif.got.tgz:64098.got - 2010.06.27 23:14:04.
