data_PCOD8071331
_publ_section_title
;
Structure prediction by ZEFSAII (Michael W. Deem and Ramdas Pophale) SiO2 
 PCOD8071331
Probable space group: P 21/M
;
_chemical_formula_sum "Si O2"
_cell_formula_units_Z 20
_cell_length_a 12.087239
_cell_length_b 8.841033
_cell_length_c 12.471267
_cell_angle_alpha 90.000000
_cell_angle_beta 121.056633
_cell_angle_gamma 90.000000
_cell_volume 1141.689673
_symmetry_space_group_name_H-M "P 21/M"
_symmetry_group_IT_number 11
_symmetry_cell_setting 'monoclinic'
loop_
_space_group_symop_operation_xyz
x,y,z
-x,1/2+y,-z
-x,-y,-z
x,1/2-y,z
loop_
_atom_site_type_symbol
_atom_site_label
_atom_site_fract_x
_atom_site_fract_y
_atom_site_fract_z
Si Si1 0.139868 0.928583 0.569934
Si Si2 0.683513 0.925958 0.168512
Si Si3 0.316487 0.425958 0.485000
Si Si4 0.391859 0.924706 0.075612
Si Si5 0.608142 0.075294 0.683753
O O1 0.127978 0.750000 0.563990
O O2 0.212808 0.980399 0.713339
O O3 0.212809 0.980398 0.499470
O O4 0.000000 0.000000 0.500000
O O5 0.715670 0.750000 0.196676
O O6 0.542714 0.966430 0.143789
O O7 0.691307 0.973909 0.047540
O O8 0.284329 0.250000 0.481006
O O9 0.308692 0.473909 0.356233
O O10 0.457286 0.466430 0.601075
O O11 0.371799 0.750000 0.035111
O O12 0.343398 0.959328 0.171699
O O13 0.628201 0.250000 0.663312
#
# Coordination Sequence:
#
# PCOD8071331 Si02
#       5
#     4   4   4   4   4
#     4  12  24  38  56  76 104 142 181 220 265 314
#     4  10  19  33  51  77 108 138 177 219 262 312
#     4  10  19  33  51  77 108 138 177 219 262 312
#     4   9  17  31  51  77 110 142 172 214 263 312
#     4   9  17  31  51  77 110 142 172 214 263 312
#
# _framework density 17.517893999999998
#
# number of rings (size 3 to 8) (size 9 to 14) (size 15 to 20)
#    0.000    2.000    2.000    3.000    0.000    2.400 
#    0.000    0.000    0.000    1.200    0.000    0.000 
#    0.000    0.000    0.000    0.000    0.000    0.000 
#
# Total GULP energy -248047.190154 kJ/mol
# GULP energy per Si atom -12402.359508 kJ/mol
# Density = 1.747802 g / cm^3
# Si number density = 17.517894 Si / 1000 Ang^3
#
#
#
# Elastic Constant Matrix: (Units=GPa)
#
#
# Indices 1 2 3 4 5 6 
#
# 1 85.9464 56.1604 61.8901 0.0000 -8.3785 0.0000
# 2 56.1604 114.0009 57.1741 0.0000 -1.3753 0.0000
# 3 61.8901 57.1741 103.9882 0.0000 -16.1064 0.0000
# 4 0.0000 0.0000 0.0000 31.7612 0.0000 -4.3969
# 5 -8.3785 -1.3753 -16.1064 0.0000 25.6050 0.0000
# 6 0.0000 0.0000 0.0000 -4.3969 0.0000 28.5217
#
#
#
# Elastic Compliance Matrix: (Units=1/GPa)
#
#
# Indices 1 2 3 4 5 6 
#
# 1 0.023175 -0.006287 -0.010209 0.000000 0.000824 0.000000
# 2 -0.006287 0.014183 -0.004716 0.000000 -0.004262 0.000000
# 3 -0.010209 -0.004716 0.019643 0.000000 0.008762 0.000000
# 4 0.000000 0.000000 0.000000 0.032172 0.000000 0.004960
# 5 0.000824 -0.004262 0.008762 0.000000 0.044607 0.000000
# 6 0.000000 0.000000 0.000000 0.004960 0.000000 0.035826
#
#
# Mechanical properties :
#
#
# Convention : Reuss Voigt Hill
#
# Bulk Modulus (GPa) = 68.60328 72.70939 70.65634
# Shear Modulus (GPa) = 23.05348 25.75830 24.40589
#
# Velocity S-wave (km/s) = 3.63160 3.83874 3.73661
# Velocity P-wave (km/s) = 7.53867 7.82584 7.68360
#
# Compressibility (1/GPa) = 0.01457656
#
# Stress axis : x y z
#
# Youngs Moduli (GPa) = 43.15051 70.50736 50.90998
#
# Poissons Ratio (x) = 0.44327 0.51972
# Poissons Ratio (y) = 0.27128 0.24011
# Poissons Ratio (z) = 0.44050 0.33254
#
# Static dielectric constant tensor:
#      x y z
#    x 3.132450 0.000000 -0.260140 
#    y 0.000000 3.306950 0.000000 
#    z -0.260140 0.000000 3.324120 
# 
# 
# High freq. dielectric constant tensor:
#      x y z
#    x 1.651050 0.000000 -0.028160 
#    y 0.000000 1.685940 0.000000 
#    z -0.028160 0.000000 1.671800 
# 
# From -- ./inp_files/33407.got.cif
#   From: 2010.06.25/outbox.cif.g09.slc.cpg/sg11_17_cif.got.tgz:33407.got - 2010.06.27 23:14:04.
