data_PCOD8071218
_publ_section_title
;
Structure prediction by ZEFSAII (Michael W. Deem and Ramdas Pophale) SiO2 
 PCOD8071218
Probable space group: P 21/M
;
_chemical_formula_sum "Si O2"
_cell_formula_units_Z 28
_cell_length_a 21.680956
_cell_length_b 8.463291
_cell_length_c 24.082564
_cell_angle_alpha 90.000000
_cell_angle_beta 161.668959
_cell_angle_gamma 90.000000
_cell_volume 1389.794006
_symmetry_space_group_name_H-M "P 21/M"
_symmetry_group_IT_number 11
_symmetry_cell_setting 'monoclinic'
loop_
_space_group_symop_operation_xyz
x,y,z
-x,1/2+y,-z
-x,-y,-z
x,1/2-y,z
loop_
_atom_site_type_symbol
_atom_site_label
_atom_site_fract_x
_atom_site_fract_y
_atom_site_fract_z
Si Si1 0.993276 0.565336 0.117806
Si Si2 0.150761 0.937043 0.584090
Si Si3 0.459181 0.062857 0.025928
Si Si4 0.208766 0.937337 0.413874
Si Si5 0.627922 0.432939 0.755737
Si Si6 0.693724 0.934418 0.693574
Si Si7 0.971116 0.562212 0.316942
O O1 0.948222 0.750000 0.082086
O O2 0.109529 0.508732 0.271643
O O3 0.119920 0.525838 0.171600
O O4 0.787415 0.472426 0.939450
O O5 0.138910 0.750000 0.574802
O O6 0.369980 0.995684 0.786401
O O7 0.093097 0.002499 0.474073
O O8 0.000000 0.000000 0.500000
O O9 0.453841 0.250000 0.018144
O O10 0.251442 0.996770 0.870677
O O11 0.500000 0.000000 0.000000
O O12 0.241821 0.750000 0.443698
O O13 0.072134 0.998605 0.347096
O O14 0.415810 0.022898 0.597809
O O15 0.634811 0.250000 0.745078
O O16 0.682335 0.538898 0.749298
O O17 0.715090 0.750000 0.698936
O O18 0.500000 0.000000 0.500000
O O19 0.968902 0.750000 0.315551
#
# Coordination Sequence:
#
# PCOD8071218 Si02
#       7
#     4   4   4   4   4   4   4
#     4  11  23  40  64  92 123 160 207 256 305 361
#     4  10  19  32  55  84 114 146 187 234 290 349
#     4  10  19  32  54  83 112 146 186 233 290 347
#     4  10  22  41  64  87 116 158 207 253 301 360
#     4  12  25  41  63  90 125 163 203 252 308 366
#     4  12  23  39  64  94 126 160 203 253 308 361
#     4   9  19  36  57  84 115 149 193 244 293 351
#
# _framework density 20.146871000000001
#
# number of rings (size 3 to 8) (size 9 to 14) (size 15 to 20)
#    0.000    1.429    2.857    3.429    0.000    1.714 
#    0.000    5.714    0.000    1.714    0.000    0.000 
#    0.000    0.000    0.000    0.000    0.000    0.000 
#
# Total GULP energy -347300.182902 kJ/mol
# GULP energy per Si atom -12403.577961 kJ/mol
# Density = 2.010102 g / cm^3
# Si number density = 20.146871 Si / 1000 Ang^3
#
#
#
# Elastic Constant Matrix: (Units=GPa)
#
#
# Indices 1 2 3 4 5 6 
#
# 1 118.5625 11.0691 61.3441 0.0000 21.0358 0.0000
# 2 11.0691 41.9133 26.7484 0.0000 -1.2029 0.0000
# 3 61.3441 26.7484 185.6029 0.0000 11.7288 0.0000
# 4 0.0000 0.0000 0.0000 28.8529 0.0000 2.2901
# 5 21.0358 -1.2029 11.7288 0.0000 29.3362 0.0000
# 6 0.0000 0.0000 0.0000 2.2901 0.0000 25.2541
#
#
#
# Elastic Compliance Matrix: (Units=1/GPa)
#
#
# Indices 1 2 3 4 5 6 
#
# 1 0.011419 -0.001199 -0.003161 0.000000 -0.006974 0.000000
# 2 -0.001199 0.026605 -0.003654 0.000000 0.003411 0.000000
# 3 -0.003161 -0.003654 0.007002 0.000000 -0.000683 0.000000
# 4 0.000000 0.000000 0.000000 0.034910 0.000000 -0.003166
# 5 -0.006974 0.003411 -0.000683 0.000000 0.039501 0.000000
# 6 0.000000 0.000000 0.000000 -0.003166 0.000000 0.039885
#
#
# Mechanical properties :
#
#
# Convention : Reuss Voigt Hill
#
# Bulk Modulus (GPa) = 34.48266 60.48909 47.48587
# Shear Modulus (GPa) = 27.02502 33.14979 30.08741
#
# Velocity S-wave (km/s) = 3.66649 4.06076 3.86865
# Velocity P-wave (km/s) = 5.92258 7.21634 6.60123
#
# Compressibility (1/GPa) = 0.02900008
#
# Stress axis : x y z
#
# Youngs Moduli (GPa) = 87.57436 37.58705 142.81273
#
# Poissons Ratio (x) = 0.04506 0.45138
# Poissons Ratio (y) = 0.10498 0.52178
# Poissons Ratio (z) = 0.27679 0.13733
#
# Static dielectric constant tensor:
#      x y z
#    x 3.748620 0.000000 -0.059190 
#    y 0.000000 3.407850 0.000000 
#    z -0.059190 0.000000 4.160820 
# 
# 
# High freq. dielectric constant tensor:
#      x y z
#    x 1.779540 0.000000 -0.001740 
#    y 0.000000 1.767760 0.000000 
#    z -0.001740 0.000000 1.808360 
# 
# From -- ./inp_files/69823.got.cif
#   From: 2010.06.25/outbox.cif.g09.slc.cpg/sg11_35_cif.got.tgz:69823.got - 2010.06.27 23:14:04.
