data_PCOD8071115
_publ_section_title
;
Structure prediction by ZEFSAII (Michael W. Deem and Ramdas Pophale) SiO2 
 PCOD8071115
Probable space group: P 21/M
;
_chemical_formula_sum "Si O2"
_cell_formula_units_Z 28
_cell_length_a 15.468206
_cell_length_b 8.755370
_cell_length_c 18.987318
_cell_angle_alpha 90.000000
_cell_angle_beta 37.310261
_cell_angle_gamma 90.000000
_cell_volume 1558.635143
_symmetry_space_group_name_H-M "P 21/M"
_symmetry_group_IT_number 11
_symmetry_cell_setting 'monoclinic'
loop_
_space_group_symop_operation_xyz
x,y,z
-x,1/2+y,-z
-x,-y,-z
x,1/2-y,z
loop_
_atom_site_type_symbol
_atom_site_label
_atom_site_fract_x
_atom_site_fract_y
_atom_site_fract_z
Si Si1 0.387787 0.426235 0.122829
Si Si2 0.114978 0.576329 0.717969
Si Si3 0.876560 0.075189 0.124688
Si Si4 0.407758 0.429064 0.497341
Si Si5 0.578596 0.070456 0.118423
Si Si6 0.412628 0.070103 0.735287
Si Si7 0.190238 0.070948 0.133667
O O1 0.420180 0.250000 0.097731
O O2 0.427145 0.475059 0.177615
O O3 0.232704 0.463156 0.188888
O O4 0.500000 0.500000 0.000000
O O5 0.157960 0.750000 0.670768
O O6 0.078141 0.563757 0.823872
O O7 0.241607 0.464424 0.614420
O O8 0.974139 0.522670 0.767390
O O9 0.854795 0.250000 0.114914
O O10 0.731875 0.983872 0.207578
O O11 0.000000 0.000000 0.000000
O O12 0.500000 0.500000 0.500000
O O13 0.434127 0.250000 0.481541
O O14 0.455619 0.494577 0.391090
O O15 0.587870 0.250000 0.129618
O O16 0.582910 0.975562 0.186599
O O17 0.712727 0.025221 0.982860
O O18 0.423964 0.250000 0.720741
O O19 0.209870 0.250000 0.102718
#
# Coordination Sequence:
#
# PCOD8071115 Si02
#       7
#     4   4   4   4   4   4   4
#     4   8  15  28  49  77 110 145 177 216 263 317
#     4  10  21  36  55  78 107 142 179 220 264 316
#     4  11  22  35  53  79 113 145 176 214 264 321
#     4  12  24  40  60  79 102 136 181 227 271 322
#     4  10  19  32  52  81 114 145 181 223 270 321
#     4  12  24  38  56  77 105 142 183 227 271 317
#     4   9  17  32  54  82 114 146 180 216 265 325
#
# _framework density 17.964435999999999
#
# number of rings (size 3 to 8) (size 9 to 14) (size 15 to 20)
#    0.000    1.714    1.429    4.286    0.000    2.857 
#    0.000    0.000    0.000    0.857    0.000    0.000 
#    0.000    0.000    0.000    0.000    0.000    0.000 
#
# Total GULP energy -347057.713821 kJ/mol
# GULP energy per Si atom -12394.918351 kJ/mol
# Density = 1.792355 g / cm^3
# Si number density = 17.964436 Si / 1000 Ang^3
#
#
#
# Elastic Constant Matrix: (Units=GPa)
#
#
# Indices 1 2 3 4 5 6 
#
# 1 119.4762 31.5271 19.9087 0.0000 -22.6053 0.0000
# 2 31.5271 102.0647 29.7913 0.0000 -7.4644 0.0000
# 3 19.9087 29.7913 66.8992 0.0000 -17.1716 0.0000
# 4 0.0000 0.0000 0.0000 29.5265 0.0000 -2.5980
# 5 -22.6053 -7.4644 -17.1716 0.0000 17.7001 0.0000
# 6 0.0000 0.0000 0.0000 -2.5980 0.0000 20.2534
#
#
#
# Elastic Compliance Matrix: (Units=1/GPa)
#
#
# Indices 1 2 3 4 5 6 
#
# 1 0.011818 -0.003048 0.001844 0.000000 0.015596 0.000000
# 2 -0.003048 0.012048 -0.005530 0.000000 -0.004177 0.000000
# 3 0.001844 -0.005530 0.022461 0.000000 0.021812 0.000000
# 4 0.000000 0.000000 0.000000 0.034254 0.000000 0.004394
# 5 0.015596 -0.004177 0.021812 0.000000 0.095815 0.000000
# 6 0.000000 0.000000 0.000000 0.004394 0.000000 0.049938
#
#
# Mechanical properties :
#
#
# Convention : Reuss Voigt Hill
#
# Bulk Modulus (GPa) = 30.43476 50.09935 40.26705
# Shear Modulus (GPa) = 19.93978 27.31020 23.62499
#
# Velocity S-wave (km/s) = 3.33522 3.90325 3.63036
# Velocity P-wave (km/s) = 5.64004 6.94712 6.32742
#
# Compressibility (1/GPa) = 0.03285717
#
# Stress axis : x y z
#
# Youngs Moduli (GPa) = 84.61840 83.00195 44.52227
#
# Poissons Ratio (x) = 0.25299 -0.08208
# Poissons Ratio (y) = 0.25791 0.24622
# Poissons Ratio (z) = -0.15600 0.45902
#
# Static dielectric constant tensor:
#      x y z
#    x 3.993570 0.000000 -0.046990 
#    y 0.000000 3.446910 0.000000 
#    z -0.046990 0.000000 3.151350 
# 
# 
# High freq. dielectric constant tensor:
#      x y z
#    x 1.711460 0.000000 -0.001740 
#    y 0.000000 1.705720 0.000000 
#    z -0.001740 0.000000 1.665600 
# 
# From -- ./inp_files/60076.got.cif
#   From: 2010.06.25/outbox.cif.g09.slc.cpg/sg11_31_cif.got.tgz:60076.got - 2010.06.27 23:14:04.
