data_PCOD8071765
_publ_section_title
;
Structure prediction by ZEFSAII (Michael W. Deem and Ramdas Pophale) SiO2 
 PCOD8071765
Probable space group: P 21/M
;
_chemical_formula_sum "Si O2"
_cell_formula_units_Z 20
_cell_length_a 9.202471
_cell_length_b 8.728674
_cell_length_c 12.338809
_cell_angle_alpha 90.000000
_cell_angle_beta 95.562095
_cell_angle_gamma 90.000000
_cell_volume 986.452942
_symmetry_space_group_name_H-M "P 21/M"
_symmetry_group_IT_number 11
_symmetry_cell_setting 'monoclinic'
loop_
_space_group_symop_operation_xyz
x,y,z
-x,1/2+y,-z
-x,-y,-z
x,1/2-y,z
loop_
_atom_site_type_symbol
_atom_site_label
_atom_site_fract_x
_atom_site_fract_y
_atom_site_fract_z
Si Si1 0.455171 0.431832 0.883091
Si Si2 0.238435 0.931196 0.718608
Si Si3 0.361975 0.921091 0.303679
Si Si4 0.697062 0.930282 0.490880
Si Si5 0.059521 0.924569 0.367000
O O1 0.447304 0.250000 0.891457
O O2 0.298954 0.501147 0.836095
O O3 0.572968 0.490738 0.802046
O O4 0.500000 0.500000 0.000000
O O5 0.249724 0.750000 0.717755
O O6 0.341779 0.002138 0.630483
O O7 0.072585 0.983346 0.694494
O O8 0.423921 0.750000 0.323800
O O9 0.185541 0.922739 0.282845
O O10 0.407693 0.008433 0.419347
O O11 0.691814 0.750000 0.488467
O O12 0.866452 0.988682 0.523549
O O13 0.014811 0.750000 0.395037
#
# Coordination Sequence:
#
# PCOD8071765 Si02
#       5
#     4   4   4   4   4
#     4  11  24  44  63  83 111 150 195 242 289 337
#     4  12  23  36  57  88 119 155 194 232 281 340
#     4   8  19  38  60  83 116 152 187 232 286 341
#     4  10  19  33  58  89 121 153 186 231 286 342
#     4   9  18  36  58  87 120 152 186 232 285 340
#
# _framework density 20.274661999999999
#
# number of rings (size 3 to 8) (size 9 to 14) (size 15 to 20)
#    1.200    0.800    0.000    4.800    0.000    2.400 
#    0.000    1.000    0.000    0.000    0.000    0.000 
#    0.000    0.000    0.000    0.000    0.000    0.000 
#
# Total GULP energy -247906.623774 kJ/mol
# GULP energy per Si atom -12395.331189 kJ/mol
# Density = 2.022852 g / cm^3
# Si number density = 20.274662 Si / 1000 Ang^3
#
#
#
# Elastic Constant Matrix: (Units=GPa)
#
#
# Indices 1 2 3 4 5 6 
#
# 1 32.4084 14.2660 41.6202 0.0000 -2.1137 0.0000
# 2 14.2660 146.0105 64.8259 0.0000 -1.1525 0.0000
# 3 41.6202 64.8259 162.5240 0.0000 9.0469 0.0000
# 4 0.0000 0.0000 0.0000 35.6454 0.0000 1.0056
# 5 -2.1137 -1.1525 9.0469 0.0000 20.7818 0.0000
# 6 0.0000 0.0000 0.0000 1.0056 0.0000 24.6236
#
#
#
# Elastic Compliance Matrix: (Units=1/GPa)
#
#
# Indices 1 2 3 4 5 6 
#
# 1 0.048341 0.001371 -0.013532 0.000000 0.010884 0.000000
# 2 0.001371 0.008440 -0.003844 0.000000 0.002281 0.000000
# 3 -0.013532 -0.003844 0.011519 0.000000 -0.006604 0.000000
# 4 0.000000 0.000000 0.000000 0.028086 0.000000 -0.001147
# 5 0.010884 0.002281 -0.006604 0.000000 0.052228 0.000000
# 6 0.000000 0.000000 0.000000 -0.001147 0.000000 0.040658
#
#
# Mechanical properties :
#
#
# Convention : Reuss Voigt Hill
#
# Bulk Modulus (GPa) = 27.55679 64.70745 46.13212
# Shear Modulus (GPa) = 21.42428 30.89222 26.15825
#
# Velocity S-wave (km/s) = 3.25422 3.90768 3.59582
# Velocity P-wave (km/s) = 5.26699 7.23496 6.32795
#
# Compressibility (1/GPa) = 0.03628870
#
# Stress axis : x y z
#
# Youngs Moduli (GPa) = 20.68637 118.48743 86.81062
#
# Poissons Ratio (x) = -0.16241 1.17473
# Poissons Ratio (y) = -0.02836 0.33373
# Poissons Ratio (z) = 0.27993 0.45551
#
# Static dielectric constant tensor:
#      x y z
#    x 3.877230 0.000000 -0.122250 
#    y 0.000000 3.718930 0.000000 
#    z -0.122250 0.000000 3.640460 
# 
# 
# High freq. dielectric constant tensor:
#      x y z
#    x 1.807950 0.000000 0.006390 
#    y 0.000000 1.798810 0.000000 
#    z 0.006390 0.000000 1.765780 
# 
# From -- ./inp_files/33579.got.cif
#   From: 2010.06.25/outbox.cif.g09.slc.cpg/sg11_17_cif.got.tgz:33579.got - 2010.06.27 23:14:04.
