data_PCOD8071320
_publ_section_title
;
Structure prediction by ZEFSAII (Michael W. Deem and Ramdas Pophale) SiO2 
 PCOD8071320
Probable space group: P 21/M
;
_chemical_formula_sum "Si O2"
_cell_formula_units_Z 32
_cell_length_a 11.969838
_cell_length_b 9.963381
_cell_length_c 14.443879
_cell_angle_alpha 90.000000
_cell_angle_beta 101.152871
_cell_angle_gamma 90.000000
_cell_volume 1690.046241
_symmetry_space_group_name_H-M "P 21/M"
_symmetry_group_IT_number 11
_symmetry_cell_setting 'monoclinic'
loop_
_space_group_symop_operation_xyz
x,y,z
-x,1/2+y,-z
-x,-y,-z
x,1/2-y,z
loop_
_atom_site_type_symbol
_atom_site_label
_atom_site_fract_x
_atom_site_fract_y
_atom_site_fract_z
Si Si1 0.921674 0.606953 0.815955
Si Si2 0.977425 0.480472 0.344592
Si Si3 0.328142 0.404128 0.277327
Si Si4 0.655717 0.594860 0.076882
Si Si5 0.909155 0.898722 0.155884
Si Si6 0.840125 0.401349 0.491124
Si Si7 0.478981 0.098927 0.126417
Si Si8 0.392071 0.589216 0.454250
O O1 0.933479 0.750000 0.869696
O O2 0.971105 0.627788 0.719018
O O3 0.790382 0.564096 0.792420
O O4 0.003296 0.506612 0.120478
O O5 0.082806 0.513165 0.427791
O O6 0.928259 0.600340 0.271185
O O7 0.871880 0.428266 0.389186
O O8 0.328172 0.250000 0.317840
O O9 0.428348 0.418478 0.219725
O O10 0.344788 0.522280 0.353575
O O11 0.642156 0.750000 0.104062
O O12 0.785217 0.546866 0.108641
O O13 0.581377 0.505671 0.134499
O O14 0.618102 0.569041 0.965376
O O15 0.926414 0.750000 0.120053
O O16 0.868322 0.250000 0.521964
O O17 0.705759 0.430067 0.483637
O O18 0.526044 0.250000 0.119893
O O19 0.500000 0.500000 0.500000
O O20 0.420121 0.750000 0.446214
#
# Coordination Sequence:
#
# PCOD8071320 Si02
#       8
#     4   4   4   4   4   4   4   4
#     4   9  18  32  53  76 103 136 172 211 255 311
#     4   9  18  31  52  76  99 131 172 211 259 304
#     4  10  20  37  56  78 105 139 177 213 261 317
#     4   9  18  35  56  80 107 134 172 219 263 312
#     4   9  18  32  51  75 105 135 166 212 264 310
#     4  10  19  33  51  74 102 135 175 216 258 306
#     4   9  19  35  57  79 104 139 174 214 264 315
#     4  11  23  39  55  76 107 143 179 221 264 306
#
# _framework density 18.934393
#
# number of rings (size 3 to 8) (size 9 to 14) (size 15 to 20)
#    0.750    1.750    1.250    1.125    0.000    2.500 
#    0.000    5.000    0.000    0.000    0.000    0.000 
#    0.000    0.000    0.000    0.000    0.000    0.000 
#
# Total GULP energy -396425.817615 kJ/mol
# GULP energy per Si atom -12388.306800 kJ/mol
# Density = 1.889130 g / cm^3
# Si number density = 18.934393 Si / 1000 Ang^3
#
#
#
# Elastic Constant Matrix: (Units=GPa)
#
#
# Indices 1 2 3 4 5 6 
#
# 1 96.3709 62.0370 0.7155 0.0000 11.3769 0.0000
# 2 62.0370 101.0262 9.6163 0.0000 5.6651 0.0000
# 3 0.7155 9.6163 14.7242 0.0000 -3.9688 0.0000
# 4 0.0000 0.0000 0.0000 17.4587 0.0000 2.8031
# 5 11.3769 5.6651 -3.9688 0.0000 27.0773 0.0000
# 6 0.0000 0.0000 0.0000 2.8031 0.0000 31.6501
#
#
#
# Elastic Compliance Matrix: (Units=1/GPa)
#
#
# Indices 1 2 3 4 5 6 
#
# 1 0.018247 -0.011468 0.005396 0.000000 -0.004477 0.000000
# 2 -0.011468 0.018062 -0.011409 0.000000 -0.000633 0.000000
# 3 0.005396 -0.011409 0.078227 0.000000 0.011586 0.000000
# 4 0.000000 0.000000 0.000000 0.058104 0.000000 -0.005146
# 5 -0.004477 -0.000633 0.011586 0.000000 0.040643 0.000000
# 6 0.000000 0.000000 0.000000 -0.005146 0.000000 0.032051
#
#
# Mechanical properties :
#
#
# Convention : Reuss Voigt Hill
#
# Bulk Modulus (GPa) = 12.56687 39.65100 26.10893
# Shear Modulus (GPa) = 16.29615 24.55404 20.42510
#
# Velocity S-wave (km/s) = 2.93689 3.60501 3.28797
# Velocity P-wave (km/s) = 4.26050 6.18990 5.31351
#
# Compressibility (1/GPa) = 0.07957433
#
# Stress axis : x y z
#
# Youngs Moduli (GPa) = 54.80352 55.36553 12.78326
#
# Poissons Ratio (x) = 0.63491 -0.06898
# Poissons Ratio (y) = 0.62846 0.14585
# Poissons Ratio (z) = -0.29572 0.63168
#
# Static dielectric constant tensor:
#      x y z
#    x 3.531300 0.000000 -0.038840 
#    y 0.000000 3.555680 0.000000 
#    z -0.038840 0.000000 3.238050 
# 
# 
# High freq. dielectric constant tensor:
#      x y z
#    x 1.740470 0.000000 -0.000070 
#    y 0.000000 1.735370 0.000000 
#    z -0.000070 0.000000 1.711900 
# 
# From -- ./inp_files/34804.got.cif
#   From: 2010.06.25/outbox.cif.g09.slc.cpg/sg11_18_cif.got.tgz:34804.got - 2010.06.27 23:14:04.
