data_PCOD8071650
_publ_section_title
;
Structure prediction by ZEFSAII (Michael W. Deem and Ramdas Pophale) SiO2 
 PCOD8071650
Probable space group: P 21/M
;
_chemical_formula_sum "Si O2"
_cell_formula_units_Z 28
_cell_length_a 12.951065
_cell_length_b 18.466094
_cell_length_c 11.603566
_cell_angle_alpha 90.000000
_cell_angle_beta 148.051079
_cell_angle_gamma 90.000000
_cell_volume 1468.457865
_symmetry_space_group_name_H-M "P 21/M"
_symmetry_group_IT_number 11
_symmetry_cell_setting 'monoclinic'
loop_
_space_group_symop_operation_xyz
x,y,z
-x,1/2+y,-z
-x,-y,-z
x,1/2-y,z
loop_
_atom_site_type_symbol
_atom_site_label
_atom_site_fract_x
_atom_site_fract_y
_atom_site_fract_z
Si Si1 0.874719 0.085786 0.029948
Si Si2 0.479874 0.169349 0.643462
Si Si3 0.173764 0.335330 0.161017
Si Si4 0.785896 0.569730 0.012052
Si Si5 0.022760 0.578931 0.463953
Si Si6 0.411720 0.528683 0.797660
Si Si7 0.177271 0.390338 0.512214
O O1 0.984550 0.120106 0.024680
O O2 0.986310 0.105953 0.252092
O O3 0.855050 0.999071 0.001891
O O4 0.656500 0.115613 0.831419
O O5 0.563564 0.250000 0.709669
O O6 0.360350 0.145769 0.416550
O O7 0.329822 0.168605 0.609503
O O8 0.126563 0.250000 0.118634
O O9 0.222264 0.360455 0.077802
O O10 0.938194 0.585578 0.256941
O O11 0.574178 0.558327 0.866350
O O12 0.256322 0.593442 0.678434
O O13 0.000000 0.500000 0.500000
O O14 0.903727 0.632295 0.437533
O O15 0.291136 0.466571 0.617820
O O16 0.500000 0.500000 0.000000
#
# Coordination Sequence:
#
# PCOD8071650 Si02
#       7
#     4   4   4   4   4   4   4
#     4  11  20  37  62  88 114 148 198 249 295 339
#     4  10  22  39  59  80 114 160 199 242 299 350
#     4  10  25  43  56  80 119 158 196 240 295 353
#     4  12  21  35  63  90 116 151 197 246 291 351
#     4  10  19  33  55  90 124 147 179 237 303 344
#     4  11  18  32  57  89 118 151 181 234 293 340
#     4  10  19  34  57  89 122 145 188 240 293 351
#
# _framework density 19.067623000000001
#
# number of rings (size 3 to 8) (size 9 to 14) (size 15 to 20)
#    0.000    1.429    7.143    0.857    0.000    2.286 
#    0.000    0.714    0.000    0.857    0.000    0.000 
#    0.000    0.000    0.000    0.000    0.000    0.000 
#
# Total GULP energy -347099.440393 kJ/mol
# GULP energy per Si atom -12396.408585 kJ/mol
# Density = 1.902422 g / cm^3
# Si number density = 19.067623 Si / 1000 Ang^3
#
#
#
# Elastic Constant Matrix: (Units=GPa)
#
#
# Indices 1 2 3 4 5 6 
#
# 1 137.1817 39.3494 62.7321 0.0000 1.0602 0.0000
# 2 39.3494 45.9149 30.0073 0.0000 -3.5066 0.0000
# 3 62.7321 30.0073 125.9241 0.0000 6.5391 0.0000
# 4 0.0000 0.0000 0.0000 18.9689 0.0000 -0.8412
# 5 1.0602 -3.5066 6.5391 0.0000 31.2082 0.0000
# 6 0.0000 0.0000 0.0000 -0.8412 0.0000 19.4744
#
#
#
# Elastic Compliance Matrix: (Units=1/GPa)
#
#
# Indices 1 2 3 4 5 6 
#
# 1 0.011045 -0.007000 -0.003816 0.000000 -0.000362 0.000000
# 2 -0.007000 0.030798 -0.004089 0.000000 0.004555 0.000000
# 3 -0.003816 -0.004089 0.010953 0.000000 -0.002625 0.000000
# 4 0.000000 0.000000 0.000000 0.052819 0.000000 0.002282
# 5 -0.000362 0.004555 -0.002625 0.000000 0.033117 0.000000
# 6 0.000000 0.000000 0.000000 0.002282 0.000000 0.051448
#
#
# Mechanical properties :
#
#
# Convention : Reuss Voigt Hill
#
# Bulk Modulus (GPa) = 43.50053 63.68871 53.59462
# Shear Modulus (GPa) = 21.96353 25.72577 23.84465
#
# Velocity S-wave (km/s) = 3.39761 3.67711 3.54012
# Velocity P-wave (km/s) = 6.18506 7.17650 6.69915
#
# Compressibility (1/GPa) = 0.02298823
#
# Stress axis : x y z
#
# Youngs Moduli (GPa) = 90.53859 32.46951 91.30199
#
# Poissons Ratio (x) = 0.22728 0.34836
# Poissons Ratio (y) = 0.63375 0.37329
# Poissons Ratio (z) = 0.34545 0.13275
#
# Static dielectric constant tensor:
#      x y z
#    x 3.831990 0.000000 0.244660 
#    y 0.000000 3.221140 0.000000 
#    z 0.244660 0.000000 3.705040 
# 
# 
# High freq. dielectric constant tensor:
#      x y z
#    x 1.749500 0.000000 0.009570 
#    y 0.000000 1.697400 0.000000 
#    z 0.009570 0.000000 1.756120 
# 
# From -- ./inp_files/36422.got.cif
#   From: 2010.06.25/outbox.cif.g09.slc.cpg/sg11_19_cif.got.tgz:36422.got - 2010.06.27 23:14:04.
