data_PCOD8071217
_publ_section_title
;
Structure prediction by ZEFSAII (Michael W. Deem and Ramdas Pophale) SiO2 
 PCOD8071217
Probable space group: P 21/M
;
_chemical_formula_sum "Si O2"
_cell_formula_units_Z 32
_cell_length_a 21.486384
_cell_length_b 9.457667
_cell_length_c 11.261847
_cell_angle_alpha 90.000000
_cell_angle_beta 132.458726
_cell_angle_gamma 90.000000
_cell_volume 1688.396049
_symmetry_space_group_name_H-M "P 21/M"
_symmetry_group_IT_number 11
_symmetry_cell_setting 'monoclinic'
loop_
_space_group_symop_operation_xyz
x,y,z
-x,1/2+y,-z
-x,-y,-z
x,1/2-y,z
loop_
_atom_site_type_symbol
_atom_site_label
_atom_site_fract_x
_atom_site_fract_y
_atom_site_fract_z
Si Si1 0.268239 0.583033 0.337517
Si Si2 0.272699 0.587964 0.784076
Si Si3 0.873864 0.529627 0.262087
Si Si4 0.204665 0.078745 0.481434
Si Si5 0.537896 0.087276 0.441483
Si Si6 0.247676 0.402323 0.095739
Si Si7 0.042029 0.098418 0.395131
Si Si8 0.386991 0.089657 0.093010
O O1 0.250849 0.750000 0.330653
O O2 0.224039 0.491244 0.381317
O O3 0.366710 0.543874 0.465413
O O4 0.227686 0.529089 0.161156
O O5 0.291175 0.750000 0.772151
O O6 0.188438 0.586997 0.758383
O O7 0.265022 0.491001 0.657691
O O8 0.353920 0.524772 0.956481
O O9 0.911415 0.620974 0.417855
O O10 0.953885 0.479227 0.290069
O O11 0.819492 0.614773 0.097359
O O12 0.214915 0.250000 0.494246
O O13 0.108662 0.029804 0.389327
O O14 0.533524 0.250000 0.474833
O O15 0.484717 0.061079 0.251577
O O16 0.500000 0.000000 0.500000
O O17 0.248105 0.250000 0.162848
O O18 0.338547 0.430864 0.155269
O O19 0.018228 0.250000 0.313533
O O20 0.373401 0.250000 0.026862
#
# Coordination Sequence:
#
# PCOD8071217 Si02
#       8
#     4   4   4   4   4   4   4   4
#     4  11  23  37  55  79 108 140 180 225 267 313
#     4  10  19  32  54  83 112 139 173 220 270 315
#     4   9  18  31  52  83 113 137 171 219 271 315
#     4  10  21  38  57  75 103 146 187 217 261 324
#     4  10  20  35  55  81 109 139 175 220 268 317
#     4  10  19  33  54  79 110 144 178 214 264 323
#     4   9  17  32  54  79 106 139 177 218 263 317
#     4   9  18  33  53  79 110 140 172 214 265 320
#
# _framework density 18.952898999999999
#
# number of rings (size 3 to 8) (size 9 to 14) (size 15 to 20)
#    0.000    2.250    1.250    1.875    0.000    6.500 
#    0.000    3.125    0.000    0.000    0.000    0.000 
#    0.000    0.000    0.000    0.000    0.000    0.000 
#
# Total GULP energy -396479.555259 kJ/mol
# GULP energy per Si atom -12389.986102 kJ/mol
# Density = 1.890976 g / cm^3
# Si number density = 18.952899 Si / 1000 Ang^3
#
#
#
# Elastic Constant Matrix: (Units=GPa)
#
#
# Indices 1 2 3 4 5 6 
#
# 1 68.5314 18.2472 17.5028 0.0000 -0.8701 0.0000
# 2 18.2472 86.9735 17.8831 0.0000 -8.1554 0.0000
# 3 17.5028 17.8831 57.7802 0.0000 1.7297 0.0000
# 4 0.0000 0.0000 0.0000 12.8375 0.0000 -11.9952
# 5 -0.8701 -8.1554 1.7297 0.0000 23.7954 0.0000
# 6 0.0000 0.0000 0.0000 -11.9952 0.0000 20.0143
#
#
#
# Elastic Compliance Matrix: (Units=1/GPa)
#
#
# Indices 1 2 3 4 5 6 
#
# 1 0.016338 -0.002572 -0.004154 0.000000 0.000018 0.000000
# 2 -0.002572 0.013183 -0.003441 0.000000 0.004674 0.000000
# 3 -0.004154 -0.003441 0.019713 0.000000 -0.002764 0.000000
# 4 0.000000 0.000000 0.000000 0.177038 0.000000 0.106104
# 5 0.000018 0.004674 -0.002764 0.000000 0.043829 0.000000
# 6 0.000000 0.000000 0.000000 0.106104 0.000000 0.113556
#
#
# Mechanical properties :
#
#
# Convention : Reuss Voigt Hill
#
# Bulk Modulus (GPa) = 34.60123 35.61680 35.10901
# Shear Modulus (GPa) = 12.08830 21.97292 17.03061
#
# Velocity S-wave (km/s) = 2.52822 3.40861 3.00088
# Velocity P-wave (km/s) = 5.17867 5.85871 5.52916
#
# Compressibility (1/GPa) = 0.02890071
#
# Stress axis : x y z
#
# Youngs Moduli (GPa) = 61.20816 75.85410 50.72821
#
# Poissons Ratio (x) = 0.19509 0.21070
# Poissons Ratio (y) = 0.15743 0.17456
# Poissons Ratio (z) = 0.25423 0.26102
#
# Static dielectric constant tensor:
#      x y z
#    x 3.399460 0.000000 0.164190 
#    y 0.000000 3.382730 0.000000 
#    z 0.164190 0.000000 3.409150 
# 
# 
# High freq. dielectric constant tensor:
#      x y z
#    x 1.718280 0.000000 0.009060 
#    y 0.000000 1.735280 0.000000 
#    z 0.009060 0.000000 1.731200 
# 
# From -- ./inp_files/42853.got.cif
#   From: 2010.06.25/outbox.cif.g09.slc.cpg/sg11_22_cif.got.tgz:42853.got - 2010.06.27 23:14:04.
