data_PCOD8071456
_publ_section_title
;
Structure prediction by ZEFSAII (Michael W. Deem and Ramdas Pophale) SiO2 
 PCOD8071456
Probable space group: P 21/M
;
_chemical_formula_sum "Si O2"
_cell_formula_units_Z 28
_cell_length_a 14.042171
_cell_length_b 8.996909
_cell_length_c 16.360149
_cell_angle_alpha 90.000000
_cell_angle_beta 132.617902
_cell_angle_gamma 90.000000
_cell_volume 1520.985669
_symmetry_space_group_name_H-M "P 21/M"
_symmetry_group_IT_number 11
_symmetry_cell_setting 'monoclinic'
loop_
_space_group_symop_operation_xyz
x,y,z
-x,1/2+y,-z
-x,-y,-z
x,1/2-y,z
loop_
_atom_site_type_symbol
_atom_site_label
_atom_site_fract_x
_atom_site_fract_y
_atom_site_fract_z
Si Si1 0.983183 0.576248 0.866522
Si Si2 0.040971 0.077173 0.330495
Si Si3 0.172032 0.579989 0.671901
Si Si4 0.203956 0.922653 0.118404
Si Si5 0.547166 0.416559 0.105804
Si Si6 0.725888 0.576940 0.425173
Si Si7 0.469831 0.072976 0.236973
O O1 0.944464 0.750000 0.848120
O O2 0.983665 0.512580 0.774426
O O3 0.877427 0.481053 0.852679
O O4 0.124509 0.550537 0.988347
O O5 0.007032 0.250000 0.307472
O O6 0.188950 0.049080 0.443847
O O7 0.942928 0.008270 0.340580
O O8 0.143579 0.750000 0.628015
O O9 0.298713 0.574460 0.801721
O O10 0.189987 0.480948 0.602133
O O11 0.234894 0.750000 0.149144
O O12 0.336640 0.013014 0.194912
O O13 0.497040 0.250000 0.067834
O O14 0.486113 0.484236 0.153272
O O15 0.500000 0.500000 0.000000
O O16 0.696650 0.750000 0.394850
O O17 0.591022 0.490453 0.358908
O O18 0.475016 0.250000 0.245785
#
# Coordination Sequence:
#
# PCOD8071456 Si02
#       7
#     4   4   4   4   4   4   4
#     4   9  19  36  57  80 108 139 170 212 267 318
#     4   9  18  33  55  79 105 140 179 216 259 312
#     4   9  18  33  51  73 106 145 178 209 259 314
#     4  10  20  35  58  83 106 134 173 218 263 315
#     4   9  19  31  47  72 104 137 172 212 252 305
#     4  10  19  33  53  79 107 137 180 222 255 305
#     4  10  21  37  55  74 103 143 177 211 265 318
#
# _framework density 18.409116000000001
#
# number of rings (size 3 to 8) (size 9 to 14) (size 15 to 20)
#    0.000    2.571    0.000    2.571    2.000    3.429 
#    0.000    3.571    0.000    0.000    0.000    0.000 
#    0.000    0.000    0.000    0.000    0.000    0.000 
#
# Total GULP energy -347173.129732 kJ/mol
# GULP energy per Si atom -12399.040348 kJ/mol
# Density = 1.836722 g / cm^3
# Si number density = 18.409116 Si / 1000 Ang^3
#
#
#
# Elastic Constant Matrix: (Units=GPa)
#
#
# Indices 1 2 3 4 5 6 
#
# 1 95.9242 34.6357 46.8214 0.0000 15.1192 0.0000
# 2 34.6357 69.4884 34.2741 0.0000 4.9466 0.0000
# 3 46.8214 34.2741 93.0714 0.0000 -1.6119 0.0000
# 4 0.0000 0.0000 0.0000 23.4870 0.0000 0.0763
# 5 15.1192 4.9466 -1.6119 0.0000 21.4960 0.0000
# 6 0.0000 0.0000 0.0000 0.0763 0.0000 29.2041
#
#
#
# Elastic Compliance Matrix: (Units=1/GPa)
#
#
# Indices 1 2 3 4 5 6 
#
# 1 0.017432 -0.004177 -0.007437 0.000000 -0.011857 0.000000
# 2 -0.004177 0.019039 -0.004942 0.000000 -0.001814 0.000000
# 3 -0.007437 -0.004942 0.016437 0.000000 0.007600 0.000000
# 4 0.000000 0.000000 0.000000 0.042577 0.000000 -0.000111
# 5 -0.011857 -0.001814 0.007600 0.000000 0.055847 0.000000
# 6 0.000000 0.000000 0.000000 -0.000111 0.000000 0.034242
#
#
# Mechanical properties :
#
#
# Convention : Reuss Voigt Hill
#
# Bulk Modulus (GPa) = 50.50963 54.43850 52.47406
# Shear Modulus (GPa) = 22.19424 24.35427 23.27425
#
# Velocity S-wave (km/s) = 3.47596 3.64118 3.55953
# Velocity P-wave (km/s) = 6.60353 6.87846 6.74240
#
# Compressibility (1/GPa) = 0.01979821
#
# Stress axis : x y z
#
# Youngs Moduli (GPa) = 57.36657 52.52332 60.83825
#
# Poissons Ratio (x) = 0.21937 0.45244
# Poissons Ratio (y) = 0.23959 0.30064
# Poissons Ratio (z) = 0.42662 0.25955
#
# Static dielectric constant tensor:
#      x y z
#    x 3.480240 0.000000 0.050690 
#    y 0.000000 3.307830 0.000000 
#    z 0.050690 0.000000 3.420830 
# 
# 
# High freq. dielectric constant tensor:
#      x y z
#    x 1.707620 0.000000 0.009260 
#    y 0.000000 1.703930 0.000000 
#    z 0.009260 0.000000 1.713990 
# 
# From -- ./inp_files/49464.got.cif
#   From: 2010.06.25/outbox.cif.g09.slc.cpg/sg11_25_cif.got.tgz:49464.got - 2010.06.27 23:14:04.
