data_PCOD8071191
_publ_section_title
;
Structure prediction by ZEFSAII (Michael W. Deem and Ramdas Pophale) SiO2 
 PCOD8071191
Probable space group: P 21/M
;
_chemical_formula_sum "Si O2"
_cell_formula_units_Z 32
_cell_length_a 23.685471
_cell_length_b 9.110142
_cell_length_c 17.442687
_cell_angle_alpha 90.000000
_cell_angle_beta 28.040652
_cell_angle_gamma 90.000000
_cell_volume 1769.330141
_symmetry_space_group_name_H-M "P 21/M"
_symmetry_group_IT_number 11
_symmetry_cell_setting 'monoclinic'
loop_
_space_group_symop_operation_xyz
x,y,z
-x,1/2+y,-z
-x,-y,-z
x,1/2-y,z
loop_
_atom_site_type_symbol
_atom_site_label
_atom_site_fract_x
_atom_site_fract_y
_atom_site_fract_z
Si Si1 0.400310 0.421954 0.446588
Si Si2 0.683978 0.080705 0.594689
Si Si3 0.777309 0.417553 0.758585
Si Si4 0.462039 0.420417 0.968742
Si Si5 0.621389 0.583190 0.361613
Si Si6 0.343086 0.076941 0.845704
Si Si7 0.891946 0.077567 0.462287
Si Si8 0.133154 0.918390 0.184442
O O1 0.426212 0.250000 0.402419
O O2 0.313366 0.482503 0.484711
O O3 0.326364 0.449163 0.615684
O O4 0.526264 0.508321 0.295155
O O5 0.695814 0.250000 0.557017
O O6 0.794119 0.033030 0.516355
O O7 0.560209 0.049981 0.786466
O O8 0.733990 0.250000 0.798027
O O9 0.662440 0.517192 0.913507
O O10 0.844783 0.473858 0.601885
O O11 0.866327 0.431036 0.723911
O O12 0.448591 0.250000 0.003406
O O13 0.500000 0.500000 0.000000
O O14 0.500000 0.500000 0.500000
O O15 0.582524 0.750000 0.403074
O O16 0.700694 0.546738 0.190726
O O17 0.349085 0.250000 0.857190
O O18 0.248077 0.001484 0.014348
O O19 0.919275 0.250000 0.429235
O O20 0.012852 0.992019 0.296584
O O21 0.137311 0.750000 0.152630
#
# Coordination Sequence:
#
# PCOD8071191 Si02
#       8
#     4   4   4   4   4   4   4   4
#     4  10  19  32  53  83 113 136 167 215 261 303
#     4  10  21  36  53  75 105 142 179 212 254 315
#     4  10  21  38  55  75 104 136 173 218 264 311
#     4  11  21  34  53  76 104 136 172 213 258 308
#     4   8  16  30  50  77 107 138 168 203 253 310
#     4  10  19  34  55  78 108 143 174 205 254 317
#     4  10  21  39  56  70  99 141 181 217 258 310
#     4  11  23  36  54  80 105 131 174 225 266 304
#
# _framework density 18.085940000000001
#
# number of rings (size 3 to 8) (size 9 to 14) (size 15 to 20)
#    0.000    2.000    1.250    2.625    0.000    6.000 
#    0.000    0.000    0.000    0.750    0.000    0.000 
#    0.000    0.000    0.000    0.000    0.000    0.000 
#
# Total GULP energy -396679.768108 kJ/mol
# GULP energy per Si atom -12396.242753 kJ/mol
# Density = 1.804478 g / cm^3
# Si number density = 18.085940 Si / 1000 Ang^3
#
#
#
# Elastic Constant Matrix: (Units=GPa)
#
#
# Indices 1 2 3 4 5 6 
#
# 1 106.9797 48.3931 42.2017 0.0000 13.1264 0.0000
# 2 48.3931 75.9358 26.2931 0.0000 3.2480 0.0000
# 3 42.2017 26.2931 51.8798 0.0000 -1.6354 0.0000
# 4 0.0000 0.0000 0.0000 26.2018 0.0000 -1.3431
# 5 13.1264 3.2480 -1.6354 0.0000 28.9641 0.0000
# 6 0.0000 0.0000 0.0000 -1.3431 0.0000 31.3868
#
#
#
# Elastic Compliance Matrix: (Units=1/GPa)
#
#
# Indices 1 2 3 4 5 6 
#
# 1 0.018059 -0.007268 -0.011259 0.000000 -0.008005 0.000000
# 2 -0.007268 0.019045 -0.003710 0.000000 0.000949 0.000000
# 3 -0.011259 -0.003710 0.030543 0.000000 0.007243 0.000000
# 4 0.000000 0.000000 0.000000 0.038249 0.000000 0.001637
# 5 -0.008005 0.000949 0.007243 0.000000 0.038456 0.000000
# 6 0.000000 0.000000 0.000000 0.001637 0.000000 0.031931
#
#
# Mechanical properties :
#
#
# Convention : Reuss Voigt Hill
#
# Bulk Modulus (GPa) = 43.15475 52.06346 47.60911
# Shear Modulus (GPa) = 21.88373 25.17103 23.52738
#
# Velocity S-wave (km/s) = 3.48226 3.73466 3.61066
# Velocity P-wave (km/s) = 6.33095 6.88811 6.61540
#
# Compressibility (1/GPa) = 0.02317242
#
# Stress axis : x y z
#
# Youngs Moduli (GPa) = 55.37412 52.50761 32.74115
#
# Poissons Ratio (x) = 0.38162 0.36863
# Poissons Ratio (y) = 0.40246 0.12147
# Poissons Ratio (z) = 0.62346 0.19481
#
# Static dielectric constant tensor:
#      x y z
#    x 3.684280 0.000000 0.337460 
#    y 0.000000 3.460130 0.000000 
#    z 0.337460 0.000000 3.141160 
# 
# 
# High freq. dielectric constant tensor:
#      x y z
#    x 1.705440 0.000000 0.017490 
#    y 0.000000 1.709960 0.000000 
#    z 0.017490 0.000000 1.675050 
# 
# From -- ./inp_files/43936.got.cif
#   From: 2010.06.25/outbox.cif.g09.slc.cpg/sg11_22_cif.got.tgz:43936.got - 2010.06.27 23:14:04.
