data_PCOD8071783
_publ_section_title
;
Structure prediction by ZEFSAII (Michael W. Deem and Ramdas Pophale) SiO2 
 PCOD8071783
Probable space group: P 21/M
;
_chemical_formula_sum "Si O2"
_cell_formula_units_Z 18
_cell_length_a 15.645216
_cell_length_b 9.663407
_cell_length_c 7.629289
_cell_angle_alpha 90.000000
_cell_angle_beta 40.544173
_cell_angle_gamma 90.000000
_cell_volume 749.776875
_symmetry_space_group_name_H-M "P 21/M"
_symmetry_group_IT_number 11
_symmetry_cell_setting 'monoclinic'
loop_
_space_group_symop_operation_xyz
x,y,z
-x,1/2+y,-z
-x,-y,-z
x,1/2-y,z
loop_
_atom_site_type_symbol
_atom_site_label
_atom_site_fract_x
_atom_site_fract_y
_atom_site_fract_z
Si Si1 0.743800 0.404188 0.767549
Si Si2 0.659612 0.750000 0.408572
Si Si3 0.239474 0.970009 0.862484
Si Si4 0.963665 0.590608 0.386273
Si Si5 0.442502 0.750000 0.451866
Si Si6 0.511809 0.250000 0.999499
O O1 0.809744 0.250000 0.686586
O O2 0.601655 0.387048 0.897489
O O3 0.835865 0.508541 0.508762
O O4 0.722297 0.469800 0.992305
O O5 0.754010 0.622678 0.223700
O O6 0.530071 0.750000 0.488903
O O7 0.616027 0.750000 0.679526
O O8 0.346970 0.881211 0.592632
O O9 0.090965 0.913790 0.061153
O O10 0.926617 0.750000 0.485313
O O11 0.000000 0.500000 0.500000
O O12 0.531658 0.750000 0.136619
#
# Coordination Sequence:
#
# PCOD8071783 Si02
#       6
#     4   2   4   4   2   2
#     4   9  19  39  62  93 127 159 206 255 311 374
#     4  12  26  39  64  95 126 166 219 255 300 378
#     4  11  21  39  64  93 125 166 208 256 313 370
#     4  10  19  33  63  98 124 161 207 256 315 378
#     4  12  22  44  67  84 129 172 206 263 318 354
#     4  10  24  43  65  91 127 166 211 262 310 364
#
# _framework density 24.007138999999999
#
# number of rings (size 3 to 8) (size 9 to 14) (size 15 to 20)
#    0.667    0.889    4.444    2.667    7.778    0.889 
#    0.000    1.111    2.444    0.000    5.778    0.000 
#    0.000    0.000    0.000    0.000    0.000    0.000 
#
# Total GULP energy -223080.370078 kJ/mol
# GULP energy per Si atom -12393.353893 kJ/mol
# Density = 2.395250 g / cm^3
# Si number density = 24.007139 Si / 1000 Ang^3
#
#
#
# Elastic Constant Matrix: (Units=GPa)
#
#
# Indices 1 2 3 4 5 6 
#
# 1 21.1997 5.1067 19.2434 0.0000 1.1083 0.0000
# 2 5.1067 170.2656 49.1604 0.0000 -12.1638 0.0000
# 3 19.2434 49.1604 119.0536 0.0000 11.8453 0.0000
# 4 0.0000 0.0000 0.0000 -21.5204 0.0000 -55.3036
# 5 1.1083 -12.1638 11.8453 0.0000 27.0193 0.0000
# 6 0.0000 0.0000 0.0000 -55.3036 0.0000 -14.6844
#
#
#
# Elastic Compliance Matrix: (Units=1/GPa)
#
#
# Indices 1 2 3 4 5 6 
#
# 1 0.055611 0.001352 -0.009808 0.000000 0.002627 0.000000
# 2 0.001352 0.007242 -0.003689 0.000000 0.004822 0.000000
# 3 -0.009808 -0.003689 0.012164 0.000000 -0.006591 0.000000
# 4 0.000000 0.000000 0.000000 0.005354 0.000000 -0.020166
# 5 0.002627 0.004822 -0.006591 0.000000 0.041963 0.000000
# 6 0.000000 0.000000 0.000000 -0.020166 0.000000 0.007847
#
#
# Mechanical properties :
#
#
# Convention : Reuss Voigt Hill
#
# Bulk Modulus (GPa) = 19.71368 50.83777 35.27572
# Shear Modulus (GPa) = 29.17477 13.96346 21.56912
#
# Velocity S-wave (km/s) = 3.48983 2.41433 3.00066
# Velocity P-wave (km/s) = 4.94651 5.38462 5.17021
#
# Compressibility (1/GPa) = 0.05072621
#
# Stress axis : x y z
#
# Youngs Moduli (GPa) = 17.98212 138.08025 82.21037
#
# Poissons Ratio (x) = -0.18665 0.80635
# Poissons Ratio (y) = -0.02431 0.30325
# Poissons Ratio (z) = 0.17637 0.50934
#
# Static dielectric constant tensor:
#      x y z
#    x 4.035020 0.000000 -0.470070 
#    y 0.000000 4.500610 0.000000 
#    z -0.470070 0.000000 4.498370 
# 
# 
# High freq. dielectric constant tensor:
#      x y z
#    x 1.914010 0.000000 -0.017370 
#    y 0.000000 1.960720 0.000000 
#    z -0.017370 0.000000 1.948980 
# 
# From -- ./inp_files/27369.got.cif
#   From: 2010.06.25/outbox.cif.g09.slc.cpg/sg11_14_cif.got.tgz:27369.got - 2010.06.27 23:14:04.
