data_PCOD8071242
_publ_section_title
;
Structure prediction by ZEFSAII (Michael W. Deem and Ramdas Pophale) SiO2 
 PCOD8071242
Probable space group: P 21/M
;
_chemical_formula_sum "Si O2"
_cell_formula_units_Z 32
_cell_length_a 9.948468
_cell_length_b 18.485938
_cell_length_c 10.606674
_cell_angle_alpha 90.000000
_cell_angle_beta 44.020339
_cell_angle_gamma 90.000000
_cell_volume 1355.525779
_symmetry_space_group_name_H-M "P 21/M"
_symmetry_group_IT_number 11
_symmetry_cell_setting 'monoclinic'
loop_
_space_group_symop_operation_xyz
x,y,z
-x,1/2+y,-z
-x,-y,-z
x,1/2-y,z
loop_
_atom_site_type_symbol
_atom_site_label
_atom_site_fract_x
_atom_site_fract_y
_atom_site_fract_z
Si Si1 0.349954 0.907193 0.118412
Si Si2 0.707638 0.330819 0.093542
Si Si3 0.306932 0.164667 0.997727
Si Si4 0.803064 0.959646 0.657627
Si Si5 0.515805 0.834764 0.391197
Si Si6 0.884193 0.164637 0.229091
Si Si7 0.008768 0.829770 0.470678
Si Si8 0.317206 0.369115 0.469893
O O1 0.277840 0.889601 0.027094
O O2 0.572812 0.880778 0.978387
O O3 0.330206 0.993821 0.157525
O O4 0.221804 0.862104 0.305065
O O5 0.767334 0.250000 0.006006
O O6 0.844237 0.361381 0.112910
O O7 0.492438 0.322841 0.294220
O O8 0.318576 0.250000 0.020765
O O9 0.411660 0.145614 0.795538
O O10 0.088881 0.133619 0.138633
O O11 0.877392 0.879099 0.655538
O O12 0.690519 0.946943 0.599700
O O13 0.000000 0.000000 0.500000
O O14 0.540586 0.750000 0.403860
O O15 0.649127 0.877923 0.403105
O O16 0.289667 0.858206 0.558988
O O17 0.902431 0.250000 0.210669
O O18 0.031392 0.750000 0.515324
O O19 0.888402 0.828507 0.419153
#
# Coordination Sequence:
#
# PCOD8071242 Si02
#       8
#     4   4   4   4   4   4   4   4
#     4  11  21  35  50  80 121 149 174 213 280 350
#     4  10  19  32  55  84 110 138 186 242 275 312
#     4  10  20  33  52  77 111 152 182 216 277 340
#     4   8  19  34  51  77 114 145 174 221 277 335
#     4   9  17  32  55  80 105 139 189 238 274 317
#     4   8  17  33  51  78 109 138 184 242 278 306
#     4   9  17  32  56  79 103 136 186 237 267 313
#     4   9  18  33  57  79 104 131 185 237 278 305
#
# _framework density 23.607074999999998
#
# number of rings (size 3 to 8) (size 9 to 14) (size 15 to 20)
#    0.750    2.000    0.000    3.000    1.750    0.500 
#    2.250    0.625    0.000    3.000    0.000    0.000 
#    0.000    0.000    0.000    0.000    0.000    0.000 
#
# Total GULP energy -396453.872987 kJ/mol
# GULP energy per Si atom -12389.183531 kJ/mol
# Density = 2.355334 g / cm^3
# Si number density = 23.607075 Si / 1000 Ang^3
#
#
#
# Elastic Constant Matrix: (Units=GPa)
#
#
# Indices 1 2 3 4 5 6 
#
# 1 97.6064 14.3029 30.1923 0.0000 -19.9713 0.0000
# 2 14.3029 77.3779 0.7358 0.0000 -5.9707 0.0000
# 3 30.1923 0.7358 49.0495 0.0000 -19.0258 0.0000
# 4 0.0000 0.0000 0.0000 20.3340 0.0000 -2.5498
# 5 -19.9713 -5.9707 -19.0258 0.0000 41.3377 0.0000
# 6 0.0000 0.0000 0.0000 -2.5498 0.0000 20.7101
#
#
#
# Elastic Compliance Matrix: (Units=1/GPa)
#
#
# Indices 1 2 3 4 5 6 
#
# 1 0.013337 -0.002176 -0.007060 0.000000 0.002880 0.000000
# 2 -0.002176 0.013441 0.001805 0.000000 0.001721 0.000000
# 3 -0.007060 0.001805 0.028588 0.000000 0.010008 0.000000
# 4 0.000000 0.000000 0.000000 0.049950 0.000000 0.006150
# 5 0.002880 0.001721 0.010008 0.000000 0.030437 0.000000
# 6 0.000000 0.000000 0.000000 0.006150 0.000000 0.049043
#
#
# Mechanical properties :
#
#
# Convention : Reuss Voigt Hill
#
# Bulk Modulus (GPa) = 24.68790 34.94397 29.81594
# Shear Modulus (GPa) = 23.45665 28.39655 25.92660
#
# Velocity S-wave (km/s) = 3.15561 3.47202 3.31759
# Velocity P-wave (km/s) = 4.87418 5.55947 5.22807
#
# Compressibility (1/GPa) = 0.04050566
#
# Stress axis : x y z
#
# Youngs Moduli (GPa) = 74.97843 74.39679 34.97959
#
# Poissons Ratio (x) = 0.16188 0.24695
# Poissons Ratio (y) = 0.16315 -0.06315
# Poissons Ratio (z) = 0.52934 -0.13431
#
# Static dielectric constant tensor:
#      x y z
#    x 4.437350 0.000000 -0.242340 
#    y 0.000000 4.209380 0.000000 
#    z -0.242340 0.000000 4.311330 
# 
# 
# High freq. dielectric constant tensor:
#      x y z
#    x 1.936660 0.000000 -0.013400 
#    y 0.000000 1.894720 0.000000 
#    z -0.013400 0.000000 1.942680 
# 
# From -- ./inp_files/32823.got.cif
#   From: 2010.06.25/outbox.cif.g09.slc.cpg/sg11_17_cif.got.tgz:32823.got - 2010.06.27 23:14:04.
