data_PCOD8071396
_publ_section_title
;
Structure prediction by ZEFSAII (Michael W. Deem and Ramdas Pophale) SiO2 
 PCOD8071396
Probable space group: P 21/M
;
_chemical_formula_sum "Si O2"
_cell_formula_units_Z 32
_cell_length_a 17.721505
_cell_length_b 8.817064
_cell_length_c 24.144047
_cell_angle_alpha 90.000000
_cell_angle_beta 151.865096
_cell_angle_gamma 90.000000
_cell_volume 1778.941445
_symmetry_space_group_name_H-M "P 21/M"
_symmetry_group_IT_number 11
_symmetry_cell_setting 'monoclinic'
loop_
_space_group_symop_operation_xyz
x,y,z
-x,1/2+y,-z
-x,-y,-z
x,1/2-y,z
loop_
_atom_site_type_symbol
_atom_site_label
_atom_site_fract_x
_atom_site_fract_y
_atom_site_fract_z
Si Si1 0.549569 0.428197 0.974755
Si Si2 0.149407 0.571223 0.127289
Si Si3 0.884210 0.573071 0.174829
Si Si4 0.949437 0.572775 0.096075
Si Si5 0.653914 0.930638 0.832598
Si Si6 0.007227 0.927235 0.372483
Si Si7 0.731552 0.071761 0.266731
Si Si8 0.303226 0.571662 0.632179
O O1 0.525533 0.250000 0.962671
O O2 0.438863 0.495913 0.855280
O O3 0.500000 0.500000 0.000000
O O4 0.730655 0.468137 0.079089
O O5 0.158937 0.750000 0.123237
O O6 0.307936 0.492548 0.204936
O O7 0.113799 0.532436 0.169236
O O8 0.000000 0.500000 0.000000
O O9 0.833762 0.750000 0.141331
O O10 0.971378 0.522674 0.174197
O O11 0.999361 0.539923 0.301636
O O12 0.920716 0.750000 0.074713
O O13 0.788058 0.504724 0.962568
O O14 0.653218 0.750000 0.830195
O O15 0.480181 0.997659 0.737233
O O16 0.987186 0.750000 0.372542
O O17 0.177618 0.989118 0.504991
O O18 0.865448 0.011425 0.312173
O O19 0.715279 0.250000 0.247218
O O20 0.769639 0.029115 0.354987
O O21 0.321083 0.750000 0.638033
#
# Coordination Sequence:
#
# PCOD8071396 Si02
#       8
#     4   4   4   4   4   4   4   4
#     4  12  23  35  51  73 101 130 164 204 251 300
#     4   9  16  28  47  72 101 127 157 195 245 303
#     4  10  19  33  53  74 100 133 168 205 248 297
#     4   8  15  28  48  73  98 129 160 192 243 307
#     4   9  16  30  50  70  97 129 165 202 245 298
#     4  10  20  34  52  73  98 130 174 215 247 293
#     4  11  21  35  54  72  98 132 168 209 259 302
#     4   9  19  34  52  74  99 133 171 210 251 299
#
# _framework density 17.988226000000001
#
# number of rings (size 3 to 8) (size 9 to 14) (size 15 to 20)
#    0.000    2.250    1.250    3.750    0.000    2.000 
#    0.000    8.125    0.000    0.750    0.000    0.000 
#    0.000    0.000    0.000    0.000    0.000    0.500 
#
# Total GULP energy -396581.982841 kJ/mol
# GULP energy per Si atom -12393.186964 kJ/mol
# Density = 1.794728 g / cm^3
# Si number density = 17.988226 Si / 1000 Ang^3
#
#
#
# Elastic Constant Matrix: (Units=GPa)
#
#
# Indices 1 2 3 4 5 6 
#
# 1 140.6897 28.8441 47.2226 0.0000 -17.6685 0.0000
# 2 28.8441 55.0702 23.0846 0.0000 -6.0061 0.0000
# 3 47.2226 23.0846 94.3522 0.0000 -18.9408 0.0000
# 4 0.0000 0.0000 0.0000 16.7961 0.0000 2.6214
# 5 -17.6685 -6.0061 -18.9408 0.0000 22.3808 0.0000
# 6 0.0000 0.0000 0.0000 2.6214 0.0000 23.7884
#
#
#
# Elastic Compliance Matrix: (Units=1/GPa)
#
#
# Indices 1 2 3 4 5 6 
#
# 1 0.009276 -0.003138 -0.003101 0.000000 0.003857 0.000000
# 2 -0.003138 0.021337 -0.003611 0.000000 0.000192 0.000000
# 3 -0.003101 -0.003611 0.014875 0.000000 0.009172 0.000000
# 4 0.000000 0.000000 0.000000 0.060579 0.000000 -0.006676
# 5 0.003857 0.000192 0.009172 0.000000 0.055540 0.000000
# 6 0.000000 0.000000 0.000000 -0.006676 0.000000 0.042773
#
#
# Mechanical properties :
#
#
# Convention : Reuss Voigt Hill
#
# Bulk Modulus (GPa) = 38.77693 54.26828 46.52260
# Shear Modulus (GPa) = 21.48901 25.32378 23.40639
#
# Velocity S-wave (km/s) = 3.46007 3.75613 3.61114
# Velocity P-wave (km/s) = 6.12914 7.00326 6.58073
#
# Compressibility (1/GPa) = 0.02578853
#
# Stress axis : x y z
#
# Youngs Moduli (GPa) = 107.80082 46.86675 67.22612
#
# Poissons Ratio (x) = 0.14708 0.20845
# Poissons Ratio (y) = 0.33831 0.24276
# Poissons Ratio (z) = 0.33425 0.16924
#
# Static dielectric constant tensor:
#      x y z
#    x 4.512370 0.000000 0.116130 
#    y 0.000000 3.210500 0.000000 
#    z 0.116130 0.000000 3.455820 
# 
# 
# High freq. dielectric constant tensor:
#      x y z
#    x 1.706820 0.000000 -0.005650 
#    y 0.000000 1.675760 0.000000 
#    z -0.005650 0.000000 1.671660 
# 
# From -- ./inp_files/69469.got.cif
#   From: 2010.06.25/outbox.cif.g09.slc.cpg/sg11_35_cif.got.tgz:69469.got - 2010.06.27 23:14:04.
