data_PCOD8071611
_publ_section_title
;
Structure prediction by ZEFSAII (Michael W. Deem and Ramdas Pophale) SiO2 
 PCOD8071611
Probable space group: P 21/M
;
_chemical_formula_sum "Si O2"
_cell_formula_units_Z 28
_cell_length_a 23.296986
_cell_length_b 8.846230
_cell_length_c 19.508876
_cell_angle_alpha 90.000000
_cell_angle_beta 22.620232
_cell_angle_gamma 90.000000
_cell_volume 1546.406060
_symmetry_space_group_name_H-M "P 21/M"
_symmetry_group_IT_number 11
_symmetry_cell_setting 'monoclinic'
loop_
_space_group_symop_operation_xyz
x,y,z
-x,1/2+y,-z
-x,-y,-z
x,1/2-y,z
loop_
_atom_site_type_symbol
_atom_site_label
_atom_site_fract_x
_atom_site_fract_y
_atom_site_fract_z
Si Si1 0.068698 0.578961 0.858962
Si Si2 0.189526 0.924329 0.115057
Si Si3 0.932808 0.574756 0.507085
Si Si4 0.619634 0.427208 0.818419
Si Si5 0.259951 0.070993 0.545305
Si Si6 0.493312 0.073434 0.809553
Si Si7 0.978889 0.578438 0.812973
O O1 0.113163 0.750000 0.828963
O O2 0.217366 0.490786 0.668517
O O3 0.947793 0.576472 0.929585
O O4 0.000000 0.500000 0.000000
O O5 0.233826 0.750000 0.058945
O O6 0.046080 0.949369 0.320075
O O7 0.153227 0.991251 0.079989
O O8 0.325287 0.013930 0.999193
O O9 0.902826 0.750000 0.555036
O O10 0.780145 0.495700 0.655609
O O11 0.000000 0.500000 0.500000
O O12 0.624729 0.250000 0.827201
O O13 0.573714 0.465307 0.791769
O O14 0.500000 0.500000 0.000000
O O15 0.256528 0.250000 0.548544
O O16 0.422414 0.011551 0.345152
O O17 0.138280 0.005524 0.624793
O O18 0.492669 0.250000 0.794237
O O19 0.991141 0.750000 0.771826
#
# Coordination Sequence:
#
# PCOD8071611 Si02
#       7
#     4   4   4   4   4   4   4
#     4   9  18  32  55  86 117 149 188 231 280 335
#     4  11  23  37  56  82 111 146 189 235 283 336
#     4  11  24  40  59  83 112 146 187 235 285 340
#     4  11  24  40  60  83 111 147 188 235 287 341
#     4  10  19  33  55  82 112 145 185 231 277 328
#     4  11  23  38  56  80 112 149 188 233 285 340
#     4   9  19  34  54  81 112 145 184 227 276 331
#
# _framework density 18.106497999999998
#
# number of rings (size 3 to 8) (size 9 to 14) (size 15 to 20)
#    0.857    0.857    0.000    5.143    0.000    9.143 
#    0.000    0.000    0.000    0.857    0.000    0.000 
#    0.000    0.000    0.000    0.000    0.000    0.000 
#
# Total GULP energy -347153.892422 kJ/mol
# GULP energy per Si atom -12398.353301 kJ/mol
# Density = 1.806529 g / cm^3
# Si number density = 18.106498 Si / 1000 Ang^3
#
#
#
# Elastic Constant Matrix: (Units=GPa)
#
#
# Indices 1 2 3 4 5 6 
#
# 1 80.2919 53.1518 47.3686 0.0000 -0.2125 0.0000
# 2 53.1518 131.1357 60.1522 0.0000 8.1715 0.0000
# 3 47.3686 60.1522 112.0089 0.0000 0.6489 0.0000
# 4 0.0000 0.0000 0.0000 36.2197 0.0000 -1.9263
# 5 -0.2125 8.1715 0.6489 0.0000 33.6256 0.0000
# 6 0.0000 0.0000 0.0000 -1.9263 0.0000 30.3262
#
#
#
# Elastic Compliance Matrix: (Units=1/GPa)
#
#
# Indices 1 2 3 4 5 6 
#
# 1 0.019131 -0.005488 -0.005153 0.000000 0.001554 0.000000
# 2 -0.005488 0.011882 -0.004044 0.000000 -0.002844 0.000000
# 3 -0.005153 -0.004044 0.013275 0.000000 0.000694 0.000000
# 4 0.000000 0.000000 0.000000 0.027703 0.000000 0.001760
# 5 0.001554 -0.002844 0.000694 0.000000 0.030427 0.000000
# 6 0.000000 0.000000 0.000000 0.001760 0.000000 0.033087
#
#
# Mechanical properties :
#
#
# Convention : Reuss Voigt Hill
#
# Bulk Modulus (GPa) = 67.02528 71.64242 69.33385
# Shear Modulus (GPa) = 29.43857 30.88523 30.16190
#
# Velocity S-wave (km/s) = 4.03657 4.13456 4.08586
# Velocity P-wave (km/s) = 7.66960 7.90227 7.78680
#
# Compressibility (1/GPa) = 0.01491974
#
# Stress axis : x y z
#
# Youngs Moduli (GPa) = 52.27082 84.16061 75.33211
#
# Poissons Ratio (x) = 0.46184 0.38816
# Poissons Ratio (y) = 0.28684 0.30463
# Poissons Ratio (z) = 0.26933 0.34033
#
# Static dielectric constant tensor:
#      x y z
#    x 3.256250 0.000000 0.033740 
#    y 0.000000 3.507530 0.000000 
#    z 0.033740 0.000000 3.225620 
# 
# 
# High freq. dielectric constant tensor:
#      x y z
#    x 1.689040 0.000000 0.003530 
#    y 0.000000 1.724410 0.000000 
#    z 0.003530 0.000000 1.691480 
# 
# From -- ./inp_files/66669.got.cif
#   From: 2010.06.25/outbox.cif.g09.slc.cpg/sg11_34_cif.got.tgz:66669.got - 2010.06.27 23:14:04.
