data_PCOD8071666
_publ_section_title
;
Structure prediction by ZEFSAII (Michael W. Deem and Ramdas Pophale) SiO2 
 PCOD8071666
Probable space group: P 21/M
;
_chemical_formula_sum "Si O2"
_cell_formula_units_Z 32
_cell_length_a 24.632891
_cell_length_b 9.118472
_cell_length_c 19.806266
_cell_angle_alpha 90.000000
_cell_angle_beta 156.779512
_cell_angle_gamma 90.000000
_cell_volume 1754.019438
_symmetry_space_group_name_H-M "P 21/M"
_symmetry_group_IT_number 11
_symmetry_cell_setting 'monoclinic'
loop_
_space_group_symop_operation_xyz
x,y,z
-x,1/2+y,-z
-x,-y,-z
x,1/2-y,z
loop_
_atom_site_type_symbol
_atom_site_label
_atom_site_fract_x
_atom_site_fract_y
_atom_site_fract_z
Si Si1 0.192233 0.421145 0.768333
Si Si2 0.122513 0.420428 0.052903
Si Si3 0.877332 0.077475 0.081782
Si Si4 0.616674 0.418973 0.397564
Si Si5 0.183578 0.581682 0.252955
Si Si6 0.881204 0.082000 0.443753
Si Si7 0.340366 0.577634 0.053388
Si Si8 0.852622 0.418603 0.564092
O O1 0.224349 0.250000 0.804712
O O2 0.202799 0.480584 0.703985
O O3 0.042568 0.459008 0.627618
O O4 0.306678 0.499942 0.944229
O O5 0.155231 0.250000 0.083017
O O6 0.204677 0.481171 0.211513
O O7 0.176335 0.501972 0.047886
O O8 0.960481 0.453438 0.875144
O O9 0.882041 0.250000 0.075558
O O10 0.773051 0.031871 0.021445
O O11 0.028438 0.023153 0.273514
O O12 0.569112 0.250000 0.341356
O O13 0.695837 0.454597 0.557176
O O14 0.487153 0.524897 0.247576
O O15 0.713225 0.454681 0.444185
O O16 0.186143 0.750000 0.232400
O O17 0.861553 0.250000 0.398872
O O18 0.822414 0.052212 0.450891
O O19 0.343610 0.750000 0.044976
O O20 0.898774 0.250000 0.629434
#
# Coordination Sequence:
#
# PCOD8071666 Si02
#       8
#     4   4   4   4   4   4   4   4
#     4  10  19  33  56  82 111 147 185 225 277 333
#     4  10  19  33  56  84 113 143 182 230 277 327
#     4  11  22  35  55  83 113 145 185 233 276 323
#     4  10  21  38  59  82 112 148 185 226 277 335
#     4   9  18  34  55  82 114 144 179 226 278 330
#     4   9  18  32  55  84 114 142 176 230 281 327
#     4  11  24  39  55  80 115 150 188 230 275 330
#     4  10  19  36  59  85 112 142 185 231 278 330
#
# _framework density 18.24381
#
# number of rings (size 3 to 8) (size 9 to 14) (size 15 to 20)
#    0.000    2.000    2.500    1.500    0.000    4.000 
#    0.000    1.250    0.000    0.000    0.000    0.000 
#    0.000    0.000    0.000    0.000    0.000    0.000 
#
# Total GULP energy -396952.930173 kJ/mol
# GULP energy per Si atom -12404.779068 kJ/mol
# Density = 1.820229 g / cm^3
# Si number density = 18.243810 Si / 1000 Ang^3
#
#
#
# Elastic Constant Matrix: (Units=GPa)
#
#
# Indices 1 2 3 4 5 6 
#
# 1 90.0489 53.6958 37.9857 0.0000 -21.0696 0.0000
# 2 53.6958 83.9676 45.0260 0.0000 -13.1508 0.0000
# 3 37.9857 45.0260 87.3755 0.0000 -18.4145 0.0000
# 4 0.0000 0.0000 0.0000 34.3500 0.0000 -7.2992
# 5 -21.0696 -13.1508 -18.4145 0.0000 21.2357 0.0000
# 6 0.0000 0.0000 0.0000 -7.2992 0.0000 29.4059
#
#
#
# Elastic Compliance Matrix: (Units=1/GPa)
#
#
# Indices 1 2 3 4 5 6 
#
# 1 0.021140 -0.011052 -0.000633 0.000000 0.013582 0.000000
# 2 -0.011052 0.022447 -0.007518 0.000000 -0.003584 0.000000
# 3 -0.000633 -0.007518 0.017719 0.000000 0.010081 0.000000
# 4 0.000000 0.000000 0.000000 0.030733 0.000000 0.007629
# 5 0.013582 -0.003584 0.010081 0.000000 0.067088 0.000000
# 6 0.000000 0.000000 0.000000 0.007629 0.000000 0.035900
#
#
# Mechanical properties :
#
#
# Convention : Reuss Voigt Hill
#
# Bulk Modulus (GPa) = 43.66760 59.42301 51.54530
# Shear Modulus (GPa) = 20.74109 25.31061 23.02585
#
# Velocity S-wave (km/s) = 3.37543 3.72876 3.55649
# Velocity P-wave (km/s) = 6.25930 7.15406 6.72158
#
# Compressibility (1/GPa) = 0.02290027
#
# Stress axis : x y z
#
# Youngs Moduli (GPa) = 47.30282 44.54913 56.43800
#
# Poissons Ratio (x) = 0.49238 0.03571
# Poissons Ratio (y) = 0.52281 0.42429
# Poissons Ratio (z) = 0.02993 0.33491
#
# Static dielectric constant tensor:
#      x y z
#    x 3.445520 0.000000 -0.169410 
#    y 0.000000 3.363650 0.000000 
#    z -0.169410 0.000000 3.133460 
# 
# 
# High freq. dielectric constant tensor:
#      x y z
#    x 1.708810 0.000000 -0.021520 
#    y 0.000000 1.712220 0.000000 
#    z -0.021520 0.000000 1.688680 
# 
# From -- ./inp_files/67287.got.cif
#   From: 2010.06.25/outbox.cif.g09.slc.cpg/sg11_34_cif.got.tgz:67287.got - 2010.06.27 23:14:04.
