data_PCOD8071448
_publ_section_title
;
Structure prediction by ZEFSAII (Michael W. Deem and Ramdas Pophale) SiO2 
 PCOD8071448
Probable space group: P 21/M
;
_chemical_formula_sum "Si O2"
_cell_formula_units_Z 28
_cell_length_a 13.587754
_cell_length_b 13.519521
_cell_length_c 9.369238
_cell_angle_alpha 90.000000
_cell_angle_beta 119.068782
_cell_angle_gamma 90.000000
_cell_volume 1504.329968
_symmetry_space_group_name_H-M "P 21/M"
_symmetry_group_IT_number 11
_symmetry_cell_setting 'monoclinic'
loop_
_space_group_symop_operation_xyz
x,y,z
-x,1/2+y,-z
-x,-y,-z
x,1/2-y,z
loop_
_atom_site_type_symbol
_atom_site_label
_atom_site_fract_x
_atom_site_fract_y
_atom_site_fract_z
Si Si1 0.982611 0.861302 0.635952
Si Si2 0.982409 0.362983 0.014535
Si Si3 0.579643 0.633131 0.165884
Si Si4 0.781296 0.136794 0.319527
Si Si5 0.755322 0.959817 0.487019
Si Si6 0.350615 0.974998 0.009791
Si Si7 0.806600 0.517885 0.840850
O O1 0.935646 0.750000 0.604762
O O2 0.027904 0.887566 0.825158
O O3 0.879522 0.930540 0.517986
O O4 0.083602 0.872478 0.594768
O O5 0.966766 0.250000 0.963430
O O6 0.105293 0.397704 0.045839
O O7 0.880165 0.419101 0.864664
O O8 0.570142 0.750000 0.127276
O O9 0.664659 0.614892 0.356620
O O10 0.621696 0.576696 0.053475
O O11 0.460622 0.587367 0.128335
O O12 0.743790 0.250000 0.317112
O O13 0.729094 0.096842 0.136454
O O14 0.734326 0.071976 0.417946
O O15 0.745864 0.952507 0.650559
O O16 0.290560 0.005387 0.113000
#
# Coordination Sequence:
#
# PCOD8071448 Si02
#       7
#     4   4   4   4   4   4   4
#     4   9  16  30  53  77 105 146 186 222 270 329
#     4   9  18  32  53  82 114 148 184 222 272 334
#     4  10  22  40  59  82 108 145 192 233 274 326
#     4  10  19  33  53  78 107 146 189 229 274 326
#     4  10  21  34  53  79 118 145 177 226 284 328
#     4  10  21  38  62  82 107 145 191 236 273 319
#     4  10  20  35  56  83 115 146 182 227 279 333
#
# _framework density 18.612938
#
# number of rings (size 3 to 8) (size 9 to 14) (size 15 to 20)
#    0.000    2.286    1.429    1.286    0.000    2.857 
#    0.000    0.000    0.000    0.000    0.000    0.000 
#    0.000    0.000    0.000    0.000    0.000    0.000 
#
# Total GULP energy -347203.238092 kJ/mol
# GULP energy per Si atom -12400.115646 kJ/mol
# Density = 1.857057 g / cm^3
# Si number density = 18.612938 Si / 1000 Ang^3
#
#
#
# Elastic Constant Matrix: (Units=GPa)
#
#
# Indices 1 2 3 4 5 6 
#
# 1 95.2696 25.6144 36.2033 0.0000 0.1125 0.0000
# 2 25.6144 106.6728 32.3399 0.0000 3.3503 0.0000
# 3 36.2033 32.3399 83.0217 0.0000 9.3176 0.0000
# 4 0.0000 0.0000 0.0000 20.7360 0.0000 1.6533
# 5 0.1125 3.3503 9.3176 0.0000 21.8153 0.0000
# 6 0.0000 0.0000 0.0000 1.6533 0.0000 22.2963
#
#
#
# Elastic Compliance Matrix: (Units=1/GPa)
#
#
# Indices 1 2 3 4 5 6 
#
# 1 0.012931 -0.001575 -0.005299 0.000000 0.002438 0.000000
# 2 -0.001575 0.010822 -0.003511 0.000000 -0.000154 0.000000
# 3 -0.005299 -0.003511 0.016448 0.000000 -0.006459 0.000000
# 4 0.000000 0.000000 0.000000 0.048512 0.000000 -0.003597
# 5 0.002438 -0.000154 -0.006459 0.000000 0.048609 0.000000
# 6 0.000000 0.000000 0.000000 -0.003597 0.000000 0.045117
#
#
# Mechanical properties :
#
#
# Convention : Reuss Voigt Hill
#
# Bulk Modulus (GPa) = 51.46545 52.58659 52.02602
# Shear Modulus (GPa) = 23.84502 25.68993 24.76748
#
# Velocity S-wave (km/s) = 3.58313 3.71916 3.65178
# Velocity P-wave (km/s) = 6.69543 6.83790 6.76704
#
# Compressibility (1/GPa) = 0.01943051
#
# Stress axis : x y z
#
# Youngs Moduli (GPa) = 77.33507 92.40368 60.79608
#
# Poissons Ratio (x) = 0.14554 0.32215
# Poissons Ratio (y) = 0.12181 0.21348
# Poissons Ratio (z) = 0.40979 0.32447
#
# Static dielectric constant tensor:
#      x y z
#    x 3.272540 0.000000 0.153080 
#    y 0.000000 3.461610 0.000000 
#    z 0.153080 0.000000 3.281340 
# 
# 
# High freq. dielectric constant tensor:
#      x y z
#    x 1.708600 0.000000 0.013020 
#    y 0.000000 1.729290 0.000000 
#    z 0.013020 0.000000 1.713400 
# 
# From -- ./inp_files/18131.got.cif
#   From: 2010.06.25/outbox.cif.g09.slc.cpg/sg11_10_cif.got.tgz:18131.got - 2010.06.27 23:14:04.
