data_PCOD8071871
_publ_section_title
;
Structure prediction by ZEFSAII (Michael W. Deem and Ramdas Pophale) SiO2 
 PCOD8071871
Probable space group: P 21/M
;
_chemical_formula_sum "Si O2"
_cell_formula_units_Z 32
_cell_length_a 26.480688
_cell_length_b 8.854296
_cell_length_c 21.867895
_cell_angle_alpha 90.000000
_cell_angle_beta 18.936506
_cell_angle_gamma 90.000000
_cell_volume 1663.918114
_symmetry_space_group_name_H-M "P 21/M"
_symmetry_group_IT_number 11
_symmetry_cell_setting 'monoclinic'
loop_
_space_group_symop_operation_xyz
x,y,z
-x,1/2+y,-z
-x,-y,-z
x,1/2-y,z
loop_
_atom_site_type_symbol
_atom_site_label
_atom_site_fract_x
_atom_site_fract_y
_atom_site_fract_z
Si Si1 0.052567 0.076531 0.519589
Si Si2 0.912852 0.075959 0.801241
Si Si3 0.728664 0.076835 0.223290
Si Si4 0.240663 0.421937 0.196259
Si Si5 0.346693 0.927950 0.458434
Si Si6 0.604946 0.072148 0.085254
Si Si7 0.427272 0.424207 0.490641
Si Si8 0.980770 0.927966 0.191200
O O1 0.995687 0.250000 0.572106
O O2 0.220386 0.050834 0.293502
O O3 0.056331 0.052456 0.588883
O O4 0.930441 0.956194 0.633768
O O5 0.880291 0.250000 0.851925
O O6 0.959429 0.002024 0.812605
O O7 0.751799 0.010947 0.957207
O O8 0.720565 0.250000 0.254027
O O9 0.596338 0.044342 0.324898
O O10 0.705823 0.973020 0.308901
O O11 0.893119 0.036590 0.005216
O O12 0.286945 0.250000 0.129169
O O13 0.367409 0.527997 0.017853
O O14 0.346435 0.750000 0.453937
O O15 0.447795 0.994262 0.287322
O O16 0.420636 0.977483 0.437600
O O17 0.172965 0.988063 0.653035
O O18 0.584978 0.250000 0.113197
O O19 0.401734 0.250000 0.502749
O O20 0.947586 0.750000 0.234922
#
# Coordination Sequence:
#
# PCOD8071871 Si02
#       8
#     4   4   4   4   4   4   4   4
#     4   8  14  25  43  70 104 138 171 210 258 310
#     4   8  15  30  54  79 101 132 174 215 255 306
#     4   9  19  36  59  86 111 136 171 214 256 302
#     4   9  15  24  42  72 106 135 167 212 262 308
#     4  12  25  38  52  75 107 139 174 216 260 307
#     4  10  19  34  55  77 102 135 175 216 263 317
#     4  10  20  37  61  85 108 137 172 210 256 308
#     4  10  20  36  56  76 103 139 176 213 256 306
#
# _framework density 19.231715000000001
#
# number of rings (size 3 to 8) (size 9 to 14) (size 15 to 20)
#    0.000    2.500    0.000    3.750    0.000    4.000 
#    0.000    4.375    0.000    0.750    0.000    0.000 
#    0.000    0.000    0.000    0.000    0.000    0.000 
#
# Total GULP energy -396614.933493 kJ/mol
# GULP energy per Si atom -12394.216672 kJ/mol
# Density = 1.918794 g / cm^3
# Si number density = 19.231715 Si / 1000 Ang^3
#
#
#
# Elastic Constant Matrix: (Units=GPa)
#
#
# Indices 1 2 3 4 5 6 
#
# 1 21.0247 17.9911 32.6994 0.0000 8.0995 0.0000
# 2 17.9911 77.2479 52.5259 0.0000 6.7276 0.0000
# 3 32.6994 52.5259 135.9863 0.0000 16.8751 0.0000
# 4 0.0000 0.0000 0.0000 29.9731 0.0000 6.0313
# 5 8.0995 6.7276 16.8751 0.0000 22.2848 0.0000
# 6 0.0000 0.0000 0.0000 6.0313 0.0000 20.1645
#
#
#
# Elastic Compliance Matrix: (Units=1/GPa)
#
#
# Indices 1 2 3 4 5 6 
#
# 1 0.084345 -0.007876 -0.015154 0.000000 -0.016802 0.000000
# 2 -0.007876 0.018293 -0.005344 0.000000 0.001387 0.000000
# 3 -0.015154 -0.005344 0.013441 0.000000 -0.003057 0.000000
# 4 0.000000 0.000000 0.000000 0.035500 0.000000 -0.010618
# 5 -0.016802 0.001387 -0.003057 0.000000 0.052877 0.000000
# 6 0.000000 0.000000 0.000000 -0.010618 0.000000 0.052768
#
#
# Mechanical properties :
#
#
# Convention : Reuss Voigt Hill
#
# Bulk Modulus (GPa) = 16.85488 48.96571 32.91029
# Shear Modulus (GPa) = 14.98130 23.22064 19.10097
#
# Velocity S-wave (km/s) = 2.79407 3.47856 3.15493
# Velocity P-wave (km/s) = 4.38089 6.45368 5.51553
#
# Compressibility (1/GPa) = 0.05933001
#
# Stress axis : x y z
#
# Youngs Moduli (GPa) = 11.85603 54.66705 74.39810
#
# Poissons Ratio (x) = 0.43057 1.12746
# Poissons Ratio (y) = 0.09338 0.39757
# Poissons Ratio (z) = 0.17967 0.29213
#
# Static dielectric constant tensor:
#      x y z
#    x 3.488590 0.000000 0.398410 
#    y 0.000000 3.403760 0.000000 
#    z 0.398410 0.000000 3.648830 
# 
# 
# High freq. dielectric constant tensor:
#      x y z
#    x 1.722790 0.000000 0.035830 
#    y 0.000000 1.736210 0.000000 
#    z 0.035830 0.000000 1.751830 
# 
# From -- ./inp_files/67071.got.cif
#   From: 2010.06.25/outbox.cif.g09.slc.cpg/sg11_34_cif.got.tgz:67071.got - 2010.06.27 23:14:04.
