data_PCOD8071025
_publ_section_title
;
Structure prediction by ZEFSAII (Michael W. Deem and Ramdas Pophale) SiO2 
 PCOD8071025
Probable space group: P 21/M
;
_chemical_formula_sum "Si O2"
_cell_formula_units_Z 32
_cell_length_a 12.807259
_cell_length_b 9.102586
_cell_length_c 23.159712
_cell_angle_alpha 90.000000
_cell_angle_beta 40.177598
_cell_angle_gamma 90.000000
_cell_volume 1741.890696
_symmetry_space_group_name_H-M "P 21/M"
_symmetry_group_IT_number 11
_symmetry_cell_setting 'monoclinic'
loop_
_space_group_symop_operation_xyz
x,y,z
-x,1/2+y,-z
-x,-y,-z
x,1/2-y,z
loop_
_atom_site_type_symbol
_atom_site_label
_atom_site_fract_x
_atom_site_fract_y
_atom_site_fract_z
Si Si1 0.437316 0.078603 0.243221
Si Si2 0.672966 0.577353 0.432690
Si Si3 0.467956 0.078659 0.099498
Si Si4 0.251230 0.577448 0.104939
Si Si5 0.841468 0.087830 0.581677
Si Si6 0.362644 0.576390 0.730495
Si Si7 0.890186 0.578090 0.230919
Si Si8 0.358760 0.586773 0.448193
O O1 0.398822 0.250000 0.265206
O O2 0.495382 0.034896 0.154688
O O3 0.577365 0.034522 0.230074
O O4 0.269184 0.995393 0.325287
O O5 0.500000 0.500000 0.500000
O O6 0.654603 0.750000 0.449902
O O7 0.791003 0.540134 0.330384
O O8 0.745728 0.501536 0.459756
O O9 0.433295 0.250000 0.107639
O O10 0.312689 0.996795 0.138165
O O11 0.630736 0.032053 0.997362
O O12 0.249595 0.750000 0.116879
O O13 0.072755 0.521479 0.163684
O O14 0.884267 0.250000 0.587809
O O15 0.747637 0.103995 0.562406
O O16 0.000000 0.000000 0.500000
O O17 0.359284 0.750000 0.723028
O O18 0.185383 0.508580 0.792204
O O19 0.479464 0.504453 0.633599
O O20 0.886559 0.750000 0.217682
O O21 0.411064 0.750000 0.448277
#
# Coordination Sequence:
#
# PCOD8071025 Si02
#       8
#     4   4   4   4   4   4   4   4
#     4   9  19  35  55  79 105 138 177 218 267 319
#     4  11  21  32  49  73 102 138 176 215 257 306
#     4   9  18  36  60  81 106 137 174 220 270 322
#     4   9  19  36  57  81 107 139 174 216 270 322
#     4  10  21  35  52  75 105 140 176 219 264 310
#     4  10  19  32  52  75 102 137 175 213 256 313
#     4  10  21  35  51  74 108 141 174 217 264 316
#     4  10  20  34  50  70  99 135 175 215 259 309
#
# _framework density 18.370843000000001
#
# number of rings (size 3 to 8) (size 9 to 14) (size 15 to 20)
#    0.000    2.250    1.250    1.500    0.000    4.500 
#    0.000    3.125    0.000    0.000    0.000    0.000 
#    0.000    0.000    0.000    0.000    0.000    0.000 
#
# Total GULP energy -396728.606979 kJ/mol
# GULP energy per Si atom -12397.768968 kJ/mol
# Density = 1.832903 g / cm^3
# Si number density = 18.370843 Si / 1000 Ang^3
#
#
#
# Elastic Constant Matrix: (Units=GPa)
#
#
# Indices 1 2 3 4 5 6 
#
# 1 106.0913 50.3657 68.0427 0.0000 -4.7135 0.0000
# 2 50.3657 81.3372 47.3300 0.0000 -1.1160 0.0000
# 3 68.0427 47.3300 96.3556 0.0000 -2.9086 0.0000
# 4 0.0000 0.0000 0.0000 23.6113 0.0000 -1.2989
# 5 -4.7135 -1.1160 -2.9086 0.0000 35.5937 0.0000
# 6 0.0000 0.0000 0.0000 -1.2989 0.0000 32.6942
#
#
#
# Elastic Compliance Matrix: (Units=1/GPa)
#
#
# Indices 1 2 3 4 5 6 
#
# 1 0.018908 -0.005523 -0.010595 0.000000 0.001465 0.000000
# 2 -0.005523 0.018829 -0.005366 0.000000 -0.000580 0.000000
# 3 -0.010595 -0.005366 0.020499 0.000000 0.000104 0.000000
# 4 0.000000 0.000000 0.000000 0.042445 0.000000 0.001686
# 5 0.001465 -0.000580 0.000104 0.000000 0.028279 0.000000
# 6 0.000000 0.000000 0.000000 0.001686 0.000000 0.030653
#
#
# Mechanical properties :
#
#
# Convention : Reuss Voigt Hill
#
# Bulk Modulus (GPa) = 65.49767 68.36231 66.92999
# Shear Modulus (GPa) = 24.07638 26.24956 25.16297
#
# Velocity S-wave (km/s) = 3.62411 3.78414 3.70499
# Velocity P-wave (km/s) = 7.29676 7.50907 7.40368
#
# Compressibility (1/GPa) = 0.01526772
#
# Stress axis : x y z
#
# Youngs Moduli (GPa) = 52.88717 53.10925 48.78241
#
# Poissons Ratio (x) = 0.29332 0.51686
# Poissons Ratio (y) = 0.29209 0.26178
# Poissons Ratio (z) = 0.56035 0.28500
#
# Static dielectric constant tensor:
#      x y z
#    x 3.118980 0.000000 0.465910 
#    y 0.000000 3.562600 0.000000 
#    z 0.465910 0.000000 3.243390 
# 
# 
# High freq. dielectric constant tensor:
#      x y z
#    x 1.718080 0.000000 0.005200 
#    y 0.000000 1.718910 0.000000 
#    z 0.005200 0.000000 1.692650 
# 
# From -- ./inp_files/68968.got.cif
#   From: 2010.06.25/outbox.cif.g09.slc.cpg/sg11_35_cif.got.tgz:68968.got - 2010.06.27 23:14:04.
