data_PCOD8071818
_publ_section_title
;
Structure prediction by ZEFSAII (Michael W. Deem and Ramdas Pophale) SiO2 
 PCOD8071818
Probable space group: P 21/M
;
_chemical_formula_sum "Si O2"
_cell_formula_units_Z 32
_cell_length_a 6.276117
_cell_length_b 28.069120
_cell_length_c 10.108593
_cell_angle_alpha 90.000000
_cell_angle_beta 112.950064
_cell_angle_gamma 90.000000
_cell_volume 1639.823458
_symmetry_space_group_name_H-M "P 21/M"
_symmetry_group_IT_number 11
_symmetry_cell_setting 'monoclinic'
loop_
_space_group_symop_operation_xyz
x,y,z
-x,1/2+y,-z
-x,-y,-z
x,1/2-y,z
loop_
_atom_site_type_symbol
_atom_site_label
_atom_site_fract_x
_atom_site_fract_y
_atom_site_fract_z
Si Si1 0.730150 0.370796 0.113109
Si Si2 0.250115 0.464484 0.347368
Si Si3 0.704373 0.433772 0.580394
Si Si4 0.770093 0.629680 0.082850
Si Si5 0.003517 0.113142 0.439742
Si Si6 0.832522 0.194057 0.896992
Si Si7 0.011514 0.054848 0.038561
Si Si8 0.567000 0.862916 0.314481
O O1 0.851757 0.363881 0.285455
O O2 0.784289 0.421918 0.054733
O O3 0.454698 0.364886 0.065969
O O4 0.823392 0.329135 0.040202
O O5 0.520961 0.456826 0.435243
O O6 0.167868 0.519920 0.327492
O O7 0.097875 0.438428 0.421411
O O8 0.212646 0.440370 0.196065
O O9 0.591314 0.406298 0.675265
O O10 0.858857 0.395837 0.538250
O O11 0.687419 0.619347 0.210124
O O12 0.931812 0.676563 0.117127
O O13 0.924057 0.584774 0.075682
O O14 0.225058 0.147389 0.529434
O O15 0.845945 0.250000 0.916250
O O16 0.601572 0.181806 0.754841
O O17 0.000000 0.000000 0.000000
#
# Coordination Sequence:
#
# PCOD8071818 Si02
#       8
#     4   4   4   4   4   4   4   4
#     4   9  21  39  58  87 114 150 194 236 289 347
#     4   9  20  32  48  79 113 160 205 234 271 328
#     4  10  19  34  53  78 117 156 197 236 278 333
#     4  10  21  38  57  84 116 155 195 238 294 342
#     4  10  19  36  58  81 117 157 191 238 286 335
#     4  10  22  42  65  86 111 142 187 244 301 361
#     4  10  21  33  52  79 121 157 197 242 276 332
#     4  10  22  36  60  86 113 149 189 244 290 350
#
# _framework density 19.514295000000001
#
# number of rings (size 3 to 8) (size 9 to 14) (size 15 to 20)
#    0.000    2.250    0.000    1.875    7.000    3.500 
#    4.500    0.625    0.000    0.750    0.000    0.000 
#    0.000    0.000    0.000    0.000    0.000    0.000 
#
# Total GULP energy -396607.389934 kJ/mol
# GULP energy per Si atom -12393.980935 kJ/mol
# Density = 1.946988 g / cm^3
# Si number density = 19.514295 Si / 1000 Ang^3
#
#
#
# Elastic Constant Matrix: (Units=GPa)
#
#
# Indices 1 2 3 4 5 6 
#
# 1 99.3517 35.2474 39.3717 0.0000 3.9487 0.0000
# 2 35.2474 112.5236 33.7717 0.0000 1.7696 0.0000
# 3 39.3717 33.7717 83.9125 0.0000 13.2303 0.0000
# 4 0.0000 0.0000 0.0000 20.6229 0.0000 4.0002
# 5 3.9487 1.7696 13.2303 0.0000 35.3577 0.0000
# 6 0.0000 0.0000 0.0000 4.0002 0.0000 18.2886
#
#
#
# Elastic Compliance Matrix: (Units=1/GPa)
#
#
# Indices 1 2 3 4 5 6 
#
# 1 0.012987 -0.002525 -0.005174 0.000000 0.000612 0.000000
# 2 -0.002525 0.010638 -0.003249 0.000000 0.000965 0.000000
# 3 -0.005174 -0.003249 0.016510 0.000000 -0.005437 0.000000
# 4 0.000000 0.000000 0.000000 0.050638 0.000000 -0.011076
# 5 0.000612 0.000965 -0.005437 0.000000 0.030200 0.000000
# 6 0.000000 0.000000 0.000000 -0.011076 0.000000 0.057102
#
#
# Mechanical properties :
#
#
# Convention : Reuss Voigt Hill
#
# Bulk Modulus (GPa) = 54.82675 56.95217 55.88946
# Shear Modulus (GPa) = 24.26605 27.34698 25.80652
#
# Velocity S-wave (km/s) = 3.53016 3.74756 3.64048
# Velocity P-wave (km/s) = 6.69124 6.92632 6.80979
#
# Compressibility (1/GPa) = 0.01823927
#
# Stress axis : x y z
#
# Youngs Moduli (GPa) = 77.00004 94.00415 60.57107
#
# Poissons Ratio (x) = 0.23735 0.31338
# Poissons Ratio (y) = 0.19442 0.19679
# Poissons Ratio (z) = 0.39838 0.30540
#
# Static dielectric constant tensor:
#      x y z
#    x 3.701080 0.000000 0.216810 
#    y 0.000000 3.185360 0.000000 
#    z 0.216810 0.000000 3.904340 
# 
# 
# High freq. dielectric constant tensor:
#      x y z
#    x 1.765280 0.000000 0.007140 
#    y 0.000000 1.718630 0.000000 
#    z 0.007140 0.000000 1.773890 
# 
# From -- ./inp_files/30258.got.cif
#   From: 2010.06.25/outbox.cif.g09.slc.cpg/sg11_16_cif.got.tgz:30258.got - 2010.06.27 23:14:04.
