data_PCOD8071641
_publ_section_title
;
Structure prediction by ZEFSAII (Michael W. Deem and Ramdas Pophale) SiO2 
 PCOD8071641
Probable space group: P 21/M
;
_chemical_formula_sum "Si O2"
_cell_formula_units_Z 32
_cell_length_a 17.716576
_cell_length_b 8.881071
_cell_length_c 11.614211
_cell_angle_alpha 90.000000
_cell_angle_beta 109.965111
_cell_angle_gamma 90.000000
_cell_volume 1717.579406
_symmetry_space_group_name_H-M "P 21/M"
_symmetry_group_IT_number 11
_symmetry_cell_setting 'monoclinic'
loop_
_space_group_symop_operation_xyz
x,y,z
-x,1/2+y,-z
-x,-y,-z
x,1/2-y,z
loop_
_atom_site_type_symbol
_atom_site_label
_atom_site_fract_x
_atom_site_fract_y
_atom_site_fract_z
Si Si1 0.923100 0.577876 0.406811
Si Si2 0.020995 0.080078 0.816016
Si Si3 0.853719 0.924441 0.725426
Si Si4 0.825896 0.576259 0.969536
Si Si5 0.312249 0.573833 0.962330
Si Si6 0.350774 0.427572 0.738426
Si Si7 0.782771 0.071874 0.468176
Si Si8 0.518246 0.423222 0.891920
O O1 0.919729 0.750000 0.447935
O O2 0.925988 0.567140 0.271350
O O3 0.844389 0.492120 0.406918
O O4 0.000000 0.500000 0.500000
O O5 0.987190 0.250000 0.812033
O O6 0.081606 0.037822 0.950785
O O7 0.947424 0.966047 0.774075
O O8 0.847151 0.750000 0.689340
O O9 0.814805 0.958210 0.829029
O O10 0.804477 0.020536 0.607804
O O11 0.807478 0.750000 0.988918
O O12 0.766861 0.472649 0.011221
O O13 0.307271 0.750000 0.929429
O O14 0.388494 0.539441 0.089002
O O15 0.320544 0.484045 0.847353
O O16 0.333557 0.250000 0.721688
O O17 0.304966 0.511467 0.611479
O O18 0.446095 0.467698 0.766380
O O19 0.784823 0.250000 0.464576
O O20 0.508381 0.250000 0.912678
O O21 0.500000 0.500000 0.000000
#
# Coordination Sequence:
#
# PCOD8071641 Si02
#       8
#     4   4   4   4   4   4   4   4
#     4  11  21  34  54  79 108 140 173 214 266 323
#     4  10  21  37  56  77 104 136 174 223 272 318
#     4  11  23  38  56  75 101 140 185 229 272 319
#     4  10  22  38  55  78 106 140 182 224 269 320
#     4  10  19  33  55  85 115 142 175 215 263 320
#     4  10  19  34  56  82 113 145 176 216 265 318
#     4  12  24  37  54  78 109 143 182 225 269 324
#     4   8  16  30  51  80 112 142 171 209 261 317
#
# _framework density 18.630870000000002
#
# number of rings (size 3 to 8) (size 9 to 14) (size 15 to 20)
#    0.000    1.750    1.250    3.750    0.000    4.000 
#    0.000    0.000    0.000    0.750    0.000    0.000 
#    0.000    0.000    0.000    0.000    0.000    0.000 
#
# Total GULP energy -396669.461363 kJ/mol
# GULP energy per Si atom -12395.920668 kJ/mol
# Density = 1.858847 g / cm^3
# Si number density = 18.630870 Si / 1000 Ang^3
#
#
#
# Elastic Constant Matrix: (Units=GPa)
#
#
# Indices 1 2 3 4 5 6 
#
# 1 48.8311 25.0746 38.1376 0.0000 17.8086 0.0000
# 2 25.0746 99.1135 42.9595 0.0000 12.4452 0.0000
# 3 38.1376 42.9595 88.7986 0.0000 18.8462 0.0000
# 4 0.0000 0.0000 0.0000 27.2537 0.0000 5.7167
# 5 17.8086 12.4452 18.8462 0.0000 31.1923 0.0000
# 6 0.0000 0.0000 0.0000 5.7167 0.0000 23.3382
#
#
#
# Elastic Compliance Matrix: (Units=1/GPa)
#
#
# Indices 1 2 3 4 5 6 
#
# 1 0.034963 -0.002439 -0.011248 0.000000 -0.012192 0.000000
# 2 -0.002439 0.013003 -0.005091 0.000000 -0.000720 0.000000
# 3 -0.011248 -0.005091 0.019227 0.000000 -0.003163 0.000000
# 4 0.000000 0.000000 0.000000 0.038680 0.000000 -0.009475
# 5 -0.012192 -0.000720 -0.003163 0.000000 0.041219 0.000000
# 6 0.000000 0.000000 0.000000 -0.009475 0.000000 0.045169
#
#
# Mechanical properties :
#
#
# Convention : Reuss Voigt Hill
#
# Bulk Modulus (GPa) = 33.74176 49.89851 41.82013
# Shear Modulus (GPa) = 20.85991 25.06161 22.96076
#
# Velocity S-wave (km/s) = 3.34974 3.67163 3.51437
# Velocity P-wave (km/s) = 5.75421 6.69443 6.24205
#
# Compressibility (1/GPa) = 0.02963687
#
# Stress axis : x y z
#
# Youngs Moduli (GPa) = 28.60201 76.90370 52.01121
#
# Poissons Ratio (x) = 0.18755 0.58505
# Poissons Ratio (y) = 0.06975 0.26477
# Poissons Ratio (z) = 0.32173 0.39148
#
# Static dielectric constant tensor:
#      x y z
#    x 3.698960 0.000000 0.352640 
#    y 0.000000 3.533740 0.000000 
#    z 0.352640 0.000000 3.560090 
# 
# 
# High freq. dielectric constant tensor:
#      x y z
#    x 1.707840 0.000000 0.023550 
#    y 0.000000 1.734520 0.000000 
#    z 0.023550 0.000000 1.719620 
# 
# From -- ./inp_files/42545.got.cif
#   From: 2010.06.25/outbox.cif.g09.slc.cpg/sg11_22_cif.got.tgz:42545.got - 2010.06.27 23:14:04.
