data_PCOD8071170
_publ_section_title
;
Structure prediction by ZEFSAII (Michael W. Deem and Ramdas Pophale) SiO2 
 PCOD8071170
Probable space group: P 21/M
;
_chemical_formula_sum "Si O2"
_cell_formula_units_Z 28
_cell_length_a 14.902867
_cell_length_b 8.812963
_cell_length_c 12.431572
_cell_angle_alpha 90.000000
_cell_angle_beta 105.721547
_cell_angle_gamma 90.000000
_cell_volume 1571.661915
_symmetry_space_group_name_H-M "P 21/M"
_symmetry_group_IT_number 11
_symmetry_cell_setting 'monoclinic'
loop_
_space_group_symop_operation_xyz
x,y,z
-x,1/2+y,-z
-x,-y,-z
x,1/2-y,z
loop_
_atom_site_type_symbol
_atom_site_label
_atom_site_fract_x
_atom_site_fract_y
_atom_site_fract_z
Si Si1 0.785791 0.074942 0.308745
Si Si2 0.609094 0.574262 0.917657
Si Si3 0.091334 0.923230 0.256497
Si Si4 0.786430 0.073427 0.905636
Si Si5 0.881467 0.925160 0.138484
Si Si6 0.400284 0.575602 0.861361
Si Si7 0.907544 0.927367 0.518211
O O1 0.808779 0.250000 0.336824
O O2 0.675184 0.047793 0.256695
O O3 0.841247 0.024873 0.221403
O O4 0.817256 0.981291 0.422825
O O5 0.633039 0.750000 0.909792
O O6 0.677989 0.475287 0.866117
O O7 0.502796 0.536823 0.848617
O O8 0.624985 0.532227 0.047477
O O9 0.100011 0.750000 0.299028
O O10 0.170361 0.964036 0.195944
O O11 0.991947 0.951221 0.168551
O O12 0.106299 0.031677 0.362381
O O13 0.796283 0.250000 0.937567
O O14 0.839010 0.976231 0.012198
O O15 0.856285 0.750000 0.151152
O O16 0.397140 0.750000 0.901101
O O17 0.918096 0.750000 0.508505
O O18 0.000000 0.000000 0.500000
#
# Coordination Sequence:
#
# PCOD8071170 Si02
#       7
#     4   4   4   4   4   4   4
#     4  11  21  35  57  82 112 145 179 224 275 324
#     4  10  19  32  53  80 110 142 179 224 268 324
#     4  10  23  40  56  76 108 148 189 226 269 324
#     4  11  22  36  54  79 113 150 182 221 274 329
#     4  11  21  34  54  81 111 146 185 224 267 322
#     4   9  19  34  53  79 109 143 179 219 275 327
#     4  12  24  38  58  81 108 143 185 229 272 318
#
# _framework density 17.815536000000002
#
# number of rings (size 3 to 8) (size 9 to 14) (size 15 to 20)
#    0.000    1.429    2.857    3.429    0.000    2.857 
#    0.000    0.000    0.000    0.857    0.000    0.000 
#    0.000    0.000    0.000    0.000    0.000    0.000 
#
# Total GULP energy -347315.342907 kJ/mol
# GULP energy per Si atom -12404.119390 kJ/mol
# Density = 1.777499 g / cm^3
# Si number density = 17.815536 Si / 1000 Ang^3
#
#
#
# Elastic Constant Matrix: (Units=GPa)
#
#
# Indices 1 2 3 4 5 6 
#
# 1 123.7570 44.9071 52.0133 0.0000 4.3871 0.0000
# 2 44.9071 91.8229 46.8969 0.0000 4.4877 0.0000
# 3 52.0133 46.8969 86.5544 0.0000 4.3175 0.0000
# 4 0.0000 0.0000 0.0000 28.3920 0.0000 -0.3256
# 5 4.3871 4.4877 4.3175 0.0000 25.1716 0.0000
# 6 0.0000 0.0000 0.0000 -0.3256 0.0000 27.3983
#
#
#
# Elastic Compliance Matrix: (Units=1/GPa)
#
#
# Indices 1 2 3 4 5 6 
#
# 1 0.011335 -0.002836 -0.005246 0.000000 -0.000570 0.000000
# 2 -0.002836 0.015809 -0.006804 0.000000 -0.001157 0.000000
# 3 -0.005246 -0.006804 0.018444 0.000000 -0.001036 0.000000
# 4 0.000000 0.000000 0.000000 0.035226 0.000000 0.000419
# 5 -0.000570 -0.001157 -0.001036 0.000000 0.040211 0.000000
# 6 0.000000 0.000000 0.000000 0.000419 0.000000 0.036504
#
#
# Mechanical properties :
#
#
# Convention : Reuss Voigt Hill
#
# Bulk Modulus (GPa) = 63.22791 65.52989 64.37890
# Shear Modulus (GPa) = 25.96438 26.74685 26.35562
#
# Velocity S-wave (km/s) = 3.82173 3.87889 3.85042
# Velocity P-wave (km/s) = 7.41900 7.54476 7.48214
#
# Compressibility (1/GPa) = 0.01581580
#
# Stress axis : x y z
#
# Youngs Moduli (GPa) = 88.22553 63.25547 54.21786
#
# Poissons Ratio (x) = 0.17939 0.28444
# Poissons Ratio (y) = 0.25021 0.36888
# Poissons Ratio (z) = 0.46286 0.43037
#
# Static dielectric constant tensor:
#      x y z
#    x 3.511730 0.000000 0.196440 
#    y 0.000000 3.443200 0.000000 
#    z 0.196440 0.000000 3.232670 
# 
# 
# High freq. dielectric constant tensor:
#      x y z
#    x 1.691330 0.000000 0.013720 
#    y 0.000000 1.703100 0.000000 
#    z 0.013720 0.000000 1.667170 
# 
# From -- ./inp_files/37689.got.cif
#   From: 2010.06.25/outbox.cif.g09.slc.cpg/sg11_19_cif.got.tgz:37689.got - 2010.06.27 23:14:04.
