data_PCOD8071071
_publ_section_title
;
Structure prediction by ZEFSAII (Michael W. Deem and Ramdas Pophale) SiO2 
 PCOD8071071
Probable space group: P 21/M
;
_chemical_formula_sum "Si O2"
_cell_formula_units_Z 28
_cell_length_a 13.564968
_cell_length_b 8.776165
_cell_length_c 14.252139
_cell_angle_alpha 90.000000
_cell_angle_beta 121.619474
_cell_angle_gamma 90.000000
_cell_volume 1444.817984
_symmetry_space_group_name_H-M "P 21/M"
_symmetry_group_IT_number 11
_symmetry_cell_setting 'monoclinic'
loop_
_space_group_symop_operation_xyz
x,y,z
-x,1/2+y,-z
-x,-y,-z
x,1/2-y,z
loop_
_atom_site_type_symbol
_atom_site_label
_atom_site_fract_x
_atom_site_fract_y
_atom_site_fract_z
Si Si1 0.691425 0.570212 0.236582
Si Si2 0.005087 0.569437 0.899758
Si Si3 0.679197 0.571023 0.439766
Si Si4 0.782592 0.930518 0.680106
Si Si5 0.233532 0.570409 0.903374
Si Si6 0.550826 0.574157 0.888931
Si Si7 0.561224 0.574510 0.677824
O O1 0.709981 0.750000 0.236430
O O2 0.715993 0.510019 0.355159
O O3 0.780368 0.482143 0.212146
O O4 0.560580 0.527373 0.142219
O O5 0.997685 0.750000 0.904989
O O6 0.899012 0.503055 0.784635
O O7 0.121746 0.518146 0.905912
O O8 0.000000 0.500000 0.000000
O O9 0.664733 0.750000 0.425979
O O10 0.774514 0.524063 0.565624
O O11 0.555466 0.508995 0.411385
O O12 0.783512 0.750000 0.692118
O O13 0.670352 0.997268 0.677472
O O14 0.252720 0.750000 0.919810
O O15 0.343531 0.480901 0.996193
O O16 0.522248 0.750000 0.896971
O O17 0.587504 0.550669 0.800089
O O18 0.544599 0.750000 0.643318
#
# Coordination Sequence:
#
# PCOD8071071 Si02
#       7
#     4   4   4   4   4   4   4
#     4  10  20  34  52  76 105 136 170 212 257 305
#     4  10  22  39  58  78 103 134 171 212 254 302
#     4   9  18  32  52  76 103 134 169 207 250 301
#     4   9  17  33  54  75 101 136 172 206 250 304
#     4  11  22  35  52  75 102 136 174 213 256 303
#     4  10  19  32  52  78 107 138 170 210 257 308
#     4   9  17  29  50  78 106 134 164 202 254 307
#
# _framework density 19.379602999999999
#
# number of rings (size 3 to 8) (size 9 to 14) (size 15 to 20)
#    0.000    2.286    0.000    3.000    0.000    3.429 
#    0.000    2.143    0.000    0.000    0.000    0.000 
#    0.000    0.000    0.000    0.000    0.000    0.000 
#
# Total GULP energy -347175.347945 kJ/mol
# GULP energy per Si atom -12399.119569 kJ/mol
# Density = 1.933549 g / cm^3
# Si number density = 19.379603 Si / 1000 Ang^3
#
#
#
# Elastic Constant Matrix: (Units=GPa)
#
#
# Indices 1 2 3 4 5 6 
#
# 1 123.2207 20.2070 64.0632 0.0000 -19.9008 0.0000
# 2 20.2070 29.8874 18.5737 0.0000 -5.1186 0.0000
# 3 64.0632 18.5737 136.4339 0.0000 -4.0066 0.0000
# 4 0.0000 0.0000 0.0000 22.3603 0.0000 -4.6256
# 5 -19.9008 -5.1186 -4.0066 0.0000 19.7880 0.0000
# 6 0.0000 0.0000 0.0000 -4.6256 0.0000 24.7329
#
#
#
# Elastic Compliance Matrix: (Units=1/GPa)
#
#
# Indices 1 2 3 4 5 6 
#
# 1 0.013403 -0.003719 -0.005452 0.000000 0.011414 0.000000
# 2 -0.003719 0.039061 -0.003405 0.000000 0.005674 0.000000
# 3 -0.005452 -0.003405 0.010227 0.000000 -0.004293 0.000000
# 4 0.000000 0.000000 0.000000 0.046522 0.000000 0.008701
# 5 0.011414 0.005674 -0.004293 0.000000 0.062613 0.000000
# 6 0.000000 0.000000 0.000000 0.008701 0.000000 0.042059
#
#
# Mechanical properties :
#
#
# Convention : Reuss Voigt Hill
#
# Bulk Modulus (GPa) = 26.63845 55.02555 40.83200
# Shear Modulus (GPa) = 19.87667 25.82278 22.84972
#
# Velocity S-wave (km/s) = 3.20605 3.65426 3.43747
# Velocity P-wave (km/s) = 5.24218 6.80147 6.07209
#
# Compressibility (1/GPa) = 0.03753972
#
# Stress axis : x y z
#
# Youngs Moduli (GPa) = 74.60771 25.60091 97.77965
#
# Poissons Ratio (x) = 0.09521 0.53311
# Poissons Ratio (y) = 0.27747 0.33291
# Poissons Ratio (z) = 0.40677 0.08716
#
# Static dielectric constant tensor:
#      x y z
#    x 3.720390 0.000000 -0.226000 
#    y 0.000000 3.332420 0.000000 
#    z -0.226000 0.000000 3.790270 
# 
# 
# High freq. dielectric constant tensor:
#      x y z
#    x 1.749330 0.000000 -0.020970 
#    y 0.000000 1.736360 0.000000 
#    z -0.020970 0.000000 1.760010 
# 
# From -- ./inp_files/38462.got.cif
#   From: 2010.06.25/outbox.cif.g09.slc.cpg/sg11_20_cif.got.tgz:38462.got - 2010.06.27 23:14:04.
