data_PCOD8071546
_publ_section_title
;
Structure prediction by ZEFSAII (Michael W. Deem and Ramdas Pophale) SiO2 
 PCOD8071546
Probable space group: P 21/M
;
_chemical_formula_sum "Si O2"
_cell_formula_units_Z 28
_cell_length_a 9.827705
_cell_length_b 8.690095
_cell_length_c 30.350772
_cell_angle_alpha 90.000000
_cell_angle_beta 143.728435
_cell_angle_gamma 90.000000
_cell_volume 1533.501435
_symmetry_space_group_name_H-M "P 21/M"
_symmetry_group_IT_number 11
_symmetry_cell_setting 'monoclinic'
loop_
_space_group_symop_operation_xyz
x,y,z
-x,1/2+y,-z
-x,-y,-z
x,1/2-y,z
loop_
_atom_site_type_symbol
_atom_site_label
_atom_site_fract_x
_atom_site_fract_y
_atom_site_fract_z
Si Si1 0.160028 0.569310 0.721006
Si Si2 0.362125 0.572321 0.002847
Si Si3 0.947242 0.572563 0.439864
Si Si4 0.754829 0.568718 0.163622
Si Si5 0.535564 0.567491 0.272663
Si Si6 0.249772 0.930241 0.436999
Si Si7 0.959515 0.569188 0.841415
O O1 0.186590 0.750000 0.720002
O O2 0.180153 0.531097 0.777446
O O3 0.360934 0.480559 0.747408
O O4 0.909276 0.514650 0.640051
O O5 0.407116 0.750000 0.010029
O O6 0.487217 0.522835 0.081244
O O7 0.500000 0.500000 0.000000
O O8 0.093064 0.533683 0.923183
O O9 0.915734 0.750000 0.440299
O O10 0.711073 0.510557 0.356571
O O11 0.000000 0.500000 0.500000
O O12 0.157355 0.538160 0.461933
O O13 0.781474 0.750000 0.180707
O O14 0.927114 0.524341 0.169033
O O15 0.500840 0.750000 0.263892
O O16 0.299154 0.482543 0.219515
O O17 0.251472 0.750000 0.426316
O O18 0.500000 0.000000 0.500000
O O19 0.969404 0.750000 0.832948
#
# Coordination Sequence:
#
# PCOD8071546 Si02
#       7
#     4   4   4   4   4   4   4
#     4  11  22  37  56  79 106 140 179 223 270 317
#     4   8  16  30  50  75 105 137 173 216 264 312
#     4   9  20  36  55  77 103 133 170 211 255 306
#     4  10  19  34  55  79 107 142 178 218 267 319
#     4  10  21  38  55  76 107 143 177 215 266 323
#     4  10  21  38  57  80 108 140 176 216 262 317
#     4  10  19  33  54  82 109 137 177 223 263 312
#
# _framework density 18.258866000000001
#
# number of rings (size 3 to 8) (size 9 to 14) (size 15 to 20)
#    0.000    2.286    0.000    3.857    0.000    5.714 
#    0.000    3.571    0.000    0.000    0.000    0.000 
#    0.000    0.000    0.000    0.000    0.000    0.000 
#
# Total GULP energy -346989.769064 kJ/mol
# GULP energy per Si atom -12392.491752 kJ/mol
# Density = 1.821731 g / cm^3
# Si number density = 18.258866 Si / 1000 Ang^3
#
#
#
# Elastic Constant Matrix: (Units=GPa)
#
#
# Indices 1 2 3 4 5 6 
#
# 1 64.5415 13.2557 59.8207 0.0000 6.3900 0.0000
# 2 13.2557 47.3138 37.0315 0.0000 -1.5924 0.0000
# 3 59.8207 37.0315 117.1473 0.0000 4.2351 0.0000
# 4 0.0000 0.0000 0.0000 28.5690 0.0000 0.1388
# 5 6.3900 -1.5924 4.2351 0.0000 31.8991 0.0000
# 6 0.0000 0.0000 0.0000 0.1388 0.0000 32.7986
#
#
#
# Elastic Compliance Matrix: (Units=1/GPa)
#
#
# Indices 1 2 3 4 5 6 
#
# 1 0.030630 0.004563 -0.016951 0.000000 -0.003657 0.000000
# 2 0.004563 0.028979 -0.011565 0.000000 0.002068 0.000000
# 3 -0.016951 -0.011565 0.020846 0.000000 0.000051 0.000000
# 4 0.000000 0.000000 0.000000 0.035004 0.000000 -0.000148
# 5 -0.003657 0.002068 0.000051 0.000000 0.032178 0.000000
# 6 0.000000 0.000000 0.000000 -0.000148 0.000000 0.030490
#
#
# Mechanical properties :
#
#
# Convention : Reuss Voigt Hill
#
# Bulk Modulus (GPa) = 30.72395 49.91316 40.31855
# Shear Modulus (GPa) = 21.10738 26.57963 23.84351
#
# Velocity S-wave (km/s) = 3.40370 3.81952 3.61759
# Velocity P-wave (km/s) = 5.68421 6.84451 6.29117
#
# Compressibility (1/GPa) = 0.03254790
#
# Stress axis : x y z
#
# Youngs Moduli (GPa) = 32.64724 34.50828 47.96973
#
# Poissons Ratio (x) = -0.15745 0.81316
# Poissons Ratio (y) = -0.14896 0.55478
# Poissons Ratio (z) = 0.55342 0.39909
#
# Static dielectric constant tensor:
#      x y z
#    x 3.097590 0.000000 0.160330 
#    y 0.000000 3.486230 0.000000 
#    z 0.160330 0.000000 3.644230 
# 
# 
# High freq. dielectric constant tensor:
#      x y z
#    x 1.683800 0.000000 0.003020 
#    y 0.000000 1.719500 0.000000 
#    z 0.003020 0.000000 1.726700 
# 
# From -- ./inp_files/28321.got.cif
#   From: 2010.06.25/outbox.cif.g09.slc.cpg/sg11_15_cif.got.tgz:28321.got - 2010.06.27 23:14:04.
