data_PCOD8071895
_publ_section_title
;
Structure prediction by ZEFSAII (Michael W. Deem and Ramdas Pophale) SiO2 
 PCOD8071895
Probable space group: P 21/M
;
_chemical_formula_sum "Si O2"
_cell_formula_units_Z 28
_cell_length_a 14.605235
_cell_length_b 8.860227
_cell_length_c 20.479954
_cell_angle_alpha 90.000000
_cell_angle_beta 147.439246
_cell_angle_gamma 90.000000
_cell_volume 1426.332919
_symmetry_space_group_name_H-M "P 21/M"
_symmetry_group_IT_number 11
_symmetry_cell_setting 'monoclinic'
loop_
_space_group_symop_operation_xyz
x,y,z
-x,1/2+y,-z
-x,-y,-z
x,1/2-y,z
loop_
_atom_site_type_symbol
_atom_site_label
_atom_site_fract_x
_atom_site_fract_y
_atom_site_fract_z
Si Si1 0.030198 0.072179 0.308809
Si Si2 0.910558 0.071074 0.788999
Si Si3 0.584214 0.074647 0.228174
Si Si4 0.664085 0.426451 0.750162
Si Si5 0.336727 0.575592 0.870489
Si Si6 0.696918 0.571797 0.421244
Si Si7 0.765789 0.073496 0.953537
O O1 0.033347 0.250000 0.298598
O O2 0.138125 0.030223 0.437754
O O3 0.837701 0.011865 0.202827
O O4 0.118438 0.992482 0.300564
O O5 0.905221 0.250000 0.783728
O O6 0.762046 0.003210 0.746719
O O7 0.091601 0.020847 0.924718
O O8 0.540729 0.250000 0.213664
O O9 0.676282 0.048370 0.214660
O O10 0.710691 0.014777 0.360593
O O11 0.413601 0.976488 0.124765
O O12 0.653729 0.250000 0.732942
O O13 0.471749 0.488158 0.641875
O O14 0.771422 0.463650 0.879888
O O15 0.352885 0.750000 0.896729
O O16 0.500000 0.500000 0.000000
O O17 0.681417 0.750000 0.398032
O O18 0.792141 0.250000 0.983565
#
# Coordination Sequence:
#
# PCOD8071895 Si02
#       7
#     4   4   4   4   4   4   4
#     4  10  22  39  56  76 106 143 182 219 259 316
#     4  11  21  33  51  78 110 141 177 223 270 310
#     4  10  20  35  56  82 110 138 173 221 270 311
#     4   8  17  33  53  77 106 139 175 217 264 316
#     4  10  22  38  56  80 109 140 173 214 264 317
#     4   9  19  38  59  78 104 141 181 217 259 316
#     4  10  19  34  55  79 108 142 179 216 263 322
#
# _framework density 19.630759999999999
#
# number of rings (size 3 to 8) (size 9 to 14) (size 15 to 20)
#    0.000    2.286    0.000    3.429    0.000    5.714 
#    0.000    6.429    0.000    0.000    0.000    0.000 
#    0.000    0.000    0.000    0.000    0.000    0.000 
#
# Total GULP energy -347196.607105 kJ/mol
# GULP energy per Si atom -12399.878825 kJ/mol
# Density = 1.958608 g / cm^3
# Si number density = 19.630760 Si / 1000 Ang^3
#
#
#
# Elastic Constant Matrix: (Units=GPa)
#
#
# Indices 1 2 3 4 5 6 
#
# 1 101.3095 33.1299 30.5640 0.0000 -13.8959 0.0000
# 2 33.1299 42.1980 31.9581 0.0000 -10.5609 0.0000
# 3 30.5640 31.9581 101.9124 0.0000 -10.0443 0.0000
# 4 0.0000 0.0000 0.0000 30.1290 0.0000 -6.4336
# 5 -13.8959 -10.5609 -10.0443 0.0000 20.8951 0.0000
# 6 0.0000 0.0000 0.0000 -6.4336 0.0000 29.4072
#
#
#
# Elastic Compliance Matrix: (Units=1/GPa)
#
#
# Indices 1 2 3 4 5 6 
#
# 1 0.013647 -0.009043 -0.000853 0.000000 0.004095 0.000000
# 2 -0.009043 0.039986 -0.008847 0.000000 0.009943 0.000000
# 3 -0.000853 -0.008847 0.012960 0.000000 0.001191 0.000000
# 4 0.000000 0.000000 0.000000 0.034817 0.000000 0.007617
# 5 0.004095 0.009943 0.001191 0.000000 0.056179 0.000000
# 6 0.000000 0.000000 0.000000 0.007617 0.000000 0.035672
#
#
# Mechanical properties :
#
#
# Convention : Reuss Voigt Hill
#
# Bulk Modulus (GPa) = 34.35713 48.52489 41.44101
# Shear Modulus (GPa) = 20.79424 26.07080 23.43252
#
# Velocity S-wave (km/s) = 3.25817 3.64821 3.45869
# Velocity P-wave (km/s) = 5.62974 6.52061 6.09148
#
# Compressibility (1/GPa) = 0.02910604
#
# Stress axis : x y z
#
# Youngs Moduli (GPa) = 73.27514 25.00849 77.16093
#
# Poissons Ratio (x) = 0.22616 0.06585
# Poissons Ratio (y) = 0.66265 0.68264
# Poissons Ratio (z) = 0.06253 0.22125
#
# Static dielectric constant tensor:
#      x y z
#    x 3.904710 0.000000 0.024510 
#    y 0.000000 3.458070 0.000000 
#    z 0.024510 0.000000 3.571790 
# 
# 
# High freq. dielectric constant tensor:
#      x y z
#    x 1.774000 0.000000 -0.004300 
#    y 0.000000 1.748770 0.000000 
#    z -0.004300 0.000000 1.763010 
# 
# From -- ./inp_files/37800.got.cif
#   From: 2010.06.25/outbox.cif.g09.slc.cpg/sg11_19_cif.got.tgz:37800.got - 2010.06.27 23:14:04.
