data_PCOD8071778
_publ_section_title
;
Structure prediction by ZEFSAII (Michael W. Deem and Ramdas Pophale) SiO2 
 PCOD8071778
Probable space group: P 21/M
;
_chemical_formula_sum "Si O2"
_cell_formula_units_Z 28
_cell_length_a 10.817103
_cell_length_b 17.228633
_cell_length_c 13.882812
_cell_angle_alpha 90.000000
_cell_angle_beta 149.028205
_cell_angle_gamma 90.000000
_cell_volume 1331.442938
_symmetry_space_group_name_H-M "P 21/M"
_symmetry_group_IT_number 11
_symmetry_cell_setting 'monoclinic'
loop_
_space_group_symop_operation_xyz
x,y,z
-x,1/2+y,-z
-x,-y,-z
x,1/2-y,z
loop_
_atom_site_type_symbol
_atom_site_label
_atom_site_fract_x
_atom_site_fract_y
_atom_site_fract_z
Si Si1 0.457701 0.163531 0.507899
Si Si2 0.720314 0.498076 0.379041
Si Si3 0.347244 0.912624 0.865418
Si Si4 0.139628 0.060533 0.783587
Si Si5 0.066137 0.910273 0.152782
Si Si6 0.127669 0.337376 0.466650
Si Si7 0.686680 0.556279 0.757274
O O1 0.450107 0.250000 0.463033
O O2 0.717123 0.147477 0.729808
O O3 0.242875 0.149682 0.438781
O O4 0.445108 0.108738 0.407828
O O5 0.634663 0.460065 0.223347
O O6 0.781958 0.590510 0.406998
O O7 0.513043 0.492910 0.320074
O O8 0.956319 0.449328 0.571295
O O9 0.163997 0.840410 0.737152
O O10 0.241426 0.973520 0.873681
O O11 0.619123 0.887091 0.076890
O O12 0.005937 0.098910 0.784090
O O13 0.138818 0.999261 0.183939
O O14 0.840313 0.890329 0.933280
O O15 0.193772 0.250000 0.549860
#
# Coordination Sequence:
#
# PCOD8071778 Si02
#       7
#     4   4   4   4   4   4   4
#     4  11  23  40  60  85 122 157 192 248 306 355
#     4  11  19  37  64  86 117 153 199 246 290 342
#     4  10  21  36  58  89 113 153 197 241 286 344
#     4  10  19  33  60  85 112 146 197 243 280 337
#     4  11  21  36  61  92 116 152 201 247 293 351
#     4  10  21  38  60  85 116 156 191 239 298 351
#     4  11  21  35  62  92 116 153 198 247 294 353
#
# _framework density 21.029817000000001
#
# number of rings (size 3 to 8) (size 9 to 14) (size 15 to 20)
#    0.000    1.429    4.286    3.857    0.000    0.571 
#    0.000    1.429    0.000   12.857    0.000    0.000 
#    0.000    0.000    0.000    0.000    0.000    0.000 
#
# Total GULP energy -346961.012242 kJ/mol
# GULP energy per Si atom -12391.464723 kJ/mol
# Density = 2.098195 g / cm^3
# Si number density = 21.029817 Si / 1000 Ang^3
#
#
#
# Elastic Constant Matrix: (Units=GPa)
#
#
# Indices 1 2 3 4 5 6 
#
# 1 70.4613 29.6705 17.1748 0.0000 14.9724 0.0000
# 2 29.6705 57.8702 20.8105 0.0000 4.0628 0.0000
# 3 17.1748 20.8105 105.6821 0.0000 17.3872 0.0000
# 4 0.0000 0.0000 0.0000 15.3452 0.0000 6.3591
# 5 14.9724 4.0628 17.3872 0.0000 30.3940 0.0000
# 6 0.0000 0.0000 0.0000 6.3591 0.0000 18.7954
#
#
#
# Elastic Compliance Matrix: (Units=1/GPa)
#
#
# Indices 1 2 3 4 5 6 
#
# 1 0.020109 -0.009728 0.000070 0.000000 -0.008645 0.000000
# 2 -0.009728 0.023308 -0.003626 0.000000 0.003751 0.000000
# 3 0.000070 -0.003626 0.011139 0.000000 -0.005922 0.000000
# 4 0.000000 0.000000 0.000000 0.075794 0.000000 -0.025644
# 5 -0.008645 0.003751 -0.005922 0.000000 0.040047 0.000000
# 6 0.000000 0.000000 0.000000 -0.025644 0.000000 0.061881
#
#
# Mechanical properties :
#
#
# Convention : Reuss Voigt Hill
#
# Bulk Modulus (GPa) = 35.72916 41.03614 38.38265
# Shear Modulus (GPa) = 18.64458 23.99744 21.32101
#
# Velocity S-wave (km/s) = 2.98078 3.38170 3.18755
# Velocity P-wave (km/s) = 5.37339 5.89945 5.64256
#
# Compressibility (1/GPa) = 0.02798834
#
# Stress axis : x y z
#
# Youngs Moduli (GPa) = 49.73010 42.90324 89.77222
#
# Poissons Ratio (x) = 0.41736 -0.00629
# Poissons Ratio (y) = 0.48378 0.32551
# Poissons Ratio (z) = -0.00348 0.15556
#
# Static dielectric constant tensor:
#      x y z
#    x 3.827530 0.000000 0.287300 
#    y 0.000000 3.423280 0.000000 
#    z 0.287300 0.000000 4.070940 
# 
# 
# High freq. dielectric constant tensor:
#      x y z
#    x 1.833980 0.000000 0.021730 
#    y 0.000000 1.774540 0.000000 
#    z 0.021730 0.000000 1.833040 
# 
# From -- ./inp_files/50554.got.cif
#   From: 2010.06.25/outbox.cif.g09.slc.cpg/sg11_26_cif.got.tgz:50554.got - 2010.06.27 23:14:04.
