data_PCOD8071512
_publ_section_title
;
Structure prediction by ZEFSAII (Michael W. Deem and Ramdas Pophale) SiO2 
 PCOD8071512
Probable space group: P 21/M
;
_chemical_formula_sum "Si O2"
_cell_formula_units_Z 32
_cell_length_a 23.828113
_cell_length_b 14.572859
_cell_length_c 17.131166
_cell_angle_alpha 90.000000
_cell_angle_beta 15.736594
_cell_angle_gamma 90.000000
_cell_volume 1613.375435
_symmetry_space_group_name_H-M "P 21/M"
_symmetry_group_IT_number 11
_symmetry_cell_setting 'monoclinic'
loop_
_space_group_symop_operation_xyz
x,y,z
-x,1/2+y,-z
-x,-y,-z
x,1/2-y,z
loop_
_atom_site_type_symbol
_atom_site_label
_atom_site_fract_x
_atom_site_fract_y
_atom_site_fract_z
Si Si1 0.623724 0.856899 0.743462
Si Si2 0.098545 0.855058 0.085932
Si Si3 0.713545 0.980610 0.078832
Si Si4 0.500966 0.352935 0.917742
Si Si5 0.016447 0.645422 0.758577
Si Si6 0.659540 0.148523 0.391812
Si Si7 0.119589 0.559338 0.776024
Si Si8 0.536113 0.002021 0.152877
O O1 0.589750 0.750000 0.775641
O O2 0.860902 0.886683 0.410648
O O3 0.460762 0.906137 0.903728
O O4 0.570116 0.888141 0.902729
O O5 0.126316 0.750000 0.077581
O O6 0.164806 0.867593 0.907900
O O7 0.249116 0.919490 0.934574
O O8 0.508675 0.932630 0.388507
O O9 0.698160 0.999943 0.006921
O O10 0.899428 0.911166 0.848366
O O11 0.419881 0.250000 0.012126
O O12 0.401391 0.415647 0.984388
O O13 0.746412 0.358292 0.582738
O O14 0.935054 0.750000 0.870427
O O15 0.977133 0.598257 0.896334
O O16 0.557867 0.250000 0.518989
O O17 0.774771 0.145458 0.321023
O O18 0.302147 0.498225 0.496917
O O19 0.000000 0.500000 0.000000
#
# Coordination Sequence:
#
# PCOD8071512 Si02
#       8
#     4   4   4   4   4   4   4   4
#     4  10  20  38  61  81 102 136 183 232 274 320
#     4  10  21  37  57  79 108 144 183 226 275 327
#     4  11  22  35  52  80 116 149 176 216 270 332
#     4   9  19  37  61  82 103 136 183 232 273 315
#     4  10  20  35  55  81 111 146 185 226 272 323
#     4  10  20  35  55  79 108 146 186 226 270 321
#     4  10  19  33  54  79 108 143 185 230 267 311
#     4  10  21  34  54  79 108 142 175 220 270 323
#
# _framework density 19.834192000000002
#
# number of rings (size 3 to 8) (size 9 to 14) (size 15 to 20)
#    0.000    2.000    0.000    4.500    0.000    5.000 
#    0.000    3.125    0.000    5.250    0.000    0.000 
#    0.000    0.000    0.000    0.000    0.000    0.000 
#
# Total GULP energy -396714.226384 kJ/mol
# GULP energy per Si atom -12397.319574 kJ/mol
# Density = 1.978905 g / cm^3
# Si number density = 19.834192 Si / 1000 Ang^3
#
#
#
# Elastic Constant Matrix: (Units=GPa)
#
#
# Indices 1 2 3 4 5 6 
#
# 1 149.2952 67.3304 37.5636 0.0000 -0.3974 0.0000
# 2 67.3304 107.7183 30.6866 0.0000 -2.6313 0.0000
# 3 37.5636 30.6866 46.9155 0.0000 12.2405 0.0000
# 4 0.0000 0.0000 0.0000 21.2340 0.0000 3.8727
# 5 -0.3974 -2.6313 12.2405 0.0000 29.2742 0.0000
# 6 0.0000 0.0000 0.0000 3.8727 0.0000 28.3934
#
#
#
# Elastic Compliance Matrix: (Units=1/GPa)
#
#
# Indices 1 2 3 4 5 6 
#
# 1 0.010273 -0.004760 -0.005653 0.000000 0.002075 0.000000
# 2 -0.004760 0.014209 -0.006509 0.000000 0.003934 0.000000
# 3 -0.005653 -0.006509 0.033978 0.000000 -0.014869 0.000000
# 4 0.000000 0.000000 0.000000 0.048296 0.000000 -0.006587
# 5 0.002075 0.003934 -0.014869 0.000000 0.040759 0.000000
# 6 0.000000 0.000000 0.000000 -0.006587 0.000000 0.036118
#
#
# Mechanical properties :
#
#
# Convention : Reuss Voigt Hill
#
# Bulk Modulus (GPa) = 40.62489 63.89890 52.26190
# Shear Modulus (GPa) = 22.15500 27.00354 24.57927
#
# Velocity S-wave (km/s) = 3.34580 3.69381 3.52410
# Velocity P-wave (km/s) = 5.95420 7.10484 6.55482
#
# Compressibility (1/GPa) = 0.02461545
#
# Stress axis : x y z
#
# Youngs Moduli (GPa) = 97.34572 70.37694 29.43049
#
# Poissons Ratio (x) = 0.33499 0.16637
# Poissons Ratio (y) = 0.46336 0.19158
# Poissons Ratio (z) = 0.55030 0.45811
#
# Static dielectric constant tensor:
#      x y z
#    x 3.736510 0.000000 0.153050 
#    y 0.000000 3.818260 0.000000 
#    z 0.153050 0.000000 3.448270 
# 
# 
# High freq. dielectric constant tensor:
#      x y z
#    x 1.774450 0.000000 0.014520 
#    y 0.000000 1.786830 0.000000 
#    z 0.014520 0.000000 1.753630 
# 
# From -- ./inp_files/31887.got.cif
#   From: 2010.06.25/outbox.cif.g09.slc.cpg/sg11_16_cif.got.tgz:31887.got - 2010.06.27 23:14:04.
