data_PCOD8071643
_publ_section_title
;
Structure prediction by ZEFSAII (Michael W. Deem and Ramdas Pophale) SiO2 
 PCOD8071643
Probable space group: P 21/M
;
_chemical_formula_sum "Si O2"
_cell_formula_units_Z 28
_cell_length_a 14.596830
_cell_length_b 8.981195
_cell_length_c 20.043685
_cell_angle_alpha 90.000000
_cell_angle_beta 147.132126
_cell_angle_gamma 90.000000
_cell_volume 1426.044034
_symmetry_space_group_name_H-M "P 21/M"
_symmetry_group_IT_number 11
_symmetry_cell_setting 'monoclinic'
loop_
_space_group_symop_operation_xyz
x,y,z
-x,1/2+y,-z
-x,-y,-z
x,1/2-y,z
loop_
_atom_site_type_symbol
_atom_site_label
_atom_site_fract_x
_atom_site_fract_y
_atom_site_fract_z
Si Si1 0.420308 0.076804 0.795424
Si Si2 0.843488 0.577429 0.869969
Si Si3 0.520594 0.073188 0.307551
Si Si4 0.723303 0.922798 0.051138
Si Si5 0.805770 0.923100 0.560667
Si Si6 0.952103 0.921122 0.791493
Si Si7 0.129079 0.419968 0.716746
O O1 0.454285 0.250000 0.802716
O O2 0.238277 0.050779 0.717629
O O3 0.418357 0.988856 0.725470
O O4 0.561240 0.016282 0.931471
O O5 0.861420 0.750000 0.896686
O O6 0.668723 0.515870 0.793260
O O7 0.842651 0.546500 0.790237
O O8 0.000000 0.500000 0.000000
O O9 0.529367 0.250000 0.312202
O O10 0.640426 0.013094 0.439026
O O11 0.690245 0.750000 0.015768
O O12 0.755657 0.955783 0.148547
O O13 0.883277 0.975087 0.105511
O O14 0.775656 0.750000 0.528557
O O15 0.836636 0.959611 0.657233
O O16 0.966552 0.974115 0.615233
O O17 0.012949 0.750000 0.825220
O O18 0.065368 0.250000 0.681549
#
# Coordination Sequence:
#
# PCOD8071643 Si02
#       7
#     4   4   4   4   4   4   4
#     4  11  22  36  55  80 111 149 189 228 275 326
#     4  10  22  39  59  84 113 145 180 221 271 326
#     4  11  24  40  57  80 112 147 184 228 275 325
#     4  10  19  33  55  85 116 144 180 226 278 331
#     4  10  21  38  60  84 109 142 185 229 275 326
#     4   9  19  37  59  82 111 146 184 227 273 324
#     4   9  20  37  57  81 111 147 185 227 274 327
#
# _framework density 19.634737000000001
#
# number of rings (size 3 to 8) (size 9 to 14) (size 15 to 20)
#    0.000    2.000    0.000    3.000    0.000    7.429 
#    0.000    0.000    0.000    0.000    0.000    0.000 
#    0.000    0.000    0.000    0.000    0.000    0.000 
#
# Total GULP energy -347330.175954 kJ/mol
# GULP energy per Si atom -12404.649141 kJ/mol
# Density = 1.959005 g / cm^3
# Si number density = 19.634737 Si / 1000 Ang^3
#
#
#
# Elastic Constant Matrix: (Units=GPa)
#
#
# Indices 1 2 3 4 5 6 
#
# 1 118.6571 43.9067 50.2784 0.0000 1.4676 0.0000
# 2 43.9067 84.1863 53.4983 0.0000 6.0499 0.0000
# 3 50.2784 53.4983 121.6259 0.0000 7.7737 0.0000
# 4 0.0000 0.0000 0.0000 39.7989 0.0000 0.3013
# 5 1.4676 6.0499 7.7737 0.0000 16.9392 0.0000
# 6 0.0000 0.0000 0.0000 0.3013 0.0000 29.4532
#
#
#
# Elastic Compliance Matrix: (Units=1/GPa)
#
#
# Indices 1 2 3 4 5 6 
#
# 1 0.011161 -0.004089 -0.002932 0.000000 0.001839 0.000000
# 2 -0.004089 0.018100 -0.006058 0.000000 -0.003330 0.000000
# 3 -0.002932 -0.006058 0.012305 0.000000 -0.003229 0.000000
# 4 0.000000 0.000000 0.000000 0.025128 0.000000 -0.000257
# 5 0.001839 -0.003330 -0.003229 0.000000 0.061547 0.000000
# 6 0.000000 0.000000 0.000000 -0.000257 0.000000 0.033955
#
#
# Mechanical properties :
#
#
# Convention : Reuss Voigt Hill
#
# Bulk Modulus (GPa) = 64.90932 68.87069 66.89001
# Shear Modulus (GPa) = 25.84086 29.02398 27.43242
#
# Velocity S-wave (km/s) = 3.63172 3.84890 3.74188
# Velocity P-wave (km/s) = 7.12152 7.40973 7.26705
#
# Compressibility (1/GPa) = 0.01540611
#
# Stress axis : x y z
#
# Youngs Moduli (GPa) = 89.60030 55.24735 81.26544
#
# Poissons Ratio (x) = 0.22593 0.23831
# Poissons Ratio (y) = 0.36642 0.49233
# Poissons Ratio (z) = 0.26275 0.33470
#
# Static dielectric constant tensor:
#      x y z
#    x 3.671490 0.000000 -0.000950 
#    y 0.000000 3.626880 0.000000 
#    z -0.000950 0.000000 3.538330 
# 
# 
# High freq. dielectric constant tensor:
#      x y z
#    x 1.770050 0.000000 -0.002460 
#    y 0.000000 1.770320 0.000000 
#    z -0.002460 0.000000 1.763470 
# 
# From -- ./inp_files/37461.got.cif
#   From: 2010.06.25/outbox.cif.g09.slc.cpg/sg11_19_cif.got.tgz:37461.got - 2010.06.27 23:14:04.
