data_PCOD8071785
_publ_section_title
;
Structure prediction by ZEFSAII (Michael W. Deem and Ramdas Pophale) SiO2 
 PCOD8071785
Probable space group: P 21/M
;
_chemical_formula_sum "Si O2"
_cell_formula_units_Z 32
_cell_length_a 15.142048
_cell_length_b 24.859444
_cell_length_c 14.529547
_cell_angle_alpha 90.000000
_cell_angle_beta 19.433624
_cell_angle_gamma 90.000000
_cell_volume 1819.700726
_symmetry_space_group_name_H-M "P 21/M"
_symmetry_group_IT_number 11
_symmetry_cell_setting 'monoclinic'
loop_
_space_group_symop_operation_xyz
x,y,z
-x,1/2+y,-z
-x,-y,-z
x,1/2-y,z
loop_
_atom_site_type_symbol
_atom_site_label
_atom_site_fract_x
_atom_site_fract_y
_atom_site_fract_z
Si Si1 0.216523 0.619446 0.249030
Si Si2 0.180297 0.311356 0.094766
Si Si3 0.699324 0.011876 0.181571
Si Si4 0.279084 0.187483 0.210698
Si Si5 0.250538 0.960438 0.386402
Si Si6 0.257920 0.528884 0.069428
Si Si7 0.336622 0.871641 0.447079
Si Si8 0.798440 0.053371 0.272716
O O1 0.232138 0.576808 0.315760
O O2 0.194046 0.586493 0.176393
O O3 0.968265 0.658340 0.501038
O O4 0.464688 0.658827 0.001077
O O5 0.184161 0.250000 0.059695
O O6 0.279698 0.319208 0.100459
O O7 0.880457 0.331838 0.381978
O O8 0.376549 0.343856 0.835260
O O9 0.771854 0.056391 0.188074
O O10 0.400694 0.991613 0.490989
O O11 0.723313 0.038706 0.058180
O O12 0.902704 0.962024 0.991764
O O13 0.276978 0.250000 0.240693
O O14 0.349265 0.926521 0.376698
O O15 0.963405 0.985030 0.687874
O O16 0.464750 0.007541 0.160884
O O17 0.267036 0.888050 0.620305
#
# Coordination Sequence:
#
# PCOD8071785 Si02
#       8
#     4   4   4   4   4   4   4   4
#     4  12  23  35  52  77 103 143 172 207 260 305
#     4  11  22  35  53  75 102 134 172 219 259 306
#     4  10  19  34  48  76 102 134 170 204 238 293
#     4  11  22  38  54  74 100 132 177 224 258 295
#     4  12  21  34  49  78 109 143 172 199 242 316
#     4  12  22  35  51  74 112 143 172 207 244 300
#     4  12  19  34  55  75 104 138 172 203 260 309
#     4  10  20  31  53  73 102 133 168 203 247 294
#
# _framework density 17.58531
#
# number of rings (size 3 to 8) (size 9 to 14) (size 15 to 20)
#    0.000    0.750    5.000    4.500    0.000    2.000 
#    0.000    0.000    0.000    0.000    0.000    5.250 
#    0.000    0.000    0.000    0.000    0.000    0.000 
#
# Total GULP energy -396950.320157 kJ/mol
# GULP energy per Si atom -12404.697505 kJ/mol
# Density = 1.754528 g / cm^3
# Si number density = 17.585310 Si / 1000 Ang^3
#
#
#
# Elastic Constant Matrix: (Units=GPa)
#
#
# Indices 1 2 3 4 5 6 
#
# 1 78.6976 39.9710 21.6421 0.0000 18.4610 0.0000
# 2 39.9710 90.7981 30.8994 0.0000 16.1801 0.0000
# 3 21.6421 30.8994 100.6045 0.0000 5.1950 0.0000
# 4 0.0000 0.0000 0.0000 26.6936 0.0000 -1.0112
# 5 18.4610 16.1801 5.1950 0.0000 22.5646 0.0000
# 6 0.0000 0.0000 0.0000 -1.0112 0.0000 18.9859
#
#
#
# Elastic Compliance Matrix: (Units=1/GPa)
#
#
# Indices 1 2 3 4 5 6 
#
# 1 0.018580 -0.005690 -0.001695 0.000000 -0.010731 0.000000
# 2 -0.005690 0.015677 -0.003290 0.000000 -0.005828 0.000000
# 3 -0.001695 -0.003290 0.011255 0.000000 0.001155 0.000000
# 4 0.000000 0.000000 0.000000 0.037538 0.000000 0.001999
# 5 -0.010731 -0.005828 0.001155 0.000000 0.057010 0.000000
# 6 0.000000 0.000000 0.000000 0.001999 0.000000 0.052777
#
#
# Mechanical properties :
#
#
# Convention : Reuss Voigt Hill
#
# Bulk Modulus (GPa) = 41.38782 50.56946 45.97864
# Shear Modulus (GPa) = 22.49802 25.48801 23.99302
#
# Velocity S-wave (km/s) = 3.58070 3.81122 3.69776
# Velocity P-wave (km/s) = 6.37823 6.94163 6.66588
#
# Compressibility (1/GPa) = 0.02416170
#
# Stress axis : x y z
#
# Youngs Moduli (GPa) = 53.81992 63.78955 88.84642
#
# Poissons Ratio (x) = 0.36299 0.15061
# Poissons Ratio (y) = 0.30625 0.29229
# Poissons Ratio (z) = 0.09124 0.20985
#
# Static dielectric constant tensor:
#      x y z
#    x 3.287370 0.000000 0.064850 
#    y 0.000000 3.178970 0.000000 
#    z 0.064850 0.000000 3.471330 
# 
# 
# High freq. dielectric constant tensor:
#      x y z
#    x 1.661960 0.000000 -0.005310 
#    y 0.000000 1.657670 0.000000 
#    z -0.005310 0.000000 1.706340 
# 
# From -- ./inp_files/52696.got.cif
#   From: 2010.06.25/outbox.cif.g09.slc.cpg/sg11_27_cif.got.tgz:52696.got - 2010.06.27 23:14:04.
