data_PCOD8071345
_publ_section_title
;
Structure prediction by ZEFSAII (Michael W. Deem and Ramdas Pophale) SiO2 
 PCOD8071345
Probable space group: P 21/M
;
_chemical_formula_sum "Si O2"
_cell_formula_units_Z 32
_cell_length_a 28.570819
_cell_length_b 8.965655
_cell_length_c 20.140203
_cell_angle_alpha 90.000000
_cell_angle_beta 159.274975
_cell_angle_gamma 90.000000
_cell_volume 1825.697104
_symmetry_space_group_name_H-M "P 21/M"
_symmetry_group_IT_number 11
_symmetry_cell_setting 'monoclinic'
loop_
_space_group_symop_operation_xyz
x,y,z
-x,1/2+y,-z
-x,-y,-z
x,1/2-y,z
loop_
_atom_site_type_symbol
_atom_site_label
_atom_site_fract_x
_atom_site_fract_y
_atom_site_fract_z
Si Si1 0.677921 0.421856 0.043271
Si Si2 0.922548 0.074443 0.991410
Si Si3 0.806549 0.422836 0.353295
Si Si4 0.051281 0.922021 0.832577
Si Si5 0.181750 0.576372 0.282749
Si Si6 0.407063 0.575062 0.680817
Si Si7 0.079836 0.927731 0.726001
Si Si8 0.747846 0.576701 0.408488
O O1 0.645996 0.250000 0.985038
O O2 0.710999 0.444637 0.164059
O O3 0.799683 0.478274 0.159984
O O4 0.553826 0.521935 0.858601
O O5 0.941795 0.250000 0.023660
O O6 0.814127 0.034751 0.790889
O O7 0.882693 0.010576 0.012074
O O8 0.064980 0.012559 0.161811
O O9 0.832249 0.250000 0.402906
O O10 0.732483 0.498403 0.316861
O O11 0.945913 0.499634 0.520842
O O12 0.086154 0.750000 0.875003
O O13 0.105439 0.990442 0.835276
O O14 0.894613 0.950031 0.630752
O O15 0.149893 0.750000 0.249416
O O16 0.319268 0.532942 0.499810
O O17 0.404536 0.750000 0.691520
O O18 0.356108 0.492538 0.678623
O O19 0.058569 0.750000 0.697161
O O20 0.714817 0.750000 0.355746
#
# Coordination Sequence:
#
# PCOD8071345 Si02
#       8
#     4   4   4   4   4   4   4   4
#     4  10  22  37  52  70  96 134 174 206 243 298
#     4   9  15  27  48  73 100 129 160 193 240 296
#     4  10  20  34  53  77 100 124 160 209 259 297
#     4   8  14  26  49  76  97 122 158 198 239 286
#     4   9  18  29  44  71 103 130 158 199 244 289
#     4  11  22  34  49  71 102 135 168 207 250 296
#     4   9  18  34  54  76  99 126 166 210 247 290
#     4  10  19  33  52  74 100 132 166 199 246 303
#
# _framework density 17.527552
#
# number of rings (size 3 to 8) (size 9 to 14) (size 15 to 20)
#    0.000    2.500    1.250    2.250    0.000    2.500 
#    0.000    0.000    0.000    0.750    0.000    0.000 
#    0.000    0.000    0.000    0.000    0.000    0.125 
#
# Total GULP energy -396625.177188 kJ/mol
# GULP energy per Si atom -12394.536787 kJ/mol
# Density = 1.748766 g / cm^3
# Si number density = 17.527552 Si / 1000 Ang^3
#
#
#
# Elastic Constant Matrix: (Units=GPa)
#
#
# Indices 1 2 3 4 5 6 
#
# 1 67.6472 27.4846 40.9934 0.0000 -15.6625 0.0000
# 2 27.4846 50.8804 36.9992 0.0000 -2.0715 0.0000
# 3 40.9934 36.9992 87.1731 0.0000 -9.6541 0.0000
# 4 0.0000 0.0000 0.0000 22.2834 0.0000 2.6307
# 5 -15.6625 -2.0715 -9.6541 0.0000 25.7508 0.0000
# 6 0.0000 0.0000 0.0000 2.6307 0.0000 22.7534
#
#
#
# Elastic Compliance Matrix: (Units=1/GPa)
#
#
# Indices 1 2 3 4 5 6 
#
# 1 0.025061 -0.007873 -0.007121 0.000000 0.011940 0.000000
# 2 -0.007873 0.031036 -0.010146 0.000000 -0.006096 0.000000
# 3 -0.007121 -0.010146 0.019360 0.000000 0.002111 0.000000
# 4 0.000000 0.000000 0.000000 0.045497 0.000000 -0.005260
# 5 0.011940 -0.006096 0.002111 0.000000 0.046397 0.000000
# 6 0.000000 0.000000 0.000000 -0.005260 0.000000 0.044558
#
#
# Mechanical properties :
#
#
# Convention : Reuss Voigt Hill
#
# Bulk Modulus (GPa) = 39.71744 46.29501 43.00622
# Shear Modulus (GPa) = 18.47867 20.83908 19.65887
#
# Velocity S-wave (km/s) = 3.25047 3.45183 3.35266
# Velocity P-wave (km/s) = 6.06602 6.50822 6.29100
#
# Compressibility (1/GPa) = 0.02517786
#
# Stress axis : x y z
#
# Youngs Moduli (GPa) = 39.90229 32.22030 51.65267
#
# Poissons Ratio (x) = 0.25367 0.36783
# Poissons Ratio (y) = 0.31415 0.52405
# Poissons Ratio (z) = 0.28415 0.32689
#
# Static dielectric constant tensor:
#      x y z
#    x 3.636570 0.000000 -0.333170 
#    y 0.000000 3.199200 0.000000 
#    z -0.333170 0.000000 3.160070 
# 
# 
# High freq. dielectric constant tensor:
#      x y z
#    x 1.684330 0.000000 -0.022730 
#    y 0.000000 1.669350 0.000000 
#    z -0.022730 0.000000 1.654410 
# 
# From -- ./inp_files/58690.got.cif
#   From: 2010.06.25/outbox.cif.g09.slc.cpg/sg11_30_cif.got.tgz:58690.got - 2010.06.27 23:14:04.
