data_PCOD8071507
_publ_section_title
;
Structure prediction by ZEFSAII (Michael W. Deem and Ramdas Pophale) SiO2 
 PCOD8071507
Probable space group: P 21/M
;
_chemical_formula_sum "Si O2"
_cell_formula_units_Z 20
_cell_length_a 8.846801
_cell_length_b 9.026030
_cell_length_c 23.316939
_cell_angle_alpha 90.000000
_cell_angle_beta 32.275047
_cell_angle_gamma 90.000000
_cell_volume 994.221054
_symmetry_space_group_name_H-M "P 21/M"
_symmetry_group_IT_number 11
_symmetry_cell_setting 'monoclinic'
loop_
_space_group_symop_operation_xyz
x,y,z
-x,1/2+y,-z
-x,-y,-z
x,1/2-y,z
loop_
_atom_site_type_symbol
_atom_site_label
_atom_site_fract_x
_atom_site_fract_y
_atom_site_fract_z
Si Si1 0.670460 0.575289 0.277409
Si Si2 0.791317 0.079905 0.666845
Si Si3 0.560235 0.577068 0.540302
Si Si4 0.942240 0.917441 0.930765
Si Si5 0.568007 0.416560 0.132402
O O1 0.702203 0.750000 0.275680
O O2 0.397499 0.532570 0.326858
O O3 0.639343 0.497733 0.348568
O O4 0.953723 0.512198 0.157026
O O5 0.733165 0.250000 0.701256
O O6 0.114385 0.049835 0.546660
O O7 0.710413 0.986618 0.749330
O O8 0.500000 0.500000 0.500000
O O9 0.488372 0.750000 0.559116
O O10 0.875220 0.750000 0.932901
O O11 0.180503 0.919847 0.902713
O O12 0.657293 0.991069 0.047446
O O13 0.496769 0.250000 0.136076
#
# Coordination Sequence:
#
# PCOD8071507 Si02
#       5
#     4   4   4   4   4
#     4  10  19  33  54  79 105 134 171 214 257 302
#     4   9  19  34  53  77 105 136 171 212 256 304
#     4  11  23  38  54  74 102 137 175 214 259 308
#     4   9  16  27  45  72 106 138 167 204 251 301
#     4   9  16  26  45  74 105 135 168 207 251 299
#
# _framework density 20.116250000000001
#
# number of rings (size 3 to 8) (size 9 to 14) (size 15 to 20)
#    0.000    2.400    0.000    3.000    0.000    7.200 
#    0.000    0.000    0.000    1.200    0.000    0.000 
#    0.000    0.000    0.000    0.000    0.000    0.000 
#
# Total GULP energy -248045.733923 kJ/mol
# GULP energy per Si atom -12402.286696 kJ/mol
# Density = 2.007046 g / cm^3
# Si number density = 20.116250 Si / 1000 Ang^3
#
#
#
# Elastic Constant Matrix: (Units=GPa)
#
#
# Indices 1 2 3 4 5 6 
#
# 1 51.7879 36.4112 27.4074 0.0000 28.4831 0.0000
# 2 36.4112 143.6523 63.5142 0.0000 31.0453 0.0000
# 3 27.4074 63.5142 101.7390 0.0000 46.8122 0.0000
# 4 0.0000 0.0000 0.0000 41.7560 0.0000 11.1811
# 5 28.4831 31.0453 46.8122 0.0000 30.1688 0.0000
# 6 0.0000 0.0000 0.0000 11.1811 0.0000 24.5861
#
#
#
# Elastic Compliance Matrix: (Units=1/GPa)
#
#
# Indices 1 2 3 4 5 6 
#
# 1 0.078402 -0.012070 0.051594 0.000000 -0.141658 0.000000
# 2 -0.012070 0.011509 -0.013031 0.000000 0.019772 0.000000
# 3 0.051594 -0.013031 0.070997 0.000000 -0.145467 0.000000
# 4 0.000000 0.000000 0.000000 0.027269 0.000000 -0.012401
# 5 -0.141658 0.019772 -0.145467 0.000000 0.372261 0.000000
# 6 0.000000 0.000000 0.000000 -0.012401 0.000000 0.046313
#
#
# Mechanical properties :
#
#
# Convention : Reuss Voigt Hill
#
# Bulk Modulus (GPa) = 4.67518 61.31608 32.99563
# Shear Modulus (GPa) = 7.99919 30.62529 19.31224
#
# Velocity S-wave (km/s) = 1.99628 3.90605 3.10180
# Velocity P-wave (km/s) = 2.76453 7.13372 5.40983
#
# Compressibility (1/GPa) = 0.21389572
#
# Stress axis : x y z
#
# Youngs Moduli (GPa) = 12.75478 86.88801 14.08501
#
# Poissons Ratio (x) = 1.04873 -0.72671
# Poissons Ratio (y) = 0.15395 0.18354
# Poissons Ratio (z) = -0.65807 1.13221
#
# Static dielectric constant tensor:
#      x y z
#    x 3.299160 0.000000 0.111380 
#    y 0.000000 3.783930 0.000000 
#    z 0.111380 0.000000 3.750610 
# 
# 
# High freq. dielectric constant tensor:
#      x y z
#    x 1.738490 0.000000 0.020750 
#    y 0.000000 1.798050 0.000000 
#    z 0.020750 0.000000 1.792740 
# 
# From -- ./inp_files/15951.got.cif
#   From: 2010.06.25/outbox.cif.g09.slc.cpg/sg11_8_cif.got.tgz:15951.got - 2010.06.27 23:14:04.
