data_PCOD8071786
_publ_section_title
;
Structure prediction by ZEFSAII (Michael W. Deem and Ramdas Pophale) SiO2 
 PCOD8071786
Probable space group: P 21/M
;
_chemical_formula_sum "Si O2"
_cell_formula_units_Z 28
_cell_length_a 18.783030
_cell_length_b 15.290629
_cell_length_c 9.542699
_cell_angle_alpha 90.000000
_cell_angle_beta 147.170870
_cell_angle_gamma 90.000000
_cell_volume 1485.833248
_symmetry_space_group_name_H-M "P 21/M"
_symmetry_group_IT_number 11
_symmetry_cell_setting 'monoclinic'
loop_
_space_group_symop_operation_xyz
x,y,z
-x,1/2+y,-z
-x,-y,-z
x,1/2-y,z
loop_
_atom_site_type_symbol
_atom_site_label
_atom_site_fract_x
_atom_site_fract_y
_atom_site_fract_z
Si Si1 0.201337 0.542302 0.615747
Si Si2 0.498251 0.105202 0.698085
Si Si3 0.410220 0.651437 0.845272
Si Si4 0.275708 0.347855 0.131514
Si Si5 0.410865 0.421633 0.095595
Si Si6 0.933428 0.501228 0.238172
Si Si7 0.225336 0.849689 0.927187
O O1 0.285096 0.585105 0.627202
O O2 0.279085 0.460340 0.808504
O O3 0.055697 0.508725 0.329973
O O4 0.187043 0.619202 0.707870
O O5 0.616930 0.142166 0.797502
O O6 0.513179 0.137090 0.882450
O O7 0.360337 0.138883 0.412284
O O8 0.499848 0.999928 0.696355
O O9 0.357960 0.750000 0.748714
O O10 0.509515 0.634498 0.884051
O O11 0.217571 0.250000 0.034760
O O12 0.370522 0.359042 0.155275
O O13 0.156334 0.414717 0.931285
O O14 0.000000 0.500000 0.500000
O O15 0.847868 0.412330 0.079676
O O16 0.180095 0.750000 0.877750
#
# Coordination Sequence:
#
# PCOD8071786 Si02
#       7
#     4   4   4   4   4   4   4
#     4   9  17  33  50  73 107 142 185 219 267 327
#     4  10  19  35  54  79 115 145 181 226 283 336
#     4  10  19  34  57  83 106 144 190 226 273 333
#     4  12  22  33  54  88 115 142 181 236 287 325
#     4  10  19  35  56  79 112 144 181 232 278 328
#     4  10  19  34  48  77 111 144 181 226 270 328
#     4   9  16  29  50  73 102 142 181 221 270 327
#
# _framework density 18.844645
#
# number of rings (size 3 to 8) (size 9 to 14) (size 15 to 20)
#    0.000    2.286    4.286    5.143    0.000    2.857 
#    0.000    0.000    0.000    3.429    0.000    0.000 
#    0.000    0.000    0.000    0.000    0.000    0.000 
#
# Total GULP energy -347027.343296 kJ/mol
# GULP energy per Si atom -12393.833689 kJ/mol
# Density = 1.880175 g / cm^3
# Si number density = 18.844645 Si / 1000 Ang^3
#
#
#
# Elastic Constant Matrix: (Units=GPa)
#
#
# Indices 1 2 3 4 5 6 
#
# 1 77.0503 6.4763 24.7798 0.0000 10.5743 0.0000
# 2 6.4763 92.1267 13.7663 0.0000 9.4056 0.0000
# 3 24.7798 13.7663 47.2453 0.0000 16.8345 0.0000
# 4 0.0000 0.0000 0.0000 12.4263 0.0000 -1.9855
# 5 10.5743 9.4056 16.8345 0.0000 15.6611 0.0000
# 6 0.0000 0.0000 0.0000 -1.9855 0.0000 17.8992
#
#
#
# Elastic Compliance Matrix: (Units=1/GPa)
#
#
# Indices 1 2 3 4 5 6 
#
# 1 0.015696 0.000284 -0.007258 0.000000 -0.002966 0.000000
# 2 0.000284 0.011630 -0.001589 0.000000 -0.005468 0.000000
# 3 -0.007258 -0.001589 0.037845 0.000000 -0.034825 0.000000
# 4 0.000000 0.000000 0.000000 0.081926 0.000000 0.009088
# 5 -0.002966 -0.005468 -0.034825 0.000000 0.106574 0.000000
# 6 0.000000 0.000000 0.000000 0.009088 0.000000 0.056876
#
#
# Mechanical properties :
#
#
# Convention : Reuss Voigt Hill
#
# Bulk Modulus (GPa) = 20.81409 34.05191 27.43300
# Shear Modulus (GPa) = 14.54799 20.62399 17.58599
#
# Velocity S-wave (km/s) = 2.78150 3.31179 3.05816
# Velocity P-wave (km/s) = 4.62436 5.72128 5.20181
#
# Compressibility (1/GPa) = 0.04804437
#
# Stress axis : x y z
#
# Youngs Moduli (GPa) = 63.71029 85.98147 26.42352
#
# Poissons Ratio (x) = -0.02442 0.19179
# Poissons Ratio (y) = -0.01810 0.04200
# Poissons Ratio (z) = 0.46242 0.13666
#
# Static dielectric constant tensor:
#      x y z
#    x 3.703280 0.000000 0.488160 
#    y 0.000000 3.565840 0.000000 
#    z 0.488160 0.000000 3.323590 
# 
# 
# High freq. dielectric constant tensor:
#      x y z
#    x 1.714240 0.000000 0.025380 
#    y 0.000000 1.739140 0.000000 
#    z 0.025380 0.000000 1.695900 
# 
# From -- ./inp_files/26939.got.cif
#   From: 2010.06.25/outbox.cif.g09.slc.cpg/sg11_14_cif.got.tgz:26939.got - 2010.06.27 23:14:04.
