data_PCOD8071370
_publ_section_title
;
Structure prediction by ZEFSAII (Michael W. Deem and Ramdas Pophale) SiO2 
 PCOD8071370
Probable space group: P 21/M
;
_chemical_formula_sum "Si O2"
_cell_formula_units_Z 28
_cell_length_a 19.819613
_cell_length_b 9.038309
_cell_length_c 18.095133
_cell_angle_alpha 90.000000
_cell_angle_beta 28.664469
_cell_angle_gamma 90.000000
_cell_volume 1554.874191
_symmetry_space_group_name_H-M "P 21/M"
_symmetry_group_IT_number 11
_symmetry_cell_setting 'monoclinic'
loop_
_space_group_symop_operation_xyz
x,y,z
-x,1/2+y,-z
-x,-y,-z
x,1/2-y,z
loop_
_atom_site_type_symbol
_atom_site_label
_atom_site_fract_x
_atom_site_fract_y
_atom_site_fract_z
Si Si1 0.928138 0.084131 0.169785
Si Si2 0.467459 0.076067 0.608253
Si Si3 0.662474 0.576760 0.692177
Si Si4 0.589792 0.080359 0.973554
Si Si5 0.694381 0.080471 0.509446
Si Si6 0.192171 0.918770 0.871669
Si Si7 0.151475 0.925162 0.361021
O O1 0.991143 0.250000 0.103325
O O2 0.845171 0.063431 0.325522
O O3 0.823490 0.058616 0.201358
O O4 0.051448 0.964656 0.049879
O O5 0.473128 0.250000 0.590140
O O6 0.576387 0.025730 0.565961
O O7 0.500000 0.000000 0.500000
O O8 0.315489 0.023672 0.782501
O O9 0.697757 0.750000 0.666191
O O10 0.694152 0.525377 0.579527
O O11 0.764175 0.487674 0.649667
O O12 0.493357 0.547386 0.869649
O O13 0.577332 0.250000 0.965130
O O14 0.755538 0.037423 0.803408
O O15 0.500000 0.000000 0.000000
O O16 0.667659 0.250000 0.559284
O O17 0.227209 0.750000 0.857776
O O18 0.129709 0.750000 0.391978
O O19 0.000000 0.000000 0.500000
#
# Coordination Sequence:
#
# PCOD8071370 Si02
#       7
#     4   4   4   4   4   4   4
#     4   9  18  34  52  73 102 137 174 218 269 324
#     4  11  21  35  54  77 104 137 179 228 275 322
#     4  10  20  35  55  81 109 140 179 220 266 321
#     4   8  16  31  52  77 106 137 172 212 254 305
#     4  10  21  37  54  76 108 142 178 221 273 326
#     4  10  19  33  52  77 102 131 175 224 272 324
#     4  10  19  34  57  84 112 144 178 218 263 310
#
# _framework density 18.007888000000001
#
# number of rings (size 3 to 8) (size 9 to 14) (size 15 to 20)
#    0.000    2.286    1.429    1.714    0.000    3.429 
#    0.000    1.429    0.000    3.429    0.000    0.000 
#    0.000    0.000    0.000    0.000    0.000    0.000 
#
# Total GULP energy -346986.673021 kJ/mol
# GULP energy per Si atom -12392.381179 kJ/mol
# Density = 1.796690 g / cm^3
# Si number density = 18.007888 Si / 1000 Ang^3
#
#
#
# Elastic Constant Matrix: (Units=GPa)
#
#
# Indices 1 2 3 4 5 6 
#
# 1 70.4260 39.1985 49.2429 0.0000 -1.6527 0.0000
# 2 39.1985 71.8062 47.2944 0.0000 -2.7578 0.0000
# 3 49.2429 47.2944 120.0201 0.0000 -1.9626 0.0000
# 4 0.0000 0.0000 0.0000 32.6539 0.0000 -1.8635
# 5 -1.6527 -2.7578 -1.9626 0.0000 26.6570 0.0000
# 6 0.0000 0.0000 0.0000 -1.8635 0.0000 29.1733
#
#
#
# Elastic Compliance Matrix: (Units=1/GPa)
#
#
# Indices 1 2 3 4 5 6 
#
# 1 0.023336 -0.008684 -0.006151 0.000000 0.000096 0.000000
# 2 -0.008684 0.022092 -0.005120 0.000000 0.001370 0.000000
# 3 -0.006151 -0.005120 0.012874 0.000000 0.000037 0.000000
# 4 0.000000 0.000000 0.000000 0.030736 0.000000 0.001963
# 5 0.000096 0.001370 0.000037 0.000000 0.037664 0.000000
# 6 0.000000 0.000000 0.000000 0.001963 0.000000 0.034403
#
#
# Mechanical properties :
#
#
# Convention : Reuss Voigt Hill
#
# Bulk Modulus (GPa) = 54.37280 59.30266 56.83773
# Shear Modulus (GPa) = 24.13771 26.13129 25.13450
#
# Velocity S-wave (km/s) = 3.66511 3.81347 3.74003
# Velocity P-wave (km/s) = 6.94047 7.23830 7.09095
#
# Compressibility (1/GPa) = 0.01839155
#
# Stress axis : x y z
#
# Youngs Moduli (GPa) = 42.85278 45.26589 77.67739
#
# Poissons Ratio (x) = 0.39308 0.47779
# Poissons Ratio (y) = 0.37213 0.39771
# Poissons Ratio (z) = 0.26358 0.23176
#
# Static dielectric constant tensor:
#      x y z
#    x 3.026640 0.000000 -0.054730 
#    y 0.000000 3.418930 0.000000 
#    z -0.054730 0.000000 3.813740 
# 
# 
# High freq. dielectric constant tensor:
#      x y z
#    x 1.656990 0.000000 -0.006130 
#    y 0.000000 1.707650 0.000000 
#    z -0.006130 0.000000 1.714610 
# 
# From -- ./inp_files/61244.got.cif
#   From: 2010.06.25/outbox.cif.g09.slc.cpg/sg11_31_cif.got.tgz:61244.got - 2010.06.27 23:14:04.
