data_PCOD8071347
_publ_section_title
;
Structure prediction by ZEFSAII (Michael W. Deem and Ramdas Pophale) SiO2 
 PCOD8071347
Probable space group: P 21/M
;
_chemical_formula_sum "Si O2"
_cell_formula_units_Z 32
_cell_length_a 19.851467
_cell_length_b 11.118393
_cell_length_c 15.316296
_cell_angle_alpha 90.000000
_cell_angle_beta 149.634137
_cell_angle_gamma 90.000000
_cell_volume 1708.938903
_symmetry_space_group_name_H-M "P 21/M"
_symmetry_group_IT_number 11
_symmetry_cell_setting 'monoclinic'
loop_
_space_group_symop_operation_xyz
x,y,z
-x,1/2+y,-z
-x,-y,-z
x,1/2-y,z
loop_
_atom_site_type_symbol
_atom_site_label
_atom_site_fract_x
_atom_site_fract_y
_atom_site_fract_z
Si Si1 0.937816 0.386013 0.269654
Si Si2 0.364978 0.382491 0.304648
Si Si3 0.517119 0.886038 0.208568
Si Si4 0.727401 0.112683 0.178402
Si Si5 0.169015 0.884705 0.361353
Si Si6 0.226833 0.027673 0.594963
Si Si7 0.877992 0.606979 0.075312
Si Si8 0.598980 0.493465 0.476133
O O1 0.905685 0.250000 0.194198
O O2 0.867238 0.395870 0.284335
O O3 0.889164 0.504346 0.162434
O O4 0.096680 0.389943 0.460834
O O5 0.310939 0.250000 0.245276
O O6 0.502379 0.389252 0.403966
O O7 0.387698 0.414118 0.430282
O O8 0.242718 0.447123 0.118069
O O9 0.485404 0.750000 0.197941
O O10 0.527608 0.954450 0.311468
O O11 0.650811 0.891213 0.300652
O O12 0.392242 0.939581 0.015388
O O13 0.695955 0.250000 0.170345
O O14 0.733768 0.032315 0.270681
O O15 0.219270 0.750000 0.410526
O O16 0.200389 0.924901 0.494467
O O17 0.012052 0.899167 0.166914
O O18 0.251441 0.954648 0.379824
O O19 0.861146 0.750000 0.089260
#
# Coordination Sequence:
#
# PCOD8071347 Si02
#       8
#     4   4   4   4   4   4   4   4
#     4  10  20  35  55  80 110 140 175 219 265 312
#     4  10  20  35  54  77 105 135 173 216 261 317
#     4  10  20  34  51  73 103 136 172 216 265 312
#     4  10  20  33  51  75 104 138 177 220 262 309
#     4   9  18  33  52  73 100 134 173 215 261 313
#     4  10  19  33  52  74 102 137 176 214 260 311
#     4   9  19  36  56  78 107 142 177 216 262 314
#     4  10  20  33  53  76 102 135 171 214 265 314
#
# _framework density 18.725069000000001
#
# number of rings (size 3 to 8) (size 9 to 14) (size 15 to 20)
#    0.000    2.250    0.000    3.000    0.000    1.000 
#    0.000    5.000    0.000    6.000    0.000    0.000 
#    0.000    0.000    0.000    0.000    0.000    0.000 
#
# Total GULP energy -396460.311135 kJ/mol
# GULP energy per Si atom -12389.384723 kJ/mol
# Density = 1.868245 g / cm^3
# Si number density = 18.725069 Si / 1000 Ang^3
#
#
#
# Elastic Constant Matrix: (Units=GPa)
#
#
# Indices 1 2 3 4 5 6 
#
# 1 101.2436 25.9009 25.9291 0.0000 -8.3727 0.0000
# 2 25.9009 71.6192 9.8385 0.0000 -16.4693 0.0000
# 3 25.9291 9.8385 48.6934 0.0000 -22.0329 0.0000
# 4 0.0000 0.0000 0.0000 21.8327 0.0000 4.6328
# 5 -8.3727 -16.4693 -22.0329 0.0000 13.9546 0.0000
# 6 0.0000 0.0000 0.0000 4.6328 0.0000 -1.6479
#
#
#
# Elastic Compliance Matrix: (Units=1/GPa)
#
#
# Indices 1 2 3 4 5 6 
#
# 1 0.017792 -0.016408 -0.035335 0.000000 -0.064480 0.000000
# 2 -0.016408 0.045080 0.067400 0.000000 0.149776 0.000000
# 3 -0.035335 0.067400 0.182558 0.000000 0.346585 0.000000
# 4 0.000000 0.000000 0.000000 0.028689 0.000000 0.080653
# 5 -0.064480 0.149776 0.346585 0.000000 0.756960 0.000000
# 6 0.000000 0.000000 0.000000 0.080653 0.000000 -0.380093
#
#
# Mechanical properties :
#
#
# Convention : Reuss Voigt Hill
#
# Bulk Modulus (GPa) = 3.61346 38.32148 20.96747
# Shear Modulus (GPa) = 7.02326 17.48706 12.25516
#
# Velocity S-wave (km/s) = 1.93878 3.05927 2.56105
# Velocity P-wave (km/s) = 2.63548 5.74357 4.46846
#
# Compressibility (1/GPa) = 0.27674324
#
# Stress axis : x y z
#
# Youngs Moduli (GPa) = 56.20525 22.18298 5.47770
#
# Poissons Ratio (x) = 0.36398 0.19356
# Poissons Ratio (y) = 0.92221 -0.36920
# Poissons Ratio (z) = 1.98602 -1.49513
#
# Static dielectric constant tensor:
#      x y z
#    x 3.391570 0.000000 0.194870 
#    y 0.000000 3.483420 0.000000 
#    z 0.194870 0.000000 3.588710 
# 
# 
# High freq. dielectric constant tensor:
#      x y z
#    x 1.724900 0.000000 0.014940 
#    y 0.000000 1.722090 0.000000 
#    z 0.014940 0.000000 1.735720 
# 
# From -- ./inp_files/21551.got.cif
#   From: 2010.06.25/outbox.cif.g09.slc.cpg/sg11_11_cif.got.tgz:21551.got - 2010.06.27 23:14:04.
