data_PCOD8071633
_publ_section_title
;
Structure prediction by ZEFSAII (Michael W. Deem and Ramdas Pophale) SiO2 
 PCOD8071633
Probable space group: P 21/M
;
_chemical_formula_sum "Si O2"
_cell_formula_units_Z 28
_cell_length_a 9.746496
_cell_length_b 9.017513
_cell_length_c 27.624649
_cell_angle_alpha 90.000000
_cell_angle_beta 141.957480
_cell_angle_gamma 90.000000
_cell_volume 1496.188244
_symmetry_space_group_name_H-M "P 21/M"
_symmetry_group_IT_number 11
_symmetry_cell_setting 'monoclinic'
loop_
_space_group_symop_operation_xyz
x,y,z
-x,1/2+y,-z
-x,-y,-z
x,1/2-y,z
loop_
_atom_site_type_symbol
_atom_site_label
_atom_site_fract_x
_atom_site_fract_y
_atom_site_fract_z
Si Si1 0.853638 0.575017 0.500536
Si Si2 0.954417 0.924573 0.190974
Si Si3 0.723733 0.081590 0.048370
Si Si4 0.663404 0.424231 0.189146
Si Si5 0.935314 0.922273 0.631469
Si Si6 0.649988 0.423209 0.630726
Si Si7 0.774745 0.418879 0.948919
O O1 0.875504 0.750000 0.499929
O O2 0.940050 0.523310 0.577308
O O3 0.597266 0.522316 0.424636
O O4 0.000000 0.500000 0.500000
O O5 0.912651 0.750000 0.176229
O O6 0.194519 0.963258 0.280259
O O7 0.933098 0.998119 0.132064
O O8 0.759302 0.995327 0.168723
O O9 0.715405 0.250000 0.064737
O O10 0.749728 0.073839 0.998933
O O11 0.500000 0.000000 0.000000
O O12 0.641125 0.250000 0.172844
O O13 0.423525 0.494606 0.133611
O O14 0.822897 0.457405 0.279080
O O15 0.877067 0.750000 0.617873
O O16 0.739231 0.001273 0.606750
O O17 0.651973 0.250000 0.620160
O O18 0.778915 0.250000 0.931229
O O19 0.000000 0.500000 0.000000
#
# Coordination Sequence:
#
# PCOD8071633 Si02
#       7
#     4   4   4   4   4   4   4
#     4  10  21  38  56  80 115 149 182 223 271 327
#     4  10  19  33  55  84 114 143 183 231 277 324
#     4  11  22  36  58  84 111 145 186 229 276 329
#     4  10  19  34  57  82 112 145 183 230 278 326
#     4   9  19  35  58  85 110 141 184 229 273 324
#     4   9  19  35  57  83 112 143 183 230 271 322
#     4  11  24  40  57  80 111 148 189 230 277 332
#
# _framework density 18.714223
#
# number of rings (size 3 to 8) (size 9 to 14) (size 15 to 20)
#    0.000    2.000    1.429    2.143    0.000    4.000 
#    2.571    0.000    0.000    0.000    0.000    0.000 
#    0.000    0.000    0.000    0.000    0.000    0.000 
#
# Total GULP energy -347230.754936 kJ/mol
# GULP energy per Si atom -12401.098391 kJ/mol
# Density = 1.867163 g / cm^3
# Si number density = 18.714223 Si / 1000 Ang^3
#
#
#
# Elastic Constant Matrix: (Units=GPa)
#
#
# Indices 1 2 3 4 5 6 
#
# 1 100.6411 52.0581 64.7094 0.0000 14.6166 0.0000
# 2 52.0581 100.2197 57.6883 0.0000 5.3705 0.0000
# 3 64.7094 57.6883 137.8382 0.0000 10.0352 0.0000
# 4 0.0000 0.0000 0.0000 29.2000 0.0000 0.0434
# 5 14.6166 5.3705 10.0352 0.0000 31.9516 0.0000
# 6 0.0000 0.0000 0.0000 0.0434 0.0000 33.3468
#
#
#
# Elastic Compliance Matrix: (Units=1/GPa)
#
#
# Indices 1 2 3 4 5 6 
#
# 1 0.016904 -0.005470 -0.005271 0.000000 -0.005158 0.000000
# 2 -0.005470 0.014923 -0.003763 0.000000 0.001176 0.000000
# 3 -0.005271 -0.003763 0.011342 0.000000 -0.000519 0.000000
# 4 0.000000 0.000000 0.000000 0.034247 0.000000 -0.000045
# 5 -0.005158 0.001176 -0.000519 0.000000 0.033622 0.000000
# 6 0.000000 0.000000 0.000000 -0.000045 0.000000 0.029988
#
#
# Mechanical properties :
#
#
# Convention : Reuss Voigt Hill
#
# Bulk Modulus (GPa) = 70.61919 76.40120 73.51019
# Shear Modulus (GPa) = 28.61178 29.84924 29.23051
#
# Velocity S-wave (km/s) = 3.91433 3.99808 3.95643
# Velocity P-wave (km/s) = 7.63196 7.88839 7.76123
#
# Compressibility (1/GPa) = 0.01416046
#
# Stress axis : x y z
#
# Youngs Moduli (GPa) = 59.15782 67.01260 88.16829
#
# Poissons Ratio (x) = 0.36657 0.46472
# Poissons Ratio (y) = 0.32361 0.33178
# Poissons Ratio (z) = 0.31181 0.25217
#
# Static dielectric constant tensor:
#      x y z
#    x 3.103120 0.000000 -0.048780 
#    y 0.000000 3.590760 0.000000 
#    z -0.048780 0.000000 3.907900 
# 
# 
# High freq. dielectric constant tensor:
#      x y z
#    x 1.703160 0.000000 -0.001680 
#    y 0.000000 1.734180 0.000000 
#    z -0.001680 0.000000 1.745720 
# 
# From -- ./inp_files/28436.got.cif
#   From: 2010.06.25/outbox.cif.g09.slc.cpg/sg11_15_cif.got.tgz:28436.got - 2010.06.27 23:14:04.
