data_PCOD8071256
_publ_section_title
;
Structure prediction by ZEFSAII (Michael W. Deem and Ramdas Pophale) SiO2 
 PCOD8071256
Probable space group: P 21/M
;
_chemical_formula_sum "Si O2"
_cell_formula_units_Z 32
_cell_length_a 28.044543
_cell_length_b 8.749267
_cell_length_c 22.081853
_cell_angle_alpha 90.000000
_cell_angle_beta 18.495102
_cell_angle_gamma 90.000000
_cell_volume 1718.782895
_symmetry_space_group_name_H-M "P 21/M"
_symmetry_group_IT_number 11
_symmetry_cell_setting 'monoclinic'
loop_
_space_group_symop_operation_xyz
x,y,z
-x,1/2+y,-z
-x,-y,-z
x,1/2-y,z
loop_
_atom_site_type_symbol
_atom_site_label
_atom_site_fract_x
_atom_site_fract_y
_atom_site_fract_z
Si Si1 0.769032 0.927759 0.792630
Si Si2 0.691140 0.925289 0.228034
Si Si3 0.990285 0.927227 0.416055
Si Si4 0.829020 0.070882 0.501903
Si Si5 0.519099 0.930699 0.910975
Si Si6 0.115953 0.071852 0.813332
Si Si7 0.628119 0.426710 0.428075
Si Si8 0.022396 0.574769 0.803182
O O1 0.755511 0.750000 0.824796
O O2 0.856419 0.954529 0.624776
O O3 0.853167 0.012496 0.745856
O O4 0.604981 0.000989 0.984706
O O5 0.674843 0.750000 0.269948
O O6 0.549599 0.967439 0.355610
O O7 0.694999 0.032588 0.281902
O O8 0.844347 0.951177 0.006499
O O9 0.006297 0.750000 0.380029
O O10 0.953869 0.024608 0.400548
O O11 0.792912 0.250000 0.551541
O O12 0.892737 0.027161 0.359727
O O13 0.680374 0.971981 0.690070
O O14 0.501125 0.750000 0.937188
O O15 0.500000 0.000000 0.000000
O O16 0.101759 0.250000 0.838445
O O17 0.285964 0.020523 0.623643
O O18 0.081413 0.028578 0.786272
O O19 0.000000 0.000000 0.000000
O O20 0.658203 0.250000 0.404369
O O21 0.054522 0.750000 0.781662
#
# Coordination Sequence:
#
# PCOD8071256 Si02
#       8
#     4   4   4   4   4   4   4   4
#     4  10  20  35  58  87 117 149 190 241 292 343
#     4   9  18  34  56  82 113 146 187 234 282 340
#     4  10  20  35  57  85 117 152 191 239 289 345
#     4  11  23  39  60  85 118 158 199 241 293 356
#     4  12  23  37  59  87 119 154 196 245 297 350
#     4  12  23  36  57  85 116 153 195 244 293 346
#     4  10  19  32  55  86 114 145 186 237 289 338
#     4  10  22  40  60  84 115 155 196 239 290 352
#
# _framework density 18.617826000000001
#
# number of rings (size 3 to 8) (size 9 to 14) (size 15 to 20)
#    0.000    1.500    2.500    3.750    0.000    2.500 
#    0.000    1.250    0.000    6.000    0.000    0.000 
#    0.000    0.000    0.000    0.000    0.000    0.000 
#
# Total GULP energy -396930.429548 kJ/mol
# GULP energy per Si atom -12404.075923 kJ/mol
# Density = 1.857545 g / cm^3
# Si number density = 18.617826 Si / 1000 Ang^3
#
#
#
# Elastic Constant Matrix: (Units=GPa)
#
#
# Indices 1 2 3 4 5 6 
#
# 1 105.9487 38.5758 50.9805 0.0000 -14.5418 0.0000
# 2 38.5758 87.5150 29.2268 0.0000 -2.5200 0.0000
# 3 50.9805 29.2268 101.0563 0.0000 -10.3139 0.0000
# 4 0.0000 0.0000 0.0000 27.5347 0.0000 -6.0639
# 5 -14.5418 -2.5200 -10.3139 0.0000 31.2110 0.0000
# 6 0.0000 0.0000 0.0000 -6.0639 0.0000 34.6699
#
#
#
# Elastic Compliance Matrix: (Units=1/GPa)
#
#
# Indices 1 2 3 4 5 6 
#
# 1 0.014272 -0.004328 -0.005490 0.000000 0.004486 0.000000
# 2 -0.004328 0.013962 -0.002013 0.000000 -0.001555 0.000000
# 3 -0.005490 -0.002013 0.013422 0.000000 0.001715 0.000000
# 4 0.000000 0.000000 0.000000 0.037773 0.000000 0.006607
# 5 0.004486 -0.001555 0.001715 0.000000 0.034571 0.000000
# 6 0.000000 0.000000 0.000000 0.006607 0.000000 0.029999
#
#
# Mechanical properties :
#
#
# Convention : Reuss Voigt Hill
#
# Bulk Modulus (GPa) = 55.57684 59.12069 57.34876
# Shear Modulus (GPa) = 28.79184 30.39892 29.59538
#
# Velocity S-wave (km/s) = 3.93678 4.04516 3.99134
# Velocity P-wave (km/s) = 7.11200 7.32404 7.21880
#
# Compressibility (1/GPa) = 0.01799311
#
# Stress axis : x y z
#
# Youngs Moduli (GPa) = 70.06768 71.62288 74.50211
#
# Poissons Ratio (x) = 0.31000 0.40903
# Poissons Ratio (y) = 0.30327 0.14999
# Poissons Ratio (z) = 0.38469 0.14419
#
# Static dielectric constant tensor:
#      x y z
#    x 3.433710 0.000000 -0.256930 
#    y 0.000000 3.572370 0.000000 
#    z -0.256930 0.000000 3.512960 
# 
# 
# High freq. dielectric constant tensor:
#      x y z
#    x 1.715430 0.000000 -0.026970 
#    y 0.000000 1.735140 0.000000 
#    z -0.026970 0.000000 1.713780 
# 
# From -- ./inp_files/67020.got.cif
#   From: 2010.06.25/outbox.cif.g09.slc.cpg/sg11_34_cif.got.tgz:67020.got - 2010.06.27 23:14:04.
