data_PCOD8071962
_publ_section_title
;
Structure prediction by ZEFSAII (Michael W. Deem and Ramdas Pophale) SiO2 
 PCOD8071962
Probable space group: P 21/M
;
_chemical_formula_sum "Si O2"
_cell_formula_units_Z 28
_cell_length_a 13.785323
_cell_length_b 8.737339
_cell_length_c 16.319926
_cell_angle_alpha 90.000000
_cell_angle_beta 48.514026
_cell_angle_gamma 90.000000
_cell_volume 1472.531171
_symmetry_space_group_name_H-M "P 21/M"
_symmetry_group_IT_number 11
_symmetry_cell_setting 'monoclinic'
loop_
_space_group_symop_operation_xyz
x,y,z
-x,1/2+y,-z
-x,-y,-z
x,1/2-y,z
loop_
_atom_site_type_symbol
_atom_site_label
_atom_site_fract_x
_atom_site_fract_y
_atom_site_fract_z
Si Si1 0.474031 0.569748 0.263833
Si Si2 0.269198 0.567866 0.938106
Si Si3 0.830698 0.426931 0.177176
Si Si4 0.059355 0.067746 0.160061
Si Si5 0.794637 0.927526 0.606460
Si Si6 0.990985 0.071809 0.380371
Si Si7 0.450603 0.927848 0.610209
O O1 0.491483 0.750000 0.251412
O O2 0.584705 0.494312 0.145400
O O3 0.335399 0.522822 0.305399
O O4 0.481072 0.511835 0.352833
O O5 0.275825 0.750000 0.934249
O O6 0.191918 0.503854 0.901004
O O7 0.197227 0.505285 0.058811
O O8 0.861031 0.250000 0.149900
O O9 0.703132 0.453463 0.302609
O O10 0.951773 0.500835 0.157407
O O11 0.069657 0.250000 0.150860
O O12 0.022221 0.013426 0.271721
O O13 0.759749 0.750000 0.617912
O O14 0.884102 0.962472 0.634396
O O15 0.867143 0.980119 0.483083
O O16 0.954371 0.250000 0.401990
O O17 0.486963 0.750000 0.595025
O O18 0.500000 0.000000 0.500000
#
# Coordination Sequence:
#
# PCOD8071962 Si02
#       7
#     4   4   4   4   4   4   4
#     4  11  22  37  58  79 104 147 189 228 279 333
#     4  10  20  36  54  79 112 145 182 228 274 325
#     4   8  17  32  51  75 109 147 180 216 263 318
#     4  10  19  34  56  81 109 144 184 223 267 328
#     4  10  20  37  58  82 112 143 180 230 282 334
#     4   9  20  36  57  84 113 144 180 225 278 335
#     4  10  20  34  51  80 115 148 183 226 271 325
#
# _framework density 19.014878
#
# number of rings (size 3 to 8) (size 9 to 14) (size 15 to 20)
#    0.000    2.286    0.000    3.857    2.000    1.143 
#    0.000    4.286    0.000    0.000    0.000    0.000 
#    0.000    0.000    0.000    0.000    0.000    0.000 
#
# Total GULP energy -347236.416895 kJ/mol
# GULP energy per Si atom -12401.300603 kJ/mol
# Density = 1.897160 g / cm^3
# Si number density = 19.014878 Si / 1000 Ang^3
#
#
#
# Elastic Constant Matrix: (Units=GPa)
#
#
# Indices 1 2 3 4 5 6 
#
# 1 68.7190 28.4675 48.5977 0.0000 -11.5802 0.0000
# 2 28.4675 77.9656 40.7490 0.0000 -3.2961 0.0000
# 3 48.5977 40.7490 122.9272 0.0000 -1.6077 0.0000
# 4 0.0000 0.0000 0.0000 35.3962 0.0000 -2.3349
# 5 -11.5802 -3.2961 -1.6077 0.0000 24.8206 0.0000
# 6 0.0000 0.0000 0.0000 -2.3349 0.0000 23.9558
#
#
#
# Elastic Compliance Matrix: (Units=1/GPa)
#
#
# Indices 1 2 3 4 5 6 
#
# 1 0.023396 -0.004062 -0.007774 0.000000 0.009873 0.000000
# 2 -0.004062 0.016294 -0.003795 0.000000 0.000023 0.000000
# 3 -0.007774 -0.003795 0.012423 0.000000 -0.003326 0.000000
# 4 0.000000 0.000000 0.000000 0.028434 0.000000 0.002771
# 5 0.009873 0.000023 -0.003326 0.000000 0.044683 0.000000
# 6 0.000000 0.000000 0.000000 0.002771 0.000000 0.042014
#
#
# Mechanical properties :
#
#
# Convention : Reuss Voigt Hill
#
# Bulk Modulus (GPa) = 47.95992 56.13779 52.04886
# Shear Modulus (GPa) = 24.33621 26.95437 25.64529
#
# Velocity S-wave (km/s) = 3.58138 3.76911 3.67644
# Velocity P-wave (km/s) = 6.50990 6.96626 6.74194
#
# Compressibility (1/GPa) = 0.02085074
#
# Stress axis : x y z
#
# Youngs Moduli (GPa) = 42.74242 61.37291 80.49866
#
# Poissons Ratio (x) = 0.24931 0.62576
# Poissons Ratio (y) = 0.17363 0.30549
# Poissons Ratio (z) = 0.33226 0.23291
#
# Static dielectric constant tensor:
#      x y z
#    x 3.566640 0.000000 -0.027470 
#    y 0.000000 3.351190 0.000000 
#    z -0.027470 0.000000 3.514920 
# 
# 
# High freq. dielectric constant tensor:
#      x y z
#    x 1.728350 0.000000 -0.008160 
#    y 0.000000 1.731740 0.000000 
#    z -0.008160 0.000000 1.746180 
# 
# From -- ./inp_files/60091.got.cif
#   From: 2010.06.25/outbox.cif.g09.slc.cpg/sg11_31_cif.got.tgz:60091.got - 2010.06.27 23:14:04.
