data_PCOD8071506
_publ_section_title
;
Structure prediction by ZEFSAII (Michael W. Deem and Ramdas Pophale) SiO2 
 PCOD8071506
Probable space group: P 21/M
;
_chemical_formula_sum "Si O2"
_cell_formula_units_Z 28
_cell_length_a 29.368530
_cell_length_b 9.124954
_cell_length_c 9.269768
_cell_angle_alpha 90.000000
_cell_angle_beta 37.975206
_cell_angle_gamma 90.000000
_cell_volume 1528.562085
_symmetry_space_group_name_H-M "P 21/M"
_symmetry_group_IT_number 11
_symmetry_cell_setting 'monoclinic'
loop_
_space_group_symop_operation_xyz
x,y,z
-x,1/2+y,-z
-x,-y,-z
x,1/2-y,z
loop_
_atom_site_type_symbol
_atom_site_label
_atom_site_fract_x
_atom_site_fract_y
_atom_site_fract_z
Si Si1 0.224986 0.577026 0.845707
Si Si2 0.936772 0.083950 0.739266
Si Si3 0.772356 0.425060 0.481038
Si Si4 0.063618 0.915927 0.921810
Si Si5 0.504654 0.924867 0.833937
Si Si6 0.364159 0.576617 0.998248
Si Si7 0.367885 0.923674 0.661456
O O1 0.215964 0.750000 0.853091
O O2 0.247297 0.517201 0.631127
O O3 0.286101 0.534529 0.810500
O O4 0.144443 0.515713 0.094853
O O5 0.940635 0.250000 0.675624
O O6 0.951038 0.071828 0.872767
O O7 0.000000 0.000000 0.500000
O O8 0.770834 0.250000 0.485876
O O9 0.854531 0.479757 0.320586
O O10 0.711066 0.489010 0.744241
O O11 0.059650 0.750000 0.878077
O O12 0.000000 0.000000 0.000000
O O13 0.508999 0.750000 0.840540
O O14 0.575751 0.984230 0.574054
O O15 0.433378 0.974632 0.920484
O O16 0.500000 0.000000 0.000000
O O17 0.358510 0.750000 0.009689
O O18 0.373931 0.520221 0.810602
O O19 0.383638 0.750000 0.605767
#
# Coordination Sequence:
#
# PCOD8071506 Si02
#       7
#     4   4   4   4   4   4   4
#     4   8  15  29  50  72  97 130 169 206 243 292
#     4   9  18  32  49  73 101 131 167 208 250 295
#     4   8  14  28  48  70  95 127 166 205 239 283
#     4   9  18  31  49  72  99 128 163 205 247 291
#     4  11  22  36  54  76 102 134 168 203 242 290
#     4   9  18  31  51  78 103 126 160 204 248 291
#     4  10  19  33  54  79 103 128 160 203 250 298
#
# _framework density 18.317869000000002
#
# number of rings (size 3 to 8) (size 9 to 14) (size 15 to 20)
#    0.000    2.857    0.000    3.429    0.000    4.000 
#    0.000    4.286    0.000    6.857    0.000    0.000 
#    0.000    0.000    0.000    0.000    0.000    0.000 
#
# Total GULP energy -347060.252664 kJ/mol
# GULP energy per Si atom -12395.009024 kJ/mol
# Density = 1.827618 g / cm^3
# Si number density = 18.317869 Si / 1000 Ang^3
#
#
#
# Elastic Constant Matrix: (Units=GPa)
#
#
# Indices 1 2 3 4 5 6 
#
# 1 153.9482 39.7919 74.5511 0.0000 -6.9312 0.0000
# 2 39.7919 41.1023 38.7212 0.0000 -2.7816 0.0000
# 3 74.5511 38.7212 160.8071 0.0000 -5.8673 0.0000
# 4 0.0000 0.0000 0.0000 28.1712 0.0000 -0.9663
# 5 -6.9312 -2.7816 -5.8673 0.0000 27.9145 0.0000
# 6 0.0000 0.0000 0.0000 -0.9663 0.0000 24.2168
#
#
#
# Elastic Compliance Matrix: (Units=1/GPa)
#
#
# Indices 1 2 3 4 5 6 
#
# 1 0.009616 -0.006560 -0.002837 0.000000 0.001138 0.000000
# 2 -0.006560 0.036010 -0.005601 0.000000 0.000782 0.000000
# 3 -0.002837 -0.005601 0.008905 0.000000 0.000609 0.000000
# 4 0.000000 0.000000 0.000000 0.035546 0.000000 0.001418
# 5 0.001138 0.000782 0.000609 0.000000 0.036312 0.000000
# 6 0.000000 0.000000 0.000000 0.001418 0.000000 0.041350
#
#
# Mechanical properties :
#
#
# Convention : Reuss Voigt Hill
#
# Bulk Modulus (GPa) = 40.75860 73.55401 57.15631
# Shear Modulus (GPa) = 24.28192 29.58007 26.93100
#
# Velocity S-wave (km/s) = 3.64481 4.02284 3.83848
# Velocity P-wave (km/s) = 6.32550 7.86251 7.13551
#
# Compressibility (1/GPa) = 0.02453470
#
# Stress axis : x y z
#
# Youngs Moduli (GPa) = 103.98847 27.76999 112.29820
#
# Poissons Ratio (x) = 0.18217 0.31860
# Poissons Ratio (y) = 0.68218 0.62900
# Poissons Ratio (z) = 0.29503 0.15554
#
# Static dielectric constant tensor:
#      x y z
#    x 3.588110 0.000000 -0.063880 
#    y 0.000000 2.857210 0.000000 
#    z -0.063880 0.000000 3.640360 
# 
# 
# High freq. dielectric constant tensor:
#      x y z
#    x 1.720360 0.000000 -0.007430 
#    y 0.000000 1.659420 0.000000 
#    z -0.007430 0.000000 1.723740 
# 
# From -- ./inp_files/28641.got.cif
#   From: 2010.06.25/outbox.cif.g09.slc.cpg/sg11_15_cif.got.tgz:28641.got - 2010.06.27 23:14:04.
