data_PCOD8071658
_publ_section_title
;
Structure prediction by ZEFSAII (Michael W. Deem and Ramdas Pophale) SiO2 
 PCOD8071658
Probable space group: P 21/M
;
_chemical_formula_sum "Si O2"
_cell_formula_units_Z 32
_cell_length_a 6.747175
_cell_length_b 28.967468
_cell_length_c 8.400979
_cell_angle_alpha 90.000000
_cell_angle_beta 97.054826
_cell_angle_gamma 90.000000
_cell_volume 1629.528241
_symmetry_space_group_name_H-M "P 21/M"
_symmetry_group_IT_number 11
_symmetry_cell_setting 'monoclinic'
loop_
_space_group_symop_operation_xyz
x,y,z
-x,1/2+y,-z
-x,-y,-z
x,1/2-y,z
loop_
_atom_site_type_symbol
_atom_site_label
_atom_site_fract_x
_atom_site_fract_y
_atom_site_fract_z
Si Si1 0.133849 0.958801 0.579750
Si Si2 0.887513 0.302214 0.067727
Si Si3 0.497651 0.848086 0.824327
Si Si4 0.564051 0.938714 0.646475
Si Si5 0.217494 0.199022 0.370514
Si Si6 0.144748 0.130256 0.928397
Si Si7 0.933573 0.959571 0.878501
Si Si8 0.848179 0.612242 0.434804
O O1 0.370124 0.968057 0.568728
O O2 0.107256 0.955138 0.766096
O O3 0.063131 0.910988 0.490818
O O4 0.000000 0.000000 0.500000
O O5 0.832305 0.250000 0.009632
O O6 0.053672 0.302352 0.218453
O O7 0.702286 0.328347 0.123784
O O8 0.972067 0.330432 0.923134
O O9 0.470014 0.898791 0.747930
O O10 0.573276 0.815004 0.689428
O O11 0.650593 0.848955 0.986063
O O12 0.720496 0.968775 0.767800
O O13 0.677830 0.918028 0.504740
O O14 0.237719 0.250000 0.447511
O O15 0.154151 0.164571 0.504248
O O16 0.186116 0.112594 0.755914
O O17 0.073438 0.088013 0.029065
O O18 0.000000 0.000000 0.000000
#
# Coordination Sequence:
#
# PCOD8071658 Si02
#       8
#     4   4   4   4   4   4   4   4
#     4  11  22  38  59  82 111 145 186 232 277 333
#     4  10  19  33  56  81 108 145 184 226 276 327
#     4   9  17  34  56  79 106 140 185 224 267 326
#     4   9  20  37  58  81 110 148 185 227 276 326
#     4   9  18  33  54  78 105 140 181 224 270 324
#     4  10  21  36  54  81 113 144 180 228 278 327
#     4  10  21  38  58  84 112 144 186 229 279 336
#     4  10  21  36  55  80 111 146 184 225 277 331
#
# _framework density 19.637585999999999
#
# number of rings (size 3 to 8) (size 9 to 14) (size 15 to 20)
#    0.000    2.250    0.000    4.875    0.000    4.500 
#    0.000    3.750    0.000    0.000    0.000    0.000 
#    0.000    0.000    0.000    0.000    0.000    0.000 
#
# Total GULP energy -396727.768841 kJ/mol
# GULP energy per Si atom -12397.742776 kJ/mol
# Density = 1.959289 g / cm^3
# Si number density = 19.637586 Si / 1000 Ang^3
#
#
#
# Elastic Constant Matrix: (Units=GPa)
#
#
# Indices 1 2 3 4 5 6 
#
# 1 109.8493 26.7109 18.8293 0.0000 -6.7317 0.0000
# 2 26.7109 58.8828 16.4283 0.0000 -2.5370 0.0000
# 3 18.8293 16.4283 96.4604 0.0000 -11.4681 0.0000
# 4 0.0000 0.0000 0.0000 23.2194 0.0000 2.2737
# 5 -6.7317 -2.5370 -11.4681 0.0000 16.9271 0.0000
# 6 0.0000 0.0000 0.0000 2.2737 0.0000 27.0794
#
#
#
# Elastic Compliance Matrix: (Units=1/GPa)
#
#
# Indices 1 2 3 4 5 6 
#
# 1 0.010508 -0.004374 -0.000965 0.000000 0.002870 0.000000
# 2 -0.004374 0.019658 -0.002557 0.000000 -0.000525 0.000000
# 3 -0.000965 -0.002557 0.011854 0.000000 0.007264 0.000000
# 4 0.000000 0.000000 0.000000 0.043424 0.000000 -0.003646
# 5 0.002870 -0.000525 0.007264 0.000000 0.065061 0.000000
# 6 0.000000 0.000000 0.000000 -0.003646 0.000000 0.037235
#
#
# Mechanical properties :
#
#
# Convention : Reuss Voigt Hill
#
# Bulk Modulus (GPa) = 38.12567 43.23660 40.68113
# Shear Modulus (GPa) = 23.55442 26.99347 25.27395
#
# Velocity S-wave (km/s) = 3.46707 3.71156 3.59140
# Velocity P-wave (km/s) = 5.95687 6.35866 6.16104
#
# Compressibility (1/GPa) = 0.02622905
#
# Stress axis : x y z
#
# Youngs Moduli (GPa) = 95.16361 50.87080 84.35669
#
# Poissons Ratio (x) = 0.22250 0.08142
# Poissons Ratio (y) = 0.41624 0.21566
# Poissons Ratio (z) = 0.09185 0.13005
#
# Static dielectric constant tensor:
#      x y z
#    x 3.673300 0.000000 -0.043470 
#    y 0.000000 3.906510 0.000000 
#    z -0.043470 0.000000 3.448850 
# 
# 
# High freq. dielectric constant tensor:
#      x y z
#    x 1.767330 0.000000 -0.009200 
#    y 0.000000 1.771890 0.000000 
#    z -0.009200 0.000000 1.749450 
# 
# From -- ./inp_files/10841.got.cif
#   From: 2010.06.25/outbox.cif.g09.slc.cpg/sg11_6_cif.got.tgz:10841.got - 2010.06.27 23:14:04.
