data_PCOD8071548
_publ_section_title
;
Structure prediction by ZEFSAII (Michael W. Deem and Ramdas Pophale) SiO2 
 PCOD8071548
Probable space group: P 21/M
;
_chemical_formula_sum "Si O2"
_cell_formula_units_Z 32
_cell_length_a 10.956975
_cell_length_b 17.940291
_cell_length_c 22.235966
_cell_angle_alpha 90.000000
_cell_angle_beta 156.301926
_cell_angle_gamma 90.000000
_cell_volume 1756.760377
_symmetry_space_group_name_H-M "P 21/M"
_symmetry_group_IT_number 11
_symmetry_cell_setting 'monoclinic'
loop_
_space_group_symop_operation_xyz
x,y,z
-x,1/2+y,-z
-x,-y,-z
x,1/2-y,z
loop_
_atom_site_type_symbol
_atom_site_label
_atom_site_fract_x
_atom_site_fract_y
_atom_site_fract_z
Si Si1 0.103591 0.838526 0.093564
Si Si2 0.219526 0.945709 0.633480
Si Si3 0.877881 0.545152 0.084567
Si Si4 0.759626 0.058987 0.629758
Si Si5 0.109652 0.060389 0.096343
Si Si6 0.725399 0.834608 0.561151
Si Si7 0.796189 0.036619 0.234395
Si Si8 0.272144 0.167651 0.577017
O O1 0.064102 0.750000 0.086626
O O2 0.448356 0.867726 0.259494
O O3 0.897030 0.884280 0.047611
O O4 0.009631 0.859590 0.982485
O O5 0.527516 0.938313 0.735402
O O6 0.272882 0.970181 0.726138
O O7 0.053155 0.866966 0.557303
O O8 0.000000 0.000000 0.500000
O O9 0.099025 0.555615 0.240215
O O10 0.973965 0.465037 0.098957
O O11 0.525467 0.540369 0.945336
O O12 0.581119 0.138074 0.541938
O O13 0.500000 0.000000 0.500000
O O14 0.028591 0.040296 0.704098
O O15 0.000000 0.000000 0.000000
O O16 0.808130 0.750000 0.619188
O O17 0.636608 0.836534 0.451344
O O18 0.011183 0.890403 0.699391
O O19 0.232609 0.250000 0.583100
#
# Coordination Sequence:
#
# PCOD8071548 Si02
#       8
#     4   4   4   4   4   4   4   4
#     4  10  19  33  54  82 110 140 179 225 273 320
#     4  11  20  31  53  79 112 142 182 221 267 318
#     4  11  20  36  54  80 114 144 182 221 278 322
#     4  10  21  35  57  80 108 141 185 228 270 319
#     4  10  20  33  51  78 110 145 175 217 270 325
#     4   9  18  34  54  79 108 136 174 228 275 311
#     4  10  21  34  52  84 106 144 179 225 271 323
#     4   9  18  31  50  77 107 136 172 223 272 311
#
# _framework density 18.215347000000001
#
# number of rings (size 3 to 8) (size 9 to 14) (size 15 to 20)
#    0.000    2.000    3.750    1.875    3.500    1.000 
#    0.000    0.000    0.000    4.500    0.000    0.000 
#    0.000    0.000    0.000    0.000    0.000    0.000 
#
# Total GULP energy -396472.164896 kJ/mol
# GULP energy per Si atom -12389.755153 kJ/mol
# Density = 1.817389 g / cm^3
# Si number density = 18.215347 Si / 1000 Ang^3
#
#
#
# Elastic Constant Matrix: (Units=GPa)
#
#
# Indices 1 2 3 4 5 6 
#
# 1 47.0284 30.8624 30.7463 0.0000 14.0553 0.0000
# 2 30.8624 74.9852 34.4844 0.0000 13.2613 0.0000
# 3 30.7463 34.4844 114.2880 0.0000 20.3580 0.0000
# 4 0.0000 0.0000 0.0000 23.6283 0.0000 -1.0254
# 5 14.0553 13.2613 20.3580 0.0000 30.2705 0.0000
# 6 0.0000 0.0000 0.0000 -1.0254 0.0000 21.2308
#
#
#
# Elastic Compliance Matrix: (Units=1/GPa)
#
#
# Indices 1 2 3 4 5 6 
#
# 1 0.033271 -0.010241 -0.004440 0.000000 -0.007976 0.000000
# 2 -0.010241 0.019107 -0.002688 0.000000 -0.001807 0.000000
# 3 -0.004440 -0.002688 0.011564 0.000000 -0.004538 0.000000
# 4 0.000000 0.000000 0.000000 0.042411 0.000000 0.002048
# 5 -0.007976 -0.001807 -0.004538 0.000000 0.040583 0.000000
# 6 0.000000 0.000000 0.000000 0.002048 0.000000 0.047200
#
#
# Mechanical properties :
#
#
# Convention : Reuss Voigt Hill
#
# Bulk Modulus (GPa) = 34.24284 47.60974 40.92629
# Shear Modulus (GPa) = 20.95483 24.37315 22.66399
#
# Velocity S-wave (km/s) = 3.39543 3.66191 3.53118
# Velocity P-wave (km/s) = 5.84907 6.63878 6.25640
#
# Compressibility (1/GPa) = 0.02920319
#
# Stress axis : x y z
#
# Youngs Moduli (GPa) = 30.05613 52.33692 86.47797
#
# Poissons Ratio (x) = 0.53600 0.38395
# Poissons Ratio (y) = 0.30782 0.23246
# Poissons Ratio (z) = 0.13344 0.14068
#
# Static dielectric constant tensor:
#      x y z
#    x 3.953480 0.000000 1.345580 
#    y 0.000000 3.397050 0.000000 
#    z 1.345580 0.000000 6.634790 
# 
# 
# High freq. dielectric constant tensor:
#      x y z
#    x 1.672800 0.000000 0.008130 
#    y 0.000000 1.690710 0.000000 
#    z 0.008130 0.000000 1.727340 
# 
# From -- ./inp_files/18635.got.cif
#   From: 2010.06.25/outbox.cif.g09.slc.cpg/sg11_10_cif.got.tgz:18635.got - 2010.06.27 23:14:04.
