data_PCOD8071372
_publ_section_title
;
Structure prediction by ZEFSAII (Michael W. Deem and Ramdas Pophale) SiO2 
 PCOD8071372
Probable space group: P 21/M
;
_chemical_formula_sum "Si O2"
_cell_formula_units_Z 32
_cell_length_a 22.836955
_cell_length_b 9.551765
_cell_length_c 23.822319
_cell_angle_alpha 90.000000
_cell_angle_beta 161.150416
_cell_angle_gamma 90.000000
_cell_volume 1678.890606
_symmetry_space_group_name_H-M "P 21/M"
_symmetry_group_IT_number 11
_symmetry_cell_setting 'monoclinic'
loop_
_space_group_symop_operation_xyz
x,y,z
-x,1/2+y,-z
-x,-y,-z
x,1/2-y,z
loop_
_atom_site_type_symbol
_atom_site_label
_atom_site_fract_x
_atom_site_fract_y
_atom_site_fract_z
Si Si1 0.873067 0.586165 0.050142
Si Si2 0.360318 0.587512 0.801457
Si Si3 0.446172 0.582608 0.284173
Si Si4 0.126690 0.914778 0.485111
Si Si5 0.752777 0.913326 0.196258
Si Si6 0.592932 0.103372 0.624931
Si Si7 0.200413 0.916156 0.427313
Si Si8 0.029007 0.603476 0.075713
O O1 0.817196 0.750000 0.000583
O O2 0.005469 0.551906 0.222141
O O3 0.987280 0.541941 0.098857
O O4 0.691287 0.490593 0.885224
O O5 0.316589 0.750000 0.773575
O O6 0.280370 0.539348 0.669065
O O7 0.261651 0.497319 0.759158
O O8 0.576276 0.560188 0.997329
O O9 0.455406 0.750000 0.281129
O O10 0.371346 0.546731 0.279255
O O11 0.642696 0.510195 0.457994
O O12 0.111667 0.750000 0.467494
O O13 0.183602 0.970757 0.475916
O O14 0.928500 0.971868 0.323068
O O15 0.772557 0.750000 0.229489
O O16 0.482103 0.250000 0.531624
O O17 0.763708 0.140496 0.742417
O O18 0.500000 0.000000 0.500000
O O19 0.246925 0.750000 0.464334
O O20 0.917747 0.750000 0.966989
O O21 0.000000 0.500000 0.000000
#
# Coordination Sequence:
#
# PCOD8071372 Si02
#       8
#     4   4   4   4   4   4   4   4
#     4  10  21  37  60  84 109 144 187 233 279 332
#     4   9  17  30  51  80 110 139 173 216 265 318
#     4  11  23  39  58  81 112 147 182 226 283 339
#     4   9  18  33  54  78 104 139 183 226 266 312
#     4   9  17  30  50  78 110 141 175 215 263 317
#     4  10  21  35  53  79 107 135 170 215 270 332
#     4  10  22  40  60  82 109 146 195 241 276 322
#     4  10  19  33  52  77 104 130 167 214 267 328
#
# _framework density 19.060206000000001
#
# number of rings (size 3 to 8) (size 9 to 14) (size 15 to 20)
#    0.000    2.250    1.250    1.500    0.000    4.000 
#    0.000    5.000    0.000    3.000    0.000    0.000 
#    0.000    0.000    0.000    0.000    0.000    0.000 
#
# Total GULP energy -396421.580788 kJ/mol
# GULP energy per Si atom -12388.174400 kJ/mol
# Density = 1.901682 g / cm^3
# Si number density = 19.060206 Si / 1000 Ang^3
#
#
#
# Elastic Constant Matrix: (Units=GPa)
#
#
# Indices 1 2 3 4 5 6 
#
# 1 73.7868 24.6548 35.0362 0.0000 -15.7916 0.0000
# 2 24.6548 74.3452 48.8274 0.0000 -8.4962 0.0000
# 3 35.0362 48.8274 113.3330 0.0000 -17.0060 0.0000
# 4 0.0000 0.0000 0.0000 26.7516 0.0000 1.8919
# 5 -15.7916 -8.4962 -17.0060 0.0000 31.7199 0.0000
# 6 0.0000 0.0000 0.0000 1.8919 0.0000 20.7231
#
#
#
# Elastic Compliance Matrix: (Units=1/GPa)
#
#
# Indices 1 2 3 4 5 6 
#
# 1 0.017366 -0.002979 -0.003162 0.000000 0.006152 0.000000
# 2 -0.002979 0.019286 -0.007434 0.000000 -0.000303 0.000000
# 3 -0.003162 -0.007434 0.013559 0.000000 0.003704 0.000000
# 4 0.000000 0.000000 0.000000 0.037624 0.000000 -0.003435
# 5 0.006152 -0.000303 0.003704 0.000000 0.036494 0.000000
# 6 0.000000 0.000000 0.000000 -0.003435 0.000000 0.048569
#
#
# Mechanical properties :
#
#
# Convention : Reuss Voigt Hill
#
# Bulk Modulus (GPa) = 43.36049 53.16687 48.26368
# Shear Modulus (GPa) = 24.06908 26.03537 25.05223
#
# Velocity S-wave (km/s) = 3.55743 3.69989 3.62936
# Velocity P-wave (km/s) = 6.29860 6.79757 6.55284
#
# Compressibility (1/GPa) = 0.02306247
#
# Stress axis : x y z
#
# Youngs Moduli (GPa) = 57.58336 51.85027 73.74913
#
# Poissons Ratio (x) = 0.15448 0.23318
# Poissons Ratio (y) = 0.17156 0.54822
# Poissons Ratio (z) = 0.18207 0.38543
#
# Static dielectric constant tensor:
#      x y z
#    x 3.679530 0.000000 0.056160 
#    y 0.000000 3.541990 0.000000 
#    z 0.056160 0.000000 3.614990 
# 
# 
# High freq. dielectric constant tensor:
#      x y z
#    x 1.732020 0.000000 -0.000550 
#    y 0.000000 1.730700 0.000000 
#    z -0.000550 0.000000 1.743760 
# 
# From -- ./inp_files/70014.got.cif
#   From: 2010.06.25/outbox.cif.g09.slc.cpg/sg11_36_cif.got.tgz:70014.got - 2010.06.27 23:14:04.
