data_PCOD8071755
_publ_section_title
;
Structure prediction by ZEFSAII (Michael W. Deem and Ramdas Pophale) SiO2 
 PCOD8071755
Probable space group: P 21/M
;
_chemical_formula_sum "Si O2"
_cell_formula_units_Z 32
_cell_length_a 12.633782
_cell_length_b 8.872709
_cell_length_c 30.963711
_cell_angle_alpha 90.000000
_cell_angle_beta 28.054492
_cell_angle_gamma 90.000000
_cell_volume 1632.404722
_symmetry_space_group_name_H-M "P 21/M"
_symmetry_group_IT_number 11
_symmetry_cell_setting 'monoclinic'
loop_
_space_group_symop_operation_xyz
x,y,z
-x,1/2+y,-z
-x,-y,-z
x,1/2-y,z
loop_
_atom_site_type_symbol
_atom_site_label
_atom_site_fract_x
_atom_site_fract_y
_atom_site_fract_z
Si Si1 0.044056 0.925666 0.134301
Si Si2 0.177200 0.419499 0.406412
Si Si3 0.635148 0.925636 0.221491
Si Si4 0.740322 0.927688 0.406461
Si Si5 0.552549 0.074564 0.071443
Si Si6 0.053445 0.427958 0.222650
Si Si7 0.068357 0.079705 0.347781
Si Si8 0.527075 0.926369 0.165365
O O1 0.017864 0.750000 0.155133
O O2 0.857531 0.977230 0.166498
O O3 0.012212 0.022054 0.188583
O O4 0.287781 0.961325 0.026588
O O5 0.210032 0.250000 0.410824
O O6 0.420648 0.495403 0.320023
O O7 0.000000 0.500000 0.500000
O O8 0.066975 0.426179 0.399339
O O9 0.591221 0.750000 0.242529
O O10 0.662708 0.966496 0.160501
O O11 0.717310 0.750000 0.409043
O O12 0.500000 0.000000 0.500000
O O13 0.875659 0.968424 0.400926
O O14 0.864986 0.994475 0.319821
O O15 0.564253 0.250000 0.079169
O O16 0.301736 0.021778 0.148843
O O17 0.651577 0.980930 0.076920
O O18 0.025110 0.250000 0.235879
O O19 0.028558 0.250000 0.344936
O O20 0.301055 0.022818 0.244774
O O21 0.472251 0.750000 0.183104
#
# Coordination Sequence:
#
# PCOD8071755 Si02
#       8
#     4   4   4   4   4   4   4   4
#     4  10  22  40  60  85 121 165 204 246 301 357
#     4  10  21  36  59  86 114 151 194 239 293 353
#     4   9  20  38  57  82 119 155 196 247 297 350
#     4  12  25  41  63  90 118 154 196 243 299 357
#     4  10  21  37  60  87 119 159 202 249 302 356
#     4  11  23  40  61  87 121 158 201 253 300 354
#     4  10  20  37  58  83 115 150 190 240 293 348
#     4  10  19  33  58  87 114 152 197 243 293 350
#
# _framework density 19.602979999999999
#
# number of rings (size 3 to 8) (size 9 to 14) (size 15 to 20)
#    0.000    1.750    1.250    3.000    0.000    5.000 
#    0.000    1.250    0.000    0.000    0.000    0.000 
#    0.000    0.000    0.000    0.000    0.000    0.000 
#
# Total GULP energy -396830.525844 kJ/mol
# GULP energy per Si atom -12400.953933 kJ/mol
# Density = 1.955836 g / cm^3
# Si number density = 19.602980 Si / 1000 Ang^3
#
#
#
# Elastic Constant Matrix: (Units=GPa)
#
#
# Indices 1 2 3 4 5 6 
#
# 1 111.7975 53.3579 57.7776 0.0000 -7.4502 0.0000
# 2 53.3579 96.1190 56.3918 0.0000 1.3213 0.0000
# 3 57.7776 56.3918 122.8783 0.0000 3.0642 0.0000
# 4 0.0000 0.0000 0.0000 31.2624 0.0000 6.3040
# 5 -7.4502 1.3213 3.0642 0.0000 19.5006 0.0000
# 6 0.0000 0.0000 0.0000 6.3040 0.0000 33.4873
#
#
#
# Elastic Compliance Matrix: (Units=1/GPa)
#
#
# Indices 1 2 3 4 5 6 
#
# 1 0.014218 -0.005426 -0.004357 0.000000 0.006484 0.000000
# 2 -0.005426 0.016308 -0.004873 0.000000 -0.002412 0.000000
# 3 -0.004357 -0.004873 0.012505 0.000000 -0.003300 0.000000
# 4 0.000000 0.000000 0.000000 0.033249 0.000000 -0.006259
# 5 0.006484 -0.002412 -0.003300 0.000000 0.054440 0.000000
# 6 0.000000 0.000000 0.000000 -0.006259 0.000000 0.031040
#
#
# Mechanical properties :
#
#
# Convention : Reuss Voigt Hill
#
# Bulk Modulus (GPa) = 72.88541 73.98327 73.43434
# Shear Modulus (GPa) = 25.55652 27.73457 26.64554
#
# Velocity S-wave (km/s) = 3.61460 3.76548 3.69081
# Velocity P-wave (km/s) = 7.39473 7.53179 7.46357
#
# Compressibility (1/GPa) = 0.01372017
#
# Stress axis : x y z
#
# Youngs Moduli (GPa) = 70.33237 61.32124 79.96608
#
# Poissons Ratio (x) = 0.33271 0.34842
# Poissons Ratio (y) = 0.38160 0.38964
# Poissons Ratio (z) = 0.30645 0.29879
#
# Static dielectric constant tensor:
#      x y z
#    x 4.258650 0.000000 0.114750 
#    y 0.000000 3.674730 0.000000 
#    z 0.114750 0.000000 3.465910 
# 
# 
# High freq. dielectric constant tensor:
#      x y z
#    x 1.770910 0.000000 0.008260 
#    y 0.000000 1.769050 0.000000 
#    z 0.008260 0.000000 1.761790 
# 
# From -- ./inp_files/73093.got.cif
#   From: 2010.06.25/outbox.cif.g09.slc.cpg/sg11_37_cif.got.tgz:73093.got - 2010.06.27 23:14:04.
