data_PCOD8071221
_publ_section_title
;
Structure prediction by ZEFSAII (Michael W. Deem and Ramdas Pophale) SiO2 
 PCOD8071221
Probable space group: P 21/M
;
_chemical_formula_sum "Si O2"
_cell_formula_units_Z 28
_cell_length_a 13.396268
_cell_length_b 8.886003
_cell_length_c 19.952279
_cell_angle_alpha 90.000000
_cell_angle_beta 35.126546
_cell_angle_gamma 90.000000
_cell_volume 1366.597943
_symmetry_space_group_name_H-M "P 21/M"
_symmetry_group_IT_number 11
_symmetry_cell_setting 'monoclinic'
loop_
_space_group_symop_operation_xyz
x,y,z
-x,1/2+y,-z
-x,-y,-z
x,1/2-y,z
loop_
_atom_site_type_symbol
_atom_site_label
_atom_site_fract_x
_atom_site_fract_y
_atom_site_fract_z
Si Si1 0.127843 0.926124 0.482139
Si Si2 0.484986 0.072917 0.711113
Si Si3 0.936551 0.925876 0.713592
Si Si4 0.710910 0.428577 0.064936
Si Si5 0.447851 0.074699 0.097010
Si Si6 0.005691 0.574054 0.822562
Si Si7 0.589382 0.073712 0.387014
O O1 0.090197 0.750000 0.499942
O O2 0.328445 0.963258 0.357244
O O3 0.081774 0.986516 0.582398
O O4 0.000000 0.000000 0.500000
O O5 0.452514 0.250000 0.723082
O O6 0.333626 0.998765 0.838476
O O7 0.488899 0.002289 0.635641
O O8 0.961977 0.750000 0.711257
O O9 0.752834 0.963944 0.779694
O O10 0.955435 0.996871 0.777369
O O11 0.713329 0.250000 0.070756
O O12 0.564734 0.487824 0.093304
O O13 0.898303 0.486117 0.938319
O O14 0.480640 0.250000 0.070935
O O15 0.500000 0.000000 0.000000
O O16 0.959484 0.750000 0.853280
O O17 0.206360 0.542519 0.724486
O O18 0.547977 0.250000 0.409621
O O19 0.500000 0.000000 0.500000
#
# Coordination Sequence:
#
# PCOD8071221 Si02
#       7
#     4   4   4   4   4   4   4
#     4  10  21  38  60  87 119 157 201 247 301 364
#     4  11  24  42  64  89 123 166 206 250 308 371
#     4   9  17  33  57  82 114 153 192 239 294 354
#     4  11  23  38  59  91 126 160 204 256 307 364
#     4  10  19  32  54  83 119 159 196 240 295 356
#     4  10  21  39  63  88 117 158 203 249 305 365
#     4  11  24  43  68  95 123 157 203 256 309 367
#
# _framework density 20.488834000000001
#
# number of rings (size 3 to 8) (size 9 to 14) (size 15 to 20)
#    0.000    1.714    1.429    3.000    0.000    6.857 
#    0.000    1.429    0.000    0.000    0.000    0.000 
#    0.000    0.000    0.000    0.000    0.000    0.000 
#
# Total GULP energy -347233.507463 kJ/mol
# GULP energy per Si atom -12401.196695 kJ/mol
# Density = 2.044220 g / cm^3
# Si number density = 20.488834 Si / 1000 Ang^3
#
#
#
# Elastic Constant Matrix: (Units=GPa)
#
#
# Indices 1 2 3 4 5 6 
#
# 1 100.8957 49.3880 46.0282 0.0000 9.8105 0.0000
# 2 49.3880 82.4277 60.6853 0.0000 -1.3630 0.0000
# 3 46.0282 60.6853 150.3543 0.0000 17.3109 0.0000
# 4 0.0000 0.0000 0.0000 31.6129 0.0000 4.4645
# 5 9.8105 -1.3630 17.3109 0.0000 34.4115 0.0000
# 6 0.0000 0.0000 0.0000 4.4645 0.0000 31.5807
#
#
#
# Elastic Compliance Matrix: (Units=1/GPa)
#
#
# Indices 1 2 3 4 5 6 
#
# 1 0.014738 -0.008447 -0.000616 0.000000 -0.004226 0.000000
# 2 -0.008447 0.022768 -0.007414 0.000000 0.007040 0.000000
# 3 -0.000616 -0.007414 0.010451 0.000000 -0.005375 0.000000
# 4 0.000000 0.000000 0.000000 0.032277 0.000000 -0.004563
# 5 -0.004226 0.007040 -0.005375 0.000000 0.033248 0.000000
# 6 0.000000 0.000000 0.000000 -0.004563 0.000000 0.032310
#
#
# Mechanical properties :
#
#
# Convention : Reuss Voigt Hill
#
# Bulk Modulus (GPa) = 66.65410 71.76450 69.20930
# Shear Modulus (GPa) = 27.21149 31.35944 29.28546
#
# Velocity S-wave (km/s) = 3.64828 3.91648 3.78476
# Velocity P-wave (km/s) = 7.09571 7.45346 7.27678
#
# Compressibility (1/GPa) = 0.01500283
#
# Stress axis : x y z
#
# Youngs Moduli (GPa) = 67.85248 43.92169 95.68656
#
# Poissons Ratio (x) = 0.37101 0.05892
# Poissons Ratio (y) = 0.57315 0.70942
# Poissons Ratio (z) = 0.04178 0.32564
#
# Static dielectric constant tensor:
#      x y z
#    x 3.811790 0.000000 0.124440 
#    y 0.000000 3.464240 0.000000 
#    z 0.124440 0.000000 3.085630 
# 
# 
# High freq. dielectric constant tensor:
#      x y z
#    x 1.804250 0.000000 0.002230 
#    y 0.000000 1.783220 0.000000 
#    z 0.002230 0.000000 1.817030 
# 
# From -- ./inp_files/37475.got.cif
#   From: 2010.06.25/outbox.cif.g09.slc.cpg/sg11_19_cif.got.tgz:37475.got - 2010.06.27 23:14:04.
