data_PCOD8071916
_publ_section_title
;
Structure prediction by ZEFSAII (Michael W. Deem and Ramdas Pophale) SiO2 
 PCOD8071916
Probable space group: P 21/M
;
_chemical_formula_sum "Si O2"
_cell_formula_units_Z 32
_cell_length_a 20.600572
_cell_length_b 8.758392
_cell_length_c 26.299987
_cell_angle_alpha 90.000000
_cell_angle_beta 159.536712
_cell_angle_gamma 90.000000
_cell_volume 1658.973647
_symmetry_space_group_name_H-M "P 21/M"
_symmetry_group_IT_number 11
_symmetry_cell_setting 'monoclinic'
loop_
_space_group_symop_operation_xyz
x,y,z
-x,1/2+y,-z
-x,-y,-z
x,1/2-y,z
loop_
_atom_site_type_symbol
_atom_site_label
_atom_site_fract_x
_atom_site_fract_y
_atom_site_fract_z
Si Si1 0.396855 0.927968 0.840539
Si Si2 0.808502 0.930964 0.140536
Si Si3 0.934191 0.069461 0.331926
Si Si4 0.276979 0.071702 0.223257
Si Si5 0.582160 0.569897 0.509214
Si Si6 0.060383 0.072628 0.965516
Si Si7 0.986086 0.428476 0.173378
Si Si8 0.145511 0.927585 0.568960
O O1 0.401298 0.750000 0.855222
O O2 0.245632 0.997104 0.769146
O O3 0.343305 0.955724 0.741686
O O4 0.600978 0.997918 0.998241
O O5 0.811912 0.750000 0.146687
O O6 0.940519 0.002923 0.280055
O O7 0.876717 0.979880 0.135674
O O8 0.936135 0.250000 0.331304
O O9 0.123190 0.011942 0.498396
O O10 0.266329 0.250000 0.229455
O O11 0.480089 0.005140 0.385399
O O12 0.230010 0.044352 0.129398
O O13 0.131425 0.982823 0.151221
O O14 0.500000 0.500000 0.500000
O O15 0.549943 0.750000 0.485461
O O16 0.797937 0.527437 0.664472
O O17 0.040779 0.250000 0.937546
O O18 0.100528 0.978213 0.944088
O O19 0.954142 0.250000 0.157822
O O20 0.104268 0.750000 0.531081
O O21 0.000000 0.000000 0.500000
#
# Coordination Sequence:
#
# PCOD8071916 Si02
#       8
#     4   4   4   4   4   4   4   4
#     4   8  17  33  55  82 110 141 183 231 275 325
#     4  11  22  37  56  79 108 147 188 227 277 335
#     4  10  19  34  55  82 114 145 182 230 277 327
#     4  10  20  34  56  87 115 140 178 224 271 323
#     4  11  22  36  58  84 111 143 183 226 275 330
#     4  10  20  35  57  83 111 144 179 220 270 326
#     4  11  24  40  56  79 112 147 184 231 281 332
#     4   9  16  30  52  80 110 140 177 225 276 324
#
# _framework density 19.289034000000001
#
# number of rings (size 3 to 8) (size 9 to 14) (size 15 to 20)
#    0.000    2.000    1.250    3.750    0.000    3.000 
#    0.000    8.125    0.000    1.500    0.000    0.000 
#    0.000    0.000    0.000    0.000    0.000    0.000 
#
# Total GULP energy -396735.866852 kJ/mol
# GULP energy per Si atom -12397.995839 kJ/mol
# Density = 1.924513 g / cm^3
# Si number density = 19.289034 Si / 1000 Ang^3
#
#
#
# Elastic Constant Matrix: (Units=GPa)
#
#
# Indices 1 2 3 4 5 6 
#
# 1 76.2091 19.3075 27.3888 0.0000 -23.0559 0.0000
# 2 19.3075 74.6661 31.7750 0.0000 -10.3467 0.0000
# 3 27.3888 31.7750 67.5976 0.0000 -26.3109 0.0000
# 4 0.0000 0.0000 0.0000 28.7795 0.0000 -7.2567
# 5 -23.0559 -10.3467 -26.3109 0.0000 31.7021 0.0000
# 6 0.0000 0.0000 0.0000 -7.2567 0.0000 32.9628
#
#
#
# Elastic Compliance Matrix: (Units=1/GPa)
#
#
# Indices 1 2 3 4 5 6 
#
# 1 0.017549 -0.002240 -0.002030 0.000000 0.010347 0.000000
# 2 -0.002240 0.017082 -0.008251 0.000000 -0.002902 0.000000
# 3 -0.002030 -0.008251 0.026400 0.000000 0.017741 0.000000
# 4 0.000000 0.000000 0.000000 0.036789 0.000000 0.008099
# 5 0.010347 -0.002902 0.017741 0.000000 0.052845 0.000000
# 6 0.000000 0.000000 0.000000 0.008099 0.000000 0.032120
#
#
# Mechanical properties :
#
#
# Convention : Reuss Voigt Hill
#
# Bulk Modulus (GPa) = 27.78768 41.71283 34.75025
# Shear Modulus (GPa) = 22.74543 28.02233 25.38388
#
# Velocity S-wave (km/s) = 3.43766 3.81564 3.63157
# Velocity P-wave (km/s) = 5.49490 6.40970 5.96985
#
# Compressibility (1/GPa) = 0.03598717
#
# Stress axis : x y z
#
# Youngs Moduli (GPa) = 56.98243 58.54283 37.87893
#
# Poissons Ratio (x) = 0.13115 0.07690
# Poissons Ratio (y) = 0.12765 0.31255
# Poissons Ratio (z) = 0.11568 0.48306
#
# Static dielectric constant tensor:
#      x y z
#    x 3.435690 0.000000 -0.365440 
#    y 0.000000 3.547220 0.000000 
#    z -0.365440 0.000000 3.995210 
# 
# 
# High freq. dielectric constant tensor:
#      x y z
#    x 1.730080 0.000000 -0.031120 
#    y 0.000000 1.755270 0.000000 
#    z -0.031120 0.000000 1.751440 
# 
# From -- ./inp_files/72221.got.cif
#   From: 2010.06.25/outbox.cif.g09.slc.cpg/sg11_37_cif.got.tgz:72221.got - 2010.06.27 23:14:04.
