data_PCOD8071234
_publ_section_title
;
Structure prediction by ZEFSAII (Michael W. Deem and Ramdas Pophale) SiO2 
 PCOD8071234
Probable space group: P 21/M
;
_chemical_formula_sum "Si O2"
_cell_formula_units_Z 28
_cell_length_a 17.454606
_cell_length_b 8.926191
_cell_length_c 14.268582
_cell_angle_alpha 90.000000
_cell_angle_beta 43.231798
_cell_angle_gamma 90.000000
_cell_volume 1522.708956
_symmetry_space_group_name_H-M "P 21/M"
_symmetry_group_IT_number 11
_symmetry_cell_setting 'monoclinic'
loop_
_space_group_symop_operation_xyz
x,y,z
-x,1/2+y,-z
-x,-y,-z
x,1/2-y,z
loop_
_atom_site_type_symbol
_atom_site_label
_atom_site_fract_x
_atom_site_fract_y
_atom_site_fract_z
Si Si1 0.325922 0.572402 0.332013
Si Si2 0.888070 0.573661 0.136589
Si Si3 0.422636 0.072221 0.895688
Si Si4 0.260498 0.423197 0.204161
Si Si5 0.765992 0.926732 0.065989
Si Si6 0.845002 0.572912 0.385162
Si Si7 0.935496 0.576533 0.760672
O O1 0.323408 0.750000 0.342776
O O2 0.452356 0.506987 0.217713
O O3 0.262466 0.523662 0.294655
O O4 0.266297 0.501899 0.475154
O O5 0.907834 0.750000 0.118796
O O6 0.786931 0.528826 0.155497
O O7 0.856017 0.516355 0.268124
O O8 0.000000 0.500000 0.000000
O O9 0.427601 0.250000 0.888602
O O10 0.352475 0.010596 0.867811
O O11 0.358989 0.021458 0.046839
O O12 0.277966 0.250000 0.215851
O O13 0.139869 0.446839 0.264157
O O14 0.764001 0.750000 0.052605
O O15 0.868501 0.986110 0.910893
O O16 0.833742 0.750000 0.402241
O O17 0.951990 0.519773 0.349697
O O18 0.968634 0.750000 0.743407
#
# Coordination Sequence:
#
# PCOD8071234 Si02
#       7
#     4   4   4   4   4   4   4
#     4  11  22  35  52  74 103 142 179 211 251 304
#     4  10  19  32  55  81 104 133 168 209 257 307
#     4   8  16  32  55  80 102 131 174 213 252 304
#     4   9  18  34  57  81 103 129 169 219 264 306
#     4   8  14  29  54  80 103 128 164 211 257 304
#     4  11  23  35  49  75 110 141 170 210 258 305
#     4   9  17  32  55  79 102 133 170 209 258 312
#
# _framework density 18.388280999999999
#
# number of rings (size 3 to 8) (size 9 to 14) (size 15 to 20)
#    0.000    2.571    1.429    3.000    0.000    1.714 
#    0.000    1.429    0.000    3.429    0.000    0.000 
#    0.000    0.000    0.000    0.000    0.000    0.000 
#
# Total GULP energy -347126.109979 kJ/mol
# GULP energy per Si atom -12397.361071 kJ/mol
# Density = 1.834643 g / cm^3
# Si number density = 18.388281 Si / 1000 Ang^3
#
#
#
# Elastic Constant Matrix: (Units=GPa)
#
#
# Indices 1 2 3 4 5 6 
#
# 1 97.1444 25.2445 46.1909 0.0000 11.7298 0.0000
# 2 25.2445 42.9608 27.0360 0.0000 5.2697 0.0000
# 3 46.1909 27.0360 98.7825 0.0000 10.5689 0.0000
# 4 0.0000 0.0000 0.0000 22.2237 0.0000 0.6643
# 5 11.7298 5.2697 10.5689 0.0000 23.5180 0.0000
# 6 0.0000 0.0000 0.0000 0.6643 0.0000 21.1673
#
#
#
# Elastic Compliance Matrix: (Units=1/GPa)
#
#
# Indices 1 2 3 4 5 6 
#
# 1 0.014391 -0.004843 -0.004992 0.000000 -0.003849 0.000000
# 2 -0.004843 0.029951 -0.005750 0.000000 -0.001712 0.000000
# 3 -0.004992 -0.005750 0.014315 0.000000 -0.002655 0.000000
# 4 0.000000 0.000000 0.000000 0.045039 0.000000 -0.001413
# 5 -0.003849 -0.001712 -0.002655 0.000000 0.046017 0.000000
# 6 0.000000 0.000000 0.000000 -0.001413 0.000000 0.047287
#
#
# Mechanical properties :
#
#
# Convention : Reuss Voigt Hill
#
# Bulk Modulus (GPa) = 36.37900 48.42559 42.40230
# Shear Modulus (GPa) = 21.06754 22.74289 21.90522
#
# Velocity S-wave (km/s) = 3.38850 3.52065 3.45521
# Velocity P-wave (km/s) = 5.92756 6.55125 6.24719
#
# Compressibility (1/GPa) = 0.02748839
#
# Stress axis : x y z
#
# Youngs Moduli (GPa) = 69.48909 33.38781 69.85559
#
# Poissons Ratio (x) = 0.16168 0.34872
# Poissons Ratio (y) = 0.33651 0.40166
# Poissons Ratio (z) = 0.34689 0.19197
#
# Static dielectric constant tensor:
#      x y z
#    x 3.847460 0.000000 -0.089810 
#    y 0.000000 3.053520 0.000000 
#    z -0.089810 0.000000 3.399490 
# 
# 
# High freq. dielectric constant tensor:
#      x y z
#    x 1.723880 0.000000 -0.000590 
#    y 0.000000 1.683970 0.000000 
#    z -0.000590 0.000000 1.700220 
# 
# From -- ./inp_files/53212.got.cif
#   From: 2010.06.25/outbox.cif.g09.slc.cpg/sg11_27_cif.got.tgz:53212.got - 2010.06.27 23:14:04.
