data_PCOD8071757
_publ_section_title
;
Structure prediction by ZEFSAII (Michael W. Deem and Ramdas Pophale) SiO2 
 PCOD8071757
Probable space group: P 21/M
;
_chemical_formula_sum "Si O2"
_cell_formula_units_Z 24
_cell_length_a 14.959483
_cell_length_b 8.817363
_cell_length_c 14.659537
_cell_angle_alpha 90.000000
_cell_angle_beta 39.995589
_cell_angle_gamma 90.000000
_cell_volume 1242.805615
_symmetry_space_group_name_H-M "P 21/M"
_symmetry_group_IT_number 11
_symmetry_cell_setting 'monoclinic'
loop_
_space_group_symop_operation_xyz
x,y,z
-x,1/2+y,-z
-x,-y,-z
x,1/2-y,z
loop_
_atom_site_type_symbol
_atom_site_label
_atom_site_fract_x
_atom_site_fract_y
_atom_site_fract_z
Si Si1 0.905313 0.573136 0.879128
Si Si2 0.305921 0.425132 0.110091
Si Si3 0.427984 0.426983 0.373884
Si Si4 0.407194 0.572420 0.201939
Si Si5 0.738405 0.070683 0.171513
Si Si6 0.813627 0.928115 0.301076
O O1 0.895983 0.750000 0.913725
O O2 0.833419 0.543889 0.837812
O O3 0.063186 0.518842 0.745503
O O4 0.830280 0.471347 0.013062
O O5 0.324914 0.250000 0.120040
O O6 0.297644 0.516397 0.211351
O O7 0.437785 0.481169 0.947375
O O8 0.433159 0.250000 0.350793
O O9 0.368598 0.503521 0.329520
O O10 0.581302 0.487576 0.278731
O O11 0.328089 0.468840 0.535764
O O12 0.395536 0.750000 0.220330
O O13 0.744894 0.250000 0.184314
O O14 0.802393 0.982843 0.206590
O O15 0.845916 0.750000 0.278156
#
# Coordination Sequence:
#
# PCOD8071757 Si02
#       6
#     4   4   4   4   4   4
#     4  11  22  39  60  85 116 151 190 234 282 335
#     4   9  19  35  56  84 115 146 183 232 283 332
#     4  10  22  39  59  84 116 151 189 234 284 336
#     4  10  19  33  58  88 114 144 185 234 283 334
#     4  11  22  38  61  86 111 149 194 237 283 334
#     4  11  24  40  57  82 117 154 190 234 284 336
#
# _framework density 19.311145
#
# number of rings (size 3 to 8) (size 9 to 14) (size 15 to 20)
#    0.000    1.667    1.667    3.000    0.000    4.000 
#    0.000    0.833    0.000    0.000    0.000    0.000 
#    0.000    0.000    0.000    0.000    0.000    0.000 
#
# Total GULP energy -297731.703602 kJ/mol
# GULP energy per Si atom -12405.487650 kJ/mol
# Density = 1.926719 g / cm^3
# Si number density = 19.311145 Si / 1000 Ang^3
#
#
#
# Elastic Constant Matrix: (Units=GPa)
#
#
# Indices 1 2 3 4 5 6 
#
# 1 114.8497 32.9224 23.4146 0.0000 -5.8674 0.0000
# 2 32.9224 45.7873 20.6737 0.0000 0.1463 0.0000
# 3 23.4146 20.6737 45.4590 0.0000 -12.0122 0.0000
# 4 0.0000 0.0000 0.0000 26.9323 0.0000 -0.8183
# 5 -5.8674 0.1463 -12.0122 0.0000 24.0137 0.0000
# 6 0.0000 0.0000 0.0000 -0.8183 0.0000 28.5618
#
#
#
# Elastic Compliance Matrix: (Units=1/GPa)
#
#
# Indices 1 2 3 4 5 6 
#
# 1 0.011278 -0.007175 -0.002081 0.000000 0.001758 0.000000
# 2 -0.007175 0.033238 -0.013755 0.000000 -0.008836 0.000000
# 3 -0.002081 -0.013755 0.033663 0.000000 0.016414 0.000000
# 4 0.000000 0.000000 0.000000 0.037162 0.000000 0.001065
# 5 0.001758 -0.008836 0.016414 0.000000 0.050337 0.000000
# 6 0.000000 0.000000 0.000000 0.001065 0.000000 0.035042
#
#
# Mechanical properties :
#
#
# Convention : Reuss Voigt Hill
#
# Bulk Modulus (GPa) = 31.09868 40.01305 35.55586
# Shear Modulus (GPa) = 19.42031 24.50724 21.96377
#
# Velocity S-wave (km/s) = 3.17464 3.56627 3.37614
# Velocity P-wave (km/s) = 5.43845 6.14189 5.80085
#
# Compressibility (1/GPa) = 0.03215571
#
# Stress axis : x y z
#
# Youngs Moduli (GPa) = 88.66865 30.08592 29.70642
#
# Poissons Ratio (x) = 0.21587 0.06183
# Poissons Ratio (y) = 0.63620 0.40862
# Poissons Ratio (z) = 0.18455 0.41384
#
# Static dielectric constant tensor:
#      x y z
#    x 3.647470 0.000000 -0.066330 
#    y 0.000000 3.514880 0.000000 
#    z -0.066330 0.000000 3.389570 
# 
# 
# High freq. dielectric constant tensor:
#      x y z
#    x 1.763160 0.000000 0.003340 
#    y 0.000000 1.757370 0.000000 
#    z 0.003340 0.000000 1.733760 
# 
# From -- ./inp_files/51497.got.cif
#   From: 2010.06.25/outbox.cif.g09.slc.cpg/sg11_26_cif.got.tgz:51497.got - 2010.06.27 23:14:04.
