data_PCOD8071723
_publ_section_title
;
Structure prediction by ZEFSAII (Michael W. Deem and Ramdas Pophale) SiO2 
 PCOD8071723
Probable space group: P 21/M
;
_chemical_formula_sum "Si O2"
_cell_formula_units_Z 32
_cell_length_a 12.329351
_cell_length_b 21.241676
_cell_length_c 7.943122
_cell_angle_alpha 90.000000
_cell_angle_beta 54.454168
_cell_angle_gamma 90.000000
_cell_volume 1692.615271
_symmetry_space_group_name_H-M "P 21/M"
_symmetry_group_IT_number 11
_symmetry_cell_setting 'monoclinic'
loop_
_space_group_symop_operation_xyz
x,y,z
-x,1/2+y,-z
-x,-y,-z
x,1/2-y,z
loop_
_atom_site_type_symbol
_atom_site_label
_atom_site_fract_x
_atom_site_fract_y
_atom_site_fract_z
Si Si1 0.013573 0.449454 0.844041
Si Si2 0.773131 0.938951 0.604805
Si Si3 0.482519 0.597082 0.777359
Si Si4 0.816458 0.680937 0.749907
Si Si5 0.815259 0.874849 0.090807
Si Si6 0.748148 0.495833 0.976741
Si Si7 0.535509 0.823641 0.417151
Si Si8 0.500832 0.680025 0.074550
O O1 0.124204 0.474045 0.611104
O O2 0.066759 0.383836 0.877603
O O3 0.868588 0.445076 0.887906
O O4 0.000000 0.500000 0.000000
O O5 0.635173 0.925092 0.635332
O O6 0.849339 0.873543 0.586496
O O7 0.741755 0.983153 0.789754
O O8 0.458071 0.640623 0.636095
O O9 0.389618 0.536394 0.846771
O O10 0.442114 0.633392 0.986688
O O11 0.869792 0.750000 0.644863
O O12 0.877421 0.663331 0.877426
O O13 0.658471 0.682356 0.912189
O O14 0.693417 0.837505 0.284544
O O15 0.763362 0.943458 0.080432
O O16 0.514948 0.750000 0.465282
O O17 0.473439 0.843793 0.290839
O O18 0.440791 0.750000 0.101978
#
# Coordination Sequence:
#
# PCOD8071723 Si02
#       8
#     4   4   4   4   4   4   4   4
#     4  10  20  37  52  77 108 149 181 218 273 336
#     4  10  19  35  55  78 111 143 189 222 270 331
#     4  11  20  34  55  88 112 140 187 231 279 326
#     4   8  15  29  53  80 105 132 177 239 280 310
#     4   9  17  34  52  79 110 139 186 227 271 328
#     4  10  22  35  54  79 116 150 175 224 279 333
#     4  10  19  33  57  83 109 144 185 234 281 322
#     4   8  16  31  50  77 110 142 178 224 280 333
#
# _framework density 18.905653999999998
#
# number of rings (size 3 to 8) (size 9 to 14) (size 15 to 20)
#    0.000    2.500    1.250    3.000    0.000    1.000 
#    4.500    0.000    0.000    4.500    0.000    0.000 
#    0.000    0.000    0.000    0.000    0.000    0.000 
#
# Total GULP energy -396605.084587 kJ/mol
# GULP energy per Si atom -12393.908893 kJ/mol
# Density = 1.886262 g / cm^3
# Si number density = 18.905654 Si / 1000 Ang^3
#
#
#
# Elastic Constant Matrix: (Units=GPa)
#
#
# Indices 1 2 3 4 5 6 
#
# 1 39.9249 17.1650 20.7033 0.0000 7.7602 0.0000
# 2 17.1650 72.3059 34.5017 0.0000 5.2799 0.0000
# 3 20.7033 34.5017 96.8756 0.0000 16.0141 0.0000
# 4 0.0000 0.0000 0.0000 19.1809 0.0000 6.4047
# 5 7.7602 5.2799 16.0141 0.0000 23.6107 0.0000
# 6 0.0000 0.0000 0.0000 6.4047 0.0000 21.5762
#
#
#
# Elastic Compliance Matrix: (Units=1/GPa)
#
#
# Indices 1 2 3 4 5 6 
#
# 1 0.030325 -0.004992 -0.003649 0.000000 -0.006376 0.000000
# 2 -0.004992 0.017486 -0.005390 0.000000 0.001386 0.000000
# 3 -0.003649 -0.005390 0.014219 0.000000 -0.007239 0.000000
# 4 0.000000 0.000000 0.000000 0.057871 0.000000 -0.017179
# 5 -0.006376 0.001386 -0.007239 0.000000 0.049049 0.000000
# 6 0.000000 0.000000 0.000000 -0.017179 0.000000 0.051447
#
#
# Mechanical properties :
#
#
# Convention : Reuss Voigt Hill
#
# Bulk Modulus (GPa) = 29.43992 39.31628 34.37810
# Shear Modulus (GPa) = 19.24699 21.98930 20.61814
#
# Velocity S-wave (km/s) = 3.19416 3.41414 3.30598
# Velocity P-wave (km/s) = 5.40457 6.03183 5.72679
#
# Compressibility (1/GPa) = 0.03396748
#
# Stress axis : x y z
#
# Youngs Moduli (GPa) = 32.97634 57.18912 70.33084
#
# Poissons Ratio (x) = 0.28551 0.25662
# Poissons Ratio (y) = 0.16463 0.37906
# Poissons Ratio (z) = 0.12032 0.30823
#
# Static dielectric constant tensor:
#      x y z
#    x 3.653580 0.000000 0.357420 
#    y 0.000000 3.708070 0.000000 
#    z 0.357420 0.000000 3.424120 
# 
# 
# High freq. dielectric constant tensor:
#      x y z
#    x 1.711370 0.000000 0.035060 
#    y 0.000000 1.724580 0.000000 
#    z 0.035060 0.000000 1.723340 
# 
# From -- ./inp_files/19177.got.cif
#   From: 2010.06.25/outbox.cif.g09.slc.cpg/sg11_10_cif.got.tgz:19177.got - 2010.06.27 23:14:04.
