data_PCOD8071752
_publ_section_title
;
Structure prediction by ZEFSAII (Michael W. Deem and Ramdas Pophale) SiO2 
 PCOD8071752
Probable space group: P 21/M
;
_chemical_formula_sum "Si O2"
_cell_formula_units_Z 32
_cell_length_a 9.035807
_cell_length_b 12.828314
_cell_length_c 20.502989
_cell_angle_alpha 90.000000
_cell_angle_beta 42.497252
_cell_angle_gamma 90.000000
_cell_volume 1605.514824
_symmetry_space_group_name_H-M "P 21/M"
_symmetry_group_IT_number 11
_symmetry_cell_setting 'monoclinic'
loop_
_space_group_symop_operation_xyz
x,y,z
-x,1/2+y,-z
-x,-y,-z
x,1/2-y,z
loop_
_atom_site_type_symbol
_atom_site_label
_atom_site_fract_x
_atom_site_fract_y
_atom_site_fract_z
Si Si1 0.177168 0.628538 0.889864
Si Si2 0.988233 0.365989 0.446009
Si Si3 0.688205 0.133128 0.661573
Si Si4 0.732829 0.504436 0.013786
Si Si5 0.536522 0.928827 0.675176
Si Si6 0.680905 0.373547 0.903395
Si Si7 0.320157 0.460450 0.510706
Si Si8 0.934543 0.368674 0.702111
O O1 0.144685 0.750000 0.920708
O O2 0.330226 0.626878 0.775391
O O3 0.946487 0.577195 0.946058
O O4 0.288884 0.561701 0.911965
O O5 0.953124 0.250000 0.428701
O O6 0.911509 0.370784 0.546237
O O7 0.841276 0.444259 0.452607
O O8 0.243356 0.393800 0.359242
O O9 0.588188 0.250000 0.695370
O O10 0.760016 0.084196 0.707396
O O11 0.506326 0.054825 0.691571
O O12 0.739156 0.420046 0.954273
O O13 0.531047 0.580550 0.064602
O O14 0.565196 0.904452 0.588821
O O15 0.649765 0.250000 0.921578
O O16 0.886998 0.407967 0.790805
O O17 0.500000 0.500000 0.500000
O O18 0.183826 0.379702 0.598686
O O19 0.868617 0.250000 0.721345
#
# Coordination Sequence:
#
# PCOD8071752 Si02
#       8
#     4   4   4   4   4   4   4   4
#     4  11  24  41  63  93 124 159 203 253 313 370
#     4  10  19  35  56  79 112 158 204 239 278 343
#     4   9  16  31  55  82 110 147 199 244 279 334
#     4  10  23  42  65  88 124 156 201 262 313 363
#     4  11  20  37  59  87 118 161 199 242 297 356
#     4  10  21  40  67  92 117 158 205 252 308 367
#     4  11  23  36  56  84 127 157 188 242 296 359
#     4  10  19  33  58  86 111 148 195 236 288 353
#
# _framework density 19.9313
#
# number of rings (size 3 to 8) (size 9 to 14) (size 15 to 20)
#    0.000    1.750    2.500    2.625    1.750    1.000 
#    0.000    3.125    0.000    0.000    0.000    0.000 
#    0.000    0.000    0.000    0.000    0.000    0.000 
#
# Total GULP energy -396520.838470 kJ/mol
# GULP energy per Si atom -12391.276202 kJ/mol
# Density = 1.988594 g / cm^3
# Si number density = 19.931300 Si / 1000 Ang^3
#
#
#
# Elastic Constant Matrix: (Units=GPa)
#
#
# Indices 1 2 3 4 5 6 
#
# 1 90.6532 21.8947 44.5406 0.0000 5.9931 0.0000
# 2 21.8947 92.4978 33.9819 0.0000 3.2682 0.0000
# 3 44.5406 33.9819 118.4108 0.0000 15.1670 0.0000
# 4 0.0000 0.0000 0.0000 26.7964 0.0000 0.4752
# 5 5.9931 3.2682 15.1670 0.0000 21.0203 0.0000
# 6 0.0000 0.0000 0.0000 0.4752 0.0000 22.0397
#
#
#
# Elastic Compliance Matrix: (Units=1/GPa)
#
#
# Indices 1 2 3 4 5 6 
#
# 1 0.013720 -0.001515 -0.004689 0.000000 -0.000293 0.000000
# 2 -0.001515 0.012261 -0.003041 0.000000 0.000720 0.000000
# 3 -0.004689 -0.003041 0.011955 0.000000 -0.006816 0.000000
# 4 0.000000 0.000000 0.000000 0.037333 0.000000 -0.000805
# 5 -0.000293 0.000720 -0.006816 0.000000 0.052463 0.000000
# 6 0.000000 0.000000 0.000000 -0.000805 0.000000 0.045390
#
#
# Mechanical properties :
#
#
# Convention : Reuss Voigt Hill
#
# Bulk Modulus (GPa) = 51.42196 55.82180 53.62188
# Shear Modulus (GPa) = 25.24070 27.38094 26.31082
#
# Velocity S-wave (km/s) = 3.56249 3.71046 3.63723
# Velocity P-wave (km/s) = 6.54044 6.81356 6.67840
#
# Compressibility (1/GPa) = 0.01944695
#
# Stress axis : x y z
#
# Youngs Moduli (GPa) = 72.88692 81.55627 83.64960
#
# Poissons Ratio (x) = 0.12354 0.39219
# Poissons Ratio (y) = 0.11040 0.25440
# Poissons Ratio (z) = 0.34173 0.24803
#
# Static dielectric constant tensor:
#      x y z
#    x 3.459320 0.000000 0.235070 
#    y 0.000000 3.651830 0.000000 
#    z 0.235070 0.000000 3.769650 
# 
# 
# High freq. dielectric constant tensor:
#      x y z
#    x 1.760300 0.000000 0.011410 
#    y 0.000000 1.785220 0.000000 
#    z 0.011410 0.000000 1.774810 
# 
# From -- ./inp_files/63796.got.cif
#   From: 2010.06.25/outbox.cif.g09.slc.cpg/sg11_32_cif.got.tgz:63796.got - 2010.06.27 23:14:04.
