data_PCOD8071743
_publ_section_title
;
Structure prediction by ZEFSAII (Michael W. Deem and Ramdas Pophale) SiO2 
 PCOD8071743
Probable space group: P 21/M
;
_chemical_formula_sum "Si O2"
_cell_formula_units_Z 28
_cell_length_a 17.586552
_cell_length_b 19.081394
_cell_length_c 8.674554
_cell_angle_alpha 90.000000
_cell_angle_beta 28.528929
_cell_angle_gamma 90.000000
_cell_volume 1390.287035
_symmetry_space_group_name_H-M "P 21/M"
_symmetry_group_IT_number 11
_symmetry_cell_setting 'monoclinic'
loop_
_space_group_symop_operation_xyz
x,y,z
-x,1/2+y,-z
-x,-y,-z
x,1/2-y,z
loop_
_atom_site_type_symbol
_atom_site_label
_atom_site_fract_x
_atom_site_fract_y
_atom_site_fract_z
Si Si1 0.969240 0.328340 0.300572
Si Si2 0.710102 0.674467 0.445377
Si Si3 0.426493 0.935251 0.418208
Si Si4 0.724133 0.921904 0.703490
Si Si5 0.903877 0.928091 0.688317
Si Si6 0.152057 0.952113 0.687324
Si Si7 0.425426 0.081600 0.549650
O O1 0.889502 0.250000 0.459199
O O2 0.880030 0.378029 0.336572
O O3 0.980150 0.368426 0.446040
O O4 0.145061 0.315833 0.927556
O O5 0.649209 0.750000 0.612774
O O6 0.766939 0.628880 0.487673
O O7 0.571649 0.639378 0.589975
O O8 0.245713 0.934595 0.679606
O O9 0.454679 0.891803 0.527594
O O10 0.490762 0.012236 0.349930
O O11 0.543068 0.906969 0.077279
O O12 0.847632 0.904120 0.619550
O O13 0.738253 0.002210 0.621924
O O14 0.751111 0.937211 0.071542
O O15 0.000000 0.000000 0.500000
O O16 0.000000 0.000000 0.000000
#
# Coordination Sequence:
#
# PCOD8071743 Si02
#       7
#     4   4   4   4   4   4   4
#     4  10  21  37  56  83 120 155 185 238 301 347
#     4  10  20  36  58  84 116 149 193 239 293 351
#     4  10  21  35  58  84 118 142 192 248 276 341
#     4  11  21  34  59  91 110 147 197 243 288 326
#     4  10  19  33  57  88 114 146 195 240 276 349
#     4  12  20  35  61  88 114 151 198 237 283 345
#     4   9  19  36  55  84 111 151 187 231 301 329
#
# _framework density 20.139727000000001
#
# number of rings (size 3 to 8) (size 9 to 14) (size 15 to 20)
#    0.000    1.714    4.286    1.286    0.000    0.571 
#    0.000    3.571    0.000    0.000    0.000    1.000 
#    0.000    0.000    0.000    0.000    0.000    0.000 
#
# Total GULP energy -346995.167153 kJ/mol
# GULP energy per Si atom -12392.684541 kJ/mol
# Density = 2.009389 g / cm^3
# Si number density = 20.139727 Si / 1000 Ang^3
#
#
#
# Elastic Constant Matrix: (Units=GPa)
#
#
# Indices 1 2 3 4 5 6 
#
# 1 180.5523 64.1637 25.0797 0.0000 -7.8456 0.0000
# 2 64.1637 136.0427 11.7651 0.0000 5.2853 0.0000
# 3 25.0797 11.7651 30.7834 0.0000 -2.3098 0.0000
# 4 0.0000 0.0000 0.0000 13.5420 0.0000 -2.8817
# 5 -7.8456 5.2853 -2.3098 0.0000 27.7639 0.0000
# 6 0.0000 0.0000 0.0000 -2.8817 0.0000 25.1366
#
#
#
# Elastic Compliance Matrix: (Units=1/GPa)
#
#
# Indices 1 2 3 4 5 6 
#
# 1 0.007418 -0.003186 -0.004652 0.000000 0.002316 0.000000
# 2 -0.003186 0.009051 -0.001067 0.000000 -0.002712 0.000000
# 3 -0.004652 -0.001067 0.036829 0.000000 0.001953 0.000000
# 4 0.000000 0.000000 0.000000 0.075691 0.000000 0.008677
# 5 0.002316 -0.002712 0.001953 0.000000 0.037351 0.000000
# 6 0.000000 0.000000 0.000000 0.008677 0.000000 0.040777
#
#
# Mechanical properties :
#
#
# Convention : Reuss Voigt Hill
#
# Bulk Modulus (GPa) = 28.17839 61.04396 44.61118
# Shear Modulus (GPa) = 21.11875 29.71315 25.41595
#
# Velocity S-wave (km/s) = 3.24174 3.84520 3.55629
# Velocity P-wave (km/s) = 5.29468 7.07743 6.24995
#
# Compressibility (1/GPa) = 0.03548818
#
# Stress axis : x y z
#
# Youngs Moduli (GPa) = 134.81417 110.48514 27.15232
#
# Poissons Ratio (x) = 0.35202 0.12631
# Poissons Ratio (y) = 0.42954 0.02897
# Poissons Ratio (z) = 0.62713 0.11788
#
# Static dielectric constant tensor:
#      x y z
#    x 3.958360 0.000000 0.045060 
#    y 0.000000 3.859970 0.000000 
#    z 0.045060 0.000000 3.437240 
# 
# 
# High freq. dielectric constant tensor:
#      x y z
#    x 1.807040 0.000000 0.007020 
#    y 0.000000 1.761130 0.000000 
#    z 0.007020 0.000000 1.759210 
# 
# From -- ./inp_files/25257.got.cif
#   From: 2010.06.25/outbox.cif.g09.slc.cpg/sg11_13_cif.got.tgz:25257.got - 2010.06.27 23:14:04.
