data_PCOD8071467
_publ_section_title
;
Structure prediction by ZEFSAII (Michael W. Deem and Ramdas Pophale) SiO2 
 PCOD8071467
Probable space group: P 21/M
;
_chemical_formula_sum "Si O2"
_cell_formula_units_Z 32
_cell_length_a 13.978548
_cell_length_b 17.123381
_cell_length_c 16.700957
_cell_angle_alpha 90.000000
_cell_angle_beta 24.769785
_cell_angle_gamma 90.000000
_cell_volume 1674.863022
_symmetry_space_group_name_H-M "P 21/M"
_symmetry_group_IT_number 11
_symmetry_cell_setting 'monoclinic'
loop_
_space_group_symop_operation_xyz
x,y,z
-x,1/2+y,-z
-x,-y,-z
x,1/2-y,z
loop_
_atom_site_type_symbol
_atom_site_label
_atom_site_fract_x
_atom_site_fract_y
_atom_site_fract_z
Si Si1 0.749216 0.842138 0.818676
Si Si2 0.121514 0.484554 0.990243
Si Si3 0.301118 0.440404 0.630007
Si Si4 0.603392 0.939412 0.616433
Si Si5 0.668285 0.660164 0.237221
Si Si6 0.237627 0.893259 0.482507
Si Si7 0.176908 0.340691 0.414223
Si Si8 0.326272 0.841304 0.240241
O O1 0.729668 0.750000 0.827787
O O2 0.750493 0.876197 0.727391
O O3 0.980701 0.863216 0.689269
O O4 0.533360 0.876464 0.030632
O O5 0.935912 0.509622 0.197886
O O6 0.341011 0.539646 0.831836
O O7 0.196308 0.392808 0.931997
O O8 0.000000 0.500000 0.000000
O O9 0.500000 0.500000 0.500000
O O10 0.358705 0.401512 0.500402
O O11 0.286414 0.372355 0.707744
O O12 0.678579 0.879151 0.626094
O O13 0.760401 0.015767 0.498947
O O14 0.751037 0.750000 0.169399
O O15 0.399510 0.654484 0.420546
O O16 0.325722 0.884443 0.325006
O O17 0.234319 0.250000 0.373854
O O18 0.907105 0.356198 0.631306
O O19 0.357575 0.750000 0.234791
#
# Coordination Sequence:
#
# PCOD8071467 Si02
#       8
#     4   4   4   4   4   4   4   4
#     4   9  18  34  56  79 113 150 181 223 282 331
#     4   9  19  37  59  75 110 147 181 225 288 333
#     4  11  20  40  61  78 113 158 188 225 294 343
#     4  11  22  36  58  82 110 149 188 233 281 340
#     4  10  20  36  59  86 116 145 190 242 279 335
#     4  10  19  33  53  80 114 143 181 228 283 332
#     4   9  20  38  56  78 110 146 186 231 277 329
#     4   9  18  34  54  77 111 150 181 226 281 330
#
# _framework density 19.106041000000001
#
# number of rings (size 3 to 8) (size 9 to 14) (size 15 to 20)
#    0.000    2.250    3.750    1.875    0.000    5.500 
#    0.000    4.375    0.000    0.000    0.000    0.000 
#    0.000    0.000    0.000    0.000    0.000    0.000 
#
# Total GULP energy -396669.846409 kJ/mol
# GULP energy per Si atom -12395.932700 kJ/mol
# Density = 1.906255 g / cm^3
# Si number density = 19.106041 Si / 1000 Ang^3
#
#
#
# Elastic Constant Matrix: (Units=GPa)
#
#
# Indices 1 2 3 4 5 6 
#
# 1 97.4094 32.1708 41.0505 0.0000 -8.3560 0.0000
# 2 32.1708 65.4667 33.0911 0.0000 -7.5470 0.0000
# 3 41.0505 33.0911 138.7552 0.0000 -4.9536 0.0000
# 4 0.0000 0.0000 0.0000 17.8330 0.0000 0.4091
# 5 -8.3560 -7.5470 -4.9536 0.0000 20.9001 0.0000
# 6 0.0000 0.0000 0.0000 0.4091 0.0000 34.4543
#
#
#
# Elastic Compliance Matrix: (Units=1/GPa)
#
#
# Indices 1 2 3 4 5 6 
#
# 1 0.013229 -0.004820 -0.002660 0.000000 0.002918 0.000000
# 2 -0.004820 0.019735 -0.003121 0.000000 0.004460 0.000000
# 3 -0.002660 -0.003121 0.008734 0.000000 -0.000121 0.000000
# 4 0.000000 0.000000 0.000000 0.056091 0.000000 -0.000666
# 5 0.002918 0.004460 -0.000121 0.000000 0.050595 0.000000
# 6 0.000000 0.000000 0.000000 -0.000666 0.000000 0.029032
#
#
# Mechanical properties :
#
#
# Convention : Reuss Voigt Hill
#
# Bulk Modulus (GPa) = 48.79099 57.13955 52.96527
# Shear Modulus (GPa) = 24.33664 27.65872 25.99768
#
# Velocity S-wave (km/s) = 3.57286 3.80892 3.69278
# Velocity P-wave (km/s) = 6.52785 7.02248 6.77968
#
# Compressibility (1/GPa) = 0.02049559
#
# Stress axis : x y z
#
# Youngs Moduli (GPa) = 75.59052 50.67052 114.49430
#
# Poissons Ratio (x) = 0.24423 0.30458
# Poissons Ratio (y) = 0.36434 0.35739
# Poissons Ratio (z) = 0.20108 0.15816
#
# Static dielectric constant tensor:
#      x y z
#    x 3.573570 0.000000 -0.226380 
#    y 0.000000 3.340520 0.000000 
#    z -0.226380 0.000000 2.646360 
# 
# 
# High freq. dielectric constant tensor:
#      x y z
#    x 1.744590 0.000000 -0.005960 
#    y 0.000000 1.717310 0.000000 
#    z -0.005960 0.000000 1.746300 
# 
# From -- ./inp_files/50646.got.cif
#   From: 2010.06.25/outbox.cif.g09.slc.cpg/sg11_26_cif.got.tgz:50646.got - 2010.06.27 23:14:04.
