data_PCOD8071344
_publ_section_title
;
Structure prediction by ZEFSAII (Michael W. Deem and Ramdas Pophale) SiO2 
 PCOD8071344
Probable space group: P 21/M
;
_chemical_formula_sum "Si O2"
_cell_formula_units_Z 32
_cell_length_a 22.840606
_cell_length_b 9.003341
_cell_length_c 21.233887
_cell_angle_alpha 90.000000
_cell_angle_beta 155.675173
_cell_angle_gamma 90.000000
_cell_volume 1798.632185
_symmetry_space_group_name_H-M "P 21/M"
_symmetry_group_IT_number 11
_symmetry_cell_setting 'monoclinic'
loop_
_space_group_symop_operation_xyz
x,y,z
-x,1/2+y,-z
-x,-y,-z
x,1/2-y,z
loop_
_atom_site_type_symbol
_atom_site_label
_atom_site_fract_x
_atom_site_fract_y
_atom_site_fract_z
Si Si1 0.170021 0.425091 0.044043
Si Si2 0.273799 0.574869 0.812329
Si Si3 0.464801 0.073538 0.097713
Si Si4 0.738392 0.575705 0.333458
Si Si5 0.773540 0.576321 0.040074
Si Si6 0.350632 0.422614 0.341081
Si Si7 0.931069 0.575966 0.872818
Si Si8 0.959847 0.419728 0.316506
O O1 0.144558 0.250000 0.024591
O O2 0.278252 0.479370 0.204872
O O3 0.237938 0.472543 0.043904
O O4 0.013518 0.502766 0.894576
O O5 0.307654 0.750000 0.843080
O O6 0.251093 0.513138 0.720899
O O7 0.131588 0.537692 0.711710
O O8 0.403865 0.487920 0.972086
O O9 0.483205 0.250000 0.111395
O O10 0.614090 0.992115 0.254716
O O11 0.366826 0.023269 0.060272
O O12 0.716763 0.750000 0.298892
O O13 0.878106 0.543616 0.510588
O O14 0.790016 0.750000 0.062026
O O15 0.913482 0.510008 0.209581
O O16 0.500000 0.500000 0.500000
O O17 0.383986 0.250000 0.367575
O O18 0.239782 0.453154 0.290434
O O19 0.962292 0.750000 0.904636
O O20 0.000000 0.500000 0.000000
O O21 0.934959 0.250000 0.274786
#
# Coordination Sequence:
#
# PCOD8071344 Si02
#       8
#     4   4   4   4   4   4   4   4
#     4   9  18  34  54  76  99 129 168 208 244 287
#     4  10  19  33  52  73  96 126 163 203 249 304
#     4  10  20  34  51  72  98 130 165 204 247 297
#     4  11  21  33  49  72 100 128 159 203 254 301
#     4   9  19  36  56  73  94 127 169 208 244 289
#     4   9  18  31  49  75 108 135 160 196 240 284
#     4   9  17  30  49  75 103 132 164 201 239 282
#     4   9  20  35  51  72  99 127 159 203 252 296
#
# _framework density 17.791297
#
# number of rings (size 3 to 8) (size 9 to 14) (size 15 to 20)
#    0.000    2.500    0.000    3.000    0.000    5.000 
#    0.000    1.250    0.000    4.500    0.000    0.000 
#    0.000    0.000    0.000    0.000    0.000    0.000 
#
# Total GULP energy -396691.150847 kJ/mol
# GULP energy per Si atom -12396.598464 kJ/mol
# Density = 1.775080 g / cm^3
# Si number density = 17.791297 Si / 1000 Ang^3
#
#
#
# Elastic Constant Matrix: (Units=GPa)
#
#
# Indices 1 2 3 4 5 6 
#
# 1 106.6416 35.0216 54.8160 0.0000 1.3132 0.0000
# 2 35.0216 50.1164 49.5525 0.0000 10.7689 0.0000
# 3 54.8160 49.5525 113.5750 0.0000 12.6910 0.0000
# 4 0.0000 0.0000 0.0000 32.7524 0.0000 3.1978
# 5 1.3132 10.7689 12.6910 0.0000 17.0193 0.0000
# 6 0.0000 0.0000 0.0000 3.1978 0.0000 26.6604
#
#
#
# Elastic Compliance Matrix: (Units=1/GPa)
#
#
# Indices 1 2 3 4 5 6 
#
# 1 0.013764 -0.006547 -0.004507 0.000000 0.006441 0.000000
# 2 -0.006547 0.040508 -0.012770 0.000000 -0.015603 0.000000
# 3 -0.004507 -0.012770 0.017029 0.000000 -0.004270 0.000000
# 4 0.000000 0.000000 0.000000 0.030894 0.000000 -0.003706
# 5 0.006441 -0.015603 -0.004270 0.000000 0.071317 0.000000
# 6 0.000000 0.000000 0.000000 -0.003706 0.000000 0.037953
#
#
# Mechanical properties :
#
#
# Convention : Reuss Voigt Hill
#
# Bulk Modulus (GPa) = 42.27679 61.01256 51.64468
# Shear Modulus (GPa) = 18.72687 24.01596 21.37141
#
# Velocity S-wave (km/s) = 3.24788 3.67804 3.46963
# Velocity P-wave (km/s) = 6.15460 7.23915 6.71880
#
# Compressibility (1/GPa) = 0.02365364
#
# Stress axis : x y z
#
# Youngs Moduli (GPa) = 72.65148 24.68673 58.72476
#
# Poissons Ratio (x) = 0.16161 0.26465
# Poissons Ratio (y) = 0.47562 0.74992
# Poissons Ratio (z) = 0.32742 0.31525
#
# Static dielectric constant tensor:
#      x y z
#    x 3.440810 0.000000 0.293820 
#    y 0.000000 3.406240 0.000000 
#    z 0.293820 0.000000 3.434090 
# 
# 
# High freq. dielectric constant tensor:
#      x y z
#    x 1.678560 0.000000 0.019340 
#    y 0.000000 1.694360 0.000000 
#    z 0.019340 0.000000 1.680610 
# 
# From -- ./inp_files/70007.got.cif
#   From: 2010.06.25/outbox.cif.g09.slc.cpg/sg11_36_cif.got.tgz:70007.got - 2010.06.27 23:14:04.
