data_PCOD8071114
_publ_section_title
;
Structure prediction by ZEFSAII (Michael W. Deem and Ramdas Pophale) SiO2 
 PCOD8071114
Probable space group: P 21/M
;
_chemical_formula_sum "Si O2"
_cell_formula_units_Z 32
_cell_length_a 28.171925
_cell_length_b 8.950378
_cell_length_c 21.741809
_cell_angle_alpha 90.000000
_cell_angle_beta 161.101648
_cell_angle_gamma 90.000000
_cell_volume 1775.625578
_symmetry_space_group_name_H-M "P 21/M"
_symmetry_group_IT_number 11
_symmetry_cell_setting 'monoclinic'
loop_
_space_group_symop_operation_xyz
x,y,z
-x,1/2+y,-z
-x,-y,-z
x,1/2-y,z
loop_
_atom_site_type_symbol
_atom_site_label
_atom_site_fract_x
_atom_site_fract_y
_atom_site_fract_z
Si Si1 0.657752 0.425579 0.198934
Si Si2 0.440380 0.924562 0.616668
Si Si3 0.841937 0.073853 0.303545
Si Si4 0.401993 0.427945 0.069055
Si Si5 0.677929 0.573931 0.345306
Si Si6 0.588272 0.073956 0.554135
Si Si7 0.824110 0.579106 0.647547
Si Si8 0.083083 0.576812 0.046738
O O1 0.638214 0.250000 0.184199
O O2 0.757487 0.463241 0.262876
O O3 0.736919 0.498289 0.355304
O O4 0.500000 0.500000 0.000000
O O5 0.418193 0.750000 0.592551
O O6 0.562619 0.973544 0.816566
O O7 0.482505 0.972702 0.598735
O O8 0.281535 0.988247 0.437448
O O9 0.856276 0.250000 0.309639
O O10 0.000000 0.000000 0.500000
O O11 0.754499 0.998650 0.139715
O O12 0.399774 0.250000 0.056917
O O13 0.523140 0.500159 0.173238
O O14 0.652471 0.750000 0.304544
O O15 0.799640 0.536970 0.546178
O O16 0.583710 0.250000 0.558311
O O17 0.754195 0.011767 0.761714
O O18 0.500000 0.000000 0.500000
O O19 0.780529 0.750000 0.604656
O O20 0.992471 0.547826 0.872483
O O21 0.092495 0.750000 0.074734
O O22 0.000000 0.500000 0.000000
#
# Coordination Sequence:
#
# PCOD8071114 Si02
#       8
#     4   4   4   4   4   4   4   4
#     4  11  22  36  57  83 111 143 181 225 275 327
#     4   9  18  33  53  79 108 141 180 226 272 322
#     4  11  24  40  58  82 113 147 186 228 277 330
#     4  10  19  33  56  81 109 144 184 227 275 326
#     4  10  19  32  52  81 114 144 181 227 275 328
#     4  10  21  36  53  77 111 146 184 226 272 325
#     4   9  18  31  51  80 110 140 177 226 277 324
#     4  10  19  33  54  79 107 138 177 226 274 322
#
# _framework density 18.021816000000001
#
# number of rings (size 3 to 8) (size 9 to 14) (size 15 to 20)
#    0.000    2.000    2.500    1.500    0.000    3.500 
#    0.000    1.250    0.000    3.000    0.000    0.000 
#    0.000    0.000    0.000    0.000    0.000    0.000 
#
# Total GULP energy -396753.658235 kJ/mol
# GULP energy per Si atom -12398.551820 kJ/mol
# Density = 1.798080 g / cm^3
# Si number density = 18.021816 Si / 1000 Ang^3
#
#
#
# Elastic Constant Matrix: (Units=GPa)
#
#
# Indices 1 2 3 4 5 6 
#
# 1 132.3819 53.0650 73.6430 0.0000 -10.3002 0.0000
# 2 53.0650 67.9680 49.7691 0.0000 -2.2459 0.0000
# 3 73.6430 49.7691 138.7701 0.0000 -8.4955 0.0000
# 4 0.0000 0.0000 0.0000 25.9445 0.0000 0.0833
# 5 -10.3002 -2.2459 -8.4955 0.0000 28.0681 0.0000
# 6 0.0000 0.0000 0.0000 0.0833 0.0000 31.5549
#
#
#
# Elastic Compliance Matrix: (Units=1/GPa)
#
#
# Indices 1 2 3 4 5 6 
#
# 1 0.012866 -0.006889 -0.004179 0.000000 0.002905 0.000000
# 2 -0.006889 0.023650 -0.004957 0.000000 -0.002136 0.000000
# 3 -0.004179 -0.004957 0.011293 0.000000 0.001488 0.000000
# 4 0.000000 0.000000 0.000000 0.038544 0.000000 -0.000102
# 5 0.002905 -0.002136 0.001488 0.000000 0.036973 0.000000
# 6 0.000000 0.000000 0.000000 -0.000102 0.000000 0.031691
#
#
# Mechanical properties :
#
#
# Convention : Reuss Voigt Hill
#
# Bulk Modulus (GPa) = 63.45557 76.89715 70.17636
# Shear Modulus (GPa) = 25.99809 27.95634 26.97722
#
# Velocity S-wave (km/s) = 3.80226 3.94286 3.87320
# Velocity P-wave (km/s) = 7.38669 7.96805 7.68287
#
# Compressibility (1/GPa) = 0.01575906
#
# Stress axis : x y z
#
# Youngs Moduli (GPa) = 77.72228 42.28273 88.55025
#
# Poissons Ratio (x) = 0.29128 0.37009
# Poissons Ratio (y) = 0.53541 0.43895
# Poissons Ratio (z) = 0.32484 0.20960
#
# Static dielectric constant tensor:
#      x y z
#    x 3.645950 0.000000 -0.500880 
#    y 0.000000 3.378070 0.000000 
#    z -0.500880 0.000000 3.715450 
# 
# 
# High freq. dielectric constant tensor:
#      x y z
#    x 1.688640 0.000000 -0.028480 
#    y 0.000000 1.704170 0.000000 
#    z -0.028480 0.000000 1.695450 
# 
# From -- ./inp_files/67301.got.cif
#   From: 2010.06.25/outbox.cif.g09.slc.cpg/sg11_34_cif.got.tgz:67301.got - 2010.06.27 23:14:04.
