data_PCOD8071882
_publ_section_title
;
Structure prediction by ZEFSAII (Michael W. Deem and Ramdas Pophale) SiO2 
 PCOD8071882
Probable space group: P 21/M
;
_chemical_formula_sum "Si O2"
_cell_formula_units_Z 28
_cell_length_a 9.975669
_cell_length_b 9.142148
_cell_length_c 16.244736
_cell_angle_alpha 90.000000
_cell_angle_beta 108.463633
_cell_angle_gamma 90.000000
_cell_volume 1405.243730
_symmetry_space_group_name_H-M "P 21/M"
_symmetry_group_IT_number 11
_symmetry_cell_setting 'monoclinic'
loop_
_space_group_symop_operation_xyz
x,y,z
-x,1/2+y,-z
-x,-y,-z
x,1/2-y,z
loop_
_atom_site_type_symbol
_atom_site_label
_atom_site_fract_x
_atom_site_fract_y
_atom_site_fract_z
Si Si1 0.629049 0.920475 0.567204
Si Si2 0.576559 0.918405 0.902429
Si Si3 0.818358 0.091069 0.490190
Si Si4 0.104315 0.091269 0.632420
Si Si5 0.270797 0.080681 0.235500
Si Si6 0.285047 0.579864 0.922838
Si Si7 0.020198 0.423689 0.796583
O O1 0.615074 0.750000 0.548867
O O2 0.640561 0.959525 0.665725
O O3 0.500000 0.000000 0.500000
O O4 0.767436 0.980024 0.549759
O O5 0.610469 0.750000 0.932375
O O6 0.624882 0.955541 0.819526
O O7 0.408087 0.947024 0.878701
O O8 0.661257 0.025941 0.978435
O O9 0.740117 0.250000 0.477112
O O10 0.981245 0.116943 0.542198
O O11 0.792640 0.024661 0.393025
O O12 0.178743 0.250000 0.661490
O O13 0.047232 0.028500 0.707491
O O14 0.225274 0.250000 0.227733
O O15 0.128293 0.986822 0.200975
O O16 0.244869 0.750000 0.920973
O O17 0.146319 0.488249 0.875093
O O18 0.015111 0.250000 0.805599
#
# Coordination Sequence:
#
# PCOD8071882 Si02
#       7
#     4   4   4   4   4   4   4
#     4  11  23  38  57  82 115 153 196 242 294 352
#     4   9  20  41  64  86 116 153 196 243 293 351
#     4  10  19  34  55  78 107 145 190 236 285 336
#     4   9  19  34  53  79 110 145 187 233 283 337
#     4  10  22  40  62  87 117 154 197 245 297 351
#     4  10  21  38  62  91 120 153 194 240 295 354
#     4  11  22  37  59  89 124 157 196 243 294 349
#
# _framework density 19.925370000000001
#
# number of rings (size 3 to 8) (size 9 to 14) (size 15 to 20)
#    0.000    2.000    1.429    1.714    0.000    5.143 
#    0.000    1.429    0.000    0.000    0.000    0.000 
#    0.000    0.000    0.000    0.000    0.000    0.000 
#
# Total GULP energy -347118.547563 kJ/mol
# GULP energy per Si atom -12397.090984 kJ/mol
# Density = 1.988002 g / cm^3
# Si number density = 19.925370 Si / 1000 Ang^3
#
#
#
# Elastic Constant Matrix: (Units=GPa)
#
#
# Indices 1 2 3 4 5 6 
#
# 1 86.4234 59.7276 65.5132 0.0000 -9.2480 0.0000
# 2 59.7276 100.9040 51.5622 0.0000 -0.9809 0.0000
# 3 65.5132 51.5622 90.9887 0.0000 -12.7009 0.0000
# 4 0.0000 0.0000 0.0000 29.4190 0.0000 -1.1508
# 5 -9.2480 -0.9809 -12.7009 0.0000 37.3010 0.0000
# 6 0.0000 0.0000 0.0000 -1.1508 0.0000 31.0997
#
#
#
# Elastic Compliance Matrix: (Units=1/GPa)
#
#
# Indices 1 2 3 4 5 6 
#
# 1 0.031245 -0.010011 -0.016567 0.000000 0.001842 0.000000
# 2 -0.010011 0.017373 -0.003065 0.000000 -0.003069 0.000000
# 3 -0.016567 -0.003065 0.025272 0.000000 0.004417 0.000000
# 4 0.000000 0.000000 0.000000 0.034041 0.000000 0.001260
# 5 0.001842 -0.003069 0.004417 0.000000 0.028689 0.000000
# 6 0.000000 0.000000 0.000000 0.001260 0.000000 0.032201
#
#
# Mechanical properties :
#
#
# Convention : Reuss Voigt Hill
#
# Bulk Modulus (GPa) = 68.47332 70.21359 69.34345
# Shear Modulus (GPa) = 21.46151 26.33147 23.89649
#
# Velocity S-wave (km/s) = 3.28547 3.63919 3.46685
# Velocity P-wave (km/s) = 6.98798 7.27826 7.13460
#
# Compressibility (1/GPa) = 0.01460423
#
# Stress axis : x y z
#
# Youngs Moduli (GPa) = 32.00481 57.56129 39.56952
#
# Poissons Ratio (x) = 0.57627 0.65553
# Poissons Ratio (y) = 0.32041 0.12128
# Poissons Ratio (z) = 0.53021 0.17642
#
# Static dielectric constant tensor:
#      x y z
#    x 3.949880 0.000000 -0.256920 
#    y 0.000000 4.115210 0.000000 
#    z -0.256920 0.000000 3.542080 
# 
# 
# High freq. dielectric constant tensor:
#      x y z
#    x 1.766590 0.000000 -0.011840 
#    y 0.000000 1.789420 0.000000 
#    z -0.011840 0.000000 1.770290 
# 
# From -- ./inp_files/49022.got.cif
#   From: 2010.06.25/outbox.cif.g09.slc.cpg/sg11_25_cif.got.tgz:49022.got - 2010.06.27 23:14:04.
