data_PCOD8071073
_publ_section_title
;
Structure prediction by ZEFSAII (Michael W. Deem and Ramdas Pophale) SiO2 
 PCOD8071073
Probable space group: P 21/M
;
_chemical_formula_sum "Si O2"
_cell_formula_units_Z 28
_cell_length_a 12.701246
_cell_length_b 9.418925
_cell_length_c 12.541280
_cell_angle_alpha 90.000000
_cell_angle_beta 86.237015
_cell_angle_gamma 90.000000
_cell_volume 1497.104837
_symmetry_space_group_name_H-M "P 21/M"
_symmetry_group_IT_number 11
_symmetry_cell_setting 'monoclinic'
loop_
_space_group_symop_operation_xyz
x,y,z
-x,1/2+y,-z
-x,-y,-z
x,1/2-y,z
loop_
_atom_site_type_symbol
_atom_site_label
_atom_site_fract_x
_atom_site_fract_y
_atom_site_fract_z
Si Si1 0.722659 0.916161 0.901176
Si Si2 0.580079 0.911177 0.562849
Si Si3 0.813820 0.917863 0.523264
Si Si4 0.908954 0.580859 0.737868
Si Si5 0.512955 0.588538 0.809882
Si Si6 0.698168 0.584644 0.142401
Si Si7 0.884876 0.917667 0.286972
O O1 0.717452 0.750000 0.877753
O O2 0.817775 0.976848 0.823029
O O3 0.607995 0.977410 0.874941
O O4 0.745122 0.951970 0.022851
O O5 0.577191 0.750000 0.520868
O O6 0.695671 0.979468 0.538845
O O7 0.550481 0.919310 0.687085
O O8 0.500000 0.000000 0.500000
O O9 0.805081 0.750000 0.528996
O O10 0.881819 0.970309 0.619567
O O11 0.866560 0.968260 0.409777
O O12 0.924140 0.750000 0.745225
O O13 0.015978 0.503128 0.765946
O O14 0.487007 0.750000 0.845319
O O15 0.409400 0.497009 0.831954
O O16 0.671790 0.750000 0.153905
O O17 0.783494 0.538092 0.224335
O O18 0.906407 0.750000 0.277358
#
# Coordination Sequence:
#
# PCOD8071073 Si02
#       7
#     4   4   4   4   4   4   4
#     4   9  18  35  57  79 103 138 180 217 259 313
#     4  10  19  32  52  78 107 140 174 211 258 312
#     4   9  17  33  54  73 100 138 175 208 256 318
#     4  10  19  35  58  77  97 136 183 218 254 309
#     4  10  19  34  56  80 106 136 178 222 257 306
#     4  10  21  36  54  77 109 143 173 213 268 319
#     4  10  21  35  51  76 108 138 169 215 269 312
#
# _framework density 18.702763999999998
#
# number of rings (size 3 to 8) (size 9 to 14) (size 15 to 20)
#    0.000    2.286    1.429    1.714    0.000    2.857 
#    0.000    2.857    0.000    0.000    0.000    0.000 
#    0.000    0.000    0.000    0.000    0.000    0.000 
#
# Total GULP energy -347205.260613 kJ/mol
# GULP energy per Si atom -12400.187879 kJ/mol
# Density = 1.866020 g / cm^3
# Si number density = 18.702764 Si / 1000 Ang^3
#
#
#
# Elastic Constant Matrix: (Units=GPa)
#
#
# Indices 1 2 3 4 5 6 
#
# 1 151.2519 45.3900 40.6753 0.0000 -12.0177 0.0000
# 2 45.3900 40.0960 34.0423 0.0000 -5.2421 0.0000
# 3 40.6753 34.0423 174.4596 0.0000 -31.8480 0.0000
# 4 0.0000 0.0000 0.0000 16.4086 0.0000 -4.6354
# 5 -12.0177 -5.2421 -31.8480 0.0000 35.0920 0.0000
# 6 0.0000 0.0000 0.0000 -4.6354 0.0000 30.5890
#
#
#
# Elastic Compliance Matrix: (Units=1/GPa)
#
#
# Indices 1 2 3 4 5 6 
#
# 1 0.010128 -0.011396 0.000221 0.000000 0.001967 0.000000
# 2 -0.011396 0.042745 -0.006269 0.000000 -0.003207 0.000000
# 3 0.000221 -0.006269 0.008086 0.000000 0.006478 0.000000
# 4 0.000000 0.000000 0.000000 0.063669 0.000000 0.009648
# 5 0.001967 -0.003207 0.006478 0.000000 0.034570 0.000000
# 6 0.000000 0.000000 0.000000 0.009648 0.000000 0.034154
#
#
# Mechanical properties :
#
#
# Convention : Reuss Voigt Hill
#
# Bulk Modulus (GPa) = 38.35686 67.33585 52.84636
# Shear Modulus (GPa) = 21.10322 32.79790 26.95056
#
# Velocity S-wave (km/s) = 3.36273 4.19219 3.80016
# Velocity P-wave (km/s) = 5.96913 7.71453 6.89726
#
# Compressibility (1/GPa) = 0.02607096
#
# Stress axis : x y z
#
# Youngs Moduli (GPa) = 98.73408 23.39481 123.66702
#
# Poissons Ratio (x) = 0.26662 -0.02739
# Poissons Ratio (y) = 1.12521 0.77529
# Poissons Ratio (z) = -0.02187 0.14667
#
# Static dielectric constant tensor:
#      x y z
#    x 3.482630 0.000000 -0.000120 
#    y 0.000000 3.193980 0.000000 
#    z -0.000120 0.000000 3.611270 
# 
# 
# High freq. dielectric constant tensor:
#      x y z
#    x 1.738250 0.000000 0.000420 
#    y 0.000000 1.686740 0.000000 
#    z 0.000420 0.000000 1.737920 
# 
# From -- ./inp_files/34312.got.cif
#   From: 2010.06.25/outbox.cif.g09.slc.cpg/sg11_18_cif.got.tgz:34312.got - 2010.06.27 23:14:04.
