data_PCOD8071157
_publ_section_title
;
Structure prediction by ZEFSAII (Michael W. Deem and Ramdas Pophale) SiO2 
 PCOD8071157
Probable space group: P 21/M
;
_chemical_formula_sum "Si O2"
_cell_formula_units_Z 32
_cell_length_a 18.603530
_cell_length_b 13.240447
_cell_length_c 22.528429
_cell_angle_alpha 90.000000
_cell_angle_beta 18.566036
_cell_angle_gamma 90.000000
_cell_volume 1766.845073
_symmetry_space_group_name_H-M "P 21/M"
_symmetry_group_IT_number 11
_symmetry_cell_setting 'monoclinic'
loop_
_space_group_symop_operation_xyz
x,y,z
-x,1/2+y,-z
-x,-y,-z
x,1/2-y,z
loop_
_atom_site_type_symbol
_atom_site_label
_atom_site_fract_x
_atom_site_fract_y
_atom_site_fract_z
Si Si1 0.969598 0.074686 0.941038
Si Si2 0.598423 0.906265 0.456612
Si Si3 0.794558 0.631981 0.423740
Si Si4 0.543382 0.132709 0.205990
Si Si5 0.228053 0.631576 0.155475
Si Si6 0.640273 0.549732 0.768104
Si Si7 0.119498 0.640885 0.857795
Si Si8 0.117368 0.865363 0.375850
O O1 0.202467 0.133813 0.742593
O O2 0.795734 0.103466 0.026049
O O3 0.880009 0.114343 0.073270
O O4 0.003914 0.951994 0.913354
O O5 0.717445 0.932216 0.426715
O O6 0.381207 0.836139 0.636171
O O7 0.500000 0.000000 0.500000
O O8 0.787136 0.750000 0.412197
O O9 0.623254 0.607395 0.610362
O O10 0.043580 0.599247 0.250406
O O11 0.527992 0.250000 0.199165
O O12 0.479870 0.063022 0.200635
O O13 0.269583 0.750000 0.119041
O O14 0.134377 0.601859 0.293566
O O15 0.465396 0.577159 0.957315
O O16 0.712398 0.433144 0.718846
O O17 0.861640 0.620223 0.598629
O O18 0.997086 0.750000 0.942082
O O19 0.190149 0.750000 0.328323
#
# Coordination Sequence:
#
# PCOD8071157 Si02
#       8
#     4   4   4   4   4   4   4   4
#     4  10  21  34  53  80 104 138 179 218 269 323
#     4  10  20  33  50  75 106 140 176 219 267 322
#     4  10  19  32  53  79 107 135 170 223 275 313
#     4  11  20  34  56  81 108 138 175 226 277 316
#     4  10  19  33  55  83 113 140 174 221 270 316
#     4  11  21  34  57  84 109 145 180 215 266 324
#     4  10  20  35  52  75 108 140 176 221 265 317
#     4  10  21  37  54  81 116 144 177 219 263 315
#
# _framework density 18.111378999999999
#
# number of rings (size 3 to 8) (size 9 to 14) (size 15 to 20)
#    0.000    1.750    2.500    3.000    0.000    3.000 
#    0.000    0.625    0.000    0.000    0.000    0.000 
#    0.000    0.000    0.000    0.000    0.000    0.000 
#
# Total GULP energy -396600.592621 kJ/mol
# GULP energy per Si atom -12393.768519 kJ/mol
# Density = 1.807016 g / cm^3
# Si number density = 18.111379 Si / 1000 Ang^3
#
#
#
# Elastic Constant Matrix: (Units=GPa)
#
#
# Indices 1 2 3 4 5 6 
#
# 1 87.2858 40.4226 23.3065 0.0000 -2.7105 0.0000
# 2 40.4226 80.9656 36.9566 0.0000 3.6762 0.0000
# 3 23.3065 36.9566 114.0586 0.0000 -4.7132 0.0000
# 4 0.0000 0.0000 0.0000 12.5515 0.0000 -4.7918
# 5 -2.7105 3.6762 -4.7132 0.0000 23.0060 0.0000
# 6 0.0000 0.0000 0.0000 -4.7918 0.0000 20.5071
#
#
#
# Elastic Compliance Matrix: (Units=1/GPa)
#
#
# Indices 1 2 3 4 5 6 
#
# 1 0.015137 -0.007427 -0.000569 0.000000 0.002854 0.000000
# 2 -0.007427 0.018393 -0.004639 0.000000 -0.004764 0.000000
# 3 -0.000569 -0.004639 0.010503 0.000000 0.002826 0.000000
# 4 0.000000 0.000000 0.000000 0.087475 0.000000 0.020440
# 5 0.002854 -0.004764 0.002826 0.000000 0.045143 0.000000
# 6 0.000000 0.000000 0.000000 0.020440 0.000000 0.053540
#
#
# Mechanical properties :
#
#
# Convention : Reuss Voigt Hill
#
# Bulk Modulus (GPa) = 53.29398 53.74237 53.51818
# Shear Modulus (GPa) = 19.10478 23.32118 21.21298
#
# Velocity S-wave (km/s) = 3.25137 3.59228 3.42607
# Velocity P-wave (km/s) = 6.60188 6.85154 6.72787
#
# Compressibility (1/GPa) = 0.01876385
#
# Stress axis : x y z
#
# Youngs Moduli (GPa) = 66.06511 54.36976 95.20734
#
# Poissons Ratio (x) = 0.40381 0.05413
# Poissons Ratio (y) = 0.49067 0.44164
# Poissons Ratio (z) = 0.03756 0.25220
#
# Static dielectric constant tensor:
#      x y z
#    x 3.291850 0.000000 0.074230 
#    y 0.000000 3.184920 0.000000 
#    z 0.074230 0.000000 3.954040 
# 
# 
# High freq. dielectric constant tensor:
#      x y z
#    x 1.690030 0.000000 0.008690 
#    y 0.000000 1.674810 0.000000 
#    z 0.008690 0.000000 1.727460 
# 
# From -- ./inp_files/66269.got.cif
#   From: 2010.06.25/outbox.cif.g09.slc.cpg/sg11_34_cif.got.tgz:66269.got - 2010.06.27 23:14:04.
