data_PCOD8071856
_publ_section_title
;
Structure prediction by ZEFSAII (Michael W. Deem and Ramdas Pophale) SiO2 
 PCOD8071856
Probable space group: P 21/M
;
_chemical_formula_sum "Si O2"
_cell_formula_units_Z 32
_cell_length_a 5.176832
_cell_length_b 8.568550
_cell_length_c 35.642840
_cell_angle_alpha 90.000000
_cell_angle_beta 89.904617
_cell_angle_gamma 90.000000
_cell_volume 1581.040904
_symmetry_space_group_name_H-M "P 21/M"
_symmetry_group_IT_number 11
_symmetry_cell_setting 'monoclinic'
loop_
_space_group_symop_operation_xyz
x,y,z
-x,1/2+y,-z
-x,-y,-z
x,1/2-y,z
loop_
_atom_site_type_symbol
_atom_site_label
_atom_site_fract_x
_atom_site_fract_y
_atom_site_fract_z
Si Si1 0.496884 0.435895 0.541563
Si Si2 0.468075 0.431010 0.792196
Si Si3 0.534359 0.431546 0.288085
Si Si4 0.502690 0.935556 0.958474
Si Si5 0.003862 0.564707 0.915226
Si Si6 0.970275 0.933519 0.830084
Si Si7 0.996358 0.066612 0.583893
Si Si8 0.034960 0.430647 0.335175
O O1 0.500000 0.500000 0.500000
O O2 0.497452 0.250000 0.540554
O O3 0.743240 0.503351 0.563921
O O4 0.247071 0.503260 0.563161
O O5 0.407630 0.250000 0.798846
O O6 0.501099 0.463488 0.748340
O O7 0.732601 0.474938 0.812461
O O8 0.232838 0.533059 0.807898
O O9 0.516817 0.250000 0.276688
O O10 0.807787 0.473327 0.306438
O O11 0.307400 0.476282 0.316827
O O12 0.501344 0.750000 0.959810
O O13 0.753793 0.999993 0.936915
O O14 0.255734 0.001283 0.936156
O O15 0.500000 0.000000 0.000000
O O16 0.006750 0.750000 0.915783
O O17 0.002925 0.505687 0.872547
O O18 0.910632 0.750000 0.828319
O O19 0.996338 0.250000 0.579125
O O20 0.002466 0.028823 0.627540
O O21 0.024329 0.250000 0.346148
#
# Coordination Sequence:
#
# PCOD8071856 Si02
#       8
#     4   4   4   4   4   4   4   4
#     4  10  21  36  54  78 106 140 179 220 266 324
#     4  12  25  40  60  92 126 154 191 248 306 352
#     4  10  21  38  58  82 112 150 193 232 274 340
#     4  10  19  34  54  80 110 142 183 232 282 338
#     4   9  19  35  57  80 106 144 193 236 274 336
#     4  11  22  41  66  87 113 160 207 242 289 354
#     4  10  21  36  54  78 109 141 176 219 276 334
#     4  10  21  36  57  83 109 141 188 235 273 322
#
# _framework density 20.239829
#
# number of rings (size 3 to 8) (size 9 to 14) (size 15 to 20)
#    0.000    1.750    0.000    4.500    0.000    5.000 
#    0.000    3.750    0.000    0.000    0.000    0.000 
#    0.000    0.000    0.000    0.000    0.000    0.000 
#
# Total GULP energy -396950.769719 kJ/mol
# GULP energy per Si atom -12404.711554 kJ/mol
# Density = 2.019376 g / cm^3
# Si number density = 20.239829 Si / 1000 Ang^3
#
#
#
# Elastic Constant Matrix: (Units=GPa)
#
#
# Indices 1 2 3 4 5 6 
#
# 1 150.7309 13.1017 49.3065 0.0000 -1.2101 0.0000
# 2 13.1017 32.0895 15.8995 0.0000 2.1478 0.0000
# 3 49.3065 15.8995 134.1733 0.0000 -1.4262 0.0000
# 4 0.0000 0.0000 0.0000 50.9770 0.0000 6.0435
# 5 -1.2101 2.1478 -1.4262 0.0000 40.9255 0.0000
# 6 0.0000 0.0000 0.0000 6.0435 0.0000 18.5239
#
#
#
# Elastic Compliance Matrix: (Units=1/GPa)
#
#
# Indices 1 2 3 4 5 6 
#
# 1 0.007644 -0.001855 -0.002587 0.000000 0.000233 0.000000
# 2 -0.001855 0.033701 -0.003333 0.000000 -0.001940 0.000000
# 3 -0.002587 -0.003333 0.008803 0.000000 0.000405 0.000000
# 4 0.000000 0.000000 0.000000 0.020406 0.000000 -0.006658
# 5 0.000233 -0.001940 0.000405 0.000000 0.024557 0.000000
# 6 0.000000 0.000000 0.000000 -0.006658 0.000000 0.056156
#
#
# Mechanical properties :
#
#
# Convention : Reuss Voigt Hill
#
# Bulk Modulus (GPa) = 28.90210 52.62322 40.76266
# Shear Modulus (GPa) = 28.03500 37.99768 33.01634
#
# Velocity S-wave (km/s) = 3.72578 4.33757 4.04326
# Velocity P-wave (km/s) = 5.72883 7.15138 6.47926
#
# Compressibility (1/GPa) = 0.03459956
#
# Stress axis : x y z
#
# Youngs Moduli (GPa) = 130.82921 29.67257 113.60020
#
# Poissons Ratio (x) = 0.05504 0.29384
# Poissons Ratio (y) = 0.24266 0.37858
# Poissons Ratio (z) = 0.33840 0.09889
#
# Static dielectric constant tensor:
#      x y z
#    x 4.241940 0.000000 0.035500 
#    y 0.000000 3.346360 0.000000 
#    z 0.035500 0.000000 3.711340 
# 
# 
# High freq. dielectric constant tensor:
#      x y z
#    x 1.813570 0.000000 0.000450 
#    y 0.000000 1.763970 0.000000 
#    z 0.000450 0.000000 1.805770 
# 
# From -- ./inp_files/72592.got.cif
#   From: 2010.06.25/outbox.cif.g09.slc.cpg/sg11_37_cif.got.tgz:72592.got - 2010.06.27 23:14:04.
