data_PCOD8071956
_publ_section_title
;
Structure prediction by ZEFSAII (Michael W. Deem and Ramdas Pophale) SiO2 
 PCOD8071956
Probable space group: P 21/M
;
_chemical_formula_sum "Si O2"
_cell_formula_units_Z 32
_cell_length_a 19.969571
_cell_length_b 9.359408
_cell_length_c 24.956580
_cell_angle_alpha 90.000000
_cell_angle_beta 157.230822
_cell_angle_gamma 90.000000
_cell_volume 1805.240904
_symmetry_space_group_name_H-M "P 21/M"
_symmetry_group_IT_number 11
_symmetry_cell_setting 'monoclinic'
loop_
_space_group_symop_operation_xyz
x,y,z
-x,1/2+y,-z
-x,-y,-z
x,1/2-y,z
loop_
_atom_site_type_symbol
_atom_site_label
_atom_site_fract_x
_atom_site_fract_y
_atom_site_fract_z
Si Si1 0.144886 0.414823 0.137907
Si Si2 0.635428 0.084742 0.135384
Si Si3 0.986842 0.584237 0.844570
Si Si4 0.379407 0.915993 0.150794
Si Si5 0.863067 0.082229 0.650293
Si Si6 0.480562 0.585771 0.107032
Si Si7 0.511957 0.583906 0.668008
Si Si8 0.868564 0.087812 0.213719
O O1 0.110850 0.250000 0.099909
O O2 0.333215 0.464534 0.256989
O O3 0.134126 0.443215 0.193372
O O4 0.000000 0.500000 0.000000
O O5 0.580841 0.250000 0.099588
O O6 0.819546 0.070387 0.240651
O O7 0.630670 0.012387 0.190765
O O8 0.500000 0.000000 0.000000
O O9 0.988216 0.750000 0.827875
O O10 0.912285 0.490016 0.742195
O O11 0.180742 0.533156 0.001331
O O12 0.386810 0.750000 0.170864
O O13 0.476117 0.948625 0.166493
O O14 0.480839 0.000908 0.270934
O O15 0.897827 0.250000 0.679975
O O16 0.664301 0.045963 0.492228
O O17 0.976623 0.019263 0.685477
O O18 0.527818 0.750000 0.130591
O O19 0.293670 0.549922 0.944011
O O20 0.523546 0.750000 0.690473
O O21 0.928206 0.250000 0.246163
#
# Coordination Sequence:
#
# PCOD8071956 Si02
#       8
#     4   4   4   4   4   4   4   4
#     4  10  20  36  58  80 106 138 174 220 269 315
#     4   9  17  28  45  73 106 137 172 214 262 311
#     4  10  20  36  57  80 106 138 178 221 264 314
#     4  10  19  34  56  81 106 138 181 220 261 318
#     4  11  23  36  52  78 111 144 179 218 264 317
#     4   9  17  30  49  76 108 134 169 221 264 308
#     4  10  23  39  53  78 112 140 174 223 270 314
#     4   9  17  32  51  73 106 142 174 217 262 309
#
# _framework density 17.726165000000002
#
# number of rings (size 3 to 8) (size 9 to 14) (size 15 to 20)
#    0.000    2.250    2.500    1.500    0.000    5.500 
#    0.000    0.000    0.000    0.750    0.000    0.000 
#    0.000    0.000    0.000    0.000    0.000    0.000 
#
# Total GULP energy -396787.026078 kJ/mol
# GULP energy per Si atom -12399.594565 kJ/mol
# Density = 1.768582 g / cm^3
# Si number density = 17.726165 Si / 1000 Ang^3
#
#
#
# Elastic Constant Matrix: (Units=GPa)
#
#
# Indices 1 2 3 4 5 6 
#
# 1 112.5606 56.5913 38.8093 0.0000 10.7806 0.0000
# 2 56.5913 84.0085 48.1000 0.0000 4.3013 0.0000
# 3 38.8093 48.1000 71.5234 0.0000 3.0349 0.0000
# 4 0.0000 0.0000 0.0000 25.3797 0.0000 -2.5120
# 5 10.7806 4.3013 3.0349 0.0000 21.8494 0.0000
# 6 0.0000 0.0000 0.0000 -2.5120 0.0000 35.2324
#
#
#
# Elastic Compliance Matrix: (Units=1/GPa)
#
#
# Indices 1 2 3 4 5 6 
#
# 1 0.014146 -0.008126 -0.001994 0.000000 -0.005103 0.000000
# 2 -0.008126 0.024114 -0.011846 0.000000 0.000908 0.000000
# 3 -0.001994 -0.011846 0.023025 0.000000 0.000118 0.000000
# 4 0.000000 0.000000 0.000000 0.039682 0.000000 0.002829
# 5 -0.005103 0.000908 0.000118 0.000000 0.048091 0.000000
# 6 0.000000 0.000000 0.000000 0.002829 0.000000 0.028585
#
#
# Mechanical properties :
#
#
# Convention : Reuss Voigt Hill
#
# Bulk Modulus (GPa) = 57.63006 61.67709 59.65358
# Shear Modulus (GPa) = 21.99176 24.79843 23.39510
#
# Velocity S-wave (km/s) = 3.52609 3.74434 3.63685
# Velocity P-wave (km/s) = 7.01139 7.31870 7.16669
#
# Compressibility (1/GPa) = 0.01735205
#
# Stress axis : x y z
#
# Youngs Moduli (GPa) = 70.69152 41.47045 43.43107
#
# Poissons Ratio (x) = 0.33699 0.08662
# Poissons Ratio (y) = 0.57445 0.51447
# Poissons Ratio (z) = 0.14098 0.49125
#
# Static dielectric constant tensor:
#      x y z
#    x 3.752690 0.000000 0.266040 
#    y 0.000000 3.380370 0.000000 
#    z 0.266040 0.000000 3.055890 
# 
# 
# High freq. dielectric constant tensor:
#      x y z
#    x 1.703400 0.000000 0.011700 
#    y 0.000000 1.687800 0.000000 
#    z 0.011700 0.000000 1.648480 
# 
# From -- ./inp_files/66394.got.cif
#   From: 2010.06.25/outbox.cif.g09.slc.cpg/sg11_34_cif.got.tgz:66394.got - 2010.06.27 23:14:04.
