data_PCOD8071914
_publ_section_title
;
Structure prediction by ZEFSAII (Michael W. Deem and Ramdas Pophale) SiO2 
 PCOD8071914
Probable space group: P 21/M
;
_chemical_formula_sum "Si O2"
_cell_formula_units_Z 32
_cell_length_a 25.025104
_cell_length_b 8.792940
_cell_length_c 19.939843
_cell_angle_alpha 90.000000
_cell_angle_beta 157.297096
_cell_angle_gamma 90.000000
_cell_volume 1693.424861
_symmetry_space_group_name_H-M "P 21/M"
_symmetry_group_IT_number 11
_symmetry_cell_setting 'monoclinic'
loop_
_space_group_symop_operation_xyz
x,y,z
-x,1/2+y,-z
-x,-y,-z
x,1/2-y,z
loop_
_atom_site_type_symbol
_atom_site_label
_atom_site_fract_x
_atom_site_fract_y
_atom_site_fract_z
Si Si1 0.456377 0.072275 0.380162
Si Si2 0.247219 0.572799 0.306599
Si Si3 0.100675 0.931239 0.268650
Si Si4 0.814917 0.069529 0.914229
Si Si5 0.495703 0.929956 0.921558
Si Si6 0.769851 0.569082 0.453385
Si Si7 0.961567 0.929084 0.555817
Si Si8 0.199019 0.427594 0.760701
O O1 0.424812 0.250000 0.351907
O O2 0.589976 0.043792 0.487247
O O3 0.500000 0.000000 0.500000
O O4 0.317396 0.986492 0.194914
O O5 0.218883 0.750000 0.268396
O O6 0.156095 0.504576 0.261316
O O7 0.201369 0.505490 0.181074
O O8 0.101960 0.750000 0.273166
O O9 0.201231 0.996709 0.441336
O O10 0.947607 0.995373 0.102407
O O11 0.825336 0.250000 0.929961
O O12 0.472920 0.750000 0.901165
O O13 0.376364 0.006638 0.740420
O O14 0.639074 0.968460 0.049276
O O15 0.500000 0.000000 0.000000
O O16 0.761759 0.750000 0.448847
O O17 0.891894 0.515946 0.544292
O O18 0.972774 0.750000 0.567839
O O19 0.863841 0.988537 0.382316
O O20 0.116548 0.995871 0.727157
O O21 0.174877 0.250000 0.738835
#
# Coordination Sequence:
#
# PCOD8071914 Si02
#       8
#     4   4   4   4   4   4   4   4
#     4   9  16  30  52  80 109 140 176 224 275 322
#     4   8  17  33  55  81 111 141 181 230 275 323
#     4  11  22  37  55  79 108 146 187 226 275 330
#     4  10  19  34  55  82 111 144 182 228 278 327
#     4  11  21  36  58  85 112 142 178 220 267 321
#     4  11  23  40  56  78 112 146 183 227 275 328
#     4   9  18  34  54  78 108 139 172 218 267 316
#     4   9  18  33  54  83 110 135 173 219 264 314
#
# _framework density 18.896616999999999
#
# number of rings (size 3 to 8) (size 9 to 14) (size 15 to 20)
#    0.000    2.250    1.250    3.000    0.000    2.000 
#    0.000    8.125    0.000    1.500    0.000    0.000 
#    0.000    0.000    0.000    0.000    0.000    0.000 
#
# Total GULP energy -396686.304670 kJ/mol
# GULP energy per Si atom -12396.447021 kJ/mol
# Density = 1.885361 g / cm^3
# Si number density = 18.896617 Si / 1000 Ang^3
#
#
#
# Elastic Constant Matrix: (Units=GPa)
#
#
# Indices 1 2 3 4 5 6 
#
# 1 46.8356 24.3415 32.2710 0.0000 9.7649 0.0000
# 2 24.3415 69.8944 39.9652 0.0000 6.8953 0.0000
# 3 32.2710 39.9652 120.1754 0.0000 9.0051 0.0000
# 4 0.0000 0.0000 0.0000 35.2876 0.0000 3.1157
# 5 9.7649 6.8953 9.0051 0.0000 30.5893 0.0000
# 6 0.0000 0.0000 0.0000 3.1157 0.0000 25.5170
#
#
#
# Elastic Compliance Matrix: (Units=1/GPa)
#
#
# Indices 1 2 3 4 5 6 
#
# 1 0.029840 -0.006730 -0.005291 0.000000 -0.006451 0.000000
# 2 -0.006730 0.019345 -0.004561 0.000000 -0.000870 0.000000
# 3 -0.005291 -0.004561 0.011305 0.000000 -0.000611 0.000000
# 4 0.000000 0.000000 0.000000 0.028647 0.000000 -0.003498
# 5 -0.006451 -0.000870 -0.000611 0.000000 0.035126 0.000000
# 6 0.000000 0.000000 0.000000 -0.003498 0.000000 0.039617
#
#
# Mechanical properties :
#
#
# Convention : Reuss Voigt Hill
#
# Bulk Modulus (GPa) = 36.59712 47.78455 42.19084
# Shear Modulus (GPa) = 24.25388 27.63398 25.94393
#
# Velocity S-wave (km/s) = 3.58649 3.82825 3.70934
# Velocity P-wave (km/s) = 6.04645 6.69947 6.38132
#
# Compressibility (1/GPa) = 0.02732455
#
# Stress axis : x y z
#
# Youngs Moduli (GPa) = 33.51206 51.69358 88.45958
#
# Poissons Ratio (x) = 0.34790 0.46808
# Poissons Ratio (y) = 0.22554 0.40345
# Poissons Ratio (z) = 0.17733 0.23577
#
# Static dielectric constant tensor:
#      x y z
#    x 3.642150 0.000000 0.345590 
#    y 0.000000 3.431900 0.000000 
#    z 0.345590 0.000000 3.657900 
# 
# 
# High freq. dielectric constant tensor:
#      x y z
#    x 1.718190 0.000000 0.026620 
#    y 0.000000 1.731330 0.000000 
#    z 0.026620 0.000000 1.733470 
# 
# From -- ./inp_files/67187.got.cif
#   From: 2010.06.25/outbox.cif.g09.slc.cpg/sg11_34_cif.got.tgz:67187.got - 2010.06.27 23:14:04.
