data_PCOD8071788
_publ_section_title
;
Structure prediction by ZEFSAII (Michael W. Deem and Ramdas Pophale) SiO2 
 PCOD8071788
Probable space group: P 21/M
;
_chemical_formula_sum "Si O2"
_cell_formula_units_Z 28
_cell_length_a 11.471151
_cell_length_b 9.639927
_cell_length_c 19.264083
_cell_angle_alpha 90.000000
_cell_angle_beta 128.644699
_cell_angle_gamma 90.000000
_cell_volume 1663.790938
_symmetry_space_group_name_H-M "P 21/M"
_symmetry_group_IT_number 11
_symmetry_cell_setting 'monoclinic'
loop_
_space_group_symop_operation_xyz
x,y,z
-x,1/2+y,-z
-x,-y,-z
x,1/2-y,z
loop_
_atom_site_type_symbol
_atom_site_label
_atom_site_fract_x
_atom_site_fract_y
_atom_site_fract_z
Si Si1 0.109504 0.589862 0.493983
Si Si2 0.111205 0.589546 0.996415
Si Si3 0.678902 0.406278 0.308460
Si Si4 0.979928 0.093442 0.340859
Si Si5 0.606971 0.597084 0.081511
Si Si6 0.872055 0.094941 0.155469
Si Si7 0.558029 0.402783 0.838040
O O1 0.057274 0.750000 0.466936
O O2 0.269732 0.583079 0.591694
O O3 0.000000 0.500000 0.500000
O O4 0.104686 0.513474 0.417139
O O5 0.090197 0.750000 0.007857
O O6 0.068430 0.563892 0.899689
O O7 0.280489 0.540976 0.076618
O O8 0.000000 0.500000 0.000000
O O9 0.632530 0.250000 0.272318
O O10 0.813724 0.450955 0.306306
O O11 0.527361 0.496195 0.246697
O O12 0.011060 0.250000 0.380072
O O13 0.995811 0.091383 0.262699
O O14 0.615667 0.750000 0.050629
O O15 0.766475 0.527714 0.139632
O O16 0.550853 0.609476 0.137982
O O17 0.500000 0.500000 0.000000
O O18 0.796732 0.250000 0.126493
O O19 0.576710 0.250000 0.810946
#
# Coordination Sequence:
#
# PCOD8071788 Si02
#       7
#     4   4   4   4   4   4   4
#     4   9  17  28  41  62  97 135 165 195 230 278
#     4  10  22  39  53  69  95 127 164 205 247 291
#     4   9  17  28  44  68  97 130 163 191 232 285
#     4   9  17  28  45  69  97 131 162 193 237 286
#     4  11  20  30  46  71  99 128 160 197 244 292
#     4  10  19  34  51  70 100 130 161 203 244 290
#     4  10  20  32  48  70  97 127 160 200 241 283
#
# _framework density 16.829035999999999
#
# number of rings (size 3 to 8) (size 9 to 14) (size 15 to 20)
#    0.000    2.286    2.857    1.714    0.000    5.143 
#    0.000    0.000    0.000    0.000    0.000    1.000 
#    0.000    0.000    0.000    0.000    0.000    0.000 
#
# Total GULP energy -346878.533766 kJ/mol
# GULP energy per Si atom -12388.519063 kJ/mol
# Density = 1.679073 g / cm^3
# Si number density = 16.829036 Si / 1000 Ang^3
#
#
#
# Elastic Constant Matrix: (Units=GPa)
#
#
# Indices 1 2 3 4 5 6 
#
# 1 60.0214 36.6666 33.5090 0.0000 -7.4149 0.0000
# 2 36.6666 112.5343 61.9377 0.0000 -3.9810 0.0000
# 3 33.5090 61.9377 113.1864 0.0000 -13.2928 0.0000
# 4 0.0000 0.0000 0.0000 33.6074 0.0000 1.1380
# 5 -7.4149 -3.9810 -13.2928 0.0000 11.0840 0.0000
# 6 0.0000 0.0000 0.0000 1.1380 0.0000 20.4264
#
#
#
# Elastic Compliance Matrix: (Units=1/GPa)
#
#
# Indices 1 2 3 4 5 6 
#
# 1 0.022776 -0.005740 -0.002391 0.000000 0.010307 0.000000
# 2 -0.005740 0.014350 -0.006982 0.000000 -0.007059 0.000000
# 3 -0.002391 -0.006982 0.014993 0.000000 0.013873 0.000000
# 4 0.000000 0.000000 0.000000 0.029812 0.000000 -0.001661
# 5 0.010307 -0.007059 0.013873 0.000000 0.111218 0.000000
# 6 0.000000 0.000000 0.000000 -0.001661 0.000000 0.049049
#
#
# Mechanical properties :
#
#
# Convention : Reuss Voigt Hill
#
# Bulk Modulus (GPa) = 45.68031 61.10764 53.39398
# Shear Modulus (GPa) = 17.87502 23.26546 20.57024
#
# Velocity S-wave (km/s) = 3.26261 3.72218 3.49994
# Velocity P-wave (km/s) = 6.43393 7.40692 6.93750
#
# Compressibility (1/GPa) = 0.02189127
#
# Stress axis : x y z
#
# Youngs Moduli (GPa) = 43.90665 69.68847 66.69833
#
# Poissons Ratio (x) = 0.40002 0.15949
# Poissons Ratio (y) = 0.25203 0.46569
# Poissons Ratio (z) = 0.10499 0.48657
#
# Static dielectric constant tensor:
#      x y z
#    x 2.676080 0.000000 -0.125710 
#    y 0.000000 3.420320 0.000000 
#    z -0.125710 0.000000 3.578450 
# 
# 
# High freq. dielectric constant tensor:
#      x y z
#    x 1.577530 0.000000 -0.012990 
#    y 0.000000 1.663790 0.000000 
#    z -0.012990 0.000000 1.655720 
# 
# From -- ./inp_files/42296.got.cif
#   From: 2010.06.25/outbox.cif.g09.slc.cpg/sg11_22_cif.got.tgz:42296.got - 2010.06.27 23:14:04.
