data_PCOD8071246
_publ_section_title
;
Structure prediction by ZEFSAII (Michael W. Deem and Ramdas Pophale) SiO2 
 PCOD8071246
Probable space group: P 21/M
;
_chemical_formula_sum "Si O2"
_cell_formula_units_Z 32
_cell_length_a 15.487445
_cell_length_b 17.509014
_cell_length_c 12.763115
_cell_angle_alpha 90.000000
_cell_angle_beta 151.298955
_cell_angle_gamma 90.000000
_cell_volume 1662.095690
_symmetry_space_group_name_H-M "P 21/M"
_symmetry_group_IT_number 11
_symmetry_cell_setting 'monoclinic'
loop_
_space_group_symop_operation_xyz
x,y,z
-x,1/2+y,-z
-x,-y,-z
x,1/2-y,z
loop_
_atom_site_type_symbol
_atom_site_label
_atom_site_fract_x
_atom_site_fract_y
_atom_site_fract_z
Si Si1 0.583008 0.661027 0.547556
Si Si2 0.440884 0.665674 0.174408
Si Si3 0.063506 0.989290 0.683142
Si Si4 0.524988 0.481218 0.904517
Si Si5 0.916727 0.597188 0.829082
Si Si6 0.809747 0.043825 0.579458
Si Si7 0.975978 0.167289 0.261174
Si Si8 0.767112 0.341219 0.703958
O O1 0.617610 0.750000 0.590211
O O2 0.533438 0.634674 0.377514
O O3 0.771910 0.617832 0.765955
O O4 0.435570 0.638364 0.476292
O O5 0.506901 0.750000 0.211082
O O6 0.489427 0.610220 0.129049
O O7 0.234051 0.668071 0.988033
O O8 0.963533 0.047816 0.654427
O O9 0.991298 0.903333 0.627101
O O10 0.000000 0.000000 0.500000
O O11 0.275555 0.004596 0.921465
O O12 0.379087 0.522462 0.676334
O O13 0.500000 0.500000 0.000000
O O14 0.879406 0.512360 0.745997
O O15 0.908831 0.655200 0.721882
O O16 0.109400 0.608909 0.087352
O O17 0.788278 0.127712 0.607917
O O18 0.032724 0.250000 0.370094
O O19 0.807096 0.250000 0.751782
#
# Coordination Sequence:
#
# PCOD8071246 Si02
#       8
#     4   4   4   4   4   4   4   4
#     4  10  19  32  55  84 116 150 190 233 282 335
#     4   9  17  33  55  84 114 146 188 238 289 340
#     4  10  21  38  61  84 112 149 197 240 288 346
#     4  11  21  39  62  84 117 153 188 244 302 338
#     4  11  20  35  59  86 116 148 193 238 287 334
#     4  11  24  39  59  88 114 151 197 239 285 347
#     4   9  17  31  55  84 114 142 180 239 296 337
#     4  11  24  41  57  82 123 162 190 229 282 345
#
# _framework density 19.252801999999999
#
# number of rings (size 3 to 8) (size 9 to 14) (size 15 to 20)
#    0.000    1.750    3.750    1.500    0.000    1.500 
#    0.000    1.250    0.000    1.500    0.000    0.000 
#    0.000    0.000    0.000    0.000    0.000    0.000 
#
# Total GULP energy -396541.721803 kJ/mol
# GULP energy per Si atom -12391.928806 kJ/mol
# Density = 1.920898 g / cm^3
# Si number density = 19.252802 Si / 1000 Ang^3
#
#
#
# Elastic Constant Matrix: (Units=GPa)
#
#
# Indices 1 2 3 4 5 6 
#
# 1 129.1069 50.1004 34.9343 0.0000 10.0807 0.0000
# 2 50.1004 67.8396 25.5433 0.0000 -5.6855 0.0000
# 3 34.9343 25.5433 57.0136 0.0000 4.9764 0.0000
# 4 0.0000 0.0000 0.0000 17.4803 0.0000 -2.1066
# 5 10.0807 -5.6855 4.9764 0.0000 28.0550 0.0000
# 6 0.0000 0.0000 0.0000 -2.1066 0.0000 27.9254
#
#
#
# Elastic Compliance Matrix: (Units=1/GPa)
#
#
# Indices 1 2 3 4 5 6 
#
# 1 0.012293 -0.008281 -0.003342 0.000000 -0.005503 0.000000
# 2 -0.008281 0.024054 -0.006488 0.000000 0.009001 0.000000
# 3 -0.003342 -0.006488 0.022858 0.000000 -0.004169 0.000000
# 4 0.000000 0.000000 0.000000 0.057732 0.000000 0.004355
# 5 -0.005503 0.009001 -0.004169 0.000000 0.040185 0.000000
# 6 0.000000 0.000000 0.000000 0.004355 0.000000 0.036138
#
#
# Mechanical properties :
#
#
# Convention : Reuss Voigt Hill
#
# Bulk Modulus (GPa) = 43.51164 52.79068 48.15116
# Shear Modulus (GPa) = 21.08426 24.25093 22.66759
#
# Velocity S-wave (km/s) = 3.31286 3.55294 3.43500
# Velocity P-wave (km/s) = 6.10595 6.65661 6.38722
#
# Compressibility (1/GPa) = 0.02298236
#
# Stress axis : x y z
#
# Youngs Moduli (GPa) = 81.34660 41.57331 43.74848
#
# Poissons Ratio (x) = 0.34429 0.14620
# Poissons Ratio (y) = 0.67367 0.28384
# Poissons Ratio (z) = 0.27185 0.26973
#
# Static dielectric constant tensor:
#      x y z
#    x 3.613190 0.000000 0.322390 
#    y 0.000000 3.678380 0.000000 
#    z 0.322390 0.000000 3.692910 
# 
# 
# High freq. dielectric constant tensor:
#      x y z
#    x 1.745450 0.000000 0.025970 
#    y 0.000000 1.735190 0.000000 
#    z 0.025970 0.000000 1.746530 
# 
# From -- ./inp_files/40039.got.cif
#   From: 2010.06.25/outbox.cif.g09.slc.cpg/sg11_21_cif.got.tgz:40039.got - 2010.06.27 23:14:04.
