data_PCOD8071420
_publ_section_title
;
Structure prediction by ZEFSAII (Michael W. Deem and Ramdas Pophale) SiO2 
 PCOD8071420
Probable space group: P 21/M
;
_chemical_formula_sum "Si O2"
_cell_formula_units_Z 32
_cell_length_a 22.216328
_cell_length_b 8.923893
_cell_length_c 14.297535
_cell_angle_alpha 90.000000
_cell_angle_beta 142.490859
_cell_angle_gamma 90.000000
_cell_volume 1725.938083
_symmetry_space_group_name_H-M "P 21/M"
_symmetry_group_IT_number 11
_symmetry_cell_setting 'monoclinic'
loop_
_space_group_symop_operation_xyz
x,y,z
-x,1/2+y,-z
-x,-y,-z
x,1/2-y,z
loop_
_atom_site_type_symbol
_atom_site_label
_atom_site_fract_x
_atom_site_fract_y
_atom_site_fract_z
Si Si1 0.088743 0.575079 0.941746
Si Si2 0.316535 0.573664 0.926390
Si Si3 0.866116 0.574261 0.655731
Si Si4 0.393947 0.928000 0.353869
Si Si5 0.479294 0.420911 0.879675
Si Si6 0.743555 0.927253 0.964072
Si Si7 0.728138 0.924313 0.323905
Si Si8 0.778127 0.421541 0.720934
O O1 0.096165 0.750000 0.922537
O O2 0.977272 0.511991 0.801463
O O3 0.150982 0.477725 0.945674
O O4 0.130177 0.549750 0.096694
O O5 0.295790 0.750000 0.914397
O O6 0.278849 0.525790 0.776886
O O7 0.434213 0.531498 0.086571
O O8 0.257403 0.478586 0.929566
O O9 0.866885 0.750000 0.670286
O O10 0.824855 0.530276 0.502312
O O11 0.794220 0.513150 0.646946
O O12 0.402834 0.750000 0.353522
O O13 0.323899 0.971569 0.354960
O O14 0.500000 0.000000 0.500000
O O15 0.346262 0.992924 0.200811
O O16 0.499327 0.250000 0.925681
O O17 0.363770 0.451519 0.715277
O O18 0.500000 0.500000 0.000000
O O19 0.731723 0.750000 0.941029
O O20 0.730479 0.750000 0.296240
O O21 0.771409 0.250000 0.683324
#
# Coordination Sequence:
#
# PCOD8071420 Si02
#       8
#     4   4   4   4   4   4   4   4
#     4   9  19  37  55  75 104 137 175 223 270 318
#     4  10  19  33  53  76 103 141 180 216 261 315
#     4  10  20  33  54  80 106 137 174 219 274 323
#     4  10  21  38  57  82 115 147 178 218 262 308
#     4   8  15  28  47  69  96 129 164 201 248 302
#     4  11  22  36  56  80 104 139 182 222 265 317
#     4   9  18  33  50  75 107 135 170 218 262 311
#     4   9  19  34  53  77 107 139 174 215 261 314
#
# _framework density 18.540641999999998
#
# number of rings (size 3 to 8) (size 9 to 14) (size 15 to 20)
#    0.000    2.500    0.000    3.000    0.000    5.000 
#    0.000    1.875    0.000    0.000    0.000    0.000 
#    0.000    0.000    0.000    0.000    0.000    0.000 
#
# Total GULP energy -396573.879814 kJ/mol
# GULP energy per Si atom -12392.933744 kJ/mol
# Density = 1.849844 g / cm^3
# Si number density = 18.540642 Si / 1000 Ang^3
#
#
#
# Elastic Constant Matrix: (Units=GPa)
#
#
# Indices 1 2 3 4 5 6 
#
# 1 102.9330 44.2926 49.8601 0.0000 -1.1707 0.0000
# 2 44.2926 70.7487 33.8511 0.0000 1.5031 0.0000
# 3 49.8601 33.8511 101.6322 0.0000 13.8408 0.0000
# 4 0.0000 0.0000 0.0000 25.6584 0.0000 -1.1701
# 5 -1.1707 1.5031 13.8408 0.0000 22.9193 0.0000
# 6 0.0000 0.0000 0.0000 -1.1701 0.0000 32.7249
#
#
#
# Elastic Compliance Matrix: (Units=1/GPa)
#
#
# Indices 1 2 3 4 5 6 
#
# 1 0.015735 -0.007068 -0.006034 0.000000 0.004911 0.000000
# 2 -0.007068 0.020120 -0.003274 0.000000 0.000297 0.000000
# 3 -0.006034 -0.003274 0.015149 0.000000 -0.009242 0.000000
# 4 0.000000 0.000000 0.000000 0.039037 0.000000 0.001396
# 5 0.004911 0.000297 -0.009242 0.000000 0.049444 0.000000
# 6 0.000000 0.000000 0.000000 0.001396 0.000000 0.030608
#
#
# Mechanical properties :
#
#
# Convention : Reuss Voigt Hill
#
# Bulk Modulus (GPa) = 54.79229 59.03572 56.91400
# Shear Modulus (GPa) = 23.93140 26.08118 25.00629
#
# Velocity S-wave (km/s) = 3.59660 3.75467 3.67649
# Velocity P-wave (km/s) = 6.84574 7.12089 6.98467
#
# Compressibility (1/GPa) = 0.01825074
#
# Stress axis : x y z
#
# Youngs Moduli (GPa) = 63.55076 49.70167 66.01126
#
# Poissons Ratio (x) = 0.35131 0.39833
# Poissons Ratio (y) = 0.44920 0.21613
# Poissons Ratio (z) = 0.38348 0.16273
#
# Static dielectric constant tensor:
#      x y z
#    x 3.679740 0.000000 0.667890 
#    y 0.000000 3.353780 0.000000 
#    z 0.667890 0.000000 4.078130 
# 
# 
# High freq. dielectric constant tensor:
#      x y z
#    x 1.716670 0.000000 0.011370 
#    y 0.000000 1.718910 0.000000 
#    z 0.011370 0.000000 1.710960 
# 
# From -- ./inp_files/54321.got.cif
#   From: 2010.06.25/outbox.cif.g09.slc.cpg/sg11_28_cif.got.tgz:54321.got - 2010.06.27 23:14:04.
