data_PCOD8071108
_publ_section_title
;
Structure prediction by ZEFSAII (Michael W. Deem and Ramdas Pophale) SiO2 
 PCOD8071108
Probable space group: P 21/M
;
_chemical_formula_sum "Si O2"
_cell_formula_units_Z 32
_cell_length_a 20.048794
_cell_length_b 8.911958
_cell_length_c 25.836079
_cell_angle_alpha 90.000000
_cell_angle_beta 158.311825
_cell_angle_gamma 90.000000
_cell_volume 1705.952990
_symmetry_space_group_name_H-M "P 21/M"
_symmetry_group_IT_number 11
_symmetry_cell_setting 'monoclinic'
loop_
_space_group_symop_operation_xyz
x,y,z
-x,1/2+y,-z
-x,-y,-z
x,1/2-y,z
loop_
_atom_site_type_symbol
_atom_site_label
_atom_site_fract_x
_atom_site_fract_y
_atom_site_fract_z
Si Si1 0.310109 0.428144 0.850214
Si Si2 0.614695 0.072077 0.398158
Si Si3 0.186421 0.073926 0.648705
Si Si4 0.485572 0.426395 0.781880
Si Si5 0.983538 0.578450 0.062905
Si Si6 0.711830 0.075881 0.793436
Si Si7 0.992351 0.927618 0.288672
Si Si8 0.848569 0.576373 0.075344
O O1 0.329520 0.250000 0.866897
O O2 0.250915 0.484109 0.751016
O O3 0.161602 0.488771 0.783807
O O4 0.500000 0.500000 0.000000
O O5 0.613198 0.250000 0.396251
O O6 0.813163 0.007472 0.554203
O O7 0.549180 0.013056 0.295923
O O8 0.475703 0.014867 0.341858
O O9 0.156712 0.250000 0.628736
O O10 0.332429 0.025569 0.711741
O O11 0.000000 0.000000 0.500000
O O12 0.486390 0.250000 0.771575
O O13 0.674111 0.474652 0.942367
O O14 0.932942 0.750000 0.011928
O O15 0.985920 0.554659 0.126321
O O16 0.181127 0.539280 0.182537
O O17 0.833107 0.471429 0.929901
O O18 0.666477 0.250000 0.766391
O O19 0.999664 0.750000 0.297436
O O20 0.950217 0.980268 0.199974
O O21 0.788934 0.750000 0.037499
#
# Coordination Sequence:
#
# PCOD8071108 Si02
#       8
#     4   4   4   4   4   4   4   4
#     4  10  20  37  57  79 106 140 179 221 269 322
#     4  11  21  36  56  79 108 147 186 220 266 325
#     4  10  22  37  54  78 109 140 177 223 272 321
#     4  11  22  35  53  81 110 137 175 228 277 318
#     4   9  18  32  53  80 109 142 180 220 267 318
#     4  10  19  32  52  80 112 141 176 226 271 314
#     4   9  20  36  56  79 107 142 182 222 262 318
#     4  10  19  35  57  81 105 138 182 223 263 317
#
# _framework density 18.757845
#
# number of rings (size 3 to 8) (size 9 to 14) (size 15 to 20)
#    0.000    2.000    1.250    2.625    0.000    3.000 
#    0.000    3.125    0.000    0.000    0.000    0.000 
#    0.000    0.000    0.000    0.000    0.000    0.000 
#
# Total GULP energy -396866.620835 kJ/mol
# GULP energy per Si atom -12402.081901 kJ/mol
# Density = 1.871515 g / cm^3
# Si number density = 18.757845 Si / 1000 Ang^3
#
#
#
# Elastic Constant Matrix: (Units=GPa)
#
#
# Indices 1 2 3 4 5 6 
#
# 1 121.6143 34.7583 64.6726 0.0000 20.6504 0.0000
# 2 34.7583 48.5635 35.9160 0.0000 7.3274 0.0000
# 3 64.6726 35.9160 138.9981 0.0000 15.0026 0.0000
# 4 0.0000 0.0000 0.0000 25.9258 0.0000 6.9699
# 5 20.6504 7.3274 15.0026 0.0000 32.1245 0.0000
# 6 0.0000 0.0000 0.0000 6.9699 0.0000 19.0483
#
#
#
# Elastic Compliance Matrix: (Units=1/GPa)
#
#
# Indices 1 2 3 4 5 6 
#
# 1 0.012756 -0.005412 -0.003986 0.000000 -0.005104 0.000000
# 2 -0.005412 0.028008 -0.004639 0.000000 -0.000743 0.000000
# 3 -0.003986 -0.004639 0.010380 0.000000 -0.001227 0.000000
# 4 0.000000 0.000000 0.000000 0.042780 0.000000 -0.015653
# 5 -0.005104 -0.000743 -0.001227 0.000000 0.035153 0.000000
# 6 0.000000 0.000000 0.000000 -0.015653 0.000000 0.058226
#
#
# Mechanical properties :
#
#
# Convention : Reuss Voigt Hill
#
# Bulk Modulus (GPa) = 43.34482 64.42997 53.88739
# Shear Modulus (GPa) = 22.41508 27.00832 24.71170
#
# Velocity S-wave (km/s) = 3.46059 3.79864 3.63355
# Velocity P-wave (km/s) = 6.25502 7.32546 6.81130
#
# Compressibility (1/GPa) = 0.02307081
#
# Stress axis : x y z
#
# Youngs Moduli (GPa) = 78.39693 35.70428 96.34020
#
# Poissons Ratio (x) = 0.19323 0.38398
# Poissons Ratio (y) = 0.42427 0.44690
# Poissons Ratio (z) = 0.31246 0.16563
#
# Static dielectric constant tensor:
#      x y z
#    x 3.631670 0.000000 0.139120 
#    y 0.000000 3.320640 0.000000 
#    z 0.139120 0.000000 3.451810 
# 
# 
# High freq. dielectric constant tensor:
#      x y z
#    x 1.744710 0.000000 0.012250 
#    y 0.000000 1.715930 0.000000 
#    z 0.012250 0.000000 1.721770 
# 
# From -- ./inp_files/72177.got.cif
#   From: 2010.06.25/outbox.cif.g09.slc.cpg/sg11_37_cif.got.tgz:72177.got - 2010.06.27 23:14:04.
