data_PCOD8071679
_publ_section_title
;
Structure prediction by ZEFSAII (Michael W. Deem and Ramdas Pophale) SiO2 
 PCOD8071679
Probable space group: P 21/M
;
_chemical_formula_sum "Si O2"
_cell_formula_units_Z 32
_cell_length_a 12.668558
_cell_length_b 8.886127
_cell_length_c 30.973859
_cell_angle_alpha 90.000000
_cell_angle_beta 151.884483
_cell_angle_gamma 90.000000
_cell_volume 1643.187355
_symmetry_space_group_name_H-M "P 21/M"
_symmetry_group_IT_number 11
_symmetry_cell_setting 'monoclinic'
loop_
_space_group_symop_operation_xyz
x,y,z
-x,1/2+y,-z
-x,-y,-z
x,1/2-y,z
loop_
_atom_site_type_symbol
_atom_site_label
_atom_site_fract_x
_atom_site_fract_y
_atom_site_fract_z
Si Si1 0.241443 0.073218 0.087443
Si Si2 0.597260 0.919687 0.161333
Si Si3 0.050222 0.572316 0.425808
Si Si4 0.860196 0.928583 0.723226
Si Si5 0.315352 0.418348 0.905884
Si Si6 0.948875 0.573482 0.659482
Si Si7 0.556101 0.071792 0.371874
Si Si8 0.590513 0.425849 0.287005
O O1 0.223323 0.250000 0.071792
O O2 0.370814 0.041416 0.179151
O O3 0.366483 0.991128 0.093579
O O4 0.000000 0.000000 0.000000
O O5 0.631913 0.750000 0.192188
O O6 0.587879 0.915508 0.106927
O O7 0.791051 0.029185 0.247794
O O8 0.041145 0.750000 0.419489
O O9 0.210157 0.518723 0.522611
O O10 0.160837 0.510753 0.421076
O O11 0.802074 0.510198 0.343253
O O12 0.880192 0.750000 0.732713
O O13 0.649094 0.992680 0.673650
O O14 0.838287 0.979304 0.664948
O O15 0.080850 0.995580 0.824599
O O16 0.278114 0.250000 0.910000
O O17 0.500000 0.500000 0.000000
O O18 0.924431 0.750000 0.643832
O O19 0.537520 0.250000 0.365632
O O20 0.543339 0.011613 0.318247
O O21 0.649306 0.250000 0.309275
#
# Coordination Sequence:
#
# PCOD8071679 Si02
#       8
#     4   4   4   4   4   4   4   4
#     4  11  23  37  57  85 116 150 189 236 291 346
#     4  10  20  36  57  80 110 146 186 234 284 336
#     4  11  21  34  58  86 113 149 193 238 286 342
#     4   9  19  37  58  80 113 153 191 234 287 343
#     4  10  21  36  57  85 113 147 190 234 286 345
#     4  10  19  33  56  83 111 147 189 233 282 338
#     4   9  20  38  58  83 115 152 191 235 290 347
#     4  10  21  39  60  81 112 151 193 238 286 341
#
# _framework density 19.474346000000001
#
# number of rings (size 3 to 8) (size 9 to 14) (size 15 to 20)
#    0.000    2.000    1.250    2.250    0.000    4.000 
#    0.000    5.000    0.000    0.000    0.000    0.000 
#    0.000    0.000    0.000    0.000    0.000    0.000 
#
# Total GULP energy -396798.835869 kJ/mol
# GULP energy per Si atom -12399.963621 kJ/mol
# Density = 1.943002 g / cm^3
# Si number density = 19.474346 Si / 1000 Ang^3
#
#
#
# Elastic Constant Matrix: (Units=GPa)
#
#
# Indices 1 2 3 4 5 6 
#
# 1 106.4684 34.6127 46.1263 0.0000 2.2159 0.0000
# 2 34.6127 65.8646 34.9190 0.0000 -5.7212 0.0000
# 3 46.1263 34.9190 106.0054 0.0000 -9.2668 0.0000
# 4 0.0000 0.0000 0.0000 27.4970 0.0000 -3.0022
# 5 2.2159 -5.7212 -9.2668 0.0000 28.5583 0.0000
# 6 0.0000 0.0000 0.0000 -3.0022 0.0000 25.3744
#
#
#
# Elastic Compliance Matrix: (Units=1/GPa)
#
#
# Indices 1 2 3 4 5 6 
#
# 1 0.012889 -0.004769 -0.004331 0.000000 -0.003361 0.000000
# 2 -0.004769 0.020247 -0.004330 0.000000 0.003021 0.000000
# 3 -0.004331 -0.004330 0.013069 0.000000 0.003709 0.000000
# 4 0.000000 0.000000 0.000000 0.036844 0.000000 0.004359
# 5 -0.003361 0.003021 0.003709 0.000000 0.037086 0.000000
# 6 0.000000 0.000000 0.000000 0.004359 0.000000 0.039925
#
#
# Mechanical properties :
#
#
# Convention : Reuss Voigt Hill
#
# Bulk Modulus (GPa) = 51.69620 56.62828 54.16224
# Shear Modulus (GPa) = 25.85722 27.13130 26.49426
#
# Velocity S-wave (km/s) = 3.64779 3.73658 3.69246
# Velocity P-wave (km/s) = 6.65923 6.91069 6.78612
#
# Compressibility (1/GPa) = 0.01934378
#
# Stress axis : x y z
#
# Youngs Moduli (GPa) = 77.58325 49.38985 76.51757
#
# Poissons Ratio (x) = 0.23555 0.33143
# Poissons Ratio (y) = 0.37000 0.33134
# Poissons Ratio (z) = 0.33604 0.21387
#
# Static dielectric constant tensor:
#      x y z
#    x 3.983460 0.000000 -0.140930 
#    y 0.000000 3.570830 0.000000 
#    z -0.140930 0.000000 3.446760 
# 
# 
# High freq. dielectric constant tensor:
#      x y z
#    x 1.765980 0.000000 -0.007780 
#    y 0.000000 1.752790 0.000000 
#    z -0.007780 0.000000 1.755550 
# 
# From -- ./inp_files/38113.got.cif
#   From: 2010.06.25/outbox.cif.g09.slc.cpg/sg11_20_cif.got.tgz:38113.got - 2010.06.27 23:14:04.
