data_PCOD8071801
_publ_section_title
;
Structure prediction by ZEFSAII (Michael W. Deem and Ramdas Pophale) SiO2 
 PCOD8071801
Probable space group: P 21/M
;
_chemical_formula_sum "Si O2"
_cell_formula_units_Z 32
_cell_length_a 12.491914
_cell_length_b 8.869946
_cell_length_c 19.252685
_cell_angle_alpha 90.000000
_cell_angle_beta 62.934248
_cell_angle_gamma 90.000000
_cell_volume 1899.624873
_symmetry_space_group_name_H-M "P 21/M"
_symmetry_group_IT_number 11
_symmetry_cell_setting 'monoclinic'
loop_
_space_group_symop_operation_xyz
x,y,z
-x,1/2+y,-z
-x,-y,-z
x,1/2-y,z
loop_
_atom_site_type_symbol
_atom_site_label
_atom_site_fract_x
_atom_site_fract_y
_atom_site_fract_z
Si Si1 0.495369 0.925723 0.814801
Si Si2 0.241391 0.074058 0.903144
Si Si3 0.719767 0.426694 0.330128
Si Si4 0.185388 0.076173 0.078836
Si Si5 0.594244 0.427393 0.919816
Si Si6 0.383332 0.926565 0.501356
Si Si7 0.911677 0.427785 0.166191
Si Si8 0.466370 0.074961 0.351089
O O1 0.495443 0.750000 0.834566
O O2 0.560897 0.954513 0.721716
O O3 0.358847 0.979859 0.849089
O O4 0.569020 0.018715 0.849468
O O5 0.265744 0.250000 0.883246
O O6 0.131595 0.017205 0.888753
O O7 0.206181 0.040758 0.992354
O O8 0.716041 0.250000 0.318965
O O9 0.724848 0.463364 0.411773
O O10 0.836906 0.488225 0.255285
O O11 0.598009 0.493041 0.331360
O O12 0.214085 0.250000 0.087005
O O13 0.050042 0.033178 0.139504
O O14 0.271105 0.972570 0.099912
O O15 0.577405 0.250000 0.928581
O O16 0.500000 0.500000 0.000000
O O17 0.402418 0.750000 0.488673
O O18 0.500000 0.000000 0.500000
O O19 0.364623 0.995025 0.429589
O O20 0.895237 0.250000 0.157251
O O21 0.461918 0.250000 0.370595
#
# Coordination Sequence:
#
# PCOD8071801 Si02
#       8
#     4   4   4   4   4   4   4   4
#     4  11  21  35  55  75  99 134 171 209 256 304
#     4  11  21  32  48  75 106 133 170 211 251 300
#     4   8  14  27  45  68  97 131 167 198 238 295
#     4  10  22  37  53  73  99 135 176 214 252 299
#     4  12  24  38  56  75  99 130 169 214 259 302
#     4   9  16  26  42  66  98 133 166 199 242 295
#     4  10  19  34  53  72 101 140 176 207 247 299
#     4   9  17  30  47  70  99 129 165 203 247 302
#
# _framework density 16.845431000000001
#
# number of rings (size 3 to 8) (size 9 to 14) (size 15 to 20)
#    0.000    2.000    2.500    3.375    0.000    2.000 
#    0.000    0.625    0.000    0.000    0.000    0.875 
#    0.000    0.000    0.000    0.000    0.000    0.000 
#
# Total GULP energy -396686.514331 kJ/mol
# GULP energy per Si atom -12396.453573 kJ/mol
# Density = 1.680709 g / cm^3
# Si number density = 16.845431 Si / 1000 Ang^3
#
#
#
# Elastic Constant Matrix: (Units=GPa)
#
#
# Indices 1 2 3 4 5 6 
#
# 1 84.9493 39.9820 48.1326 0.0000 5.1780 0.0000
# 2 39.9820 82.0762 45.7062 0.0000 9.8326 0.0000
# 3 48.1326 45.7062 97.3089 0.0000 16.4160 0.0000
# 4 0.0000 0.0000 0.0000 25.7679 0.0000 5.1355
# 5 5.1780 9.8326 16.4160 0.0000 17.0618 0.0000
# 6 0.0000 0.0000 0.0000 5.1355 0.0000 24.7918
#
#
#
# Elastic Compliance Matrix: (Units=1/GPa)
#
#
# Indices 1 2 3 4 5 6 
#
# 1 0.018092 -0.005344 -0.007201 0.000000 0.004517 0.000000
# 2 -0.005344 0.018164 -0.005248 0.000000 -0.003797 0.000000
# 3 -0.007201 -0.005248 0.018413 0.000000 -0.012507 0.000000
# 4 0.000000 0.000000 0.000000 0.040479 0.000000 -0.008385
# 5 0.004517 -0.003797 -0.012507 0.000000 0.071461 0.000000
# 6 0.000000 0.000000 0.000000 -0.008385 0.000000 0.042073
#
#
# Mechanical properties :
#
#
# Convention : Reuss Voigt Hill
#
# Bulk Modulus (GPa) = 52.40138 59.10847 55.75492
# Shear Modulus (GPa) = 19.94982 22.22520 21.08751
#
# Velocity S-wave (km/s) = 3.44508 3.63624 3.54195
# Velocity P-wave (km/s) = 6.85562 7.26599 7.06378
#
# Compressibility (1/GPa) = 0.01908347
#
# Stress axis : x y z
#
# Youngs Moduli (GPa) = 55.27415 55.05258 54.30938
#
# Poissons Ratio (x) = 0.29422 0.39106
# Poissons Ratio (y) = 0.29540 0.28501
# Poissons Ratio (z) = 0.39801 0.28891
#
# Static dielectric constant tensor:
#      x y z
#    x 2.924650 0.000000 0.054190 
#    y 0.000000 3.176160 0.000000 
#    z 0.054190 0.000000 3.633900 
# 
# 
# High freq. dielectric constant tensor:
#      x y z
#    x 1.608990 0.000000 0.010190 
#    y 0.000000 1.647770 0.000000 
#    z 0.010190 0.000000 1.660590 
# 
# From -- ./inp_files/44505.got.cif
#   From: 2010.06.25/outbox.cif.g09.slc.cpg/sg11_23_cif.got.tgz:44505.got - 2010.06.27 23:14:04.
