data_PCOD8071422
_publ_section_title
;
Structure prediction by ZEFSAII (Michael W. Deem and Ramdas Pophale) SiO2 
 PCOD8071422
Probable space group: P 21/M
;
_chemical_formula_sum "Si O2"
_cell_formula_units_Z 28
_cell_length_a 14.476091
_cell_length_b 9.817448
_cell_length_c 10.496871
_cell_angle_alpha 90.000000
_cell_angle_beta 114.797991
_cell_angle_gamma 90.000000
_cell_volume 1354.241798
_symmetry_space_group_name_H-M "P 21/M"
_symmetry_group_IT_number 11
_symmetry_cell_setting 'monoclinic'
loop_
_space_group_symop_operation_xyz
x,y,z
-x,1/2+y,-z
-x,-y,-z
x,1/2-y,z
loop_
_atom_site_type_symbol
_atom_site_label
_atom_site_fract_x
_atom_site_fract_y
_atom_site_fract_z
Si Si1 0.021664 0.595490 0.194406
Si Si2 0.692912 0.593674 0.273576
Si Si3 0.501006 0.529090 0.711339
Si Si4 0.634495 0.104915 0.583836
Si Si5 0.808853 0.410373 0.518575
Si Si6 0.855976 0.091643 0.990717
Si Si7 0.682920 0.598205 0.973113
O O1 0.977688 0.750000 0.165837
O O2 0.077468 0.568422 0.362094
O O3 0.931789 0.486040 0.131895
O O4 0.103041 0.577456 0.128504
O O5 0.723850 0.750000 0.314165
O O6 0.584106 0.568376 0.277100
O O7 0.784969 0.497914 0.378446
O O8 0.681868 0.557347 0.119759
O O9 0.448230 0.626645 0.577521
O O10 0.587945 0.452045 0.684102
O O11 0.565101 0.603871 0.858272
O O12 0.678305 0.250000 0.650901
O O13 0.731428 0.026460 0.580799
O O14 0.787068 0.250000 0.478230
O O15 0.845851 0.250000 0.025878
O O16 0.748196 0.014242 0.934371
O O17 0.729044 0.750000 0.980071
#
# Coordination Sequence:
#
# PCOD8071422 Si02
#       7
#     4   4   4   4   4   4   4
#     4   9  18  36  60  85 113 140 168 214 274 327
#     4  10  22  37  53  77 108 143 186 229 265 309
#     4  10  19  33  53  76 105 143 183 218 263 319
#     4   9  17  30  50  79 110 136 169 216 265 316
#     4   9  18  34  56  80 108 142 176 214 267 324
#     4  10  21  36  57  86 112 137 175 219 266 324
#     4  11  23  38  54  75 108 148 185 223 267 314
#
# _framework density 20.675775999999999
#
# number of rings (size 3 to 8) (size 9 to 14) (size 15 to 20)
#    0.000    2.286    0.000    2.571    0.000    4.571 
#    0.000    5.714    0.000    0.000    0.000    0.000 
#    0.000    0.000    0.000    0.000    0.000    0.000 
#
# Total GULP energy -346921.955541 kJ/mol
# GULP energy per Si atom -12390.069841 kJ/mol
# Density = 2.062872 g / cm^3
# Si number density = 20.675776 Si / 1000 Ang^3
#
#
#
# Elastic Constant Matrix: (Units=GPa)
#
#
# Indices 1 2 3 4 5 6 
#
# 1 34.3709 20.0692 10.0392 0.0000 13.9022 0.0000
# 2 20.0692 104.5888 36.8867 0.0000 10.9024 0.0000
# 3 10.0392 36.8867 101.6870 0.0000 25.0324 0.0000
# 4 0.0000 0.0000 0.0000 4.1068 0.0000 5.8464
# 5 13.9022 10.9024 25.0324 0.0000 28.8866 0.0000
# 6 0.0000 0.0000 0.0000 5.8464 0.0000 26.8826
#
#
#
# Elastic Compliance Matrix: (Units=1/GPa)
#
#
# Indices 1 2 3 4 5 6 
#
# 1 0.040020 -0.006817 0.003343 0.000000 -0.019584 0.000000
# 2 -0.006817 0.012143 -0.004336 0.000000 0.002455 0.000000
# 3 0.003343 -0.004336 0.014072 0.000000 -0.012167 0.000000
# 4 0.000000 0.000000 0.000000 0.352690 0.000000 -0.076703
# 5 -0.019584 0.002455 -0.012167 0.000000 0.053660 0.000000
# 6 0.000000 0.000000 0.000000 -0.076703 0.000000 0.053880
#
#
# Mechanical properties :
#
#
# Convention : Reuss Voigt Hill
#
# Bulk Modulus (GPa) = 19.75727 41.62631 30.69179
# Shear Modulus (GPa) = 8.94524 23.55197 16.24861
#
# Velocity S-wave (km/s) = 2.08227 3.37873 2.80639
# Velocity P-wave (km/s) = 3.91888 5.94960 5.03762
#
# Compressibility (1/GPa) = 0.05061428
#
# Stress axis : x y z
#
# Youngs Moduli (GPa) = 24.98770 82.35457 71.06265
#
# Poissons Ratio (x) = 0.56139 -0.23755
# Poissons Ratio (y) = 0.17033 0.30814
# Poissons Ratio (z) = -0.08353 0.35710
#
# Static dielectric constant tensor:
#      x y z
#    x 3.524770 0.000000 0.103530 
#    y 0.000000 3.685060 0.000000 
#    z 0.103530 0.000000 3.808590 
# 
# 
# High freq. dielectric constant tensor:
#      x y z
#    x 1.792530 0.000000 0.012870 
#    y 0.000000 1.798100 0.000000 
#    z 0.012870 0.000000 1.817060 
# 
# From -- ./inp_files/21625.got.cif
#   From: 2010.06.25/outbox.cif.g09.slc.cpg/sg11_11_cif.got.tgz:21625.got - 2010.06.27 23:14:04.
