data_PCOD8071008
_publ_section_title
;
Structure prediction by ZEFSAII (Michael W. Deem and Ramdas Pophale) SiO2 
 PCOD8071008
Probable space group: P 21/M
;
_chemical_formula_sum "Si O2"
_cell_formula_units_Z 32
_cell_length_a 9.039748
_cell_length_b 13.804621
_cell_length_c 14.438287
_cell_angle_alpha 90.000000
_cell_angle_beta 119.819033
_cell_angle_gamma 90.000000
_cell_volume 1563.205893
_symmetry_space_group_name_H-M "P 21/M"
_symmetry_group_IT_number 11
_symmetry_cell_setting 'monoclinic'
loop_
_space_group_symop_operation_xyz
x,y,z
-x,1/2+y,-z
-x,-y,-z
x,1/2-y,z
loop_
_atom_site_type_symbol
_atom_site_label
_atom_site_fract_x
_atom_site_fract_y
_atom_site_fract_z
Si Si1 0.539271 0.865601 0.078414
Si Si2 0.895058 0.640975 0.895766
Si Si3 0.102571 0.136988 0.889745
Si Si4 0.491333 0.360448 0.721420
Si Si5 0.002644 0.036152 0.352087
Si Si6 0.103870 0.139899 0.565253
Si Si7 0.786878 0.361409 0.132886
Si Si8 0.780444 0.484344 0.734193
O O1 0.539598 0.750000 0.079791
O O2 0.722088 0.903240 0.099523
O O3 0.504806 0.902419 0.172464
O O4 0.393986 0.902197 0.961455
O O5 0.825759 0.750000 0.861526
O O6 0.764026 0.569491 0.804485
O O7 0.083207 0.629235 0.912231
O O8 0.902057 0.611699 0.004090
O O9 0.078752 0.250000 0.863116
O O10 0.948814 0.080445 0.796365
O O11 0.556762 0.250000 0.742502
O O12 0.306315 0.368893 0.619072
O O13 0.611835 0.420812 0.689968
O O14 0.851005 0.076344 0.239862
O O15 0.017718 0.108911 0.442530
O O16 0.958727 0.927614 0.370888
O O17 0.186550 0.032821 0.356400
O O18 0.050395 0.250000 0.572526
O O19 0.769980 0.250000 0.159517
#
# Coordination Sequence:
#
# PCOD8071008 Si02
#       8
#     4   4   4   4   4   4   4   4
#     4   9  18  32  53  83 119 153 183 219 268 328
#     4   9  19  34  50  72 108 153 193 225 264 319
#     4  10  19  32  51  79 116 154 188 223 269 325
#     4  10  21  37  58  84 114 149 184 223 274 329
#     4  10  22  38  60  86 108 141 187 230 277 331
#     4  10  22  42  63  82 110 144 182 229 278 330
#     4   9  17  33  56  82 114 149 185 226 271 322
#     4  11  21  34  55  82 111 143 186 232 275 324
#
# _framework density 20.470752000000001
#
# number of rings (size 3 to 8) (size 9 to 14) (size 15 to 20)
#    0.000    2.250    0.000    2.625    0.000    7.000 
#    0.000    3.750    0.000    3.000    0.000    0.000 
#    0.000    0.000    0.000    0.000    0.000    0.000 
#
# Total GULP energy -396801.794717 kJ/mol
# GULP energy per Si atom -12400.056085 kJ/mol
# Density = 2.042416 g / cm^3
# Si number density = 20.470752 Si / 1000 Ang^3
#
#
#
# Elastic Constant Matrix: (Units=GPa)
#
#
# Indices 1 2 3 4 5 6 
#
# 1 66.9871 17.2074 18.0643 0.0000 -0.0004 0.0000
# 2 17.2074 60.5745 30.8911 0.0000 1.5082 0.0000
# 3 18.0643 30.8911 52.2946 0.0000 -0.6804 0.0000
# 4 0.0000 0.0000 0.0000 18.4781 0.0000 -0.3290
# 5 -0.0004 1.5082 -0.6804 0.0000 25.5704 0.0000
# 6 0.0000 0.0000 0.0000 -0.3290 0.0000 24.3113
#
#
#
# Elastic Compliance Matrix: (Units=1/GPa)
#
#
# Indices 1 2 3 4 5 6 
#
# 1 0.016740 -0.002587 -0.004254 0.000000 0.000040 0.000000
# 2 -0.002587 0.024105 -0.013369 0.000000 -0.001778 0.000000
# 3 -0.004254 -0.013369 0.028509 0.000000 0.001547 0.000000
# 4 0.000000 0.000000 0.000000 0.054131 0.000000 0.000732
# 5 0.000040 -0.001778 0.001547 0.000000 0.039254 0.000000
# 6 0.000000 0.000000 0.000000 0.000732 0.000000 0.041143
#
#
# Mechanical properties :
#
#
# Convention : Reuss Voigt Hill
#
# Bulk Modulus (GPa) = 34.56011 34.68686 34.62348
# Shear Modulus (GPa) = 19.68915 21.25153 20.47034
#
# Velocity S-wave (km/s) = 3.10468 3.22552 3.16568
# Velocity P-wave (km/s) = 5.45632 5.55458 5.50567
#
# Compressibility (1/GPa) = 0.02893509
#
# Stress axis : x y z
#
# Youngs Moduli (GPa) = 59.73757 41.48431 35.07641
#
# Poissons Ratio (x) = 0.10732 0.14921
# Poissons Ratio (y) = 0.15454 0.46893
# Poissons Ratio (z) = 0.25411 0.55460
#
# Static dielectric constant tensor:
#      x y z
#    x 3.687040 0.000000 -0.128690 
#    y 0.000000 3.929280 0.000000 
#    z -0.128690 0.000000 3.595540 
# 
# 
# High freq. dielectric constant tensor:
#      x y z
#    x 1.792130 0.000000 -0.012590 
#    y 0.000000 1.813870 0.000000 
#    z -0.012590 0.000000 1.786170 
# 
# From -- ./inp_files/26852.got.cif
#   From: 2010.06.25/outbox.cif.g09.slc.cpg/sg11_14_cif.got.tgz:26852.got - 2010.06.27 23:14:04.
