data_PCOD8071307
_publ_section_title
;
Structure prediction by ZEFSAII (Michael W. Deem and Ramdas Pophale) SiO2 
 PCOD8071307
Probable space group: P 21/M
;
_chemical_formula_sum "Si O2"
_cell_formula_units_Z 28
_cell_length_a 14.976112
_cell_length_b 8.788345
_cell_length_c 18.936067
_cell_angle_alpha 90.000000
_cell_angle_beta 141.761660
_cell_angle_gamma 90.000000
_cell_volume 1542.554025
_symmetry_space_group_name_H-M "P 21/M"
_symmetry_group_IT_number 11
_symmetry_cell_setting 'monoclinic'
loop_
_space_group_symop_operation_xyz
x,y,z
-x,1/2+y,-z
-x,-y,-z
x,1/2-y,z
loop_
_atom_site_type_symbol
_atom_site_label
_atom_site_fract_x
_atom_site_fract_y
_atom_site_fract_z
Si Si1 0.126632 0.075150 0.877103
Si Si2 0.243881 0.422938 0.093620
Si Si3 0.571282 0.070981 0.976079
Si Si4 0.471360 0.076546 0.765575
Si Si5 0.379326 0.571451 0.574866
Si Si6 0.167502 0.069868 0.335969
Si Si7 0.690802 0.925740 0.716396
O O1 0.114901 0.250000 0.846800
O O2 0.276615 0.010296 0.942075
O O3 0.116461 0.058853 0.956960
O O4 0.996730 0.984075 0.761355
O O5 0.309090 0.250000 0.128528
O O6 0.362050 0.548308 0.148878
O O7 0.200324 0.450823 0.148780
O O8 0.598641 0.250000 0.002535
O O9 0.458803 0.040395 0.841448
O O10 0.500000 0.000000 0.000000
O O11 0.430878 0.250000 0.723942
O O12 0.371861 0.971080 0.653667
O O13 0.360293 0.750000 0.554029
O O14 0.249153 0.487742 0.455566
O O15 0.531201 0.511079 0.636369
O O16 0.168907 0.250000 0.334917
O O17 0.243147 0.996872 0.312705
O O18 0.673461 0.750000 0.688003
#
# Coordination Sequence:
#
# PCOD8071307 Si02
#       7
#     4   4   4   4   4   4   4
#     4  10  20  34  51  73 103 136 169 205 251 305
#     4   8  15  30  49  68  95 131 169 209 251 296
#     4  10  20  35  58  85 108 129 157 197 245 300
#     4   9  17  30  50  77 103 127 160 202 247 292
#     4  10  19  33  51  70  97 135 178 216 251 294
#     4  11  21  32  47  69 101 138 175 216 257 296
#     4   8  16  30  48  70  96 130 174 220 258 292
#
# _framework density 18.151713999999998
#
# number of rings (size 3 to 8) (size 9 to 14) (size 15 to 20)
#    0.000    2.571    0.000    3.429    0.000    2.857 
#    0.000    6.429    0.000    0.857    0.000    0.000 
#    0.000    0.000    0.000    0.000    0.000    0.000 
#
# Total GULP energy -346955.239736 kJ/mol
# GULP energy per Si atom -12391.258562 kJ/mol
# Density = 1.811040 g / cm^3
# Si number density = 18.151714 Si / 1000 Ang^3
#
#
#
# Elastic Constant Matrix: (Units=GPa)
#
#
# Indices 1 2 3 4 5 6 
#
# 1 68.5382 32.3178 55.4193 0.0000 -16.9722 0.0000
# 2 32.3178 77.2411 47.2587 0.0000 -7.4547 0.0000
# 3 55.4193 47.2587 127.8091 0.0000 -8.6134 0.0000
# 4 0.0000 0.0000 0.0000 28.3574 0.0000 -1.4333
# 5 -16.9722 -7.4547 -8.6134 0.0000 23.3858 0.0000
# 6 0.0000 0.0000 0.0000 -1.4333 0.0000 20.7043
#
#
#
# Elastic Compliance Matrix: (Units=1/GPa)
#
#
# Indices 1 2 3 4 5 6 
#
# 1 0.028295 -0.004485 -0.009560 0.000000 0.015584 0.000000
# 2 -0.004485 0.017670 -0.004541 0.000000 0.000705 0.000000
# 3 -0.009560 -0.004541 0.013417 0.000000 -0.003444 0.000000
# 4 0.000000 0.000000 0.000000 0.035388 0.000000 0.002450
# 5 0.015584 0.000705 -0.003444 0.000000 0.053027 0.000000
# 6 0.000000 0.000000 0.000000 0.002450 0.000000 0.048469
#
#
# Mechanical properties :
#
#
# Convention : Reuss Voigt Hill
#
# Bulk Modulus (GPa) = 45.02956 60.39779 52.71368
# Shear Modulus (GPa) = 20.76067 23.72900 22.24483
#
# Velocity S-wave (km/s) = 3.38558 3.61953 3.50450
# Velocity P-wave (km/s) = 6.33593 7.12840 6.74382
#
# Compressibility (1/GPa) = 0.02220763
#
# Stress axis : x y z
#
# Youngs Moduli (GPa) = 35.34242 56.59451 74.53480
#
# Poissons Ratio (x) = 0.25384 0.71256
# Poissons Ratio (y) = 0.15852 0.33847
# Poissons Ratio (z) = 0.33788 0.25700
#
# Static dielectric constant tensor:
#      x y z
#    x 3.176780 0.000000 -0.355550 
#    y 0.000000 3.292270 0.000000 
#    z -0.355550 0.000000 3.471710 
# 
# 
# High freq. dielectric constant tensor:
#      x y z
#    x 1.663170 0.000000 -0.026690 
#    y 0.000000 1.703810 0.000000 
#    z -0.026690 0.000000 1.705810 
# 
# From -- ./inp_files/53211.got.cif
#   From: 2010.06.25/outbox.cif.g09.slc.cpg/sg11_27_cif.got.tgz:53211.got - 2010.06.27 23:14:04.
