data_PCOD8071858
_publ_section_title
;
Structure prediction by ZEFSAII (Michael W. Deem and Ramdas Pophale) SiO2 
 PCOD8071858
Probable space group: P 21/M
;
_chemical_formula_sum "Si O2"
_cell_formula_units_Z 28
_cell_length_a 31.403406
_cell_length_b 8.538540
_cell_length_c 31.403375
_cell_angle_alpha 90.000000
_cell_angle_beta 9.482118
_cell_angle_gamma 90.000000
_cell_volume 1387.187523
_symmetry_space_group_name_H-M "P 21/M"
_symmetry_group_IT_number 11
_symmetry_cell_setting 'monoclinic'
loop_
_space_group_symop_operation_xyz
x,y,z
-x,1/2+y,-z
-x,-y,-z
x,1/2-y,z
loop_
_atom_site_type_symbol
_atom_site_label
_atom_site_fract_x
_atom_site_fract_y
_atom_site_fract_z
Si Si1 0.619472 0.565634 0.119385
Si Si2 0.238978 0.567238 0.738964
Si Si3 0.523724 0.435927 0.023641
Si Si4 0.903364 0.935638 0.403452
Si Si5 0.810618 0.064723 0.310626
Si Si6 0.048324 0.063871 0.548236
Si Si7 0.333486 0.935372 0.833518
O O1 0.616729 0.750000 0.116625
O O2 0.358524 0.495925 0.358393
O O3 0.644135 0.522256 0.144027
O O4 0.858497 0.495925 0.858423
O O5 0.500000 0.500000 0.500000
O O6 0.242439 0.750000 0.742403
O O7 0.214249 0.522322 0.714176
O O8 0.000000 0.500000 0.000000
O O9 0.523022 0.250000 0.022911
O O10 0.785500 0.501065 0.786662
O O11 0.500000 0.500000 0.000000
O O12 0.286765 0.501065 0.285402
O O13 0.902966 0.750000 0.403085
O O14 0.927563 0.000620 0.427624
O O15 0.814977 0.250000 0.314836
O O16 0.570537 0.986331 0.570664
O O17 0.070637 0.986281 0.070555
O O18 0.048487 0.250000 0.548413
O O19 0.337177 0.750000 0.837101
#
# Coordination Sequence:
#
# PCOD8071858 Si02
#       7
#     4   4   4   4   4   4   4
#     4  12  25  42  62  90 127 161 192 245 311 363
#     4  11  24  41  64  92 126 164 205 250 303 361
#     4  10  19  34  54  80 110 146 187 232 287 345
#     4  11  22  41  66  90 116 157 208 251 290 355
#     4  11  24  43  64  91 126 164 201 250 311 361
#     4   9  19  35  57  80 109 147 190 237 288 342
#     4  12  25  42  65  93 121 159 208 253 294 357
#
# _framework density 20.184726999999999
#
# number of rings (size 3 to 8) (size 9 to 14) (size 15 to 20)
#    0.000    1.143    0.000    6.857    0.000    8.000 
#    0.000    4.286    0.000    0.000    0.000    0.000 
#    0.000    0.000    0.000    0.000    0.000    0.000 
#
# Total GULP energy -347348.327236 kJ/mol
# GULP energy per Si atom -12405.297401 kJ/mol
# Density = 2.013879 g / cm^3
# Si number density = 20.184727 Si / 1000 Ang^3
#
#
#
# Elastic Constant Matrix: (Units=GPa)
#
#
# Indices 1 2 3 4 5 6 
#
# 1 164.1252 40.3219 93.0803 0.0000 -4.0311 0.0000
# 2 40.3219 68.6192 39.2722 0.0000 0.0842 0.0000
# 3 93.0803 39.2722 215.9156 0.0000 -0.5093 0.0000
# 4 0.0000 0.0000 0.0000 33.1975 0.0000 0.2574
# 5 -4.0311 0.0842 -0.5093 0.0000 58.2822 0.0000
# 6 0.0000 0.0000 0.0000 0.2574 0.0000 36.1271
#
#
#
# Elastic Compliance Matrix: (Units=1/GPa)
#
#
# Indices 1 2 3 4 5 6 
#
# 1 0.008708 -0.003315 -0.003150 0.000000 0.000580 0.000000
# 2 -0.003315 0.017529 -0.001760 0.000000 -0.000270 0.000000
# 3 -0.003150 -0.001760 0.006309 0.000000 -0.000160 0.000000
# 4 0.000000 0.000000 0.000000 0.030124 0.000000 -0.000215
# 5 0.000580 -0.000270 -0.000160 0.000000 0.017197 0.000000
# 6 0.000000 0.000000 0.000000 -0.000215 0.000000 0.027682
#
#
# Mechanical properties :
#
#
# Convention : Reuss Voigt Hill
#
# Bulk Modulus (GPa) = 62.12482 88.22320 75.17401
# Shear Modulus (GPa) = 38.65106 43.92039 41.28572
#
# Velocity S-wave (km/s) = 4.38067 4.66974 4.52751
# Velocity P-wave (km/s) = 7.51212 8.53686 8.04083
#
# Compressibility (1/GPa) = 0.01609663
#
# Stress axis : x y z
#
# Youngs Moduli (GPa) = 114.83989 57.04954 158.50610
#
# Poissons Ratio (x) = 0.18912 0.49923
# Poissons Ratio (y) = 0.38069 0.27894
# Poissons Ratio (z) = 0.36170 0.10039
#
# Static dielectric constant tensor:
#      x y z
#    x 3.908030 0.000000 -0.004990 
#    y 0.000000 3.702550 0.000000 
#    z -0.004990 0.000000 3.966300 
# 
# 
# High freq. dielectric constant tensor:
#      x y z
#    x 1.811620 0.000000 -0.000220 
#    y 0.000000 1.786430 0.000000 
#    z -0.000220 0.000000 1.814140 
# 
# From -- ./inp_files/73860.got.cif
#   From: 2010.06.25/outbox.cif.g09.slc.cpg/sg11_37_cif.got.tgz:73860.got - 2010.06.27 23:14:04.
