data_PCOD8071078
_publ_section_title
;
Structure prediction by ZEFSAII (Michael W. Deem and Ramdas Pophale) SiO2 
 PCOD8071078
Probable space group: P 21/M
;
_chemical_formula_sum "Si O2"
_cell_formula_units_Z 28
_cell_length_a 28.500331
_cell_length_b 8.636689
_cell_length_c 9.614270
_cell_angle_alpha 90.000000
_cell_angle_beta 141.192028
_cell_angle_gamma 90.000000
_cell_volume 1483.138391
_symmetry_space_group_name_H-M "P 21/M"
_symmetry_group_IT_number 11
_symmetry_cell_setting 'monoclinic'
loop_
_space_group_symop_operation_xyz
x,y,z
-x,1/2+y,-z
-x,-y,-z
x,1/2-y,z
loop_
_atom_site_type_symbol
_atom_site_label
_atom_site_fract_x
_atom_site_fract_y
_atom_site_fract_z
Si Si1 0.599851 0.070062 0.113617
Si Si2 0.241256 0.431308 0.561902
Si Si3 0.918921 0.428842 0.308587
Si Si4 0.205697 0.566545 0.767419
Si Si5 0.312659 0.431823 0.231461
Si Si6 0.551165 0.069353 0.313883
Si Si7 0.798986 0.430428 0.813411
O O1 0.612788 0.250000 0.112841
O O2 0.587054 0.037799 0.246309
O O3 0.672007 0.976680 0.230760
O O4 0.529902 0.009444 0.863037
O O5 0.232885 0.250000 0.518555
O O6 0.200665 0.480461 0.609534
O O7 0.197662 0.520282 0.338687
O O8 0.929798 0.250000 0.358399
O O9 0.865776 0.492561 0.308911
O O10 0.000000 0.500000 0.500000
O O11 0.879642 0.463330 0.069508
O O12 0.206026 0.750000 0.746522
O O13 0.280774 0.518934 0.022806
O O14 0.311864 0.250000 0.201984
O O15 0.397155 0.490025 0.450447
O O16 0.264762 0.471320 0.257597
O O17 0.542999 0.250000 0.325760
O O18 0.777085 0.250000 0.777255
#
# Coordination Sequence:
#
# PCOD8071078 Si02
#       7
#     4   4   4   4   4   4   4
#     4  10  20  33  52  77 111 150 187 234 286 333
#     4  12  23  36  56  85 115 147 189 236 282 331
#     4   9  20  38  63  89 114 144 182 225 272 328
#     4  10  22  40  59  81 114 153 186 224 280 339
#     4  11  20  33  55  83 111 144 191 240 280 328
#     4  10  19  32  52  78 110 147 191 237 283 331
#     4  10  20  36  57  83 113 151 189 225 274 332
#
# _framework density 18.878886000000001
#
# number of rings (size 3 to 8) (size 9 to 14) (size 15 to 20)
#    0.000    1.714    1.429    5.143    0.000    4.571 
#    0.000    1.429    0.000    0.000    0.000    0.000 
#    0.000    0.000    0.000    0.000    0.000    0.000 
#
# Total GULP energy -347296.884169 kJ/mol
# GULP energy per Si atom -12403.460149 kJ/mol
# Density = 1.883592 g / cm^3
# Si number density = 18.878886 Si / 1000 Ang^3
#
#
#
# Elastic Constant Matrix: (Units=GPa)
#
#
# Indices 1 2 3 4 5 6 
#
# 1 72.4853 18.9012 45.6148 0.0000 -5.8237 0.0000
# 2 18.9012 68.6698 26.0635 0.0000 8.3913 0.0000
# 3 45.6148 26.0635 109.5278 0.0000 4.9321 0.0000
# 4 0.0000 0.0000 0.0000 35.7848 0.0000 1.7777
# 5 -5.8237 8.3913 4.9321 0.0000 27.5836 0.0000
# 6 0.0000 0.0000 0.0000 1.7777 0.0000 29.3571
#
#
#
# Elastic Compliance Matrix: (Units=1/GPa)
#
#
# Indices 1 2 3 4 5 6 
#
# 1 0.020191 -0.003375 -0.007907 0.000000 0.006704 0.000000
# 2 -0.003375 0.017076 -0.002411 0.000000 -0.005476 0.000000
# 3 -0.007907 -0.002411 0.013145 0.000000 -0.003286 0.000000
# 4 0.000000 0.000000 0.000000 0.028029 0.000000 -0.001697
# 5 0.006704 -0.005476 -0.003286 0.000000 0.039922 0.000000
# 6 0.000000 0.000000 0.000000 -0.001697 0.000000 0.034166
#
#
# Mechanical properties :
#
#
# Convention : Reuss Voigt Hill
#
# Bulk Modulus (GPa) = 43.43326 47.98242 45.70784
# Shear Modulus (GPa) = 26.65363 29.21865 27.93614
#
# Velocity S-wave (km/s) = 3.76150 3.93834 3.85093
# Velocity P-wave (km/s) = 6.47467 6.79351 6.63600
#
# Compressibility (1/GPa) = 0.02302383
#
# Stress axis : x y z
#
# Youngs Moduli (GPa) = 49.52745 58.56239 76.07422
#
# Poissons Ratio (x) = 0.19767 0.60156
# Poissons Ratio (y) = 0.16717 0.18342
# Poissons Ratio (z) = 0.39164 0.14120
#
# Static dielectric constant tensor:
#      x y z
#    x 2.746410 0.000000 -0.431230 
#    y 0.000000 3.565810 0.000000 
#    z -0.431230 0.000000 3.261490 
# 
# 
# High freq. dielectric constant tensor:
#      x y z
#    x 1.706570 0.000000 -0.002220 
#    y 0.000000 1.745340 0.000000 
#    z -0.002220 0.000000 1.738990 
# 
# From -- ./inp_files/28020.got.cif
#   From: 2010.06.25/outbox.cif.g09.slc.cpg/sg11_15_cif.got.tgz:28020.got - 2010.06.27 23:14:04.
