data_PCOD8071793
_publ_section_title
;
Structure prediction by ZEFSAII (Michael W. Deem and Ramdas Pophale) SiO2 
 PCOD8071793
Probable space group: P 21/M
;
_chemical_formula_sum "Si O2"
_cell_formula_units_Z 28
_cell_length_a 12.674740
_cell_length_b 9.060062
_cell_length_c 19.233679
_cell_angle_alpha 90.000000
_cell_angle_beta 131.223890
_cell_angle_gamma 90.000000
_cell_volume 1661.236222
_symmetry_space_group_name_H-M "P 21/M"
_symmetry_group_IT_number 11
_symmetry_cell_setting 'monoclinic'
loop_
_space_group_symop_operation_xyz
x,y,z
-x,1/2+y,-z
-x,-y,-z
x,1/2-y,z
loop_
_atom_site_type_symbol
_atom_site_label
_atom_site_fract_x
_atom_site_fract_y
_atom_site_fract_z
Si Si1 0.030822 0.921625 0.410271
Si Si2 0.789752 0.578386 0.410290
Si Si3 0.789496 0.078485 0.907446
Si Si4 0.105002 0.422611 0.789887
Si Si5 0.599966 0.426342 0.099890
Si Si6 0.474675 0.077371 0.789898
Si Si7 0.974756 0.921485 0.092587
O O1 0.057356 0.750000 0.429633
O O2 0.895907 0.973329 0.395903
O O3 0.001846 0.966106 0.318066
O O4 0.170978 0.999982 0.500002
O O5 0.802054 0.750000 0.429713
O O6 0.634290 0.534006 0.318076
O O7 0.811673 0.250000 0.929941
O O8 0.627026 0.041129 0.824513
O O9 0.879576 0.024659 0.879638
O O10 0.841874 0.000056 0.000060
O O11 0.148513 0.250000 0.803150
O O12 0.242296 0.522212 0.845750
O O13 0.021701 0.458627 0.824397
O O14 0.590241 0.250000 0.090182
O O15 0.551203 0.477807 0.154395
O O16 0.500000 0.500000 0.000000
O O17 0.457839 0.250000 0.803216
O O18 0.951880 0.750000 0.069951
#
# Coordination Sequence:
#
# PCOD8071793 Si02
#       7
#     4   4   4   4   4   4   4
#     4   9  17  30  48  69  95 126 160 198 240 288
#     4   9  17  30  48  69  95 126 160 198 240 288
#     4   9  18  32  51  73  96 126 164 202 240 285
#     4  10  19  34  52  71  99 130 162 201 245 289
#     4  12  24  34  47  70 101 132 163 196 240 294
#     4  10  19  34  52  71  99 130 162 201 245 289
#     4   9  18  32  51  73  96 126 164 202 240 285
#
# _framework density 16.854918999999999
#
# number of rings (size 3 to 8) (size 9 to 14) (size 15 to 20)
#    0.000    2.286    1.429    2.143    0.000    4.571 
#    0.000    0.000    0.000    0.857    0.000    0.000 
#    0.000    0.000    0.000    0.000    0.000    0.000 
#
# Total GULP energy -347181.859092 kJ/mol
# GULP energy per Si atom -12399.352110 kJ/mol
# Density = 1.681656 g / cm^3
# Si number density = 16.854919 Si / 1000 Ang^3
#
#
#
# Elastic Constant Matrix: (Units=GPa)
#
#
# Indices 1 2 3 4 5 6 
#
# 1 91.1092 37.8729 73.7060 0.0000 -1.5577 0.0000
# 2 37.8729 60.9226 57.0195 0.0000 -1.0234 0.0000
# 3 73.7060 57.0195 170.0422 0.0000 -2.5980 0.0000
# 4 0.0000 0.0000 0.0000 30.6718 0.0000 -0.8085
# 5 -1.5577 -1.0234 -2.5980 0.0000 23.7108 0.0000
# 6 0.0000 0.0000 0.0000 -0.8085 0.0000 14.4661
#
#
#
# Elastic Compliance Matrix: (Units=1/GPa)
#
#
# Indices 1 2 3 4 5 6 
#
# 1 0.018177 -0.005720 -0.005956 0.000000 0.000295 0.000000
# 2 -0.005720 0.025723 -0.006145 0.000000 0.000061 0.000000
# 3 -0.005956 -0.006145 0.010531 0.000000 0.000497 0.000000
# 4 0.000000 0.000000 0.000000 0.032651 0.000000 0.001825
# 5 0.000295 0.000061 0.000497 0.000000 0.042251 0.000000
# 6 0.000000 0.000000 0.000000 0.001825 0.000000 0.069229
#
#
# Mechanical properties :
#
#
# Convention : Reuss Voigt Hill
#
# Bulk Modulus (GPa) = 53.22696 73.25232 63.23964
# Shear Modulus (GPa) = 20.79268 24.00144 22.39706
#
# Velocity S-wave (km/s) = 3.51611 3.77769 3.64925
# Velocity P-wave (km/s) = 6.93773 7.91093 7.44026
#
# Compressibility (1/GPa) = 0.01878747
#
# Stress axis : x y z
#
# Youngs Moduli (GPa) = 55.01325 38.87610 94.95808
#
# Poissons Ratio (x) = 0.22238 0.56562
# Poissons Ratio (y) = 0.31469 0.58352
# Poissons Ratio (z) = 0.32768 0.23890
#
# Static dielectric constant tensor:
#      x y z
#    x 3.242570 0.000000 -0.003720 
#    y 0.000000 3.134530 0.000000 
#    z -0.003720 0.000000 3.320020 
# 
# 
# High freq. dielectric constant tensor:
#      x y z
#    x 1.631070 0.000000 -0.001110 
#    y 0.000000 1.645750 0.000000 
#    z -0.001110 0.000000 1.652900 
# 
# From -- ./inp_files/64265.got.cif
#   From: 2010.06.25/outbox.cif.g09.slc.cpg/sg11_33_cif.got.tgz:64265.got - 2010.06.27 23:14:04.
