data_PCOD8071505
_publ_section_title
;
Structure prediction by ZEFSAII (Michael W. Deem and Ramdas Pophale) SiO2 
 PCOD8071505
Probable space group: P 21/M
;
_chemical_formula_sum "Si O2"
_cell_formula_units_Z 24
_cell_length_a 11.578338
_cell_length_b 18.273353
_cell_length_c 11.343467
_cell_angle_alpha 90.000000
_cell_angle_beta 31.384620
_cell_angle_gamma 90.000000
_cell_volume 1249.870414
_symmetry_space_group_name_H-M "P 21/M"
_symmetry_group_IT_number 11
_symmetry_cell_setting 'monoclinic'
loop_
_space_group_symop_operation_xyz
x,y,z
-x,1/2+y,-z
-x,-y,-z
x,1/2-y,z
loop_
_atom_site_type_symbol
_atom_site_label
_atom_site_fract_x
_atom_site_fract_y
_atom_site_fract_z
Si Si1 0.113748 0.665191 0.259863
Si Si2 0.529811 0.079952 0.929636
Si Si3 0.999213 0.050021 0.838156
Si Si4 0.100763 0.167951 0.299433
Si Si5 0.660023 0.960368 0.271134
Si Si6 0.257878 0.583250 0.495067
O O1 0.129954 0.750000 0.207420
O O2 0.359889 0.634539 0.071072
O O3 0.016872 0.618580 0.235466
O O4 0.965074 0.656338 0.506407
O O5 0.697832 0.065304 0.678238
O O6 0.296263 0.113255 0.094036
O O7 0.500000 0.000000 0.000000
O O8 0.137060 0.077198 0.834176
O O9 0.132516 0.984778 0.661248
O O10 0.760078 0.019040 0.089420
O O11 0.182897 0.250000 0.207634
O O12 0.904170 0.153550 0.374397
O O13 0.497174 0.901334 0.348875
O O14 0.500000 0.000000 0.500000
#
# Coordination Sequence:
#
# PCOD8071505 Si02
#       6
#     4   4   4   4   4   4
#     4  10  21  35  52  79 112 142 173 213 270 332
#     4  11  20  32  54  80 105 138 178 219 262 317
#     4  10  19  35  56  79 108 141 180 229 273 314
#     4  10  21  35  51  76 112 145 173 216 272 327
#     4   9  19  34  56  79 102 134 179 227 268 311
#     4  10  19  33  54  79 102 135 181 222 263 315
#
# _framework density 19.201989999999999
#
# number of rings (size 3 to 8) (size 9 to 14) (size 15 to 20)
#    0.000    2.000    0.000    4.500    0.000    4.667 
#    0.000    0.833    0.000   13.000    0.000    0.000 
#    0.000    0.000    0.000    0.000    0.000    0.000 
#
# Total GULP energy -297335.607598 kJ/mol
# GULP energy per Si atom -12388.983650 kJ/mol
# Density = 1.915829 g / cm^3
# Si number density = 19.201990 Si / 1000 Ang^3
#
#
#
# Elastic Constant Matrix: (Units=GPa)
#
#
# Indices 1 2 3 4 5 6 
#
# 1 104.4155 48.5171 25.9058 0.0000 -11.2635 0.0000
# 2 48.5171 102.0066 46.8588 0.0000 0.0143 0.0000
# 3 25.9058 46.8588 85.5768 0.0000 -11.1306 0.0000
# 4 0.0000 0.0000 0.0000 24.5113 0.0000 -1.7370
# 5 -11.2635 0.0143 -11.1306 0.0000 27.2066 0.0000
# 6 0.0000 0.0000 0.0000 -1.7370 0.0000 26.5811
#
#
#
# Elastic Compliance Matrix: (Units=1/GPa)
#
#
# Indices 1 2 3 4 5 6 
#
# 1 0.013046 -0.006306 0.000218 0.000000 0.005493 0.000000
# 2 -0.006306 0.016399 -0.007828 0.000000 -0.005822 0.000000
# 3 0.000218 -0.007828 0.016813 0.000000 0.006973 0.000000
# 4 0.000000 0.000000 0.000000 0.040987 0.000000 0.002678
# 5 0.005493 -0.005822 0.006973 0.000000 0.041886 0.000000
# 6 0.000000 0.000000 0.000000 0.002678 0.000000 0.037796
#
#
# Mechanical properties :
#
#
# Convention : Reuss Voigt Hill
#
# Bulk Modulus (GPa) = 54.27043 59.39582 56.83313
# Shear Modulus (GPa) = 24.88805 27.04094 25.96449
#
# Velocity S-wave (km/s) = 3.60407 3.75672 3.68119
# Velocity P-wave (km/s) = 6.75599 7.05808 6.90869
#
# Compressibility (1/GPa) = 0.01842624
#
# Stress axis : x y z
#
# Youngs Moduli (GPa) = 76.65411 60.97827 59.47925
#
# Poissons Ratio (x) = 0.38452 -0.01298
# Poissons Ratio (y) = 0.48337 0.46560
# Poissons Ratio (z) = -0.01673 0.47734
#
# Static dielectric constant tensor:
#      x y z
#    x 4.126910 0.000000 -0.270970 
#    y 0.000000 3.266300 0.000000 
#    z -0.270970 0.000000 3.755480 
# 
# 
# High freq. dielectric constant tensor:
#      x y z
#    x 1.753950 0.000000 -0.007070 
#    y 0.000000 1.713650 0.000000 
#    z -0.007070 0.000000 1.761770 
# 
# From -- ./inp_files/4603.got.cif
#   From: 2010.06.25/outbox.cif.g09.slc.cpg/sg11_3_cif.got.tgz:4603.got - 2010.06.27 23:14:04.
