data_PCOD8071482
_publ_section_title
;
Structure prediction by ZEFSAII (Michael W. Deem and Ramdas Pophale) SiO2 
 PCOD8071482
Probable space group: P 21/M
;
_chemical_formula_sum "Si O2"
_cell_formula_units_Z 32
_cell_length_a 12.415499
_cell_length_b 8.884508
_cell_length_c 27.604674
_cell_angle_alpha 90.000000
_cell_angle_beta 146.089816
_cell_angle_gamma 90.000000
_cell_volume 1698.755239
_symmetry_space_group_name_H-M "P 21/M"
_symmetry_group_IT_number 11
_symmetry_cell_setting 'monoclinic'
loop_
_space_group_symop_operation_xyz
x,y,z
-x,1/2+y,-z
-x,-y,-z
x,1/2-y,z
loop_
_atom_site_type_symbol
_atom_site_label
_atom_site_fract_x
_atom_site_fract_y
_atom_site_fract_z
Si Si1 0.442221 0.413610 0.241914
Si Si2 0.609185 0.430325 0.205345
Si Si3 0.301963 0.429224 0.288867
Si Si4 0.913867 0.573737 0.258179
Si Si5 0.356445 0.574200 0.408970
Si Si6 0.306975 0.426813 0.010649
Si Si7 0.993642 0.584556 0.948304
Si Si8 0.858171 0.072622 0.137559
O O1 0.541809 0.250000 0.285558
O O2 0.549843 0.496025 0.236772
O O3 0.427421 0.493697 0.289443
O O4 0.223802 0.387341 0.146252
O O5 0.613943 0.250000 0.208895
O O6 0.816390 0.500309 0.269421
O O7 0.460442 0.485095 0.107876
O O8 0.323967 0.250000 0.299921
O O9 0.394975 0.503648 0.370774
O O10 0.074507 0.470931 0.200184
O O11 0.870896 0.750000 0.239871
O O12 0.820884 0.495117 0.176624
O O13 0.140365 0.539224 0.346147
O O14 0.500000 0.500000 0.500000
O O15 0.397749 0.750000 0.421279
O O16 0.324637 0.250000 0.010114
O O17 0.094845 0.475022 0.948316
O O18 0.313540 0.506118 0.960421
O O19 0.095200 0.750000 0.988250
O O20 0.000000 0.500000 0.000000
O O21 0.830903 0.250000 0.130512
#
# Coordination Sequence:
#
# PCOD8071482 Si02
#       8
#     4   4   4   4   4   4   4   4
#     4   9  17  32  51  74 106 143 183 223 264 313
#     4  10  21  36  52  72 105 151 192 223 263 318
#     4   9  17  32  55  82 111 140 171 215 269 318
#     4  10  22  39  56  79 109 137 174 223 268 318
#     4  10  21  38  62  90 113 132 161 208 263 322
#     4  11  21  32  48  73 105 143 189 239 278 312
#     4  11  19  31  47  70 102 141 189 238 279 315
#     4  10  19  33  54  76 102 142 186 228 278 327
#
# _framework density 18.837323000000001
#
# number of rings (size 3 to 8) (size 9 to 14) (size 15 to 20)
#    0.000    2.000    2.500    1.875    0.000    3.500 
#    0.000    0.625    0.000    0.750    0.000    0.000 
#    0.000    0.000    0.000    0.000    0.000    0.000 
#
# Total GULP energy -396481.216589 kJ/mol
# GULP energy per Si atom -12390.038018 kJ/mol
# Density = 1.879445 g / cm^3
# Si number density = 18.837323 Si / 1000 Ang^3
#
#
#
# Elastic Constant Matrix: (Units=GPa)
#
#
# Indices 1 2 3 4 5 6 
#
# 1 159.0042 38.5785 53.7790 0.0000 -8.5777 0.0000
# 2 38.5785 49.9326 31.8023 0.0000 -9.0244 0.0000
# 3 53.7790 31.8023 64.0674 0.0000 -21.3851 0.0000
# 4 0.0000 0.0000 0.0000 24.4708 0.0000 -0.9385
# 5 -8.5777 -9.0244 -21.3851 0.0000 25.4586 0.0000
# 6 0.0000 0.0000 0.0000 -0.9385 0.0000 24.2126
#
#
#
# Elastic Compliance Matrix: (Units=1/GPa)
#
#
# Indices 1 2 3 4 5 6 
#
# 1 0.009482 -0.003086 -0.007957 0.000000 -0.004583 0.000000
# 2 -0.003086 0.030409 -0.012858 0.000000 -0.001062 0.000000
# 3 -0.007957 -0.012858 0.036484 0.000000 0.023407 0.000000
# 4 0.000000 0.000000 0.000000 0.040926 0.000000 0.001586
# 5 -0.004583 -0.001062 0.023407 0.000000 0.057021 0.000000
# 6 0.000000 0.000000 0.000000 0.001586 0.000000 0.041362
#
#
# Mechanical properties :
#
#
# Convention : Reuss Voigt Hill
#
# Bulk Modulus (GPa) = 35.00023 57.92486 46.46254
# Shear Modulus (GPa) = 18.31422 24.75134 21.53278
#
# Velocity S-wave (km/s) = 3.12144 3.62878 3.38463
# Velocity P-wave (km/s) = 5.62244 6.95516 6.32400
#
# Compressibility (1/GPa) = 0.02857124
#
# Stress axis : x y z
#
# Youngs Moduli (GPa) = 105.46279 32.88470 27.40941
#
# Poissons Ratio (x) = 0.10149 0.21810
# Poissons Ratio (y) = 0.32549 0.35244
# Poissons Ratio (z) = 0.83919 0.42285
#
# Static dielectric constant tensor:
#      x y z
#    x 3.711520 0.000000 -0.035480 
#    y 0.000000 3.362130 0.000000 
#    z -0.035480 0.000000 3.107460 
# 
# 
# High freq. dielectric constant tensor:
#      x y z
#    x 1.748410 0.000000 -0.007980 
#    y 0.000000 1.722500 0.000000 
#    z -0.007980 0.000000 1.689420 
# 
# From -- ./inp_files/73147.got.cif
#   From: 2010.06.25/outbox.cif.g09.slc.cpg/sg11_37_cif.got.tgz:73147.got - 2010.06.27 23:14:04.
