data_PCOD8071610
_publ_section_title
;
Structure prediction by ZEFSAII (Michael W. Deem and Ramdas Pophale) SiO2 
 PCOD8071610
Probable space group: P 21/M
;
_chemical_formula_sum "Si O2"
_cell_formula_units_Z 28
_cell_length_a 17.428087
_cell_length_b 8.820727
_cell_length_c 13.952611
_cell_angle_alpha 90.000000
_cell_angle_beta 44.145552
_cell_angle_gamma 90.000000
_cell_volume 1493.896209
_symmetry_space_group_name_H-M "P 21/M"
_symmetry_group_IT_number 11
_symmetry_cell_setting 'monoclinic'
loop_
_space_group_symop_operation_xyz
x,y,z
-x,1/2+y,-z
-x,-y,-z
x,1/2-y,z
loop_
_atom_site_type_symbol
_atom_site_label
_atom_site_fract_x
_atom_site_fract_y
_atom_site_fract_z
Si Si1 0.104964 0.424015 0.858293
Si Si2 0.706323 0.428970 0.846433
Si Si3 0.128115 0.927891 0.634704
Si Si4 0.658898 0.071301 0.678374
Si Si5 0.236660 0.075935 0.923937
Si Si6 0.907011 0.429644 0.789500
Si Si7 0.431557 0.570594 0.849388
O O1 0.076205 0.250000 0.861270
O O2 0.138838 0.506569 0.730977
O O3 0.208974 0.436919 0.836428
O O4 0.000000 0.500000 0.000000
O O5 0.706560 0.250000 0.838124
O O6 0.679914 0.497514 0.765913
O O7 0.826847 0.482603 0.774794
O O8 0.614462 0.481965 0.005374
O O9 0.108895 0.750000 0.658571
O O10 0.237815 0.970438 0.479443
O O11 0.026884 0.999312 0.666205
O O12 0.636842 0.250000 0.701563
O O13 0.554405 0.989309 0.725714
O O14 0.237953 0.250000 0.956952
O O15 0.355764 0.001386 0.834556
O O16 0.141668 0.987708 0.066483
O O17 0.916049 0.250000 0.786577
O O18 0.427504 0.750000 0.841689
#
# Coordination Sequence:
#
# PCOD8071610 Si02
#       7
#     4   4   4   4   4   4   4
#     4  11  22  36  59  85 111 142 180 227 275 330
#     4   8  17  34  56  82 109 142 185 230 278 324
#     4  11  23  36  53  80 114 151 187 223 274 332
#     4  10  21  38  56  76 111 153 189 228 271 326
#     4  10  20  35  57  84 110 139 179 225 277 332
#     4  10  19  33  55  82 112 144 181 230 279 324
#     4  10  20  35  58  85 111 141 183 231 277 326
#
# _framework density 18.742937000000001
#
# number of rings (size 3 to 8) (size 9 to 14) (size 15 to 20)
#    0.000    2.000    1.429    3.429    0.000    3.429 
#    0.000    4.286    0.000    0.000    0.000    0.000 
#    0.000    0.000    0.000    0.000    0.000    0.000 
#
# Total GULP energy -347248.038334 kJ/mol
# GULP energy per Si atom -12401.715655 kJ/mol
# Density = 1.870028 g / cm^3
# Si number density = 18.742937 Si / 1000 Ang^3
#
#
#
# Elastic Constant Matrix: (Units=GPa)
#
#
# Indices 1 2 3 4 5 6 
#
# 1 108.6645 40.1935 56.2850 0.0000 -23.4196 0.0000
# 2 40.1935 86.5541 49.7788 0.0000 -17.6037 0.0000
# 3 56.2850 49.7788 92.0439 0.0000 -22.2261 0.0000
# 4 0.0000 0.0000 0.0000 26.8639 0.0000 -4.6851
# 5 -23.4196 -17.6037 -22.2261 0.0000 29.1264 0.0000
# 6 0.0000 0.0000 0.0000 -4.6851 0.0000 29.8244
#
#
#
# Elastic Compliance Matrix: (Units=1/GPa)
#
#
# Indices 1 2 3 4 5 6 
#
# 1 0.014445 -0.001844 -0.006498 0.000000 0.005542 0.000000
# 2 -0.001844 0.017382 -0.007471 0.000000 0.003322 0.000000
# 3 -0.006498 -0.007471 0.020259 0.000000 0.005720 0.000000
# 4 0.000000 0.000000 0.000000 0.038273 0.000000 0.006012
# 5 0.005542 0.003322 0.005720 0.000000 0.045162 0.000000
# 6 0.000000 0.000000 0.000000 0.006012 0.000000 0.034474
#
#
# Mechanical properties :
#
#
# Convention : Reuss Voigt Hill
#
# Bulk Modulus (GPa) = 48.87225 64.41970 56.64597
# Shear Modulus (GPa) = 23.98783 26.56329 25.27556
#
# Velocity S-wave (km/s) = 3.58136 3.76871 3.67623
# Velocity P-wave (km/s) = 6.57519 7.30632 6.95038
#
# Compressibility (1/GPa) = 0.02046151
#
# Stress axis : x y z
#
# Youngs Moduli (GPa) = 69.23037 57.53120 49.36048
#
# Poissons Ratio (x) = 0.10607 0.32072
# Poissons Ratio (y) = 0.12764 0.36876
# Poissons Ratio (z) = 0.44983 0.42980
#
# Static dielectric constant tensor:
#      x y z
#    x 3.724020 0.000000 -0.010450 
#    y 0.000000 3.423680 0.000000 
#    z -0.010450 0.000000 3.282350 
# 
# 
# High freq. dielectric constant tensor:
#      x y z
#    x 1.742070 0.000000 -0.008180 
#    y 0.000000 1.728770 0.000000 
#    z -0.008180 0.000000 1.706170 
# 
# From -- ./inp_files/53193.got.cif
#   From: 2010.06.25/outbox.cif.g09.slc.cpg/sg11_27_cif.got.tgz:53193.got - 2010.06.27 23:14:04.
