data_PCOD8071416
_publ_section_title
;
Structure prediction by ZEFSAII (Michael W. Deem and Ramdas Pophale) SiO2 
 PCOD8071416
Probable space group: P 21/M
;
_chemical_formula_sum "Si O2"
_cell_formula_units_Z 24
_cell_length_a 25.328377
_cell_length_b 8.962460
_cell_length_c 18.976603
_cell_angle_alpha 90.000000
_cell_angle_beta 163.267550
_cell_angle_gamma 90.000000
_cell_volume 1240.221261
_symmetry_space_group_name_H-M "P 21/M"
_symmetry_group_IT_number 11
_symmetry_cell_setting 'monoclinic'
loop_
_space_group_symop_operation_xyz
x,y,z
-x,1/2+y,-z
-x,-y,-z
x,1/2-y,z
loop_
_atom_site_type_symbol
_atom_site_label
_atom_site_fract_x
_atom_site_fract_y
_atom_site_fract_z
Si Si1 0.948004 0.080271 0.598801
Si Si2 0.485448 0.575471 0.347665
Si Si3 0.894284 0.072298 0.071398
Si Si4 0.350953 0.415691 0.048860
Si Si5 0.172898 0.073851 0.684723
Si Si6 0.876361 0.927857 0.901261
O O1 0.886936 0.250000 0.535957
O O2 0.144731 0.073244 0.813631
O O3 0.799224 0.002505 0.356253
O O4 0.955733 0.987445 0.681277
O O5 0.480053 0.750000 0.335757
O O6 0.308749 0.517242 0.164740
O O7 0.667213 0.520699 0.619682
O O8 0.483828 0.520034 0.264423
O O9 0.907824 0.250000 0.082464
O O10 0.941466 0.995685 0.058098
O O11 0.428428 0.250000 0.158006
O O12 0.346120 0.456412 0.958917
O O13 0.138567 0.250000 0.631831
O O14 0.000000 0.000000 0.500000
O O15 0.897815 0.750000 0.928844
O O16 0.000000 0.000000 0.000000
#
# Coordination Sequence:
#
# PCOD8071416 Si02
#       6
#     4   4   4   4   4   4
#     4   9  16  26  41  65  96 130 163 199 240 287
#     4   9  19  33  51  74 100 129 165 205 247 293
#     4  10  19  33  53  76 100 130 164 204 250 295
#     4   8  15  25  40  64  95 128 162 198 240 285
#     4   9  15  23  36  60  94 130 163 198 239 286
#     4  11  23  38  53  73  99 129 165 206 249 298
#
# _framework density 19.351386999999999
#
# number of rings (size 3 to 8) (size 9 to 14) (size 15 to 20)
#    0.000    2.667    0.000    3.500    0.000    6.667 
#    0.000    0.000    0.000    0.000    0.000    1.167 
#    0.000    0.000    0.000    0.000    0.000    0.000 
#
# Total GULP energy -297458.649008 kJ/mol
# GULP energy per Si atom -12394.110375 kJ/mol
# Density = 1.930734 g / cm^3
# Si number density = 19.351387 Si / 1000 Ang^3
#
#
#
# Elastic Constant Matrix: (Units=GPa)
#
#
# Indices 1 2 3 4 5 6 
#
# 1 126.9587 50.0443 48.5207 0.0000 -39.7345 0.0000
# 2 50.0443 81.6200 25.7596 0.0000 -14.7925 0.0000
# 3 48.5207 25.7596 28.9605 0.0000 -25.5592 0.0000
# 4 0.0000 0.0000 0.0000 25.8865 0.0000 -13.7048
# 5 -39.7345 -14.7925 -25.5592 0.0000 33.8490 0.0000
# 6 0.0000 0.0000 0.0000 -13.7048 0.0000 34.8995
#
#
#
# Elastic Compliance Matrix: (Units=1/GPa)
#
#
# Indices 1 2 3 4 5 6 
#
# 1 0.022521 -0.001999 -0.040148 0.000000 -0.004752 0.000000
# 2 -0.001999 0.019002 -0.024866 0.000000 -0.012818 0.000000
# 3 -0.040148 -0.024866 0.218015 0.000000 0.106627 0.000000
# 4 0.000000 0.000000 0.000000 0.048769 0.000000 0.019151
# 5 -0.004752 -0.012818 0.106627 0.000000 0.098876 0.000000
# 6 0.000000 0.000000 0.000000 0.019151 0.000000 0.036174
#
#
# Mechanical properties :
#
#
# Convention : Reuss Voigt Hill
#
# Bulk Modulus (GPa) = 7.96727 54.02092 30.99410
# Shear Modulus (GPa) = 8.07469 26.47463 17.27466
#
# Velocity S-wave (km/s) = 2.04493 3.70280 2.99102
# Velocity P-wave (km/s) = 3.11476 6.80127 5.28957
#
# Compressibility (1/GPa) = 0.12551355
#
# Stress axis : x y z
#
# Youngs Moduli (GPa) = 44.40382 52.62598 4.58684
#
# Poissons Ratio (x) = 0.10519 0.18415
# Poissons Ratio (y) = 0.08875 0.11405
# Poissons Ratio (z) = 1.78271 1.30858
#
# Static dielectric constant tensor:
#      x y z
#    x 3.401670 0.000000 -0.522080 
#    y 0.000000 3.583510 0.000000 
#    z -0.522080 0.000000 3.737430 
# 
# 
# High freq. dielectric constant tensor:
#      x y z
#    x 1.738500 0.000000 -0.049410 
#    y 0.000000 1.760480 0.000000 
#    z -0.049410 0.000000 1.722390 
# 
# From -- ./inp_files/20528.got.cif
#   From: 2010.06.25/outbox.cif.g09.slc.cpg/sg11_11_cif.got.tgz:20528.got - 2010.06.27 23:14:04.
