data_PCOD8071537
_publ_section_title
;
Structure prediction by ZEFSAII (Michael W. Deem and Ramdas Pophale) SiO2 
 PCOD8071537
Probable space group: P 21/M
;
_chemical_formula_sum "Si O2"
_cell_formula_units_Z 28
_cell_length_a 15.768844
_cell_length_b 13.402309
_cell_length_c 12.596916
_cell_angle_alpha 90.000000
_cell_angle_beta 144.777230
_cell_angle_gamma 90.000000
_cell_volume 1535.453261
_symmetry_space_group_name_H-M "P 21/M"
_symmetry_group_IT_number 11
_symmetry_cell_setting 'monoclinic'
loop_
_space_group_symop_operation_xyz
x,y,z
-x,1/2+y,-z
-x,-y,-z
x,1/2-y,z
loop_
_atom_site_type_symbol
_atom_site_label
_atom_site_fract_x
_atom_site_fract_y
_atom_site_fract_z
Si Si1 0.449544 0.866566 0.220394
Si Si2 0.178122 0.635816 0.549767
Si Si3 0.661802 0.466117 0.697550
Si Si4 0.332151 0.139977 0.160307
Si Si5 0.351520 0.536523 0.901979
Si Si6 0.156260 0.138721 0.767907
Si Si7 0.644690 0.457860 0.452768
O O1 0.479382 0.750000 0.231190
O O2 0.344382 0.880710 0.217324
O O3 0.603458 0.924349 0.399062
O O4 0.371583 0.917204 0.039169
O O5 0.186409 0.750000 0.521755
O O6 0.276221 0.621985 0.754802
O O7 0.239898 0.568066 0.518930
O O8 0.011929 0.602942 0.402415
O O9 0.500000 0.500000 0.500000
O O10 0.737420 0.565320 0.823340
O O11 0.727940 0.433260 0.651080
O O12 0.350184 0.250000 0.228820
O O13 0.492108 0.103211 0.282811
O O14 0.217536 0.142188 0.948717
O O15 0.247111 0.439781 0.792196
O O16 0.500000 0.500000 0.000000
O O17 0.169364 0.250000 0.730429
#
# Coordination Sequence:
#
# PCOD8071537 Si02
#       7
#     4   4   4   4   4   4   4
#     4  10  19  33  54  81 109 139 180 227 276 320
#     4  11  23  37  54  82 113 145 181 221 274 327
#     4   8  17  30  51  80 109 136 178 227 279 313
#     4   9  15  30  55  78 104 139 180 224 268 321
#     4  12  21  38  58  80 109 142 183 229 273 322
#     4  10  21  37  58  81 110 145 181 222 271 329
#     4  10  19  34  53  82 110 143 180 229 270 318
#
# _framework density 18.235658000000001
#
# number of rings (size 3 to 8) (size 9 to 14) (size 15 to 20)
#    0.000    2.286    4.286    1.286    0.000    8.000 
#    0.000    0.714    0.000    0.857    0.000    0.000 
#    0.000    0.000    0.000    0.000    0.000    0.000 
#
# Total GULP energy -346953.341320 kJ/mol
# GULP energy per Si atom -12391.190761 kJ/mol
# Density = 1.819415 g / cm^3
# Si number density = 18.235658 Si / 1000 Ang^3
#
#
#
# Elastic Constant Matrix: (Units=GPa)
#
#
# Indices 1 2 3 4 5 6 
#
# 1 95.7785 42.2714 45.4241 0.0000 -8.8765 0.0000
# 2 42.2714 111.0441 27.3236 0.0000 5.3138 0.0000
# 3 45.4241 27.3236 62.1145 0.0000 3.1398 0.0000
# 4 0.0000 0.0000 0.0000 25.1088 0.0000 1.3967
# 5 -8.8765 5.3138 3.1398 0.0000 28.8304 0.0000
# 6 0.0000 0.0000 0.0000 1.3967 0.0000 18.4955
#
#
#
# Elastic Compliance Matrix: (Units=1/GPa)
#
#
# Indices 1 2 3 4 5 6 
#
# 1 0.019068 -0.004612 -0.012323 0.000000 0.008063 0.000000
# 2 -0.004612 0.011269 -0.001415 0.000000 -0.003343 0.000000
# 3 -0.012323 -0.001415 0.026056 0.000000 -0.006371 0.000000
# 4 0.000000 0.000000 0.000000 0.039995 0.000000 -0.003020
# 5 0.008063 -0.003343 -0.006371 0.000000 0.038478 0.000000
# 6 0.000000 0.000000 0.000000 -0.003020 0.000000 0.054295
#
#
# Mechanical properties :
#
#
# Convention : Reuss Voigt Hill
#
# Bulk Modulus (GPa) = 50.78259 55.44168 53.11213
# Shear Modulus (GPa) = 21.51219 24.74814 23.13016
#
# Velocity S-wave (km/s) = 3.43837 3.68792 3.56533
# Velocity P-wave (km/s) = 6.60845 6.97160 6.79245
#
# Compressibility (1/GPa) = 0.01969179
#
# Stress axis : x y z
#
# Youngs Moduli (GPa) = 52.44406 88.73559 38.37928
#
# Poissons Ratio (x) = 0.40927 0.47295
# Poissons Ratio (y) = 0.24189 0.05432
# Poissons Ratio (z) = 0.64627 0.12560
#
# Static dielectric constant tensor:
#      x y z
#    x 3.629570 0.000000 -0.574640 
#    y 0.000000 3.628560 0.000000 
#    z -0.574640 0.000000 3.620550 
# 
# 
# High freq. dielectric constant tensor:
#      x y z
#    x 1.685320 0.000000 -0.027560 
#    y 0.000000 1.710520 0.000000 
#    z -0.027560 0.000000 1.698840 
# 
# From -- ./inp_files/39469.got.cif
#   From: 2010.06.25/outbox.cif.g09.slc.cpg/sg11_20_cif.got.tgz:39469.got - 2010.06.27 23:14:04.
