data_PCOD8071399
_publ_section_title
;
Structure prediction by ZEFSAII (Michael W. Deem and Ramdas Pophale) SiO2 
 PCOD8071399
Probable space group: P 21/M
;
_chemical_formula_sum "Si O2"
_cell_formula_units_Z 28
_cell_length_a 16.874137
_cell_length_b 8.924854
_cell_length_c 15.085776
_cell_angle_alpha 90.000000
_cell_angle_beta 45.878336
_cell_angle_gamma 90.000000
_cell_volume 1630.917474
_symmetry_space_group_name_H-M "P 21/M"
_symmetry_group_IT_number 11
_symmetry_cell_setting 'monoclinic'
loop_
_space_group_symop_operation_xyz
x,y,z
-x,1/2+y,-z
-x,-y,-z
x,1/2-y,z
loop_
_atom_site_type_symbol
_atom_site_label
_atom_site_fract_x
_atom_site_fract_y
_atom_site_fract_z
Si Si1 0.867777 0.572495 0.735752
Si Si2 0.154217 0.073717 0.933523
Si Si3 0.290920 0.426961 0.988912
Si Si4 0.086890 0.925061 0.817898
Si Si5 0.256050 0.427579 0.342958
Si Si6 0.890634 0.427396 0.401005
Si Si7 0.520044 0.427657 0.889502
O O1 0.867410 0.750000 0.744193
O O2 0.824957 0.520626 0.673131
O O3 0.991643 0.513388 0.654375
O O4 0.786162 0.503447 0.873592
O O5 0.159995 0.250000 0.917006
O O6 0.250904 0.014589 0.923738
O O7 0.168642 0.001884 0.825171
O O8 0.038657 0.022866 0.067417
O O9 0.274962 0.250000 0.004769
O O10 0.417477 0.471551 0.906219
O O11 0.097765 0.750000 0.822909
O O12 0.121644 0.971846 0.692200
O O13 0.272427 0.250000 0.331373
O O14 0.205520 0.484632 0.474020
O O15 0.373536 0.505092 0.240034
O O16 0.877899 0.250000 0.425539
O O17 0.531202 0.250000 0.892389
O O18 0.500000 0.500000 0.000000
#
# Coordination Sequence:
#
# PCOD8071399 Si02
#       7
#     4   4   4   4   4   4   4
#     4   9  16  30  51  74 102 136 169 203 247 302
#     4   9  16  29  51  75  99 131 166 201 248 303
#     4   9  16  30  53  76 100 133 168 204 249 300
#     4   9  17  29  48  74 104 132 160 202 252 302
#     4  11  22  35  51  73 105 139 174 214 253 294
#     4  10  19  33  53  74 102 140 175 204 248 308
#     4  11  21  35  55  76 101 134 175 214 251 297
#
# _framework density 17.16825
#
# number of rings (size 3 to 8) (size 9 to 14) (size 15 to 20)
#    0.000    2.286    2.857    1.286    0.000    0.571 
#    0.000    2.143    0.000    0.857    0.000    0.000 
#    0.000    0.000    0.000    0.000    0.000    0.000 
#
# Total GULP energy -347168.623832 kJ/mol
# GULP energy per Si atom -12398.879423 kJ/mol
# Density = 1.712917 g / cm^3
# Si number density = 17.168250 Si / 1000 Ang^3
#
#
#
# Elastic Constant Matrix: (Units=GPa)
#
#
# Indices 1 2 3 4 5 6 
#
# 1 151.1215 43.7248 77.3220 0.0000 13.1420 0.0000
# 2 43.7248 42.1353 39.3016 0.0000 1.2418 0.0000
# 3 77.3220 39.3016 126.3276 0.0000 1.0866 0.0000
# 4 0.0000 0.0000 0.0000 27.0225 0.0000 3.3046
# 5 13.1420 1.2418 1.0866 0.0000 27.0565 0.0000
# 6 0.0000 0.0000 0.0000 3.3046 0.0000 23.8728
#
#
#
# Elastic Compliance Matrix: (Units=1/GPa)
#
#
# Indices 1 2 3 4 5 6 
#
# 1 0.011678 -0.007525 -0.004762 0.000000 -0.005136 0.000000
# 2 -0.007525 0.038318 -0.007334 0.000000 0.002191 0.000000
# 3 -0.004762 -0.007334 0.013094 0.000000 0.002124 0.000000
# 4 0.000000 0.000000 0.000000 0.037643 0.000000 -0.005211
# 5 -0.005136 0.002191 0.002124 0.000000 0.039268 0.000000
# 6 0.000000 0.000000 0.000000 -0.005211 0.000000 0.042610
#
#
# Mechanical properties :
#
#
# Convention : Reuss Voigt Hill
#
# Bulk Modulus (GPa) = 41.93340 71.14236 56.53788
# Shear Modulus (GPa) = 21.75769 26.20608 23.98188
#
# Velocity S-wave (km/s) = 3.56381 3.91119 3.74153
# Velocity P-wave (km/s) = 6.43524 7.86923 7.18808
#
# Compressibility (1/GPa) = 0.02384734
#
# Stress axis : x y z
#
# Youngs Moduli (GPa) = 85.63337 26.09736 76.36857
#
# Poissons Ratio (x) = 0.19637 0.36370
# Poissons Ratio (y) = 0.64436 0.56011
# Poissons Ratio (z) = 0.40783 0.19140
#
# Static dielectric constant tensor:
#      x y z
#    x 3.471690 0.000000 0.040540 
#    y 0.000000 2.964640 0.000000 
#    z 0.040540 0.000000 3.183390 
# 
# 
# High freq. dielectric constant tensor:
#      x y z
#    x 1.666770 0.000000 0.008740 
#    y 0.000000 1.638950 0.000000 
#    z 0.008740 0.000000 1.649000 
# 
# From -- ./inp_files/37498.got.cif
#   From: 2010.06.25/outbox.cif.g09.slc.cpg/sg11_19_cif.got.tgz:37498.got - 2010.06.27 23:14:04.
