data_PCOD8071348
_publ_section_title
;
Structure prediction by ZEFSAII (Michael W. Deem and Ramdas Pophale) SiO2 
 PCOD8071348
Probable space group: P 21/M
;
_chemical_formula_sum "Si O2"
_cell_formula_units_Z 32
_cell_length_a 24.839969
_cell_length_b 10.911267
_cell_length_c 11.875373
_cell_angle_alpha 90.000000
_cell_angle_beta 29.929565
_cell_angle_gamma 90.000000
_cell_volume 1605.896164
_symmetry_space_group_name_H-M "P 21/M"
_symmetry_group_IT_number 11
_symmetry_cell_setting 'monoclinic'
loop_
_space_group_symop_operation_xyz
x,y,z
-x,1/2+y,-z
-x,-y,-z
x,1/2-y,z
loop_
_atom_site_type_symbol
_atom_site_label
_atom_site_fract_x
_atom_site_fract_y
_atom_site_fract_z
Si Si1 0.050325 0.037620 0.091423
Si Si2 0.544229 0.388403 0.060250
Si Si3 0.254702 0.615537 0.738815
Si Si4 0.714322 0.387887 0.920778
Si Si5 0.955599 0.106268 0.495544
Si Si6 0.661303 0.029423 0.634160
Si Si7 0.580873 0.109991 0.378975
Si Si8 0.872040 0.886613 0.286892
O O1 0.955895 0.951450 0.217305
O O2 0.011628 0.112179 0.271034
O O3 0.153197 0.966477 0.953029
O O4 0.089102 0.117844 0.914263
O O5 0.520514 0.250000 0.140440
O O6 0.624626 0.454873 0.004382
O O7 0.602613 0.389843 0.833918
O O8 0.428511 0.451831 0.269075
O O9 0.222431 0.750000 0.838240
O O10 0.278962 0.617849 0.561826
O O11 0.364313 0.574686 0.602358
O O12 0.720819 0.250000 0.862469
O O13 0.833868 0.442125 0.695883
O O14 0.677779 0.394308 0.115134
O O15 0.960694 0.250000 0.532693
O O16 0.000000 0.000000 0.500000
O O17 0.753693 0.943644 0.518937
O O18 0.529877 0.250000 0.472517
O O19 0.500000 0.000000 0.500000
O O20 0.863774 0.750000 0.346740
#
# Coordination Sequence:
#
# PCOD8071348 Si02
#       8
#     4   4   4   4   4   4   4   4
#     4  10  21  36  57  83 111 148 190 230 278 338
#     4  10  19  33  52  74 105 141 178 220 269 328
#     4  10  20  35  55  78 108 145 185 227 274 335
#     4   9  19  35  55  77 104 142 182 219 266 328
#     4  11  23  40  61  85 115 150 191 237 285 339
#     4  10  20  32  51  79 107 140 181 224 274 327
#     4  10  20  36  57  80 106 138 180 226 273 326
#     4  10  20  35  55  82 115 146 183 234 286 333
#
# _framework density 19.926569000000001
#
# number of rings (size 3 to 8) (size 9 to 14) (size 15 to 20)
#    0.000    2.000    0.000    3.750    0.000    2.000 
#    0.000    8.750    0.000    3.750    0.000    0.000 
#    0.000    0.000    0.000    0.000    0.000    0.000 
#
# Total GULP energy -396493.985006 kJ/mol
# GULP energy per Si atom -12390.437031 kJ/mol
# Density = 1.988122 g / cm^3
# Si number density = 19.926569 Si / 1000 Ang^3
#
#
#
# Elastic Constant Matrix: (Units=GPa)
#
#
# Indices 1 2 3 4 5 6 
#
# 1 77.0901 39.2235 10.8444 0.0000 -16.6316 0.0000
# 2 39.2235 89.9629 25.8326 0.0000 -24.0904 0.0000
# 3 10.8444 25.8326 68.9143 0.0000 -11.2814 0.0000
# 4 0.0000 0.0000 0.0000 14.8303 0.0000 -3.4615
# 5 -16.6316 -24.0904 -11.2814 0.0000 41.3653 0.0000
# 6 0.0000 0.0000 0.0000 -3.4615 0.0000 25.3155
#
#
#
# Elastic Compliance Matrix: (Units=1/GPa)
#
#
# Indices 1 2 3 4 5 6 
#
# 1 0.016981 -0.006689 0.000330 0.000000 0.003022 0.000000
# 2 -0.006689 0.016860 -0.004292 0.000000 0.005959 0.000000
# 3 0.000330 -0.004292 0.016413 0.000000 0.002109 0.000000
# 4 0.000000 0.000000 0.000000 0.069652 0.000000 0.009524
# 5 0.003022 0.005959 0.002109 0.000000 0.029436 0.000000
# 6 0.000000 0.000000 0.000000 0.009524 0.000000 0.040804
#
#
# Mechanical properties :
#
#
# Convention : Reuss Voigt Hill
#
# Bulk Modulus (GPa) = 34.54011 43.08536 38.81274
# Shear Modulus (GPa) = 22.61433 26.97333 24.79383
#
# Velocity S-wave (km/s) = 3.37246 3.68317 3.53123
# Velocity P-wave (km/s) = 5.70403 6.30529 6.01218
#
# Compressibility (1/GPa) = 0.02895184
#
# Stress axis : x y z
#
# Youngs Moduli (GPa) = 58.89013 59.31084 60.92730
#
# Poissons Ratio (x) = 0.39674 -0.02011
# Poissons Ratio (y) = 0.39392 0.26150
# Poissons Ratio (z) = -0.01943 0.25456
#
# Static dielectric constant tensor:
#      x y z
#    x 3.823250 0.000000 -0.102100 
#    y 0.000000 3.467570 0.000000 
#    z -0.102100 0.000000 3.605270 
# 
# 
# High freq. dielectric constant tensor:
#      x y z
#    x 1.787540 0.000000 -0.006220 
#    y 0.000000 1.757800 0.000000 
#    z -0.006220 0.000000 1.781470 
# 
# From -- ./inp_files/35070.got.cif
#   From: 2010.06.25/outbox.cif.g09.slc.cpg/sg11_18_cif.got.tgz:35070.got - 2010.06.27 23:14:04.
