data_PCOD8071377
_publ_section_title
;
Structure prediction by ZEFSAII (Michael W. Deem and Ramdas Pophale) SiO2 
 PCOD8071377
Probable space group: P 21/M
;
_chemical_formula_sum "Si O2"
_cell_formula_units_Z 28
_cell_length_a 16.949703
_cell_length_b 9.063403
_cell_length_c 15.905068
_cell_angle_alpha 90.000000
_cell_angle_beta 145.055512
_cell_angle_gamma 90.000000
_cell_volume 1399.518579
_symmetry_space_group_name_H-M "P 21/M"
_symmetry_group_IT_number 11
_symmetry_cell_setting 'monoclinic'
loop_
_space_group_symop_operation_xyz
x,y,z
-x,1/2+y,-z
-x,-y,-z
x,1/2-y,z
loop_
_atom_site_type_symbol
_atom_site_label
_atom_site_fract_x
_atom_site_fract_y
_atom_site_fract_z
Si Si1 0.336726 0.582280 0.760991
Si Si2 0.537499 0.576656 0.284489
Si Si3 0.813242 0.922049 0.618133
Si Si4 0.063952 0.915423 0.424107
Si Si5 0.008636 0.575875 0.096827
Si Si6 0.733068 0.577497 0.955031
Si Si7 0.757938 0.581314 0.169629
O O1 0.389119 0.750000 0.810225
O O2 0.434057 0.497207 0.781080
O O3 0.178146 0.569683 0.595195
O O4 0.344428 0.512844 0.860944
O O5 0.527118 0.750000 0.261257
O O6 0.656556 0.537475 0.455721
O O7 0.394995 0.512138 0.196734
O O8 0.830606 0.750000 0.652256
O O9 0.912631 0.965923 0.628383
O O10 0.856178 0.013401 0.737988
O O11 0.067038 0.750000 0.386256
O O12 0.915842 0.943198 0.336588
O O13 0.024140 0.750000 0.099631
O O14 0.000000 0.500000 0.000000
O O15 0.872304 0.531922 0.029494
O O16 0.703913 0.750000 0.919063
O O17 0.745640 0.529762 0.062898
O O18 0.712943 0.750000 0.140898
#
# Coordination Sequence:
#
# PCOD8071377 Si02
#       7
#     4   4   4   4   4   4   4
#     4  10  20  32  51  80 113 155 202 243 289 341
#     4  10  22  39  59  84 118 158 200 242 284 338
#     4  10  20  36  60  89 118 152 193 237 287 344
#     4   9  17  32  52  77 113 153 194 242 292 342
#     4  11  23  42  67  95 122 148 185 234 290 349
#     4  10  22  40  61  85 116 154 192 237 293 347
#     4  10  19  33  52  77 114 153 194 244 295 340
#
# _framework density 20.006879999999999
#
# number of rings (size 3 to 8) (size 9 to 14) (size 15 to 20)
#    0.000    2.000    1.429    2.143    0.000    5.143 
#    0.000    0.714    0.000    0.000    0.000    0.000 
#    0.000    0.000    0.000    0.000    0.000    0.000 
#
# Total GULP energy -347246.656001 kJ/mol
# GULP energy per Si atom -12401.666286 kJ/mol
# Density = 1.996134 g / cm^3
# Si number density = 20.006880 Si / 1000 Ang^3
#
#
#
# Elastic Constant Matrix: (Units=GPa)
#
#
# Indices 1 2 3 4 5 6 
#
# 1 78.5540 52.1333 59.3819 0.0000 -11.3317 0.0000
# 2 52.1333 97.5010 50.9650 0.0000 -5.9696 0.0000
# 3 59.3819 50.9650 77.9223 0.0000 3.5178 0.0000
# 4 0.0000 0.0000 0.0000 31.7233 0.0000 -2.7973
# 5 -11.3317 -5.9696 3.5178 0.0000 32.9968 0.0000
# 6 0.0000 0.0000 0.0000 -2.7973 0.0000 33.6661
#
#
#
# Elastic Compliance Matrix: (Units=1/GPa)
#
#
# Indices 1 2 3 4 5 6 
#
# 1 0.038781 -0.006100 -0.026242 0.000000 0.015012 0.000000
# 2 -0.006100 0.017067 -0.006590 0.000000 0.001695 0.000000
# 3 -0.026242 -0.006590 0.037784 0.000000 -0.014232 0.000000
# 4 0.000000 0.000000 0.000000 0.031755 0.000000 0.002639
# 5 0.015012 0.001695 -0.014232 0.000000 0.037286 0.000000
# 6 0.000000 0.000000 0.000000 0.002639 0.000000 0.029923
#
#
# Mechanical properties :
#
#
# Convention : Reuss Voigt Hill
#
# Bulk Modulus (GPa) = 63.42093 64.32642 63.87368
# Shear Modulus (GPa) = 18.13460 25.77703 21.95582
#
# Velocity S-wave (km/s) = 3.01394 3.59333 3.31632
# Velocity P-wave (km/s) = 6.62421 7.03122 6.83075
#
# Compressibility (1/GPa) = 0.01576767
#
# Stress axis : x y z
#
# Youngs Moduli (GPa) = 25.78560 58.59404 26.46610
#
# Poissons Ratio (x) = 0.35743 0.69452
# Poissons Ratio (y) = 0.15729 0.17442
# Poissons Ratio (z) = 0.67666 0.38615
#
# Static dielectric constant tensor:
#      x y z
#    x 3.385610 0.000000 0.126510 
#    y 0.000000 3.646310 0.000000 
#    z 0.126510 0.000000 3.835890 
# 
# 
# High freq. dielectric constant tensor:
#      x y z
#    x 1.755570 0.000000 0.010180 
#    y 0.000000 1.782950 0.000000 
#    z 0.010180 0.000000 1.790870 
# 
# From -- ./inp_files/51975.got.cif
#   From: 2010.06.25/outbox.cif.g09.slc.cpg/sg11_26_cif.got.tgz:51975.got - 2010.06.27 23:14:04.
