data_PCOD8071383
_publ_section_title
;
Structure prediction by ZEFSAII (Michael W. Deem and Ramdas Pophale) SiO2 
 PCOD8071383
Probable space group: P 21/M
;
_chemical_formula_sum "Si O2"
_cell_formula_units_Z 32
_cell_length_a 15.992732
_cell_length_b 18.030438
_cell_length_c 10.141218
_cell_angle_alpha 90.000000
_cell_angle_beta 145.969590
_cell_angle_gamma 90.000000
_cell_volume 1636.523503
_symmetry_space_group_name_H-M "P 21/M"
_symmetry_group_IT_number 11
_symmetry_cell_setting 'monoclinic'
loop_
_space_group_symop_operation_xyz
x,y,z
-x,1/2+y,-z
-x,-y,-z
x,1/2-y,z
loop_
_atom_site_type_symbol
_atom_site_label
_atom_site_fract_x
_atom_site_fract_y
_atom_site_fract_z
Si Si1 0.026394 0.391979 0.468962
Si Si2 0.579821 0.666584 0.438301
Si Si3 0.713030 0.334688 0.066893
Si Si4 0.763253 0.462203 0.544029
Si Si5 0.691135 0.884838 0.316382
Si Si6 0.054443 0.458538 0.770834
Si Si7 0.667612 0.527354 0.690857
Si Si8 0.399078 0.838431 0.803495
O O1 0.160195 0.356027 0.561493
O O2 0.058174 0.390702 0.669104
O O3 0.880051 0.345882 0.236176
O O4 0.006169 0.474642 0.393841
O O5 0.579418 0.750000 0.494774
O O6 0.666250 0.665921 0.411780
O O7 0.661933 0.614770 0.650220
O O8 0.412688 0.631302 0.195475
O O9 0.664421 0.250000 0.007114
O O10 0.698143 0.364036 0.196436
O O11 0.697314 0.528167 0.365770
O O12 0.744763 0.482493 0.672798
O O13 0.671396 0.385576 0.407519
O O14 0.937938 0.445172 0.738831
O O15 0.565099 0.868603 0.043334
O O16 0.221440 0.477302 0.039563
O O17 0.500000 0.500000 0.500000
O O18 0.393680 0.750000 0.766545
#
# Coordination Sequence:
#
# PCOD8071383 Si02
#       8
#     4   4   4   4   4   4   4   4
#     4  10  19  33  56  86 113 137 180 237 282 326
#     4   9  19  38  58  80 112 150 187 227 277 340
#     4   9  17  31  53  78 108 145 180 218 274 334
#     4  10  20  37  56  77 111 151 189 228 280 342
#     4   9  19  31  57  86 110 143 184 230 279 329
#     4  10  21  36  55  83 114 142 184 234 283 335
#     4  11  23  37  59  82 109 150 197 237 280 331
#     4  10  19  33  52  79 114 147 180 225 279 337
#
# _framework density 19.553644999999999
#
# number of rings (size 3 to 8) (size 9 to 14) (size 15 to 20)
#    0.000    2.250    1.250    2.625    1.750    1.000 
#    0.000    1.875    0.000    0.750    0.000    0.000 
#    0.000    0.000    0.000    0.000    0.000    0.000 
#
# Total GULP energy -396576.894819 kJ/mol
# GULP energy per Si atom -12393.027963 kJ/mol
# Density = 1.950914 g / cm^3
# Si number density = 19.553645 Si / 1000 Ang^3
#
#
#
# Elastic Constant Matrix: (Units=GPa)
#
#
# Indices 1 2 3 4 5 6 
#
# 1 89.4779 3.7220 45.7226 0.0000 23.2405 0.0000
# 2 3.7220 51.9508 5.0151 0.0000 4.0520 0.0000
# 3 45.7226 5.0151 74.4726 0.0000 24.2245 0.0000
# 4 0.0000 0.0000 0.0000 18.5513 0.0000 5.6412
# 5 23.2405 4.0520 24.2245 0.0000 35.1294 0.0000
# 6 0.0000 0.0000 0.0000 5.6412 0.0000 4.2918
#
#
#
# Elastic Compliance Matrix: (Units=1/GPa)
#
#
# Indices 1 2 3 4 5 6 
#
# 1 0.016996 0.000033 -0.008738 0.000000 -0.005222 0.000000
# 2 0.000033 0.019456 -0.000765 0.000000 -0.001739 0.000000
# 3 -0.008738 -0.000765 0.021832 0.000000 -0.009186 0.000000
# 4 0.000000 0.000000 0.000000 0.089796 0.000000 -0.118030
# 5 -0.005222 -0.001739 -0.009186 0.000000 0.038456 0.000000
# 6 0.000000 0.000000 0.000000 -0.118030 0.000000 0.388143
#
#
# Mechanical properties :
#
#
# Convention : Reuss Voigt Hill
#
# Bulk Modulus (GPa) = 25.41695 36.09121 30.75408
# Shear Modulus (GPa) = 8.24083 22.35728 15.29905
#
# Velocity S-wave (km/s) = 2.05515 3.38506 2.80020
# Velocity P-wave (km/s) = 4.31952 5.81169 5.12026
#
# Compressibility (1/GPa) = 0.03934382
#
# Stress axis : x y z
#
# Youngs Moduli (GPa) = 58.83664 51.39791 45.80391
#
# Poissons Ratio (x) = -0.00171 0.40025
# Poissons Ratio (y) = -0.00195 0.03504
# Poissons Ratio (z) = 0.51414 0.03932
#
# Static dielectric constant tensor:
#      x y z
#    x 3.673670 0.000000 0.217390 
#    y 0.000000 3.357150 0.000000 
#    z 0.217390 0.000000 3.447300 
# 
# 
# High freq. dielectric constant tensor:
#      x y z
#    x 1.753660 0.000000 0.017160 
#    y 0.000000 1.745000 0.000000 
#    z 0.017160 0.000000 1.757380 
# 
# From -- ./inp_files/41846.got.cif
#   From: 2010.06.25/outbox.cif.g09.slc.cpg/sg11_21_cif.got.tgz:41846.got - 2010.06.27 23:14:04.
