data_PCOD8071091
_publ_section_title
;
Structure prediction by ZEFSAII (Michael W. Deem and Ramdas Pophale) SiO2 
 PCOD8071091
Probable space group: P 21/M
;
_chemical_formula_sum "Si O2"
_cell_formula_units_Z 32
_cell_length_a 12.143350
_cell_length_b 8.998187
_cell_length_c 28.942465
_cell_angle_alpha 90.000000
_cell_angle_beta 34.512495
_cell_angle_gamma 90.000000
_cell_volume 1791.821911
_symmetry_space_group_name_H-M "P 21/M"
_symmetry_group_IT_number 11
_symmetry_cell_setting 'monoclinic'
loop_
_space_group_symop_operation_xyz
x,y,z
-x,1/2+y,-z
-x,-y,-z
x,1/2-y,z
loop_
_atom_site_type_symbol
_atom_site_label
_atom_site_fract_x
_atom_site_fract_y
_atom_site_fract_z
Si Si1 0.171990 0.424813 0.469036
Si Si2 0.930390 0.921125 0.737795
Si Si3 0.526068 0.076474 0.871637
Si Si4 0.075103 0.921883 0.788047
Si Si5 0.329832 0.076875 0.031017
Si Si6 0.988687 0.077674 0.627578
Si Si7 0.445704 0.426764 0.700692
Si Si8 0.444665 0.575274 0.238816
O O1 0.172951 0.250000 0.457464
O O2 0.376540 0.497878 0.387105
O O3 0.000000 0.500000 0.500000
O O4 0.141494 0.453399 0.534193
O O5 0.892391 0.750000 0.740470
O O6 0.060654 0.943376 0.738129
O O7 0.722196 0.994998 0.818802
O O8 0.046670 0.991276 0.654303
O O9 0.577804 0.250000 0.852787
O O10 0.457387 0.024807 0.843838
O O11 0.356489 0.042184 0.967136
O O12 0.114810 0.750000 0.787004
O O13 0.879991 0.981306 0.880559
O O14 0.247083 0.024635 0.746116
O O15 0.345897 0.250000 0.036668
O O16 0.500000 0.000000 0.000000
O O17 0.978217 0.250000 0.644119
O O18 0.777913 0.019399 0.683608
O O19 0.469065 0.250000 0.689315
O O20 0.444771 0.486704 0.754258
O O21 0.448014 0.750000 0.242266
#
# Coordination Sequence:
#
# PCOD8071091 Si02
#       8
#     4   4   4   4   4   4   4   4
#     4  11  21  36  58  84 113 143 179 227 272 319
#     4  10  19  32  52  79 111 140 175 227 273 317
#     4   9  17  31  54  79 105 140 177 219 274 327
#     4  10  22  38  52  76 114 148 179 225 278 325
#     4  10  19  33  55  80 108 141 182 227 271 323
#     4   9  18  34  55  79 109 140 175 220 269 322
#     4  11  22  37  56  79 109 146 187 226 269 328
#     4   8  15  31  51  76 107 136 173 218 264 314
#
# _framework density 17.858916000000001
#
# number of rings (size 3 to 8) (size 9 to 14) (size 15 to 20)
#    0.000    2.250    2.500    1.875    0.000    2.500 
#    0.000    1.875    0.000    0.000    0.000    0.000 
#    0.000    0.000    0.000    0.000    0.000    0.000 
#
# Total GULP energy -396686.283522 kJ/mol
# GULP energy per Si atom -12396.446360 kJ/mol
# Density = 1.781827 g / cm^3
# Si number density = 17.858916 Si / 1000 Ang^3
#
#
#
# Elastic Constant Matrix: (Units=GPa)
#
#
# Indices 1 2 3 4 5 6 
#
# 1 114.6974 47.6112 70.0688 0.0000 14.3727 0.0000
# 2 47.6112 71.2289 49.0365 0.0000 6.6292 0.0000
# 3 70.0688 49.0365 124.8566 0.0000 10.6722 0.0000
# 4 0.0000 0.0000 0.0000 26.1195 0.0000 -0.3858
# 5 14.3727 6.6292 10.6722 0.0000 29.7813 0.0000
# 6 0.0000 0.0000 0.0000 -0.3858 0.0000 27.9765
#
#
#
# Elastic Compliance Matrix: (Units=1/GPa)
#
#
# Indices 1 2 3 4 5 6 
#
# 1 0.015225 -0.005701 -0.005968 0.000000 -0.003940 0.000000
# 2 -0.005701 0.021453 -0.005213 0.000000 -0.000156 0.000000
# 3 -0.005968 -0.005213 0.013473 0.000000 -0.000787 0.000000
# 4 0.000000 0.000000 0.000000 0.038293 0.000000 0.000528
# 5 -0.003940 -0.000156 -0.000787 0.000000 0.035796 0.000000
# 6 0.000000 0.000000 0.000000 0.000528 0.000000 0.035752
#
#
# Mechanical properties :
#
#
# Convention : Reuss Voigt Hill
#
# Bulk Modulus (GPa) = 61.02496 71.57955 66.30225
# Shear Modulus (GPa) = 25.09793 26.37987 25.73890
#
# Velocity S-wave (km/s) = 3.75286 3.84751 3.80048
# Velocity P-wave (km/s) = 7.28171 7.73985 7.51428
#
# Compressibility (1/GPa) = 0.01638674
#
# Stress axis : x y z
#
# Youngs Moduli (GPa) = 65.68184 46.61290 74.22199
#
# Poissons Ratio (x) = 0.26575 0.44297
# Poissons Ratio (y) = 0.37447 0.38690
# Poissons Ratio (z) = 0.39200 0.24298
#
# Static dielectric constant tensor:
#      x y z
#    x 3.495840 0.000000 0.440660 
#    y 0.000000 3.305350 0.000000 
#    z 0.440660 0.000000 3.630310 
# 
# 
# High freq. dielectric constant tensor:
#      x y z
#    x 1.687930 0.000000 0.028130 
#    y 0.000000 1.684190 0.000000 
#    z 0.028130 0.000000 1.683610 
# 
# From -- ./inp_files/42876.got.cif
#   From: 2010.06.25/outbox.cif.g09.slc.cpg/sg11_22_cif.got.tgz:42876.got - 2010.06.27 23:14:04.
