data_PCOD8071675
_publ_section_title
;
Structure prediction by ZEFSAII (Michael W. Deem and Ramdas Pophale) SiO2 
 PCOD8071675
Probable space group: P 21/M
;
_chemical_formula_sum "Si O2"
_cell_formula_units_Z 32
_cell_length_a 11.503311
_cell_length_b 8.766175
_cell_length_c 22.814742
_cell_angle_alpha 90.000000
_cell_angle_beta 46.555432
_cell_angle_gamma 90.000000
_cell_volume 1670.356242
_symmetry_space_group_name_H-M "P 21/M"
_symmetry_group_IT_number 11
_symmetry_cell_setting 'monoclinic'
loop_
_space_group_symop_operation_xyz
x,y,z
-x,1/2+y,-z
-x,-y,-z
x,1/2-y,z
loop_
_atom_site_type_symbol
_atom_site_label
_atom_site_fract_x
_atom_site_fract_y
_atom_site_fract_z
Si Si1 0.079925 0.571685 0.233035
Si Si2 0.685764 0.571075 0.072804
Si Si3 0.410333 0.572892 0.443732
Si Si4 0.099079 0.069765 0.105114
Si Si5 0.550355 0.929356 0.688653
Si Si6 0.266020 0.072412 0.603457
Si Si7 0.216751 0.428755 0.833993
Si Si8 0.653492 0.430193 0.767614
O O1 0.089916 0.750000 0.216432
O O2 0.146804 0.485816 0.152985
O O3 0.190648 0.526346 0.249393
O O4 0.899144 0.520244 0.309385
O O5 0.677437 0.750000 0.066905
O O6 0.788261 0.530640 0.095259
O O7 0.504377 0.509871 0.142837
O O8 0.774014 0.498687 0.985666
O O9 0.386462 0.750000 0.437997
O O10 0.367727 0.474472 0.401144
O O11 0.591941 0.536236 0.400509
O O12 0.287689 0.524301 0.536966
O O13 0.103363 0.250000 0.101463
O O14 0.922177 0.015821 0.151055
O O15 0.521006 0.750000 0.702620
O O16 0.383878 0.019125 0.749042
O O17 0.665860 0.983212 0.701347
O O18 0.262737 0.250000 0.587486
O O19 0.197160 0.250000 0.829025
O O20 0.639996 0.250000 0.760078
#
# Coordination Sequence:
#
# PCOD8071675 Si02
#       8
#     4   4   4   4   4   4   4   4
#     4  10  21  37  56  76 103 142 182 220 266 318
#     4   8  17  33  52  75 104 138 176 222 268 312
#     4  10  19  33  56  83 111 141 171 206 257 320
#     4  11  21  32  50  78 109 139 176 222 270 317
#     4  11  21  34  55  82 109 137 174 218 265 314
#     4   9  19  35  54  79 109 137 170 215 261 307
#     4  10  19  34  54  76 107 142 177 217 264 318
#     4   9  19  38  58  74 100 141 185 223 263 312
#
# _framework density 19.157589999999999
#
# number of rings (size 3 to 8) (size 9 to 14) (size 15 to 20)
#    0.000    2.250    0.000    4.125    0.000    3.000 
#    0.000    6.250    0.000    0.000    0.000    0.000 
#    0.000    0.000    0.000    0.000    0.000    0.000 
#
# Total GULP energy -396861.153069 kJ/mol
# GULP energy per Si atom -12401.911033 kJ/mol
# Density = 1.911399 g / cm^3
# Si number density = 19.157590 Si / 1000 Ang^3
#
#
#
# Elastic Constant Matrix: (Units=GPa)
#
#
# Indices 1 2 3 4 5 6 
#
# 1 78.8860 31.8359 35.6467 0.0000 14.8639 0.0000
# 2 31.8359 45.9481 36.5967 0.0000 14.1181 0.0000
# 3 35.6467 36.5967 91.2755 0.0000 27.0722 0.0000
# 4 0.0000 0.0000 0.0000 29.6285 0.0000 6.2215
# 5 14.8639 14.1181 27.0722 0.0000 25.6182 0.0000
# 6 0.0000 0.0000 0.0000 6.2215 0.0000 24.9001
#
#
#
# Elastic Compliance Matrix: (Units=1/GPa)
#
#
# Indices 1 2 3 4 5 6 
#
# 1 0.018257 -0.009970 -0.002360 0.000000 -0.002604 0.000000
# 2 -0.009970 0.038050 -0.009990 0.000000 -0.004628 0.000000
# 3 -0.002360 -0.009990 0.020164 0.000000 -0.014434 0.000000
# 4 0.000000 0.000000 0.000000 0.035620 0.000000 -0.008900
# 5 -0.002604 -0.004628 -0.014434 0.000000 0.058349 0.000000
# 6 0.000000 0.000000 0.000000 -0.008900 0.000000 0.042384
#
#
# Mechanical properties :
#
#
# Convention : Reuss Voigt Hill
#
# Bulk Modulus (GPa) = 31.41539 47.14090 39.27815
# Shear Modulus (GPa) = 18.65147 23.49804 21.07476
#
# Velocity S-wave (km/s) = 3.12361 3.50604 3.32033
# Velocity P-wave (km/s) = 5.42616 6.40703 5.93689
#
# Compressibility (1/GPa) = 0.03183153
#
# Stress axis : x y z
#
# Youngs Moduli (GPa) = 54.77273 26.28120 49.59295
#
# Poissons Ratio (x) = 0.26201 0.11706
# Poissons Ratio (y) = 0.54606 0.49543
# Poissons Ratio (z) = 0.12929 0.26255
#
# Static dielectric constant tensor:
#      x y z
#    x 3.451090 0.000000 0.096220 
#    y 0.000000 3.339820 0.000000 
#    z 0.096220 0.000000 3.714040 
# 
# 
# High freq. dielectric constant tensor:
#      x y z
#    x 1.734700 0.000000 0.012210 
#    y 0.000000 1.733320 0.000000 
#    z 0.012210 0.000000 1.749250 
# 
# From -- ./inp_files/64367.got.cif
#   From: 2010.06.25/outbox.cif.g09.slc.cpg/sg11_33_cif.got.tgz:64367.got - 2010.06.27 23:14:04.
