data_PCOD8071176
_publ_section_title
;
Structure prediction by ZEFSAII (Michael W. Deem and Ramdas Pophale) SiO2 
 PCOD8071176
Probable space group: P 21/M
;
_chemical_formula_sum "Si O2"
_cell_formula_units_Z 28
_cell_length_a 12.434013
_cell_length_b 8.953603
_cell_length_c 14.733967
_cell_angle_alpha 90.000000
_cell_angle_beta 76.018592
_cell_angle_gamma 90.000000
_cell_volume 1591.725136
_symmetry_space_group_name_H-M "P 21/M"
_symmetry_group_IT_number 11
_symmetry_cell_setting 'monoclinic'
loop_
_space_group_symop_operation_xyz
x,y,z
-x,1/2+y,-z
-x,-y,-z
x,1/2-y,z
loop_
_atom_site_type_symbol
_atom_site_label
_atom_site_fract_x
_atom_site_fract_y
_atom_site_fract_z
Si Si1 0.660811 0.575017 0.917968
Si Si2 0.578923 0.424206 0.102997
Si Si3 0.408643 0.926561 0.692105
Si Si4 0.997326 0.577871 0.404479
Si Si5 0.211557 0.923322 0.258745
Si Si6 0.749429 0.923832 0.410936
Si Si7 0.636196 0.075203 0.602815
O O1 0.675433 0.750000 0.920754
O O2 0.546652 0.526497 0.892648
O O3 0.761968 0.509843 0.839223
O O4 0.663388 0.510051 0.019399
O O5 0.594859 0.250000 0.082538
O O6 0.606527 0.470156 0.199897
O O7 0.424249 0.750000 0.676377
O O8 0.300391 0.984508 0.662719
O O9 0.513320 0.009259 0.627199
O O10 0.022232 0.750000 0.419376
O O11 0.881212 0.553609 0.377711
O O12 0.000000 0.500000 0.500000
O O13 0.094870 0.514210 0.320486
O O14 0.203237 0.750000 0.236413
O O15 0.308100 0.954707 0.311711
O O16 0.716573 0.750000 0.411446
O O17 0.707729 0.989805 0.513910
O O18 0.631928 0.250000 0.579364
#
# Coordination Sequence:
#
# PCOD8071176 Si02
#       7
#     4   4   4   4   4   4   4
#     4  10  19  32  53  81 108 136 172 216 265 317
#     4   9  19  34  52  76 107 140 172 212 264 318
#     4  11  22  37  55  77 110 145 180 218 263 320
#     4  10  21  37  56  78 105 140 181 225 266 310
#     4  10  20  34  54  79 109 141 174 216 268 316
#     4  11  23  37  54  77 108 144 183 223 265 313
#     4  11  21  34  54  79 109 144 180 217 263 318
#
# _framework density 17.590976000000001
#
# number of rings (size 3 to 8) (size 9 to 14) (size 15 to 20)
#    0.000    1.714    2.857    2.143    0.000    3.429 
#    0.000    0.000    0.000    0.857    0.000    0.000 
#    0.000    0.000    0.000    0.000    0.000    0.000 
#
# Total GULP energy -347311.037873 kJ/mol
# GULP energy per Si atom -12403.965638 kJ/mol
# Density = 1.755094 g / cm^3
# Si number density = 17.590976 Si / 1000 Ang^3
#
#
#
# Elastic Constant Matrix: (Units=GPa)
#
#
# Indices 1 2 3 4 5 6 
#
# 1 68.2145 27.7943 29.6857 0.0000 -15.5602 0.0000
# 2 27.7943 55.0301 41.8236 0.0000 -7.3976 0.0000
# 3 29.6857 41.8236 115.0257 0.0000 -22.6311 0.0000
# 4 0.0000 0.0000 0.0000 32.7830 0.0000 0.5757
# 5 -15.5602 -7.3976 -22.6311 0.0000 25.2097 0.0000
# 6 0.0000 0.0000 0.0000 0.5757 0.0000 23.3484
#
#
#
# Elastic Compliance Matrix: (Units=1/GPa)
#
#
# Indices 1 2 3 4 5 6 
#
# 1 0.020660 -0.009029 -0.000074 0.000000 0.010036 0.000000
# 2 -0.009029 0.029078 -0.009304 0.000000 -0.005392 0.000000
# 3 -0.000074 -0.009304 0.014027 0.000000 0.009816 0.000000
# 4 0.000000 0.000000 0.000000 0.030517 0.000000 -0.000752
# 5 0.010036 -0.005392 0.009816 0.000000 0.053092 0.000000
# 6 0.000000 0.000000 0.000000 -0.000752 0.000000 0.042848
#
#
# Mechanical properties :
#
#
# Convention : Reuss Voigt Hill
#
# Bulk Modulus (GPa) = 37.10430 48.54193 42.82312
# Shear Modulus (GPa) = 21.18460 25.53267 23.35863
#
# Velocity S-wave (km/s) = 3.47405 3.81394 3.64796
# Velocity P-wave (km/s) = 6.10169 6.85927 6.49154
#
# Compressibility (1/GPa) = 0.02695105
#
# Stress axis : x y z
#
# Youngs Moduli (GPa) = 48.40200 34.38985 71.29087
#
# Poissons Ratio (x) = 0.31052 0.00530
# Poissons Ratio (y) = 0.43704 0.66326
# Poissons Ratio (z) = 0.00360 0.31995
#
# Static dielectric constant tensor:
#      x y z
#    x 3.267080 0.000000 -0.087740 
#    y 0.000000 3.314390 0.000000 
#    z -0.087740 0.000000 3.311170 
# 
# 
# High freq. dielectric constant tensor:
#      x y z
#    x 1.660170 0.000000 -0.005550 
#    y 0.000000 1.688640 0.000000 
#    z -0.005550 0.000000 1.683140 
# 
# From -- ./inp_files/37383.got.cif
#   From: 2010.06.25/outbox.cif.g09.slc.cpg/sg11_19_cif.got.tgz:37383.got - 2010.06.27 23:14:04.
