data_PCOD8072456
_publ_section_title
;
Structure prediction by ZEFSAII (Michael W. Deem and Ramdas Pophale) SiO2 
 PCOD8072456
Probable space group: P 21/M
;
_chemical_formula_sum "Si O2"
_cell_formula_units_Z 26
_cell_length_a 8.775595
_cell_length_b 27.912342
_cell_length_c 7.083875
_cell_angle_alpha 90.000000
_cell_angle_beta 131.958613
_cell_angle_gamma 90.000000
_cell_volume 1290.326023
_symmetry_space_group_name_H-M "P 21/M"
_symmetry_group_IT_number 11
_symmetry_cell_setting 'monoclinic'
loop_
_space_group_symop_operation_xyz
x,y,z
-x,1/2+y,-z
-x,-y,-z
x,1/2-y,z
loop_
_atom_site_type_symbol
_atom_site_label
_atom_site_fract_x
_atom_site_fract_y
_atom_site_fract_z
Si Si1 0.962776 0.250000 0.600091
Si Si2 0.455836 0.846173 0.365008
Si Si3 0.567282 0.250000 0.438078
Si Si4 0.572653 0.483358 0.859974
Si Si5 0.886900 0.750000 0.872090
Si Si6 0.898040 0.405045 0.107809
Si Si7 0.321177 0.434006 0.333580
Si Si8 0.136629 0.174496 0.471888
O O1 0.712822 0.250000 0.368721
O O2 0.071206 0.203330 0.603717
O O3 0.958150 0.250000 0.825130
O O4 0.387883 0.797243 0.403427
O O5 0.564016 0.883076 0.601993
O O6 0.619022 0.836249 0.328402
O O7 0.246019 0.868619 0.121345
O O8 0.327667 0.250000 0.190111
O O9 0.397860 0.455027 0.599190
O O10 0.631865 0.530742 0.796703
O O11 0.500000 0.500000 0.000000
O O12 0.767850 0.450228 0.068784
O O13 0.914270 0.703658 0.762456
O O14 0.078010 0.425799 0.125284
O O15 0.007442 0.375012 0.366892
#
# Coordination Sequence:
#
# PCOD8072456 Si02
#       8
#     2   4   2   4   2   4   4   4
#     4  11  21  33  54  80 106 143 187 231 278 330
#     4   9  19  37  58  79 112 150 183 228 276 322
#     4  10  20  34  56  86 110 144 192 226 272 334
#     4  10  21  37  59  85 113 143 180 231 282 328
#     4   9  19  37  54  74 110 145 181 233 278 322
#     4  10  19  36  58  79 110 149 183 226 279 329
#     4   9  20  39  59  83 111 145 188 225 273 334
#     4   9  20  36  53  77 108 143 186 228 274 335
#
# _framework density 20.149944999999999
#
# number of rings (size 3 to 8) (size 9 to 14) (size 15 to 20)
#    0.000    2.462    0.000    1.846    0.000    3.692 
#    0.000   20.000    0.000    0.000    0.000    0.000 
#    0.000    0.000    0.000    0.000    0.000    0.000 
#
# Total GULP energy -322201.124042 kJ/mol
# GULP energy per Si atom -12392.350925 kJ/mol
# Density = 2.010408 g / cm^3
# Si number density = 20.149945 Si / 1000 Ang^3
#
#
#
# Elastic Constant Matrix: (Units=GPa)
#
#
# Indices 1 2 3 4 5 6 
#
# 1 134.0146 67.9135 50.0889 0.0000 14.3596 0.0000
# 2 67.9135 138.3410 35.2615 0.0000 -1.3517 0.0000
# 3 50.0889 35.2615 67.5444 0.0000 -4.9632 0.0000
# 4 0.0000 0.0000 0.0000 8.5788 0.0000 26.1456
# 5 14.3596 -1.3517 -4.9632 0.0000 31.1470 0.0000
# 6 0.0000 0.0000 0.0000 26.1456 0.0000 19.8035
#
#
#
# Elastic Compliance Matrix: (Units=1/GPa)
#
#
# Indices 1 2 3 4 5 6 
#
# 1 0.013841 -0.004738 -0.008373 0.000000 -0.007921 0.000000
# 2 -0.004738 0.009963 -0.001513 0.000000 0.002376 0.000000
# 3 -0.008373 -0.001513 0.022344 0.000000 0.007355 0.000000
# 4 0.000000 0.000000 0.000000 -0.038551 0.000000 0.050896
# 5 -0.007921 0.002376 0.007355 0.000000 0.037033 0.000000
# 6 0.000000 0.000000 0.000000 0.050896 0.000000 -0.016700
#
#
# Mechanical properties :
#
#
# Convention : Reuss Voigt Hill
#
# Bulk Modulus (GPa) = 59.16808 71.82529 65.49669
# Shear Modulus (GPa) = 79.60254 24.34826 51.97540
#
# Velocity S-wave (km/s) = 6.29213 3.47991 5.08432
# Velocity P-wave (km/s) = 9.06727 7.20202 8.18794
#
# Compressibility (1/GPa) = 0.01690100
#
# Stress axis : x y z
#
# Youngs Moduli (GPa) = 72.24945 100.36733 44.75405
#
# Poissons Ratio (x) = 0.47554 0.37471
# Poissons Ratio (y) = 0.34232 0.06772
# Poissons Ratio (z) = 0.60491 0.15188
#
# Static dielectric constant tensor:
#      x y z
#    x 3.813550 0.000000 0.384570 
#    y 0.000000 4.026570 0.000000 
#    z 0.384570 0.000000 3.314200 
# 
# 
# High freq. dielectric constant tensor:
#      x y z
#    x 1.793930 0.000000 0.030870 
#    y 0.000000 1.811810 0.000000 
#    z 0.030870 0.000000 1.747750 
# 
# From -- ./inp_files/3308.got.cif
#   From: 2010.06.25/outbox.cif.g09.slc.cpg/sg11_2_cif.got.tgz:3308.got - 2010.06.27 23:14:04.
