data_PCOD8072433
_publ_section_title
;
Structure prediction by ZEFSAII (Michael W. Deem and Ramdas Pophale) SiO2 
 PCOD8072433
Probable space group: P 21/M
;
_chemical_formula_sum "Si O2"
_cell_formula_units_Z 32
_cell_length_a 30.848423
_cell_length_b 9.413137
_cell_length_c 12.705075
_cell_angle_alpha 90.000000
_cell_angle_beta 26.197167
_cell_angle_gamma 90.000000
_cell_volume 1628.686145
_symmetry_space_group_name_H-M "P 21/M"
_symmetry_group_IT_number 11
_symmetry_cell_setting 'monoclinic'
loop_
_space_group_symop_operation_xyz
x,y,z
-x,1/2+y,-z
-x,-y,-z
x,1/2-y,z
loop_
_atom_site_type_symbol
_atom_site_label
_atom_site_fract_x
_atom_site_fract_y
_atom_site_fract_z
Si Si1 0.587283 0.915124 0.679482
Si Si2 0.693170 0.413418 0.282557
Si Si3 0.993944 0.418759 0.121558
Si Si4 0.774761 0.412796 0.648557
Si Si5 0.054365 0.403819 0.462008
Si Si6 0.238357 0.588433 0.091810
Si Si7 0.113107 0.905120 0.012461
Si Si8 0.635251 0.415621 0.773287
O O1 0.616094 0.750000 0.618299
O O2 0.614183 0.983466 0.508271
O O3 0.649039 0.996638 0.635376
O O4 0.472469 0.939265 0.945149
O O5 0.666102 0.250000 0.365154
O O6 0.689171 0.441252 0.164552
O O7 0.800908 0.451780 0.094300
O O8 0.004364 0.250000 0.084637
O O9 0.888920 0.461830 0.403369
O O10 0.089319 0.473716 0.978806
O O11 0.000000 0.500000 0.000000
O O12 0.774235 0.250000 0.618154
O O13 0.718173 0.432669 0.884678
O O14 0.711146 0.483340 0.693098
O O15 0.076171 0.250000 0.363572
O O16 0.154668 0.474022 0.274526
O O17 0.000000 0.500000 0.500000
O O18 0.988210 0.384985 0.707272
O O19 0.197101 0.750000 0.170015
O O20 0.139463 0.750000 0.903813
O O21 0.653130 0.250000 0.708524
#
# Coordination Sequence:
#
# PCOD8072433 Si02
#       8
#     4   4   4   4   4   4   4   4
#     4  10  21  37  59  87 113 137 180 236 282 331
#     4  10  21  36  56  80 113 150 184 227 277 335
#     4  11  23  37  54  79 113 149 188 232 274 326
#     4   9  19  36  60  82 106 148 190 222 269 336
#     4  11  20  32  51  75 106 143 186 228 267 313
#     4  10  19  36  56  80 110 146 192 227 270 333
#     4  10  21  36  52  75 108 149 189 224 271 324
#     4   9  19  39  63  84 109 144 182 226 282 338
#
# _framework density 19.647739000000001
#
# number of rings (size 3 to 8) (size 9 to 14) (size 15 to 20)
#    0.000    2.000    2.500    1.125    1.750    2.000 
#    0.000    1.875    0.000    0.000    0.000    0.000 
#    0.000    0.000    0.000    0.000    0.000    0.000 
#
# Total GULP energy -396507.019364 kJ/mol
# GULP energy per Si atom -12390.844355 kJ/mol
# Density = 1.960302 g / cm^3
# Si number density = 19.647739 Si / 1000 Ang^3
#
#
#
# Elastic Constant Matrix: (Units=GPa)
#
#
# Indices 1 2 3 4 5 6 
#
# 1 85.1751 27.8593 15.0231 0.0000 17.3174 0.0000
# 2 27.8593 87.8278 27.7212 0.0000 12.8513 0.0000
# 3 15.0231 27.7212 57.7205 0.0000 24.4737 0.0000
# 4 0.0000 0.0000 0.0000 29.1895 0.0000 3.8417
# 5 17.3174 12.8513 24.4737 0.0000 31.7175 0.0000
# 6 0.0000 0.0000 0.0000 3.8417 0.0000 24.6842
#
#
#
# Elastic Compliance Matrix: (Units=1/GPa)
#
#
# Indices 1 2 3 4 5 6 
#
# 1 0.014238 -0.003840 0.001152 0.000000 -0.007107 0.000000
# 2 -0.003840 0.014466 -0.006468 0.000000 0.001226 0.000000
# 3 0.001152 -0.006468 0.028665 0.000000 -0.020127 0.000000
# 4 0.000000 0.000000 0.000000 0.034975 0.000000 -0.005443
# 5 -0.007107 0.001226 -0.020127 0.000000 0.050442 0.000000
# 6 0.000000 0.000000 0.000000 -0.005443 0.000000 0.041359
#
#
# Mechanical properties :
#
#
# Convention : Reuss Voigt Hill
#
# Bulk Modulus (GPa) = 25.60368 41.32563 33.46466
# Shear Modulus (GPa) = 23.20432 27.79289 25.49860
#
# Velocity S-wave (km/s) = 3.44032 3.76514 3.60639
# Velocity P-wave (km/s) = 5.37036 6.32303 5.86606
#
# Compressibility (1/GPa) = 0.03905689
#
# Stress axis : x y z
#
# Youngs Moduli (GPa) = 70.23306 69.12717 34.88554
#
# Poissons Ratio (x) = 0.26545 -0.04018
# Poissons Ratio (y) = 0.26970 0.22564
# Poissons Ratio (z) = -0.08088 0.44711
#
# Static dielectric constant tensor:
#      x y z
#    x 3.629800 0.000000 0.167740 
#    y 0.000000 3.788340 0.000000 
#    z 0.167740 0.000000 3.489690 
# 
# 
# High freq. dielectric constant tensor:
#      x y z
#    x 1.761450 0.000000 0.018080 
#    y 0.000000 1.758700 0.000000 
#    z 0.018080 0.000000 1.750590 
# 
# From -- ./inp_files/45189.got.cif
#   From: 2010.06.25/outbox.cif.g09.slc.cpg/sg11_23_cif.got.tgz:45189.got - 2010.06.27 23:14:04.
