data_PCOD8072733
_publ_section_title
;
Structure prediction by ZEFSAII (Michael W. Deem and Ramdas Pophale) SiO2 
 PCOD8072733
Probable space group: P 21/M
;
_chemical_formula_sum "Si O2"
_cell_formula_units_Z 32
_cell_length_a 15.431021
_cell_length_b 21.875558
_cell_length_c 8.988377
_cell_angle_alpha 90.000000
_cell_angle_beta 148.177352
_cell_angle_gamma 90.000000
_cell_volume 1599.874876
_symmetry_space_group_name_H-M "P 21/M"
_symmetry_group_IT_number 11
_symmetry_cell_setting 'monoclinic'
loop_
_space_group_symop_operation_xyz
x,y,z
-x,1/2+y,-z
-x,-y,-z
x,1/2-y,z
loop_
_atom_site_type_symbol
_atom_site_label
_atom_site_fract_x
_atom_site_fract_y
_atom_site_fract_z
Si Si1 0.133187 0.946626 0.682705
Si Si2 0.112922 0.817968 0.554353
Si Si3 0.566041 0.061344 0.667673
Si Si4 0.530307 0.318337 0.056171
Si Si5 0.302780 0.113655 0.512921
Si Si6 0.317311 0.508164 0.671709
Si Si7 0.004306 0.680581 0.067980
Si Si8 0.333418 0.613107 0.481630
O O1 0.061445 0.876293 0.582849
O O2 0.214771 0.953565 0.640473
O O3 0.262639 0.955323 0.003264
O O4 0.000000 0.000000 0.500000
O O5 0.084045 0.750000 0.586365
O O6 0.305006 0.826081 0.799388
O O7 0.008134 0.821052 0.251361
O O8 0.439609 0.089652 0.599090
O O9 0.595507 0.111306 0.581235
O O10 0.500000 0.000000 0.500000
O O11 0.506355 0.250000 0.076928
O O12 0.533996 0.357952 0.211911
O O13 0.378191 0.335831 0.731252
O O14 0.152025 0.141692 0.206038
O O15 0.239491 0.057935 0.523950
O O16 0.306454 0.544163 0.500020
O O17 0.500000 0.500000 0.000000
O O18 0.989921 0.750000 0.989123
O O19 0.167015 0.651988 0.233931
#
# Coordination Sequence:
#
# PCOD8072733 Si02
#       8
#     4   4   4   4   4   4   4   4
#     4  12  25  40  65  99 129 169 220 269 324 391
#     4   9  18  40  65  87 121 168 217 260 317 393
#     4  12  25  40  59 103 134 161 209 277 330 384
#     4  10  19  39  67  88 116 172 224 254 312 395
#     4  12  23  39  67  94 133 165 216 272 323 384
#     4  12  20  41  64  92 124 171 211 259 321 393
#     4  10  23  42  65  94 125 165 220 267 317 392
#     4  11  21  40  66  90 132 165 209 260 329 381
#
# _framework density 20.001563999999998
#
# number of rings (size 3 to 8) (size 9 to 14) (size 15 to 20)
#    0.000    1.000    7.500    1.500    3.500    0.500 
#    0.000    3.750    0.000    1.500    0.000    0.000 
#    0.000    0.000    0.000    0.000    0.000    0.000 
#
# Total GULP energy -396755.186002 kJ/mol
# GULP energy per Si atom -12398.599563 kJ/mol
# Density = 1.995604 g / cm^3
# Si number density = 20.001564 Si / 1000 Ang^3
#
#
#
# Elastic Constant Matrix: (Units=GPa)
#
#
# Indices 1 2 3 4 5 6 
#
# 1 57.0742 21.1527 13.5449 0.0000 -8.6571 0.0000
# 2 21.1527 152.0762 46.3256 0.0000 -1.8266 0.0000
# 3 13.5449 46.3256 102.0771 0.0000 -10.2238 0.0000
# 4 0.0000 0.0000 0.0000 32.9605 0.0000 -2.8769
# 5 -8.6571 -1.8266 -10.2238 0.0000 18.0139 0.0000
# 6 0.0000 0.0000 0.0000 -2.8769 0.0000 29.6858
#
#
#
# Elastic Compliance Matrix: (Units=1/GPa)
#
#
# Indices 1 2 3 4 5 6 
#
# 1 0.019949 -0.002477 -0.000623 0.000000 0.008982 0.000000
# 2 -0.002477 0.007965 -0.003525 0.000000 -0.002383 0.000000
# 3 -0.000623 -0.003525 0.012101 0.000000 0.006211 0.000000
# 4 0.000000 0.000000 0.000000 0.030598 0.000000 0.002965
# 5 0.008982 -0.002383 0.006211 0.000000 0.063113 0.000000
# 6 0.000000 0.000000 0.000000 0.002965 0.000000 0.033974
#
#
# Mechanical properties :
#
#
# Convention : Reuss Voigt Hill
#
# Bulk Modulus (GPa) = 37.36197 52.58599 44.97398
# Shear Modulus (GPa) = 26.33343 31.47899 28.90621
#
# Velocity S-wave (km/s) = 3.63239 3.97145 3.80570
# Velocity P-wave (km/s) = 6.02598 6.88316 6.46879
#
# Compressibility (1/GPa) = 0.02676518
#
# Stress axis : x y z
#
# Youngs Moduli (GPa) = 50.12660 125.54415 82.63776
#
# Poissons Ratio (x) = 0.31098 0.05151
# Poissons Ratio (y) = 0.12417 0.29129
# Poissons Ratio (z) = 0.03125 0.44253
#
# Static dielectric constant tensor:
#      x y z
#    x 2.758210 0.000000 -0.381130 
#    y 0.000000 4.308900 0.000000 
#    z -0.381130 0.000000 3.605920 
# 
# 
# High freq. dielectric constant tensor:
#      x y z
#    x 1.747610 0.000000 -0.017220 
#    y 0.000000 1.803590 0.000000 
#    z -0.017220 0.000000 1.783060 
# 
# From -- ./inp_files/23339.got.cif
#   From: 2010.06.25/outbox.cif.g09.slc.cpg/sg11_12_cif.got.tgz:23339.got - 2010.06.27 23:14:04.
