data_PCOD8072861
_publ_section_title
;
Structure prediction by ZEFSAII (Michael W. Deem and Ramdas Pophale) SiO2 
 PCOD8072861
Probable space group: P 21/M
;
_chemical_formula_sum "Si O2"
_cell_formula_units_Z 24
_cell_length_a 11.775870
_cell_length_b 8.843330
_cell_length_c 20.444362
_cell_angle_alpha 90.000000
_cell_angle_beta 139.770689
_cell_angle_gamma 90.000000
_cell_volume 1375.032442
_symmetry_space_group_name_H-M "P 21/M"
_symmetry_group_IT_number 11
_symmetry_cell_setting 'monoclinic'
loop_
_space_group_symop_operation_xyz
x,y,z
-x,1/2+y,-z
-x,-y,-z
x,1/2-y,z
loop_
_atom_site_type_symbol
_atom_site_label
_atom_site_fract_x
_atom_site_fract_y
_atom_site_fract_z
Si Si1 0.329479 0.076206 0.742709
Si Si2 0.972556 0.580714 0.580923
Si Si3 0.026583 0.081451 0.268116
Si Si4 0.359592 0.569998 0.890190
Si Si5 0.395807 0.430035 0.393519
Si Si6 0.600152 0.574825 0.368575
O O1 0.337087 0.250000 0.767758
O O2 0.446299 0.049188 0.728581
O O3 0.403715 0.976010 0.834916
O O4 0.129273 0.035245 0.636678
O O5 0.031129 0.750000 0.585667
O O6 0.802574 0.524583 0.466707
O O7 0.917666 0.580845 0.632156
O O8 0.003086 0.250000 0.230641
O O9 0.834073 0.003486 0.175017
O O10 0.193147 0.006916 0.304023
O O11 0.363614 0.750000 0.895733
O O12 0.500000 0.500000 0.000000
O O13 0.500000 0.500000 0.500000
O O14 0.397935 0.250000 0.403075
O O15 0.474896 0.474185 0.358360
O O16 0.578303 0.750000 0.379137
#
# Coordination Sequence:
#
# PCOD8072861 Si02
#       6
#     4   4   4   4   4   4
#     4  10  20  32  49  75 104 133 171 213 258 309
#     4   9  16  30  48  67 102 141 172 209 254 298
#     4   8  16  31  50  72 102 135 165 206 259 298
#     4  10  20  37  59  79 101 128 163 213 269 317
#     4  11  20  32  50  73 104 143 181 210 245 299
#     4  10  20  33  47  69 106 144 174 211 253 295
#
# _framework density 17.454132000000001
#
# number of rings (size 3 to 8) (size 9 to 14) (size 15 to 20)
#    0.000    2.333    1.667    3.000    0.000    2.000 
#    0.000    2.500    0.000    1.000    0.000    0.000 
#    0.000    0.000    0.000    0.000    0.000    0.000 
#
# Total GULP energy -297420.653923 kJ/mol
# GULP energy per Si atom -12392.527247 kJ/mol
# Density = 1.741441 g / cm^3
# Si number density = 17.454132 Si / 1000 Ang^3
#
#
#
# Elastic Constant Matrix: (Units=GPa)
#
#
# Indices 1 2 3 4 5 6 
#
# 1 106.5115 39.8061 55.4789 0.0000 -4.9661 0.0000
# 2 39.8061 63.0342 34.4492 0.0000 -0.1958 0.0000
# 3 55.4789 34.4492 110.3635 0.0000 -0.0508 0.0000
# 4 0.0000 0.0000 0.0000 24.9499 0.0000 -1.9104
# 5 -4.9661 -0.1958 -0.0508 0.0000 13.2726 0.0000
# 6 0.0000 0.0000 0.0000 -1.9104 0.0000 28.3135
#
#
#
# Elastic Compliance Matrix: (Units=1/GPa)
#
#
# Indices 1 2 3 4 5 6 
#
# 1 0.014888 -0.006385 -0.005489 0.000000 0.005455 0.000000
# 2 -0.006385 0.021867 -0.003617 0.000000 -0.002080 0.000000
# 3 -0.005489 -0.003617 0.012948 0.000000 -0.002057 0.000000
# 4 0.000000 0.000000 0.000000 0.040288 0.000000 0.002718
# 5 0.005455 -0.002080 -0.002057 0.000000 0.077346 0.000000
# 6 0.000000 0.000000 0.000000 0.002718 0.000000 0.035502
#
#
# Mechanical properties :
#
#
# Convention : Reuss Voigt Hill
#
# Bulk Modulus (GPa) = 53.41336 59.93087 56.67211
# Shear Modulus (GPa) = 20.82801 23.31887 22.07344
#
# Velocity S-wave (km/s) = 3.45816 3.65911 3.56006
# Velocity P-wave (km/s) = 6.82743 7.22931 7.03124
#
# Compressibility (1/GPa) = 0.01872191
#
# Stress axis : x y z
#
# Youngs Moduli (GPa) = 67.16712 45.73119 77.23211
#
# Poissons Ratio (x) = 0.29201 0.42389
# Poissons Ratio (y) = 0.42889 0.27932
# Poissons Ratio (z) = 0.36865 0.16539
#
# Static dielectric constant tensor:
#      x y z
#    x 3.395730 0.000000 0.082520 
#    y 0.000000 3.145890 0.000000 
#    z 0.082520 0.000000 3.113730 
# 
# 
# High freq. dielectric constant tensor:
#      x y z
#    x 1.674160 0.000000 -0.003160 
#    y 0.000000 1.664990 0.000000 
#    z -0.003160 0.000000 1.647060 
# 
# From -- ./inp_files/33831.got.cif
#   From: 2010.06.25/outbox.cif.g09.slc.cpg/sg11_17_cif.got.tgz:33831.got - 2010.06.27 23:14:04.
