data_PCOD8072080
_publ_section_title
;
Structure prediction by ZEFSAII (Michael W. Deem and Ramdas Pophale) SiO2 
 PCOD8072080
Probable space group: P 21/M
;
_chemical_formula_sum "Si O2"
_cell_formula_units_Z 32
_cell_length_a 11.038379
_cell_length_b 18.016752
_cell_length_c 7.696327
_cell_angle_alpha 90.000000
_cell_angle_beta 84.895734
_cell_angle_gamma 90.000000
_cell_volume 1524.542973
_symmetry_space_group_name_H-M "P 21/M"
_symmetry_group_IT_number 11
_symmetry_cell_setting 'monoclinic'
loop_
_space_group_symop_operation_xyz
x,y,z
-x,1/2+y,-z
-x,-y,-z
x,1/2-y,z
loop_
_atom_site_type_symbol
_atom_site_label
_atom_site_fract_x
_atom_site_fract_y
_atom_site_fract_z
Si Si1 0.236713 0.446101 0.867244
Si Si2 0.023394 0.832384 0.643273
Si Si3 0.061405 0.160523 0.724290
Si Si4 0.422112 0.548203 0.633882
Si Si5 0.687363 0.333746 0.935108
Si Si6 0.459837 0.418173 0.048713
Si Si7 0.904791 0.414821 0.037085
Si Si8 0.715702 0.329748 0.543541
O O1 0.189920 0.374956 0.765344
O O2 0.317899 0.498672 0.736178
O O3 0.119666 0.495032 0.954809
O O4 0.317968 0.410776 0.013260
O O5 0.976515 0.750000 0.704411
O O6 0.012137 0.888648 0.808722
O O7 0.163423 0.828412 0.581819
O O8 0.953182 0.859404 0.478441
O O9 0.055648 0.250000 0.754798
O O10 0.960935 0.117916 0.853065
O O11 0.500000 0.500000 0.500000
O O12 0.514672 0.591419 0.750447
O O13 0.370573 0.607978 0.512011
O O14 0.688904 0.250000 0.002910
O O15 0.749619 0.343202 0.739974
O O16 0.547438 0.360717 0.937490
O O17 0.766459 0.381219 0.063554
O O18 0.500000 0.500000 0.000000
O O19 0.649164 0.250000 0.535713
#
# Coordination Sequence:
#
# PCOD8072080 Si02
#       8
#     4   4   4   4   4   4   4   4
#     4  11  24  42  61  92 125 166 211 257 314 382
#     4  10  20  36  60  89 122 157 203 258 307 363
#     4  11  25  44  64  89 129 172 209 256 316 380
#     4  11  22  38  61  89 123 165 202 261 317 366
#     4  11  20  34  64  93 120 164 209 262 326 373
#     4  10  20  39  57  83 123 160 205 256 313 372
#     4  12  21  40  65  93 125 161 210 268 316 369
#     4  10  19  34  57  90 122 153 202 259 316 371
#
# _framework density 20.989896999999999
#
# number of rings (size 3 to 8) (size 9 to 14) (size 15 to 20)
#    0.000    1.250    5.000    3.000    0.000    2.500 
#    2.250    0.625    0.000    0.000    0.000    0.000 
#    0.000    0.000    0.000    0.000    0.000    0.000 
#
# Total GULP energy -396554.610164 kJ/mol
# GULP energy per Si atom -12392.331568 kJ/mol
# Density = 2.094212 g / cm^3
# Si number density = 20.989897 Si / 1000 Ang^3
#
#
#
# Elastic Constant Matrix: (Units=GPa)
#
#
# Indices 1 2 3 4 5 6 
#
# 1 58.6504 14.0085 13.6092 0.0000 27.5006 0.0000
# 2 14.0085 83.7127 18.9827 0.0000 21.7714 0.0000
# 3 13.6092 18.9827 55.6241 0.0000 10.7076 0.0000
# 4 0.0000 0.0000 0.0000 30.8330 0.0000 5.1674
# 5 27.5006 21.7714 10.7076 0.0000 34.4454 0.0000
# 6 0.0000 0.0000 0.0000 5.1674 0.0000 28.5180
#
#
#
# Elastic Compliance Matrix: (Units=1/GPa)
#
#
# Indices 1 2 3 4 5 6 
#
# 1 0.027859 0.001891 -0.003138 0.000000 -0.022462 0.000000
# 2 0.001891 0.015032 -0.003694 0.000000 -0.009863 0.000000
# 3 -0.003138 -0.003694 0.020289 0.000000 -0.001467 0.000000
# 4 0.000000 0.000000 0.000000 0.033449 0.000000 -0.006061
# 5 -0.022462 -0.009863 -0.001467 0.000000 0.053654 0.000000
# 6 0.000000 0.000000 0.000000 -0.006061 0.000000 0.036164
#
#
# Mechanical properties :
#
#
# Convention : Reuss Voigt Hill
#
# Bulk Modulus (GPa) = 18.76226 32.35423 25.55824
# Shear Modulus (GPa) = 23.35441 28.85175 26.10308
#
# Velocity S-wave (km/s) = 3.33926 3.71152 3.53030
# Velocity P-wave (km/s) = 4.88115 5.81505 5.36845
#
# Compressibility (1/GPa) = 0.05329848
#
# Stress axis : x y z
#
# Youngs Moduli (GPa) = 35.89546 66.52570 49.28897
#
# Poissons Ratio (x) = -0.12582 0.15465
# Poissons Ratio (y) = -0.06789 0.18208
# Poissons Ratio (z) = 0.11262 0.24575
#
# Static dielectric constant tensor:
#      x y z
#    x 3.927370 0.000000 0.549940 
#    y 0.000000 3.872680 0.000000 
#    z 0.549940 0.000000 3.886520 
# 
# 
# High freq. dielectric constant tensor:
#      x y z
#    x 1.808610 0.000000 0.015510 
#    y 0.000000 1.822750 0.000000 
#    z 0.015510 0.000000 1.826700 
# 
# From -- ./inp_files/18641.got.cif
#   From: 2010.06.25/outbox.cif.g09.slc.cpg/sg11_10_cif.got.tgz:18641.got - 2010.06.27 23:14:04.
