data_PCOD8072708
_publ_section_title
;
Structure prediction by ZEFSAII (Michael W. Deem and Ramdas Pophale) SiO2 
 PCOD8072708
Probable space group: P 21/M
;
_chemical_formula_sum "Si O2"
_cell_formula_units_Z 32
_cell_length_a 25.858347
_cell_length_b 8.715484
_cell_length_c 20.013666
_cell_angle_alpha 90.000000
_cell_angle_beta 21.273579
_cell_angle_gamma 90.000000
_cell_volume 1636.484893
_symmetry_space_group_name_H-M "P 21/M"
_symmetry_group_IT_number 11
_symmetry_cell_setting 'monoclinic'
loop_
_space_group_symop_operation_xyz
x,y,z
-x,1/2+y,-z
-x,-y,-z
x,1/2-y,z
loop_
_atom_site_type_symbol
_atom_site_label
_atom_site_fract_x
_atom_site_fract_y
_atom_site_fract_z
Si Si1 0.328994 0.927236 0.369118
Si Si2 0.643757 0.570973 0.037500
Si Si3 0.154452 0.569153 0.310341
Si Si4 0.592968 0.931827 0.247447
Si Si5 0.651436 0.429049 0.804885
Si Si6 0.878126 0.569655 0.278043
Si Si7 0.276592 0.932705 0.660612
Si Si8 0.180208 0.067359 0.916420
O O1 0.296102 0.750000 0.427069
O O2 0.494794 0.962951 0.180558
O O3 0.290594 0.966299 0.338926
O O4 0.236555 0.037284 0.526577
O O5 0.681293 0.750000 0.990468
O O6 0.637357 0.507936 0.120936
O O7 0.768367 0.480318 0.850548
O O8 0.142833 0.750000 0.326473
O O9 0.238565 0.504052 0.273510
O O10 0.000000 0.500000 0.500000
O O11 0.585962 0.750000 0.254651
O O12 0.435952 0.994705 0.454516
O O13 0.706886 0.990694 0.164243
O O14 0.632150 0.250000 0.837821
O O15 0.500000 0.500000 0.000000
O O16 0.895629 0.750000 0.246269
O O17 0.830688 0.493420 0.266077
O O18 0.026848 0.496453 0.122216
O O19 0.269783 0.750000 0.669927
O O20 0.226447 0.998393 0.790804
O O21 0.175726 0.250000 0.917714
#
# Coordination Sequence:
#
# PCOD8072708 Si02
#       8
#     4   4   4   4   4   4   4   4
#     4  10  20  38  64  89 117 155 198 247 301 353
#     4  10  19  38  65  89 117 156 197 241 297 356
#     4  11  24  40  59  89 125 160 199 242 294 352
#     4   9  20  38  63  90 118 155 198 242 296 358
#     4  10  21  37  61  90 118 153 197 244 295 350
#     4  12  25  40  59  88 121 158 201 247 297 351
#     4  11  21  40  65  90 119 155 200 246 296 357
#     4  11  23  40  60  87 122 158 196 245 301 353
#
# _framework density 19.554106000000001
#
# number of rings (size 3 to 8) (size 9 to 14) (size 15 to 20)
#    0.000    1.500    2.500    3.000    0.000    2.500 
#    0.000    8.125    0.000    0.000    0.000    0.000 
#    0.000    0.000    0.000    0.000    0.000    0.000 
#
# Total GULP energy -396938.438876 kJ/mol
# GULP energy per Si atom -12404.326215 kJ/mol
# Density = 1.950960 g / cm^3
# Si number density = 19.554106 Si / 1000 Ang^3
#
#
#
# Elastic Constant Matrix: (Units=GPa)
#
#
# Indices 1 2 3 4 5 6 
#
# 1 102.7735 29.1520 40.8169 0.0000 -1.4376 0.0000
# 2 29.1520 69.2917 34.5159 0.0000 -2.1799 0.0000
# 3 40.8169 34.5159 115.1851 0.0000 -1.8418 0.0000
# 4 0.0000 0.0000 0.0000 35.7759 0.0000 6.3745
# 5 -1.4376 -2.1799 -1.8418 0.0000 37.6085 0.0000
# 6 0.0000 0.0000 0.0000 6.3745 0.0000 26.3195
#
#
#
# Elastic Compliance Matrix: (Units=1/GPa)
#
#
# Indices 1 2 3 4 5 6 
#
# 1 0.011983 -0.003437 -0.003215 0.000000 0.000101 0.000000
# 2 -0.003437 0.017970 -0.004156 0.000000 0.000707 0.000000
# 3 -0.003215 -0.004156 0.011069 0.000000 0.000178 0.000000
# 4 0.000000 0.000000 0.000000 0.029212 0.000000 -0.007075
# 5 0.000101 0.000707 0.000178 0.000000 0.026643 0.000000
# 6 0.000000 0.000000 0.000000 -0.007075 0.000000 0.039708
#
#
# Mechanical properties :
#
#
# Convention : Reuss Voigt Hill
#
# Bulk Modulus (GPa) = 51.52666 55.13552 53.33109
# Shear Modulus (GPa) = 30.36375 32.12515 31.24445
#
# Velocity S-wave (km/s) = 3.94484 4.05765 4.00164
# Velocity P-wave (km/s) = 6.86710 7.08592 6.97737
#
# Compressibility (1/GPa) = 0.01940743
#
# Stress axis : x y z
#
# Youngs Moduli (GPa) = 83.44987 55.64848 90.34244
#
# Poissons Ratio (x) = 0.19126 0.29044
# Poissons Ratio (y) = 0.28681 0.37543
# Poissons Ratio (z) = 0.26828 0.23125
#
# Static dielectric constant tensor:
#      x y z
#    x 3.913500 0.000000 -0.109090 
#    y 0.000000 3.436750 0.000000 
#    z -0.109090 0.000000 3.607760 
# 
# 
# High freq. dielectric constant tensor:
#      x y z
#    x 1.776520 0.000000 0.002850 
#    y 0.000000 1.750030 0.000000 
#    z 0.002850 0.000000 1.770060 
# 
# From -- ./inp_files/66916.got.cif
#   From: 2010.06.25/outbox.cif.g09.slc.cpg/sg11_34_cif.got.tgz:66916.got - 2010.06.27 23:14:04.
