data_PCOD8072350
_publ_section_title
;
Structure prediction by ZEFSAII (Michael W. Deem and Ramdas Pophale) SiO2 
 PCOD8072350
Probable space group: P 21/M
;
_chemical_formula_sum "Si O2"
_cell_formula_units_Z 32
_cell_length_a 11.443397
_cell_length_b 12.956792
_cell_length_c 11.918611
_cell_angle_alpha 90.000000
_cell_angle_beta 70.056940
_cell_angle_gamma 90.000000
_cell_volume 1661.195553
_symmetry_space_group_name_H-M "P 21/M"
_symmetry_group_IT_number 11
_symmetry_cell_setting 'monoclinic'
loop_
_space_group_symop_operation_xyz
x,y,z
-x,1/2+y,-z
-x,-y,-z
x,1/2-y,z
loop_
_atom_site_type_symbol
_atom_site_label
_atom_site_fract_x
_atom_site_fract_y
_atom_site_fract_z
Si Si1 0.800699 0.369082 0.218868
Si Si2 0.764631 0.629726 0.698370
Si Si3 0.600181 0.518639 0.371031
Si Si4 0.992773 0.513771 0.738529
Si Si5 0.386667 0.863573 0.023784
Si Si6 0.880879 0.365835 0.947476
Si Si7 0.478802 0.999703 0.184079
Si Si8 0.814710 0.866965 0.422472
O O1 0.770651 0.250000 0.223556
O O2 0.674922 0.416745 0.310707
O O3 0.915448 0.392146 0.263579
O O4 0.839736 0.408224 0.082633
O O5 0.770964 0.750000 0.734269
O O6 0.871566 0.563095 0.723087
O O7 0.635042 0.579369 0.774524
O O8 0.771828 0.620037 0.563198
O O9 0.500000 0.500000 0.500000
O O10 0.521118 0.551149 0.287476
O O11 0.701129 0.603178 0.376704
O O12 0.970723 0.448708 0.860039
O O13 0.062565 0.436511 0.630899
O O14 0.439987 0.750000 0.980385
O O15 0.239592 0.859256 0.092417
O O16 0.449142 0.902361 0.116753
O O17 0.410075 0.936181 0.908851
O O18 0.941291 0.250000 0.936598
O O19 0.852140 0.750000 0.382432
#
# Coordination Sequence:
#
# PCOD8072350 Si02
#       8
#     4   4   4   4   4   4   4   4
#     4  10  22  38  58  85 117 153 196 241 290 348
#     4  11  22  37  59  85 115 154 198 243 294 351
#     4  11  22  38  62  87 117 153 197 244 296 353
#     4  11  21  38  59  85 117 152 200 245 290 341
#     4  10  21  37  59  88 119 155 194 239 298 356
#     4  10  19  35  59  85 115 154 194 239 291 349
#     4  11  21  38  62  87 121 153 194 250 295 354
#     4  10  23  40  59  83 116 156 195 243 297 352
#
# _framework density 19.263234000000001
#
# number of rings (size 3 to 8) (size 9 to 14) (size 15 to 20)
#    0.000    1.500    3.750    1.875    0.000    1.500 
#    0.000    0.000    0.000    1.500    0.000    0.000 
#    0.000    0.000    0.000    0.000    0.000    0.000 
#
# Total GULP energy -396702.550133 kJ/mol
# GULP energy per Si atom -12396.954692 kJ/mol
# Density = 1.921939 g / cm^3
# Si number density = 19.263234 Si / 1000 Ang^3
#
#
#
# Elastic Constant Matrix: (Units=GPa)
#
#
# Indices 1 2 3 4 5 6 
#
# 1 75.9888 15.1166 13.9548 0.0000 6.5391 0.0000
# 2 15.1166 68.7803 16.0239 0.0000 5.9758 0.0000
# 3 13.9548 16.0239 78.3312 0.0000 8.6161 0.0000
# 4 0.0000 0.0000 0.0000 14.9788 0.0000 -12.0080
# 5 6.5391 5.9758 8.6161 0.0000 33.2582 0.0000
# 6 0.0000 0.0000 0.0000 -12.0080 0.0000 11.4144
#
#
#
# Elastic Compliance Matrix: (Units=1/GPa)
#
#
# Indices 1 2 3 4 5 6 
#
# 1 0.014154 -0.002530 -0.001799 0.000000 -0.001862 0.000000
# 2 -0.002530 0.015848 -0.002607 0.000000 -0.001675 0.000000
# 3 -0.001799 -0.002607 0.013927 0.000000 -0.002786 0.000000
# 4 0.000000 0.000000 0.000000 0.426214 0.000000 0.448382
# 5 -0.001862 -0.001675 -0.002786 0.000000 0.031456 0.000000
# 6 0.000000 0.000000 0.000000 0.448382 0.000000 0.559311
#
#
# Mechanical properties :
#
#
# Convention : Reuss Voigt Hill
#
# Bulk Modulus (GPa) = 33.27097 34.81010 34.04054
# Shear Modulus (GPa) = 4.60914 23.79728 14.20321
#
# Velocity S-wave (km/s) = 1.54852 3.51860 2.71831
# Velocity P-wave (km/s) = 4.52841 5.88365 5.24994
#
# Compressibility (1/GPa) = 0.03005623
#
# Stress axis : x y z
#
# Youngs Moduli (GPa) = 70.65267 63.09971 71.80522
#
# Poissons Ratio (x) = 0.15963 0.12919
# Poissons Ratio (y) = 0.17874 0.18720
# Poissons Ratio (z) = 0.12712 0.16450
#
# Static dielectric constant tensor:
#      x y z
#    x 3.506250 0.000000 -0.000510 
#    y 0.000000 3.496720 0.000000 
#    z -0.000510 0.000000 3.595920 
# 
# 
# High freq. dielectric constant tensor:
#      x y z
#    x 1.755010 0.000000 -0.001160 
#    y 0.000000 1.746440 0.000000 
#    z -0.001160 0.000000 1.753910 
# 
# From -- ./inp_files/35069.got.cif
#   From: 2010.06.25/outbox.cif.g09.slc.cpg/sg11_18_cif.got.tgz:35069.got - 2010.06.27 23:14:04.
