data_PCOD8072766
_publ_section_title
;
Structure prediction by ZEFSAII (Michael W. Deem and Ramdas Pophale) SiO2 
 PCOD8072766
Probable space group: P 21/M
;
_chemical_formula_sum "Si O2"
_cell_formula_units_Z 28
_cell_length_a 14.283555
_cell_length_b 9.377252
_cell_length_c 16.667731
_cell_angle_alpha 90.000000
_cell_angle_beta 45.740269
_cell_angle_gamma 90.000000
_cell_volume 1598.868127
_symmetry_space_group_name_H-M "P 21/M"
_symmetry_group_IT_number 11
_symmetry_cell_setting 'monoclinic'
loop_
_space_group_symop_operation_xyz
x,y,z
-x,1/2+y,-z
-x,-y,-z
x,1/2-y,z
loop_
_atom_site_type_symbol
_atom_site_label
_atom_site_fract_x
_atom_site_fract_y
_atom_site_fract_z
Si Si1 0.971634 0.417048 0.139187
Si Si2 0.192856 0.414289 0.883627
Si Si3 0.753934 0.085616 0.571750
Si Si4 0.468087 0.084481 0.789178
Si Si5 0.171820 0.412246 0.323418
Si Si6 0.037203 0.916664 0.676409
Si Si7 0.532111 0.587036 0.902517
O O1 0.940426 0.250000 0.159410
O O2 0.853384 0.491215 0.162932
O O3 0.975168 0.482733 0.227067
O O4 0.109496 0.450255 0.013558
O O5 0.172947 0.250000 0.872095
O O6 0.344426 0.450539 0.807573
O O7 0.772505 0.250000 0.583267
O O8 0.600203 0.045940 0.660966
O O9 0.818604 0.051939 0.446543
O O10 0.833794 0.999853 0.591054
O O11 0.466878 0.250000 0.816623
O O12 0.457261 0.986655 0.873748
O O13 0.132570 0.250000 0.367436
O O14 0.313875 0.421014 0.200373
O O15 0.071899 0.480510 0.318530
O O16 0.009017 0.750000 0.701329
O O17 0.483620 0.750000 0.938951
O O18 0.500000 0.500000 0.000000
#
# Coordination Sequence:
#
# PCOD8072766 Si02
#       7
#     4   4   4   4   4   4   4
#     4   9  18  32  51  71  92 121 160 201 238 285
#     4   9  18  33  52  70  93 124 157 196 245 292
#     4   9  17  31  49  71  98 125 160 198 231 279
#     4   9  18  32  51  70  94 129 159 191 241 290
#     4   9  18  31  48  69  96 130 163 192 233 283
#     4   9  17  30  50  72  94 126 163 196 235 282
#     4  10  20  31  46  70 100 129 161 199 234 281
#
# _framework density 17.512388000000001
#
# number of rings (size 3 to 8) (size 9 to 14) (size 15 to 20)
#    0.000    2.857    0.000    0.857    2.000    1.143 
#    0.000    2.143    0.000    0.000    0.000    0.000 
#    0.000    0.000    0.000    0.000    0.000    0.000 
#
# Total GULP energy -347154.315081 kJ/mol
# GULP energy per Si atom -12398.368396 kJ/mol
# Density = 1.747253 g / cm^3
# Si number density = 17.512388 Si / 1000 Ang^3
#
#
#
# Elastic Constant Matrix: (Units=GPa)
#
#
# Indices 1 2 3 4 5 6 
#
# 1 130.0435 38.1686 60.2322 0.0000 2.4244 0.0000
# 2 38.1686 50.9125 28.5114 0.0000 5.9697 0.0000
# 3 60.2322 28.5114 89.3103 0.0000 17.8711 0.0000
# 4 0.0000 0.0000 0.0000 19.4794 0.0000 4.9420
# 5 2.4244 5.9697 17.8711 0.0000 22.1732 0.0000
# 6 0.0000 0.0000 0.0000 4.9420 0.0000 26.9127
#
#
#
# Elastic Compliance Matrix: (Units=1/GPa)
#
#
# Indices 1 2 3 4 5 6 
#
# 1 0.013204 -0.006025 -0.008367 0.000000 0.006922 0.000000
# 2 -0.006025 0.026669 -0.003750 0.000000 -0.003499 0.000000
# 3 -0.008367 -0.003750 0.021046 0.000000 -0.015038 0.000000
# 4 0.000000 0.000000 0.000000 0.053845 0.000000 -0.009888
# 5 0.006922 -0.003499 -0.015038 0.000000 0.057405 0.000000
# 6 0.000000 0.000000 0.000000 -0.009888 0.000000 0.038973
#
#
# Mechanical properties :
#
#
# Convention : Reuss Voigt Hill
#
# Bulk Modulus (GPa) = 40.59288 58.23229 49.41258
# Shear Modulus (GPa) = 19.55889 23.27000 21.41445
#
# Velocity S-wave (km/s) = 3.34557 3.64919 3.50067
# Velocity P-wave (km/s) = 6.17686 7.14701 6.67957
#
# Compressibility (1/GPa) = 0.02463486
#
# Stress axis : x y z
#
# Youngs Moduli (GPa) = 75.73214 37.49667 47.51514
#
# Poissons Ratio (x) = 0.22593 0.39755
# Poissons Ratio (y) = 0.45631 0.17819
# Poissons Ratio (z) = 0.63364 0.14062
#
# Static dielectric constant tensor:
#      x y z
#    x 3.309180 0.000000 -0.073750 
#    y 0.000000 3.234060 0.000000 
#    z -0.073750 0.000000 3.375600 
# 
# 
# High freq. dielectric constant tensor:
#      x y z
#    x 1.670720 0.000000 -0.007620 
#    y 0.000000 1.661480 0.000000 
#    z -0.007620 0.000000 1.676930 
# 
# From -- ./inp_files/37411.got.cif
#   From: 2010.06.25/outbox.cif.g09.slc.cpg/sg11_19_cif.got.tgz:37411.got - 2010.06.27 23:14:04.
