data_PCOD8072411
_publ_section_title
;
Structure prediction by ZEFSAII (Michael W. Deem and Ramdas Pophale) SiO2 
 PCOD8072411
Probable space group: P 21/M
;
_chemical_formula_sum "Si O2"
_cell_formula_units_Z 22
_cell_length_a 20.574939
_cell_length_b 7.695449
_cell_length_c 24.601383
_cell_angle_alpha 90.000000
_cell_angle_beta 16.541218
_cell_angle_gamma 90.000000
_cell_volume 1108.988883
_symmetry_space_group_name_H-M "P 21/M"
_symmetry_group_IT_number 11
_symmetry_cell_setting 'monoclinic'
loop_
_space_group_symop_operation_xyz
x,y,z
-x,1/2+y,-z
-x,-y,-z
x,1/2-y,z
loop_
_atom_site_type_symbol
_atom_site_label
_atom_site_fract_x
_atom_site_fract_y
_atom_site_fract_z
Si Si1 0.038952 0.948178 0.380986
Si Si2 0.064971 0.250000 0.720127
Si Si3 0.861370 0.553784 0.815805
Si Si4 0.066450 0.750000 0.055479
Si Si5 0.599414 0.250000 0.302078
Si Si6 0.686416 0.940689 0.307937
Si Si7 0.340763 0.955238 0.238107
O O1 0.093768 0.750000 0.321963
O O2 0.219162 0.023222 0.280538
O O3 0.060816 0.059999 0.309098
O O4 0.783364 0.962816 0.610022
O O5 0.328871 0.250000 0.525153
O O6 0.020351 0.424391 0.722053
O O7 0.909128 0.250000 0.899035
O O8 0.884525 0.750000 0.820393
O O9 0.602304 0.484846 0.028206
O O10 0.927595 0.921742 0.146685
O O11 0.318903 0.750000 0.826251
O O12 0.708089 0.420024 0.242747
O O13 0.617817 0.750000 0.338891
O O14 0.500000 0.000000 0.500000
O O15 0.315239 0.750000 0.261504
#
# Coordination Sequence:
#
# PCOD8072411 Si02
#       7
#     4   2   4   2   2   4   4
#     4  10  19  35  62  91 117 153 202 266 321 365
#     4  12  26  42  58  92 126 176 204 244 302 370
#     4  11  24  42  60  83 122 166 210 250 307 371
#     4  10  24  42  66  98 128 163 202 252 305 357
#     4  12  22  44  66  98 132 157 208 250 301 367
#     4  10  19  38  68  97 127 159 194 256 302 343
#     4   9  20  36  59  90 119 152 203 264 320 366
#
# _framework density 19.837890999999999
#
# number of rings (size 3 to 8) (size 9 to 14) (size 15 to 20)
#    0.545    1.091    3.636    1.636    1.273    2.909 
#    1.636    0.000    0.000    0.000    0.000    0.000 
#    0.000    0.000    0.000    0.000    0.000    0.000 
#
# Total GULP energy -272788.369922 kJ/mol
# GULP energy per Si atom -12399.471360 kJ/mol
# Density = 1.979274 g / cm^3
# Si number density = 19.837891 Si / 1000 Ang^3
#
#
#
# Elastic Constant Matrix: (Units=GPa)
#
#
# Indices 1 2 3 4 5 6 
#
# 1 82.1651 32.2299 31.3022 0.0000 9.6629 0.0000
# 2 32.2299 102.8044 17.3399 0.0000 -3.0670 0.0000
# 3 31.3022 17.3399 61.0420 0.0000 14.3036 0.0000
# 4 0.0000 0.0000 0.0000 20.6256 0.0000 7.9804
# 5 9.6629 -3.0670 14.3036 0.0000 31.1715 0.0000
# 6 0.0000 0.0000 0.0000 7.9804 0.0000 12.6052
#
#
#
# Elastic Compliance Matrix: (Units=1/GPa)
#
#
# Indices 1 2 3 4 5 6 
#
# 1 0.016679 -0.004156 -0.006796 0.000000 -0.002461 0.000000
# 2 -0.004156 0.011447 -0.001889 0.000000 0.003282 0.000000
# 3 -0.006796 -0.001889 0.022358 0.000000 -0.008338 0.000000
# 4 0.000000 0.000000 0.000000 0.064213 0.000000 -0.040653
# 5 -0.002461 0.003282 -0.008338 0.000000 0.036993 0.000000
# 6 0.000000 0.000000 0.000000 -0.040653 0.000000 0.105070
#
#
# Mechanical properties :
#
#
# Convention : Reuss Voigt Hill
#
# Bulk Modulus (GPa) = 40.32086 45.30617 42.81352
# Shear Modulus (GPa) = 17.19937 23.88978 20.54457
#
# Velocity S-wave (km/s) = 2.94767 3.47399 3.22160
# Velocity P-wave (km/s) = 5.65282 6.24334 5.95540
#
# Compressibility (1/GPa) = 0.02480106
#
# Stress axis : x y z
#
# Youngs Moduli (GPa) = 59.95437 87.36071 44.72757
#
# Poissons Ratio (x) = 0.36310 0.30396
# Poissons Ratio (y) = 0.24919 0.08450
# Poissons Ratio (z) = 0.40744 0.16505
#
# Static dielectric constant tensor:
#      x y z
#    x 3.430110 0.000000 0.111610 
#    y 0.000000 3.721580 0.000000 
#    z 0.111610 0.000000 3.549560 
# 
# 
# High freq. dielectric constant tensor:
#      x y z
#    x 1.755260 0.000000 0.021250 
#    y 0.000000 1.775790 0.000000 
#    z 0.021250 0.000000 1.771610 
# 
# From -- ./inp_files/69410.got.cif
#   From: 2010.06.25/outbox.cif.g09.slc.cpg/sg11_35_cif.got.tgz:69410.got - 2010.06.27 23:14:04.
