data_PCOD8072468
_publ_section_title
;
Structure prediction by ZEFSAII (Michael W. Deem and Ramdas Pophale) SiO2 
 PCOD8072468
Probable space group: P 21/M
;
_chemical_formula_sum "Si O2"
_cell_formula_units_Z 24
_cell_length_a 9.028119
_cell_length_b 19.259521
_cell_length_c 8.557687
_cell_angle_alpha 90.000000
_cell_angle_beta 46.475428
_cell_angle_gamma 90.000000
_cell_volume 1078.908311
_symmetry_space_group_name_H-M "P 21/M"
_symmetry_group_IT_number 11
_symmetry_cell_setting 'monoclinic'
loop_
_space_group_symop_operation_xyz
x,y,z
-x,1/2+y,-z
-x,-y,-z
x,1/2-y,z
loop_
_atom_site_type_symbol
_atom_site_label
_atom_site_fract_x
_atom_site_fract_y
_atom_site_fract_z
Si Si1 0.359883 0.673303 0.850224
Si Si2 0.990831 0.399184 0.002991
Si Si3 0.856365 0.170251 0.663608
Si Si4 0.770529 0.514135 0.962411
Si Si5 0.234283 0.398597 0.532106
Si Si6 0.703965 0.464596 0.670170
O O1 0.449937 0.750000 0.764398
O O2 0.534211 0.618845 0.679619
O O3 0.161660 0.666679 0.878573
O O4 0.287268 0.659723 0.080282
O O5 0.837977 0.455593 0.035848
O O6 0.186043 0.385597 0.748781
O O7 0.081445 0.419763 0.106084
O O8 0.847018 0.250000 0.610078
O O9 0.775077 0.115491 0.591959
O O10 0.089234 0.150194 0.533050
O O11 0.801111 0.489986 0.763667
O O12 0.538748 0.535608 0.158637
O O13 0.205177 0.481613 0.523103
#
# Coordination Sequence:
#
# PCOD8072468 Si02
#       6
#     4   4   4   4   4   4
#     4  10  19  36  58  83 120 156 195 239 286 344
#     4  10  21  38  56  88 117 149 189 245 289 340
#     4  10  21  36  55  84 120 155 190 238 295 349
#     4  10  20  37  59  84 117 147 190 237 292 340
#     4  11  20  35  61  92 111 151 201 243 285 338
#     4  11  19  37  61  89 115 151 195 246 283 342
#
# _framework density 22.244706000000001
#
# number of rings (size 3 to 8) (size 9 to 14) (size 15 to 20)
#    0.000    1.667    5.000    2.000    0.000    1.333 
#    0.000    0.833    0.000    4.000    0.000    1.167 
#    0.000    0.000    0.000    0.000    0.000    0.000 
#
# Total GULP energy -297439.589194 kJ/mol
# GULP energy per Si atom -12393.316216 kJ/mol
# Density = 2.219408 g / cm^3
# Si number density = 22.244706 Si / 1000 Ang^3
#
#
#
# Elastic Constant Matrix: (Units=GPa)
#
#
# Indices 1 2 3 4 5 6 
#
# 1 83.9256 22.6116 26.2643 0.0000 -9.2540 0.0000
# 2 22.6116 130.2012 33.0862 0.0000 -8.3168 0.0000
# 3 26.2643 33.0862 61.6643 0.0000 -25.5418 0.0000
# 4 0.0000 0.0000 0.0000 25.5687 0.0000 -5.8784
# 5 -9.2540 -8.3168 -25.5418 0.0000 22.3823 0.0000
# 6 0.0000 0.0000 0.0000 -5.8784 0.0000 27.9302
#
#
#
# Elastic Compliance Matrix: (Units=1/GPa)
#
#
# Indices 1 2 3 4 5 6 
#
# 1 0.013896 -0.000983 -0.005998 0.000000 -0.001464 0.000000
# 2 -0.000983 0.009161 -0.006173 0.000000 -0.004047 0.000000
# 3 -0.005998 -0.006173 0.038129 0.000000 0.038738 0.000000
# 4 0.000000 0.000000 0.000000 0.041099 0.000000 0.008650
# 5 -0.001464 -0.004047 0.038738 0.000000 0.086776 0.000000
# 6 0.000000 0.000000 0.000000 0.008650 0.000000 0.037624
#
#
# Mechanical properties :
#
#
# Convention : Reuss Voigt Hill
#
# Bulk Modulus (GPa) = 28.67059 48.85725 38.76392
# Shear Modulus (GPa) = 18.89513 28.09818 23.49665
#
# Velocity S-wave (km/s) = 2.91764 3.55792 3.25357
# Velocity P-wave (km/s) = 4.92615 6.23616 5.61946
#
# Compressibility (1/GPa) = 0.03487894
#
# Stress axis : x y z
#
# Youngs Moduli (GPa) = 71.96530 109.15496 26.22650
#
# Poissons Ratio (x) = 0.10725 0.15730
# Poissons Ratio (y) = 0.07071 0.16190
# Poissons Ratio (z) = 0.43164 0.67384
#
# Static dielectric constant tensor:
#      x y z
#    x 4.047540 0.000000 -0.212010 
#    y 0.000000 4.325170 0.000000 
#    z -0.212010 0.000000 3.721280 
# 
# 
# High freq. dielectric constant tensor:
#      x y z
#    x 1.862130 0.000000 -0.034680 
#    y 0.000000 1.867550 0.000000 
#    z -0.034680 0.000000 1.865260 
# 
# From -- ./inp_files/14241.got.cif
#   From: 2010.06.25/outbox.cif.g09.slc.cpg/sg11_8_cif.got.tgz:14241.got - 2010.06.27 23:14:04.
