data_PCOD8072243
_publ_section_title
;
Structure prediction by ZEFSAII (Michael W. Deem and Ramdas Pophale) SiO2 
 PCOD8072243
Probable space group: P 21/M
;
_chemical_formula_sum "Si O2"
_cell_formula_units_Z 32
_cell_length_a 23.890980
_cell_length_b 9.333925
_cell_length_c 18.500817
_cell_angle_alpha 90.000000
_cell_angle_beta 155.455120
_cell_angle_gamma 90.000000
_cell_volume 1713.806677
_symmetry_space_group_name_H-M "P 21/M"
_symmetry_group_IT_number 11
_symmetry_cell_setting 'monoclinic'
loop_
_space_group_symop_operation_xyz
x,y,z
-x,1/2+y,-z
-x,-y,-z
x,1/2-y,z
loop_
_atom_site_type_symbol
_atom_site_label
_atom_site_fract_x
_atom_site_fract_y
_atom_site_fract_z
Si Si1 0.075981 0.918650 0.151940
Si Si2 0.871719 0.418344 0.373373
Si Si3 0.126878 0.580648 0.461727
Si Si4 0.641124 0.083746 0.993972
Si Si5 0.905523 0.918841 0.094682
Si Si6 0.608400 0.091804 0.296249
Si Si7 0.645531 0.419737 0.831502
Si Si8 0.617008 0.409448 0.475836
O O1 0.070009 0.750000 0.131061
O O2 0.232446 0.970160 0.332737
O O3 0.001951 0.955846 0.140257
O O4 0.000000 0.000000 0.000000
O O5 0.896236 0.250000 0.398146
O O6 0.846292 0.469418 0.425247
O O7 0.000000 0.500000 0.500000
O O8 0.757777 0.468525 0.184149
O O9 0.125547 0.750000 0.452074
O O10 0.251223 0.518808 0.561713
O O11 0.986044 0.527829 0.261223
O O12 0.613256 0.250000 0.968655
O O13 0.672076 0.043925 0.947061
O O14 0.510914 0.006108 0.872771
O O15 0.870706 0.750000 0.056104
O O16 0.765954 0.007364 0.927091
O O17 0.593554 0.250000 0.243860
O O18 0.600969 0.104213 0.372392
O O19 0.643745 0.250000 0.814742
O O20 0.501522 0.484497 0.635153
O O21 0.598743 0.250000 0.488809
#
# Coordination Sequence:
#
# PCOD8072243 Si02
#       8
#     4   4   4   4   4   4   4   4
#     4  10  21  37  59  85 111 137 169 213 265 319
#     4  10  20  33  48  67  98 137 174 215 263 309
#     4   9  17  31  53  76  98 131 177 222 258 300
#     4   9  19  33  46  69 108 141 168 212 269 312
#     4  10  19  35  57  81 107 136 177 223 262 308
#     4   9  16  30  53  76  96 128 176 219 253 302
#     4  10  20  33  52  79 110 144 180 219 261 309
#     4   9  17  34  57  79 105 139 177 215 258 311
#
# _framework density 18.671883999999999
#
# number of rings (size 3 to 8) (size 9 to 14) (size 15 to 20)
#    0.000    2.500    1.250    1.125    0.000    2.500 
#    0.000    1.875    0.000    0.000    0.000    0.000 
#    0.000    0.000    0.000    0.000    0.000    0.000 
#
# Total GULP energy -396601.022339 kJ/mol
# GULP energy per Si atom -12393.781948 kJ/mol
# Density = 1.862939 g / cm^3
# Si number density = 18.671884 Si / 1000 Ang^3
#
#
#
# Elastic Constant Matrix: (Units=GPa)
#
#
# Indices 1 2 3 4 5 6 
#
# 1 51.8727 30.8105 49.0669 0.0000 12.0157 0.0000
# 2 30.8105 49.8272 57.8165 0.0000 11.1662 0.0000
# 3 49.0669 57.8165 161.0091 0.0000 20.1764 0.0000
# 4 0.0000 0.0000 0.0000 29.4116 0.0000 2.4438
# 5 12.0157 11.1662 20.1764 0.0000 35.4357 0.0000
# 6 0.0000 0.0000 0.0000 2.4438 0.0000 21.7444
#
#
#
# Elastic Compliance Matrix: (Units=1/GPa)
#
#
# Indices 1 2 3 4 5 6 
#
# 1 0.032876 -0.014361 -0.004342 0.000000 -0.004150 0.000000
# 2 -0.014361 0.041239 -0.010137 0.000000 -0.002354 0.000000
# 3 -0.004342 -0.010137 0.011403 0.000000 -0.001826 0.000000
# 4 0.000000 0.000000 0.000000 0.034321 0.000000 -0.003857
# 5 -0.004150 -0.002354 -0.001826 0.000000 0.031409 0.000000
# 6 0.000000 0.000000 0.000000 -0.003857 0.000000 0.046422
#
#
# Mechanical properties :
#
#
# Convention : Reuss Voigt Hill
#
# Bulk Modulus (GPa) = 35.92122 59.78854 47.85488
# Shear Modulus (GPa) = 18.89433 25.65269 22.27351
#
# Velocity S-wave (km/s) = 3.18451 3.71059 3.45757
# Velocity P-wave (km/s) = 5.72725 7.10268 6.45172
#
# Compressibility (1/GPa) = 0.02783870
#
# Stress axis : x y z
#
# Youngs Moduli (GPa) = 30.41715 24.24871 87.69562
#
# Poissons Ratio (x) = 0.34822 0.38078
# Poissons Ratio (y) = 0.43681 0.88900
# Poissons Ratio (z) = 0.13207 0.24582
#
# Static dielectric constant tensor:
#      x y z
#    x 3.211770 0.000000 0.206610 
#    y 0.000000 3.252000 0.000000 
#    z 0.206610 0.000000 3.568790 
# 
# 
# High freq. dielectric constant tensor:
#      x y z
#    x 1.711780 0.000000 0.011400 
#    y 0.000000 1.704910 0.000000 
#    z 0.011400 0.000000 1.735280 
# 
# From -- ./inp_files/67127.got.cif
#   From: 2010.06.25/outbox.cif.g09.slc.cpg/sg11_34_cif.got.tgz:67127.got - 2010.06.27 23:14:04.
