data_PCOD8072745
_publ_section_title
;
Structure prediction by ZEFSAII (Michael W. Deem and Ramdas Pophale) SiO2 
 PCOD8072745
Probable space group: P 21/M
;
_chemical_formula_sum "Si O2"
_cell_formula_units_Z 32
_cell_length_a 15.483025
_cell_length_b 13.627663
_cell_length_c 12.192275
_cell_angle_alpha 90.000000
_cell_angle_beta 37.391259
_cell_angle_gamma 90.000000
_cell_volume 1562.186175
_symmetry_space_group_name_H-M "P 21/M"
_symmetry_group_IT_number 11
_symmetry_cell_setting 'monoclinic'
loop_
_space_group_symop_operation_xyz
x,y,z
-x,1/2+y,-z
-x,-y,-z
x,1/2-y,z
loop_
_atom_site_type_symbol
_atom_site_label
_atom_site_fract_x
_atom_site_fract_y
_atom_site_fract_z
Si Si1 0.748979 0.444146 0.130065
Si Si2 0.193600 0.552261 0.273722
Si Si3 0.753952 0.003449 0.546827
Si Si4 0.202158 0.860454 0.694215
Si Si5 0.434743 0.978262 0.880021
Si Si6 0.123963 0.142057 0.003420
Si Si7 0.987420 0.135103 0.726674
Si Si8 0.765793 0.640164 0.872652
O O1 0.725128 0.378737 0.261247
O O2 0.608828 0.436330 0.195896
O O3 0.775014 0.556415 0.145071
O O4 0.884419 0.410974 0.921735
O O5 0.190908 0.570474 0.406816
O O6 0.072346 0.615119 0.335502
O O7 0.164555 0.434212 0.286265
O O8 0.346615 0.579643 0.064219
O O9 0.600082 0.960088 0.735026
O O10 0.858822 0.914292 0.414316
O O11 0.729267 0.070518 0.466249
O O12 0.234157 0.750000 0.625746
O O13 0.035101 0.880363 0.875035
O O14 0.386412 0.093691 0.934704
O O15 0.173523 0.250000 0.910486
O O16 0.126898 0.141283 0.132746
O O17 0.004397 0.250000 0.730181
O O18 0.744335 0.750000 0.846223
#
# Coordination Sequence:
#
# PCOD8072745 Si02
#       8
#     4   4   4   4   4   4   4   4
#     4  10  19  42  60  82 117 161 194 249 299 358
#     4   9  20  39  61  84 117 164 189 243 299 361
#     4  12  22  38  59  90 127 151 196 255 302 348
#     4  11  23  35  58  87 117 156 200 250 305 358
#     4   8  20  37  63  84 117 156 198 234 304 357
#     4   9  16  31  58  89 111 142 195 244 292 351
#     4  11  23  39  60  87 115 158 206 249 301 358
#     4   8  15  32  59  86 112 147 193 235 290 361
#
# _framework density 20.484114000000002
#
# number of rings (size 3 to 8) (size 9 to 14) (size 15 to 20)
#    0.750    1.500    2.500    1.500    0.000    2.000 
#    0.000    4.375    0.000    0.000    0.000    0.000 
#    0.000    0.000    0.000    0.000    0.000    0.000 
#
# Total GULP energy -396583.063645 kJ/mol
# GULP energy per Si atom -12393.220739 kJ/mol
# Density = 2.043749 g / cm^3
# Si number density = 20.484114 Si / 1000 Ang^3
#
#
#
# Elastic Constant Matrix: (Units=GPa)
#
#
# Indices 1 2 3 4 5 6 
#
# 1 70.2405 14.5885 19.1022 0.0000 16.9618 0.0000
# 2 14.5885 80.3638 15.1830 0.0000 -3.2978 0.0000
# 3 19.1022 15.1830 38.7845 0.0000 5.3896 0.0000
# 4 0.0000 0.0000 0.0000 7.6097 0.0000 -1.4721
# 5 16.9618 -3.2978 5.3896 0.0000 26.4199 0.0000
# 6 0.0000 0.0000 0.0000 -1.4721 0.0000 14.5979
#
#
#
# Elastic Compliance Matrix: (Units=1/GPa)
#
#
# Indices 1 2 3 4 5 6 
#
# 1 0.019433 -0.002685 -0.006936 0.000000 -0.011396 0.000000
# 2 -0.002685 0.014017 -0.004783 0.000000 0.004449 0.000000
# 3 -0.006936 -0.004783 0.031427 0.000000 -0.002555 0.000000
# 4 0.000000 0.000000 0.000000 0.134026 0.000000 0.013515
# 5 -0.011396 0.004449 -0.002555 0.000000 0.046243 0.000000
# 6 0.000000 0.000000 0.000000 0.013515 0.000000 0.069866
#
#
# Mechanical properties :
#
#
# Convention : Reuss Voigt Hill
#
# Bulk Modulus (GPa) = 27.72515 31.90403 29.81459
# Shear Modulus (GPa) = 14.05112 19.09318 16.57215
#
# Velocity S-wave (km/s) = 2.62191 3.05634 2.84742
# Velocity P-wave (km/s) = 4.76762 5.29752 5.03954
#
# Compressibility (1/GPa) = 0.03606834
#
# Stress axis : x y z
#
# Youngs Moduli (GPa) = 51.45942 71.34179 31.81947
#
# Poissons Ratio (x) = 0.19154 0.22071
# Poissons Ratio (y) = 0.13816 0.15220
# Poissons Ratio (z) = 0.35694 0.34124
#
# Static dielectric constant tensor:
#      x y z
#    x 3.692570 0.000000 0.076640 
#    y 0.000000 3.706840 0.000000 
#    z 0.076640 0.000000 3.306980 
# 
# 
# High freq. dielectric constant tensor:
#      x y z
#    x 1.802710 0.000000 0.006500 
#    y 0.000000 1.783700 0.000000 
#    z 0.006500 0.000000 1.767830 
# 
# From -- ./inp_files/39627.got.cif
#   From: 2010.06.25/outbox.cif.g09.slc.cpg/sg11_20_cif.got.tgz:39627.got - 2010.06.27 23:14:04.
