data_PCOD8072489
_publ_section_title
;
Structure prediction by ZEFSAII (Michael W. Deem and Ramdas Pophale) SiO2 
 PCOD8072489
Probable space group: P 21/M
;
_chemical_formula_sum "Si O2"
_cell_formula_units_Z 28
_cell_length_a 12.481696
_cell_length_b 14.420251
_cell_length_c 8.039992
_cell_angle_alpha 90.000000
_cell_angle_beta 113.084351
_cell_angle_gamma 90.000000
_cell_volume 1331.239416
_symmetry_space_group_name_H-M "P 21/M"
_symmetry_group_IT_number 11
_symmetry_cell_setting 'monoclinic'
loop_
_space_group_symop_operation_xyz
x,y,z
-x,1/2+y,-z
-x,-y,-z
x,1/2-y,z
loop_
_atom_site_type_symbol
_atom_site_label
_atom_site_fract_x
_atom_site_fract_y
_atom_site_fract_z
Si Si1 0.288368 0.544052 0.402077
Si Si2 0.869467 0.650299 0.280822
Si Si3 0.590204 0.144056 0.832296
Si Si4 0.307071 0.859237 0.754007
Si Si5 0.973153 0.479143 0.799983
Si Si6 0.047684 0.650458 0.664514
Si Si7 0.675130 0.856347 0.421555
O O1 0.350100 0.581632 0.273555
O O2 0.343819 0.588764 0.604811
O O3 0.308965 0.432151 0.421440
O O4 0.151215 0.570450 0.305152
O O5 0.834235 0.750000 0.179730
O O6 0.908377 0.576387 0.169584
O O7 0.763230 0.613986 0.328435
O O8 0.989477 0.664723 0.452319
O O9 0.634240 0.250000 0.836049
O O10 0.452675 0.137498 0.731035
O O11 0.618378 0.110158 0.038250
O O12 0.319473 0.750000 0.726566
O O13 0.176175 0.889019 0.717845
O O14 0.966001 0.577448 0.705188
O O15 0.000000 0.500000 0.000000
O O16 0.051070 0.750000 0.762431
O O17 0.702186 0.750000 0.499770
#
# Coordination Sequence:
#
# PCOD8072489 Si02
#       7
#     4   4   4   4   4   4   4
#     4  12  22  38  65  91 124 163 208 255 314 375
#     4  10  20  38  63  86 115 159 205 246 302 368
#     4  10  23  42  62  92 126 159 209 263 311 368
#     4  10  21  38  63  92 122 159 202 255 315 371
#     4  12  24  36  57  93 128 155 199 255 308 367
#     4  10  19  36  59  83 115 155 199 243 301 365
#     4  10  22  41  64  87 122 167 210 257 303 365
#
# _framework density 21.033033
#
# number of rings (size 3 to 8) (size 9 to 14) (size 15 to 20)
#    0.000    1.429    2.857    3.000    0.000    1.714 
#    0.000    1.429    0.000    4.286    0.000    0.000 
#    0.000    0.000    0.000    0.000    0.000    0.000 
#
# Total GULP energy -346948.860447 kJ/mol
# GULP energy per Si atom -12391.030730 kJ/mol
# Density = 2.098516 g / cm^3
# Si number density = 21.033033 Si / 1000 Ang^3
#
#
#
# Elastic Constant Matrix: (Units=GPa)
#
#
# Indices 1 2 3 4 5 6 
#
# 1 85.3460 40.4663 35.9283 0.0000 5.0133 0.0000
# 2 40.4663 96.6241 36.6894 0.0000 -21.3250 0.0000
# 3 35.9283 36.6894 94.6894 0.0000 -18.9750 0.0000
# 4 0.0000 0.0000 0.0000 175.8932 0.0000 -82.3958
# 5 5.0133 -21.3250 -18.9750 0.0000 31.9549 0.0000
# 6 0.0000 0.0000 0.0000 -82.3958 0.0000 75.8864
#
#
#
# Elastic Compliance Matrix: (Units=1/GPa)
#
#
# Indices 1 2 3 4 5 6 
#
# 1 0.019110 -0.008256 -0.006534 0.000000 -0.012388 0.000000
# 2 -0.008256 0.016817 -0.000993 0.000000 0.011928 0.000000
# 3 -0.006534 -0.000993 0.015321 0.000000 0.009460 0.000000
# 4 0.000000 0.000000 0.000000 0.011570 0.000000 0.012563
# 5 -0.012388 0.011928 0.009460 0.000000 0.046815 0.000000
# 6 0.000000 0.000000 0.000000 0.012563 0.000000 0.026818
#
#
# Mechanical properties :
#
#
# Convention : Reuss Voigt Hill
#
# Bulk Modulus (GPa) = 50.81233 55.86971 53.34102
# Shear Modulus (GPa) = 28.64053 67.65197 48.14625
#
# Velocity S-wave (km/s) = 3.69412 5.67754 4.78962
# Velocity P-wave (km/s) = 6.51200 8.34265 7.48351
#
# Compressibility (1/GPa) = 0.01968026
#
# Stress axis : x y z
#
# Youngs Moduli (GPa) = 52.32831 59.46478 65.27125
#
# Poissons Ratio (x) = 0.49095 0.42651
# Poissons Ratio (y) = 0.43203 0.06481
# Poissons Ratio (z) = 0.34194 0.05905
#
# Static dielectric constant tensor:
#      x y z
#    x 4.112090 0.000000 0.330090 
#    y 0.000000 5.692810 0.000000 
#    z 0.330090 0.000000 3.774660 
# 
# 
# High freq. dielectric constant tensor:
#      x y z
#    x 1.819990 0.000000 0.011790 
#    y 0.000000 1.836100 0.000000 
#    z 0.011790 0.000000 1.805080 
# 
# From -- ./inp_files/18127.got.cif
#   From: 2010.06.25/outbox.cif.g09.slc.cpg/sg11_10_cif.got.tgz:18127.got - 2010.06.27 23:14:04.
