data_PCOD8072304
_publ_section_title
;
Structure prediction by ZEFSAII (Michael W. Deem and Ramdas Pophale) SiO2 
 PCOD8072304
Probable space group: P 21/M
;
_chemical_formula_sum "Si O2"
_cell_formula_units_Z 28
_cell_length_a 27.449244
_cell_length_b 8.990933
_cell_length_c 9.621517
_cell_angle_alpha 90.000000
_cell_angle_beta 39.168238
_cell_angle_gamma 90.000000
_cell_volume 1499.755822
_symmetry_space_group_name_H-M "P 21/M"
_symmetry_group_IT_number 11
_symmetry_cell_setting 'monoclinic'
loop_
_space_group_symop_operation_xyz
x,y,z
-x,1/2+y,-z
-x,-y,-z
x,1/2-y,z
loop_
_atom_site_type_symbol
_atom_site_label
_atom_site_fract_x
_atom_site_fract_y
_atom_site_fract_z
Si Si1 0.801819 0.424710 0.181033
Si Si2 0.200296 0.926835 0.499060
Si Si3 0.642065 0.925249 0.839063
Si Si4 0.500514 0.576370 0.349685
Si Si5 0.949460 0.917051 0.224394
Si Si6 0.630322 0.074036 0.571277
Si Si7 0.952142 0.414990 0.717932
O O1 0.815511 0.250000 0.150447
O O2 0.813678 0.479511 0.311956
O O3 0.715463 0.466181 0.323067
O O4 0.868519 0.493347 0.934141
O O5 0.204215 0.750000 0.471703
O O6 0.280998 0.997366 0.271764
O O7 0.129711 0.994439 0.567634
O O8 0.654727 0.750000 0.792125
O O9 0.615215 0.992226 0.750663
O O10 0.578300 0.961346 0.095613
O O11 0.500000 0.500000 0.500000
O O12 0.490974 0.750000 0.397067
O O13 0.429709 0.517922 0.411404
O O14 0.930498 0.750000 0.214926
O O15 0.998647 0.911169 0.253005
O O16 0.000000 0.000000 0.000000
O O17 0.623010 0.250000 0.616725
O O18 0.938373 0.250000 0.689966
O O19 0.000000 0.500000 0.500000
#
# Coordination Sequence:
#
# PCOD8072304 Si02
#       7
#     4   4   4   4   4   4   4
#     4   8  15  32  55  77 106 137 177 228 271 315
#     4  10  19  35  58  84 110 143 187 232 280 330
#     4  10  20  35  56  85 116 144 180 231 280 327
#     4  10  22  38  56  81 116 151 184 225 277 333
#     4  11  21  35  57  83 114 147 186 233 279 328
#     4   9  18  35  60  84 106 142 187 230 274 329
#     4  10  21  37  53  76 111 149 184 227 271 323
#
# _framework density 18.669706000000001
#
# number of rings (size 3 to 8) (size 9 to 14) (size 15 to 20)
#    0.000    2.286    1.429    2.571    0.000    2.857 
#    2.571    0.714    0.000    0.000    0.000    0.000 
#    0.000    0.000    0.000    0.000    0.000    0.000 
#
# Total GULP energy -347102.592889 kJ/mol
# GULP energy per Si atom -12396.521175 kJ/mol
# Density = 1.862721 g / cm^3
# Si number density = 18.669706 Si / 1000 Ang^3
#
#
#
# Elastic Constant Matrix: (Units=GPa)
#
#
# Indices 1 2 3 4 5 6 
#
# 1 79.4488 42.6171 55.9735 0.0000 -17.0291 0.0000
# 2 42.6171 88.3514 57.5027 0.0000 -5.7982 0.0000
# 3 55.9735 57.5027 149.0003 0.0000 -14.4911 0.0000
# 4 0.0000 0.0000 0.0000 32.2064 0.0000 0.2274
# 5 -17.0291 -5.7982 -14.4911 0.0000 31.5272 0.0000
# 6 0.0000 0.0000 0.0000 0.2274 0.0000 29.1360
#
#
#
# Elastic Compliance Matrix: (Units=1/GPa)
#
#
# Indices 1 2 3 4 5 6 
#
# 1 0.021124 -0.006685 -0.004570 0.000000 0.008080 0.000000
# 2 -0.006685 0.017231 -0.004377 0.000000 -0.002454 0.000000
# 3 -0.004570 -0.004377 0.010257 0.000000 0.001441 0.000000
# 4 0.000000 0.000000 0.000000 0.031051 0.000000 -0.000242
# 5 0.008080 -0.002454 0.001441 0.000000 0.036294 0.000000
# 6 0.000000 0.000000 0.000000 -0.000242 0.000000 0.034324
#
#
# Mechanical properties :
#
#
# Convention : Reuss Voigt Hill
#
# Bulk Modulus (GPa) = 57.64142 69.88747 63.76444
# Shear Modulus (GPa) = 26.69116 29.28773 27.98945
#
# Velocity S-wave (km/s) = 3.78517 3.96502 3.87614
# Velocity P-wave (km/s) = 7.07423 7.64701 7.36619
#
# Compressibility (1/GPa) = 0.01734864
#
# Stress axis : x y z
#
# Youngs Moduli (GPa) = 47.33975 58.03579 97.48972
#
# Poissons Ratio (x) = 0.38796 0.44550
# Poissons Ratio (y) = 0.31646 0.42673
# Poissons Ratio (z) = 0.21633 0.25403
#
# Static dielectric constant tensor:
#      x y z
#    x 3.438280 0.000000 -0.363060 
#    y 0.000000 3.458200 0.000000 
#    z -0.363060 0.000000 3.550790 
# 
# 
# High freq. dielectric constant tensor:
#      x y z
#    x 1.718800 0.000000 -0.023300 
#    y 0.000000 1.715040 0.000000 
#    z -0.023300 0.000000 1.729330 
# 
# From -- ./inp_files/28438.got.cif
#   From: 2010.06.25/outbox.cif.g09.slc.cpg/sg11_15_cif.got.tgz:28438.got - 2010.06.27 23:14:04.
