data_PCOD8072801
_publ_section_title
;
Structure prediction by ZEFSAII (Michael W. Deem and Ramdas Pophale) SiO2 
 PCOD8072801
Probable space group: P 21/M
;
_chemical_formula_sum "Si O2"
_cell_formula_units_Z 24
_cell_length_a 8.964380
_cell_length_b 9.162144
_cell_length_c 20.759051
_cell_angle_alpha 90.000000
_cell_angle_beta 130.364386
_cell_angle_gamma 90.000000
_cell_volume 1299.110886
_symmetry_space_group_name_H-M "P 21/M"
_symmetry_group_IT_number 11
_symmetry_cell_setting 'monoclinic'
loop_
_space_group_symop_operation_xyz
x,y,z
-x,1/2+y,-z
-x,-y,-z
x,1/2-y,z
loop_
_atom_site_type_symbol
_atom_site_label
_atom_site_fract_x
_atom_site_fract_y
_atom_site_fract_z
Si Si1 0.266575 0.918036 0.084454
Si Si2 0.983795 0.082585 0.097359
Si Si3 0.794147 0.414750 0.743007
Si Si4 0.811388 0.415972 0.423919
Si Si5 0.544136 0.581552 0.577849
Si Si6 0.427469 0.088874 0.735805
O O1 0.209231 0.750000 0.087921
O O2 0.494465 0.944593 0.169456
O O3 0.138060 0.036552 0.085934
O O4 0.230245 0.937936 0.997003
O O5 0.022025 0.250000 0.127399
O O6 0.012470 0.985619 0.169714
O O7 0.843391 0.250000 0.735319
O O8 0.733721 0.507286 0.663373
O O9 0.619293 0.420071 0.745044
O O10 0.871042 0.250000 0.429758
O O11 0.643712 0.436010 0.429596
O O12 0.736980 0.476531 0.334069
O O13 0.000000 0.500000 0.500000
O O14 0.500000 0.500000 0.500000
O O15 0.592448 0.750000 0.577623
O O16 0.333445 0.250000 0.705340
#
# Coordination Sequence:
#
# PCOD8072801 Si02
#       6
#     4   4   4   4   4   4
#     4   8  14  22  32  49  75 108 141 173 214 261
#     4   9  14  20  32  51  76 106 141 177 212 257
#     4   9  16  26  39  56  81 113 145 178 219 263
#     4  10  20  32  47  67  90 118 152 187 225 268
#     4  10  20  33  49  69  91 118 152 188 227 270
#     4   8  14  25  39  55  79 111 144 178 218 261
#
# _framework density 18.474174000000001
#
# number of rings (size 3 to 8) (size 9 to 14) (size 15 to 20)
#    0.000    3.000    0.000    3.000    0.000    6.667 
#    0.000    0.000    0.000    0.000    0.000    0.000 
#    0.000    1.333    0.000    4.000    0.000   12.000 
#
# Total GULP energy -297347.643475 kJ/mol
# GULP energy per Si atom -12389.485145 kJ/mol
# Density = 1.843213 g / cm^3
# Si number density = 18.474174 Si / 1000 Ang^3
#
#
#
# Elastic Constant Matrix: (Units=GPa)
#
#
# Indices 1 2 3 4 5 6 
#
# 1 5.1398 15.8038 15.8653 0.0000 0.0067 0.0000
# 2 15.8038 151.9007 101.8584 0.0000 0.6406 0.0000
# 3 15.8653 101.8584 212.9398 0.0000 -1.7957 0.0000
# 4 0.0000 0.0000 0.0000 40.2886 0.0000 -0.8651
# 5 0.0067 0.6406 -1.7957 0.0000 17.2500 0.0000
# 6 0.0000 0.0000 0.0000 -0.8651 0.0000 13.3619
#
#
#
# Elastic Compliance Matrix: (Units=1/GPa)
#
#
# Indices 1 2 3 4 5 6 
#
# 1 0.302697 -0.024095 -0.011030 0.000000 -0.000371 0.000000
# 2 -0.024095 0.011622 -0.003771 0.000000 -0.000815 0.000000
# 3 -0.011030 -0.003771 0.007330 0.000000 0.000907 0.000000
# 4 0.000000 0.000000 0.000000 0.024855 0.000000 0.001609
# 5 -0.000371 -0.000815 0.000907 0.000000 0.058096 0.000000
# 6 0.000000 0.000000 0.000000 0.001609 0.000000 0.074944
#
#
# Mechanical properties :
#
#
# Convention : Reuss Voigt Hill
#
# Bulk Modulus (GPa) = 4.10077 70.78168 37.44123
# Shear Modulus (GPa) = 7.82937 29.94360 18.88649
#
# Velocity S-wave (km/s) = 2.06088 4.03033 3.20084
# Velocity P-wave (km/s) = 2.80847 7.74952 5.82849
#
# Compressibility (1/GPa) = 0.24385650
#
# Stress axis : x y z
#
# Youngs Moduli (GPa) = 3.30364 86.04198 136.43441
#
# Poissons Ratio (x) = 2.07314 1.50492
# Poissons Ratio (y) = 0.07960 0.51451
# Poissons Ratio (z) = 0.03644 0.32447
#
# Static dielectric constant tensor:
#      x y z
#    x 2.571870 0.000000 -0.022270 
#    y 0.000000 3.616790 0.000000 
#    z -0.022270 0.000000 4.120050 
# 
# 
# High freq. dielectric constant tensor:
#      x y z
#    x 1.611940 0.000000 -0.001830 
#    y 0.000000 1.731460 0.000000 
#    z -0.001830 0.000000 1.752780 
# 
# From -- ./inp_files/25933.got.cif
#   From: 2010.06.25/outbox.cif.g09.slc.cpg/sg11_13_cif.got.tgz:25933.got - 2010.06.27 23:14:04.
