data_PCOD8072464
_publ_section_title
;
Structure prediction by ZEFSAII (Michael W. Deem and Ramdas Pophale) SiO2 
 PCOD8072464
Probable space group: P 21/M
;
_chemical_formula_sum "Si O2"
_cell_formula_units_Z 24
_cell_length_a 16.732213
_cell_length_b 17.646193
_cell_length_c 9.859675
_cell_angle_alpha 90.000000
_cell_angle_beta 153.852674
_cell_angle_gamma 90.000000
_cell_volume 1282.895034
_symmetry_space_group_name_H-M "P 21/M"
_symmetry_group_IT_number 11
_symmetry_cell_setting 'monoclinic'
loop_
_space_group_symop_operation_xyz
x,y,z
-x,1/2+y,-z
-x,-y,-z
x,1/2-y,z
loop_
_atom_site_type_symbol
_atom_site_label
_atom_site_fract_x
_atom_site_fract_y
_atom_site_fract_z
Si Si1 0.749741 0.546569 0.902171
Si Si2 0.149394 0.914137 0.500530
Si Si3 0.412523 0.663078 0.696823
Si Si4 0.379131 0.614890 0.347797
Si Si5 0.111823 0.664394 0.722004
Si Si6 0.233104 0.433691 0.760261
O O1 0.590474 0.606456 0.627583
O O2 0.709404 0.467899 0.765393
O O3 0.758788 0.530143 0.077344
O O4 0.937572 0.581843 0.136871
O O5 0.249250 0.875447 0.528283
O O6 0.178136 0.863614 0.677195
O O7 0.228679 0.998199 0.645923
O O8 0.435273 0.750000 0.776213
O O9 0.363786 0.660058 0.464338
O O10 0.596993 0.619277 0.012899
O O11 0.280835 0.662199 0.081672
O O12 0.041472 0.750000 0.600626
O O13 0.949855 0.614164 0.535098
#
# Coordination Sequence:
#
# PCOD8072464 Si02
#       6
#     4   4   4   4   4   4
#     4   9  18  35  61  85 105 140 190 230 264 325
#     4  11  20  38  58  85 108 147 188 229 271 324
#     4  11  24  37  52  81 119 148 176 224 290 333
#     4  10  19  36  58  82 112 142 183 226 273 329
#     4  11  20  35  60  84 110 143 188 233 271 320
#     4  10  19  38  59  81 107 148 191 225 269 329
#
# _framework density 18.707688000000001
#
# number of rings (size 3 to 8) (size 9 to 14) (size 15 to 20)
#    0.000    1.667    3.333    3.000    0.000    0.667 
#    0.000    2.500    0.000    0.000    0.000    0.000 
#    0.000    0.000    0.000    0.000    0.000    0.000 
#
# Total GULP energy -297704.316160 kJ/mol
# GULP energy per Si atom -12404.346507 kJ/mol
# Density = 1.866511 g / cm^3
# Si number density = 18.707688 Si / 1000 Ang^3
#
#
#
# Elastic Constant Matrix: (Units=GPa)
#
#
# Indices 1 2 3 4 5 6 
#
# 1 51.5164 30.3426 30.5037 0.0000 20.6397 0.0000
# 2 30.3426 115.8107 31.2312 0.0000 6.4654 0.0000
# 3 30.5037 31.2312 117.8740 0.0000 11.7798 0.0000
# 4 0.0000 0.0000 0.0000 17.4487 0.0000 -2.0253
# 5 20.6397 6.4654 11.7798 0.0000 24.9200 0.0000
# 6 0.0000 0.0000 0.0000 -2.0253 0.0000 19.8676
#
#
#
# Elastic Compliance Matrix: (Units=1/GPa)
#
#
# Indices 1 2 3 4 5 6 
#
# 1 0.037128 -0.006860 -0.005138 0.000000 -0.026542 0.000000
# 2 -0.006860 0.010608 -0.001394 0.000000 0.003589 0.000000
# 3 -0.005138 -0.001394 0.010203 0.000000 -0.000206 0.000000
# 4 0.000000 0.000000 0.000000 0.057997 0.000000 0.005912
# 5 -0.026542 0.003589 -0.000206 0.000000 0.061278 0.000000
# 6 0.000000 0.000000 0.000000 0.005912 0.000000 0.050936
#
#
# Mechanical properties :
#
#
# Convention : Reuss Voigt Hill
#
# Bulk Modulus (GPa) = 32.09778 52.15071 42.12424
# Shear Modulus (GPa) = 18.84523 25.32217 22.08370
#
# Velocity S-wave (km/s) = 3.17732 3.68308 3.43951
# Velocity P-wave (km/s) = 5.53672 6.78409 6.19190
#
# Compressibility (1/GPa) = 0.03115480
#
# Stress axis : x y z
#
# Youngs Moduli (GPa) = 26.93376 94.27075 98.00908
#
# Poissons Ratio (x) = 0.64673 0.50356
# Poissons Ratio (y) = 0.18477 0.13661
# Poissons Ratio (z) = 0.13838 0.13140
#
# Static dielectric constant tensor:
#      x y z
#    x 3.170360 0.000000 0.095830 
#    y 0.000000 3.408450 0.000000 
#    z 0.095830 0.000000 3.614120 
# 
# 
# High freq. dielectric constant tensor:
#      x y z
#    x 1.699970 0.000000 0.006690 
#    y 0.000000 1.731110 0.000000 
#    z 0.006690 0.000000 1.739090 
# 
# From -- ./inp_files/13256.got.cif
#   From: 2010.06.25/outbox.cif.g09.slc.cpg/sg11_7_cif.got.tgz:13256.got - 2010.06.27 23:14:04.
