data_PCOD8072713
_publ_section_title
;
Structure prediction by ZEFSAII (Michael W. Deem and Ramdas Pophale) SiO2 
 PCOD8072713
Probable space group: P 21/M
;
_chemical_formula_sum "Si O2"
_cell_formula_units_Z 28
_cell_length_a 9.244795
_cell_length_b 18.928215
_cell_length_c 15.592086
_cell_angle_alpha 90.000000
_cell_angle_beta 30.549271
_cell_angle_gamma 90.000000
_cell_volume 1386.798749
_symmetry_space_group_name_H-M "P 21/M"
_symmetry_group_IT_number 11
_symmetry_cell_setting 'monoclinic'
loop_
_space_group_symop_operation_xyz
x,y,z
-x,1/2+y,-z
-x,-y,-z
x,1/2-y,z
loop_
_atom_site_type_symbol
_atom_site_label
_atom_site_fract_x
_atom_site_fract_y
_atom_site_fract_z
Si Si1 0.531017 0.669716 0.808061
Si Si2 0.460087 0.602558 0.588141
Si Si3 0.640775 0.968406 0.843603
Si Si4 0.453931 0.914801 0.234693
Si Si5 0.061002 0.331124 0.558643
Si Si6 0.967525 0.331368 0.065324
Si Si7 0.297827 0.544370 0.499000
O O1 0.569831 0.750000 0.822851
O O2 0.567218 0.614778 0.868178
O O3 0.767884 0.652017 0.615756
O O4 0.221742 0.661008 0.923359
O O5 0.748590 0.646131 0.457343
O O6 0.194865 0.639823 0.768728
O O7 0.398088 0.601252 0.518420
O O8 0.493309 0.522905 0.606444
O O9 0.977046 0.980449 0.680683
O O10 0.513137 0.008458 0.825558
O O11 0.500000 0.000000 0.000000
O O12 0.314990 0.919112 0.398757
O O13 0.237378 0.871397 0.285661
O O14 0.752582 0.876744 0.090724
O O15 0.987615 0.250000 0.605017
O O16 0.046952 0.250000 0.041302
#
# Coordination Sequence:
#
# PCOD8072713 Si02
#       7
#     4   4   4   4   4   4   4
#     4   9  20  40  65  90 125 169 216 261 323 391
#     4  10  21  40  63  91 129 167 211 262 320 393
#     4  12  24  40  65  98 132 169 220 273 332 385
#     4  12  22  39  66  94 131 164 217 279 315 385
#     4  10  19  38  65  91 124 170 212 260 322 380
#     4  10  22  41  63  94 130 172 215 264 326 386
#     4  11  23  39  65  97 126 163 219 270 326 380
#
# _framework density 20.190384999999999
#
# number of rings (size 3 to 8) (size 9 to 14) (size 15 to 20)
#    0.000    1.429    2.857    4.714    0.000    4.571 
#    0.000    7.143    0.000    0.000    0.000    0.000 
#    0.000    0.000    0.000    0.000    0.000    0.000 
#
# Total GULP energy -347302.169143 kJ/mol
# GULP energy per Si atom -12403.648898 kJ/mol
# Density = 2.014443 g / cm^3
# Si number density = 20.190385 Si / 1000 Ang^3
#
#
#
# Elastic Constant Matrix: (Units=GPa)
#
#
# Indices 1 2 3 4 5 6 
#
# 1 88.3785 40.9766 35.1416 0.0000 9.9223 0.0000
# 2 40.9766 107.1312 19.7740 0.0000 2.0509 0.0000
# 3 35.1416 19.7740 54.5624 0.0000 -11.5124 0.0000
# 4 0.0000 0.0000 0.0000 23.2540 0.0000 0.1328
# 5 9.9223 2.0509 -11.5124 0.0000 33.6366 0.0000
# 6 0.0000 0.0000 0.0000 0.1328 0.0000 41.7722
#
#
#
# Elastic Compliance Matrix: (Units=1/GPa)
#
#
# Indices 1 2 3 4 5 6 
#
# 1 0.020043 -0.005032 -0.013223 0.000000 -0.010131 0.000000
# 2 -0.005032 0.011392 -0.000778 0.000000 0.000524 0.000000
# 3 -0.013223 -0.000778 0.030135 0.000000 0.014262 0.000000
# 4 0.000000 0.000000 0.000000 0.043004 0.000000 -0.000137
# 5 -0.010131 0.000524 0.014262 0.000000 0.037568 0.000000
# 6 0.000000 0.000000 0.000000 -0.000137 0.000000 0.023940
#
#
# Mechanical properties :
#
#
# Convention : Reuss Voigt Hill
#
# Bulk Modulus (GPa) = 42.54242 49.09518 45.81880
# Shear Modulus (GPa) = 23.58682 30.01122 26.79902
#
# Velocity S-wave (km/s) = 3.42163 3.85958 3.64719
# Velocity P-wave (km/s) = 6.06024 6.65062 6.36228
#
# Compressibility (1/GPa) = 0.02350595
#
# Stress axis : x y z
#
# Youngs Moduli (GPa) = 49.89194 87.77772 33.18372
#
# Poissons Ratio (x) = 0.44167 0.43880
# Poissons Ratio (y) = 0.25104 0.02580
# Poissons Ratio (z) = 0.65974 0.06825
#
# Static dielectric constant tensor:
#      x y z
#    x 3.656230 0.000000 -0.170530 
#    y 0.000000 3.755760 0.000000 
#    z -0.170530 0.000000 3.539330 
# 
# 
# High freq. dielectric constant tensor:
#      x y z
#    x 1.786950 0.000000 -0.016690 
#    y 0.000000 1.797160 0.000000 
#    z -0.016690 0.000000 1.776860 
# 
# From -- ./inp_files/23222.got.cif
#   From: 2010.06.25/outbox.cif.g09.slc.cpg/sg11_12_cif.got.tgz:23222.got - 2010.06.27 23:14:04.
