data_PCOD8072600
_publ_section_title
;
Structure prediction by ZEFSAII (Michael W. Deem and Ramdas Pophale) SiO2 
 PCOD8072600
Probable space group: P 21/M
;
_chemical_formula_sum "Si O2"
_cell_formula_units_Z 24
_cell_length_a 12.020155
_cell_length_b 17.210134
_cell_length_c 11.983619
_cell_angle_alpha 90.000000
_cell_angle_beta 149.080494
_cell_angle_gamma 90.000000
_cell_volume 1273.809833
_symmetry_space_group_name_H-M "P 21/M"
_symmetry_group_IT_number 11
_symmetry_cell_setting 'monoclinic'
loop_
_space_group_symop_operation_xyz
x,y,z
-x,1/2+y,-z
-x,-y,-z
x,1/2-y,z
loop_
_atom_site_type_symbol
_atom_site_label
_atom_site_fract_x
_atom_site_fract_y
_atom_site_fract_z
Si Si1 0.499282 0.339576 0.446590
Si Si2 0.244442 0.946604 0.484450
Si Si3 0.846813 0.533991 0.275248
Si Si4 0.495151 0.058459 0.855247
Si Si5 0.108248 0.440539 0.177209
Si Si6 0.293440 0.839168 0.134638
O O1 0.441274 0.250000 0.375183
O O2 0.649511 0.369337 0.475031
O O3 0.279583 0.388849 0.256906
O O4 0.626616 0.350992 0.671122
O O5 0.005265 0.921843 0.324272
O O6 0.396046 0.981420 0.711895
O O7 0.229297 0.013407 0.378348
O O8 0.666650 0.586899 0.183952
O O9 0.000000 0.500000 0.500000
O O10 0.726019 0.464669 0.105831
O O11 0.525272 0.128279 0.794062
O O12 0.000000 0.500000 0.000000
O O13 0.929523 0.384376 0.076713
O O14 0.253199 0.750000 0.070748
#
# Coordination Sequence:
#
# PCOD8072600 Si02
#       6
#     4   4   4   4   4   4
#     4  11  24  38  53  86 125 151 183 236 294 345
#     4  11  20  35  60  84 108 152 192 232 277 338
#     4   9  20  35  59  86 108 137 194 245 282 324
#     4  10  19  37  59  84 113 146 193 242 281 336
#     4  12  21  35  57  86 113 151 197 233 276 341
#     4  11  22  36  56  86 121 153 184 235 298 345
#
# _framework density 18.841116
#
# number of rings (size 3 to 8) (size 9 to 14) (size 15 to 20)
#    0.000    1.333    5.000    2.000    0.000    0.000 
#    0.000    0.833    0.000    9.000    0.000    0.000 
#    0.000    0.000    0.000    0.000    0.000    0.000 
#
# Total GULP energy -297566.682512 kJ/mol
# GULP energy per Si atom -12398.611771 kJ/mol
# Density = 1.879823 g / cm^3
# Si number density = 18.841116 Si / 1000 Ang^3
#
#
#
# Elastic Constant Matrix: (Units=GPa)
#
#
# Indices 1 2 3 4 5 6 
#
# 1 145.5413 53.8862 25.7983 0.0000 26.3352 0.0000
# 2 53.8862 88.3702 31.6833 0.0000 8.9481 0.0000
# 3 25.7983 31.6833 86.4906 0.0000 4.3187 0.0000
# 4 0.0000 0.0000 0.0000 24.3037 0.0000 2.3626
# 5 26.3352 8.9481 4.3187 0.0000 35.3645 0.0000
# 6 0.0000 0.0000 0.0000 2.3626 0.0000 14.4812
#
#
#
# Elastic Compliance Matrix: (Units=1/GPa)
#
#
# Indices 1 2 3 4 5 6 
#
# 1 0.010042 -0.005231 -0.000776 0.000000 -0.006060 0.000000
# 2 -0.005231 0.016020 -0.004326 0.000000 0.000371 0.000000
# 3 -0.000776 -0.004326 0.013376 0.000000 0.000039 0.000000
# 4 0.000000 0.000000 0.000000 0.041809 0.000000 -0.006821
# 5 -0.006060 0.000371 0.000039 0.000000 0.032691 0.000000
# 6 0.000000 0.000000 0.000000 -0.006821 0.000000 0.070168
#
#
# Mechanical properties :
#
#
# Convention : Reuss Voigt Hill
#
# Bulk Modulus (GPa) = 53.27765 60.34863 56.81314
# Shear Modulus (GPa) = 23.69322 28.76547 26.22935
#
# Velocity S-wave (km/s) = 3.55001 3.91159 3.73518
# Velocity P-wave (km/s) = 6.71879 7.24573 6.98723
#
# Compressibility (1/GPa) = 0.01876960
#
# Stress axis : x y z
#
# Youngs Moduli (GPa) = 99.58299 62.42333 74.75846
#
# Poissons Ratio (x) = 0.32656 0.05804
# Poissons Ratio (y) = 0.52096 0.32344
# Poissons Ratio (z) = 0.07731 0.27007
#
# Static dielectric constant tensor:
#      x y z
#    x 4.087790 0.000000 0.133760 
#    y 0.000000 3.217620 0.000000 
#    z 0.133760 0.000000 3.623780 
# 
# 
# High freq. dielectric constant tensor:
#      x y z
#    x 1.751020 0.000000 0.007630 
#    y 0.000000 1.690690 0.000000 
#    z 0.007630 0.000000 1.744670 
# 
# From -- ./inp_files/4580.got.cif
#   From: 2010.06.25/outbox.cif.g09.slc.cpg/sg11_3_cif.got.tgz:4580.got - 2010.06.27 23:14:04.
