data_PCOD8072287
_publ_section_title
;
Structure prediction by ZEFSAII (Michael W. Deem and Ramdas Pophale) SiO2 
 PCOD8072287
Probable space group: P 21/M
;
_chemical_formula_sum "Si O2"
_cell_formula_units_Z 28
_cell_length_a 9.150796
_cell_length_b 8.812898
_cell_length_c 26.370933
_cell_angle_alpha 90.000000
_cell_angle_beta 42.586500
_cell_angle_gamma 90.000000
_cell_volume 1439.132899
_symmetry_space_group_name_H-M "P 21/M"
_symmetry_group_IT_number 11
_symmetry_cell_setting 'monoclinic'
loop_
_space_group_symop_operation_xyz
x,y,z
-x,1/2+y,-z
-x,-y,-z
x,1/2-y,z
loop_
_atom_site_type_symbol
_atom_site_label
_atom_site_fract_x
_atom_site_fract_y
_atom_site_fract_z
Si Si1 0.292804 0.071819 0.775100
Si Si2 0.157408 0.424694 0.093799
Si Si3 0.970706 0.426608 0.332259
Si Si4 0.667160 0.426983 0.495310
Si Si5 0.548105 0.571481 0.800480
Si Si6 0.413180 0.929969 0.641012
Si Si7 0.566426 0.423549 0.056744
O O1 0.316272 0.250000 0.762413
O O2 0.404669 0.019430 0.797873
O O3 0.410576 0.990281 0.698474
O O4 0.042960 0.028080 0.840451
O O5 0.083707 0.250000 0.110781
O O6 0.332851 0.455228 0.092378
O O7 0.253087 0.469905 0.014576
O O8 0.982880 0.250000 0.316907
O O9 0.208146 0.495985 0.263236
O O10 0.900551 0.454820 0.409096
O O11 0.795650 0.493418 0.336919
O O12 0.500000 0.500000 0.500000
O O13 0.619790 0.250000 0.513703
O O14 0.634258 0.508515 0.558002
O O15 0.545750 0.750000 0.788137
O O16 0.444102 0.538346 0.881504
O O17 0.421267 0.750000 0.639208
O O18 0.633812 0.250000 0.029692
#
# Coordination Sequence:
#
# PCOD8072287 Si02
#       7
#     4   4   4   4   4   4   4
#     4  12  25  38  52  77 111 144 181 224 268 320
#     4  10  20  37  61  85 109 140 177 218 268 323
#     4   8  16  32  57  83 107 137 177 222 266 317
#     4   9  16  29  51  82 113 141 177 223 271 319
#     4  10  20  37  57  77 106 145 182 218 265 318
#     4  10  19  35  58  82 107 140 181 225 275 326
#     4   9  19  36  60  87 111 137 176 223 267 315
#
# _framework density 19.456160000000001
#
# number of rings (size 3 to 8) (size 9 to 14) (size 15 to 20)
#    0.000    2.286    0.000    4.286    0.000    4.000 
#    0.000    6.429    0.000    0.000    0.000    0.000 
#    0.000    0.000    0.000    0.000    0.000    0.000 
#
# Total GULP energy -347150.248098 kJ/mol
# GULP energy per Si atom -12398.223146 kJ/mol
# Density = 1.941188 g / cm^3
# Si number density = 19.456160 Si / 1000 Ang^3
#
#
#
# Elastic Constant Matrix: (Units=GPa)
#
#
# Indices 1 2 3 4 5 6 
#
# 1 59.3894 25.8081 26.5105 0.0000 25.3247 0.0000
# 2 25.8081 84.5753 33.0041 0.0000 12.3164 0.0000
# 3 26.5105 33.0041 80.3071 0.0000 27.1618 0.0000
# 4 0.0000 0.0000 0.0000 33.1109 0.0000 5.5482
# 5 25.3247 12.3164 27.1618 0.0000 22.3855 0.0000
# 6 0.0000 0.0000 0.0000 5.5482 0.0000 22.5132
#
#
#
# Elastic Compliance Matrix: (Units=1/GPa)
#
#
# Indices 1 2 3 4 5 6 
#
# 1 0.035971 -0.006840 0.005813 0.000000 -0.043984 0.000000
# 2 -0.006840 0.015403 -0.006484 0.000000 0.007131 0.000000
# 3 0.005813 -0.006484 0.024110 0.000000 -0.032263 0.000000
# 4 0.000000 0.000000 0.000000 0.031502 0.000000 -0.007764
# 5 -0.043984 0.007131 -0.032263 0.000000 0.129654 0.000000
# 6 0.000000 0.000000 0.000000 -0.007764 0.000000 0.046332
#
#
# Mechanical properties :
#
#
# Convention : Reuss Voigt Hill
#
# Bulk Modulus (GPa) = 16.53928 43.87967 30.20948
# Shear Modulus (GPa) = 15.71598 24.86519 20.29058
#
# Velocity S-wave (km/s) = 2.84520 3.57881 3.23288
# Velocity P-wave (km/s) = 4.39463 6.29914 5.43102
#
# Compressibility (1/GPa) = 0.06046211
#
# Stress axis : x y z
#
# Youngs Moduli (GPa) = 27.80018 64.92350 41.47635
#
# Poissons Ratio (x) = 0.44405 -0.24109
# Poissons Ratio (y) = 0.19014 0.26893
# Poissons Ratio (z) = -0.16159 0.42096
#
# Static dielectric constant tensor:
#      x y z
#    x 3.383320 0.000000 0.063680 
#    y 0.000000 3.509390 0.000000 
#    z 0.063680 0.000000 4.024670 
# 
# 
# High freq. dielectric constant tensor:
#      x y z
#    x 1.732590 0.000000 0.012460 
#    y 0.000000 1.746880 0.000000 
#    z 0.012460 0.000000 1.775400 
# 
# From -- ./inp_files/70792.got.cif
#   From: 2010.06.25/outbox.cif.g09.slc.cpg/sg11_36_cif.got.tgz:70792.got - 2010.06.27 23:14:04.
