data_PCOD8072397
_publ_section_title
;
Structure prediction by ZEFSAII (Michael W. Deem and Ramdas Pophale) SiO2 
 PCOD8072397
Probable space group: P 21/M
;
_chemical_formula_sum "Si O2"
_cell_formula_units_Z 24
_cell_length_a 7.336477
_cell_length_b 17.707991
_cell_length_c 14.213325
_cell_angle_alpha 90.000000
_cell_angle_beta 38.640390
_cell_angle_gamma 90.000000
_cell_volume 1153.019239
_symmetry_space_group_name_H-M "P 21/M"
_symmetry_group_IT_number 11
_symmetry_cell_setting 'monoclinic'
loop_
_space_group_symop_operation_xyz
x,y,z
-x,1/2+y,-z
-x,-y,-z
x,1/2-y,z
loop_
_atom_site_type_symbol
_atom_site_label
_atom_site_fract_x
_atom_site_fract_y
_atom_site_fract_z
Si Si1 0.894610 0.129574 0.001720
Si Si2 0.167739 0.995773 0.557998
Si Si3 0.644447 0.750000 0.632887
Si Si4 0.355616 0.086173 0.312202
Si Si5 0.028005 0.250000 0.093460
Si Si6 0.291048 0.094010 0.677408
Si Si7 0.584424 0.250000 0.997589
Si Si8 0.885870 0.750000 0.336505
O O1 0.672543 0.177518 0.024463
O O2 0.072717 0.178066 0.007072
O O3 0.133736 0.087032 0.841933
O O4 0.686570 0.071151 0.142587
O O5 0.364314 0.922306 0.456437
O O6 0.841917 0.969464 0.669468
O O7 0.299511 0.064486 0.443145
O O8 0.159302 0.026500 0.667051
O O9 0.706950 0.676276 0.671608
O O10 0.861715 0.750000 0.457748
O O11 0.306508 0.750000 0.733390
O O12 0.249062 0.250000 0.094109
O O13 0.265839 0.177267 0.646852
O O14 0.772276 0.250000 0.825780
#
# Coordination Sequence:
#
# PCOD8072397 Si02
#       8
#     4   4   2   4   2   4   2   2
#     4   9  20  38  58  86 120 151 196 244 286 349
#     4  10  22  38  58  82 122 156 188 242 296 348
#     4  10  19  35  61  84 113 149 196 241 283 342
#     4  10  21  39  58  85 117 154 195 242 291 348
#     4   9  19  36  58  89 121 149 189 249 296 336
#     4  10  21  39  58  85 117 154 195 242 291 348
#     4   9  19  36  58  89 121 149 189 249 296 336
#     4  10  19  35  61  84 113 149 196 241 283 342
#
# _framework density 20.814916
#
# number of rings (size 3 to 8) (size 9 to 14) (size 15 to 20)
#    0.000    2.333    1.667    1.000    0.000    4.667 
#    6.000    0.000    0.000    0.000    0.000    0.000 
#    0.000    0.000    0.000    0.000    0.000    0.000 
#
# Total GULP energy -297405.379412 kJ/mol
# GULP energy per Si atom -12391.890809 kJ/mol
# Density = 2.076754 g / cm^3
# Si number density = 20.814916 Si / 1000 Ang^3
#
#
#
# Elastic Constant Matrix: (Units=GPa)
#
#
# Indices 1 2 3 4 5 6 
#
# 1 59.4675 0.5510 -15.8762 0.0000 -10.6474 0.0000
# 2 0.5510 78.6553 22.3951 0.0000 -6.7218 0.0000
# 3 -15.8762 22.3951 54.4649 0.0000 6.9528 0.0000
# 4 0.0000 0.0000 0.0000 30.5134 0.0000 -1.5203
# 5 -10.6474 -6.7218 6.9528 0.0000 25.3834 0.0000
# 6 0.0000 0.0000 0.0000 -1.5203 0.0000 15.1860
#
#
#
# Elastic Compliance Matrix: (Units=1/GPa)
#
#
# Indices 1 2 3 4 5 6 
#
# 1 0.019381 -0.001094 0.005283 0.000000 0.006393 0.000000
# 2 -0.001094 0.015282 -0.007317 0.000000 0.005592 0.000000
# 3 0.005283 -0.007317 0.023702 0.000000 -0.006214 0.000000
# 4 0.000000 0.000000 0.000000 0.032937 0.000000 0.003297
# 5 0.006393 0.005592 -0.006214 0.000000 0.045260 0.000000
# 6 0.000000 0.000000 0.000000 0.003297 0.000000 0.066180
#
#
# Mechanical properties :
#
#
# Convention : Reuss Voigt Hill
#
# Bulk Modulus (GPa) = 19.18969 22.96972 21.07971
# Shear Modulus (GPa) = 22.08795 26.58442 24.33619
#
# Velocity S-wave (km/s) = 3.26108 3.57764 3.42302
# Velocity P-wave (km/s) = 4.83929 5.30332 5.07661
#
# Compressibility (1/GPa) = 0.05211132
#
# Stress axis : x y z
#
# Youngs Moduli (GPa) = 51.59666 65.43438 42.19037
#
# Poissons Ratio (x) = 0.07156 -0.22289
# Poissons Ratio (y) = 0.05643 0.30869
# Poissons Ratio (z) = -0.27259 0.47876
#
# Static dielectric constant tensor:
#      x y z
#    x 3.503370 0.000000 0.227980 
#    y 0.000000 3.647700 0.000000 
#    z 0.227980 0.000000 4.013290 
# 
# 
# High freq. dielectric constant tensor:
#      x y z
#    x 1.791360 0.000000 0.016910 
#    y 0.000000 1.809630 0.000000 
#    z 0.016910 0.000000 1.825570 
# 
# From -- ./inp_files/58248.got.cif
#   From: 2010.06.25/outbox.cif.g09.slc.cpg/sg11_30_cif.got.tgz:58248.got - 2010.06.27 23:14:04.
