data_PCOD8072641
_publ_section_title
;
Structure prediction by ZEFSAII (Michael W. Deem and Ramdas Pophale) SiO2 
 PCOD8072641
Probable space group: P 21/M
;
_chemical_formula_sum "Si O2"
_cell_formula_units_Z 32
_cell_length_a 30.106409
_cell_length_b 8.972729
_cell_length_c 12.814519
_cell_angle_alpha 90.000000
_cell_angle_beta 27.966103
_cell_angle_gamma 90.000000
_cell_volume 1623.347661
_symmetry_space_group_name_H-M "P 21/M"
_symmetry_group_IT_number 11
_symmetry_cell_setting 'monoclinic'
loop_
_space_group_symop_operation_xyz
x,y,z
-x,1/2+y,-z
-x,-y,-z
x,1/2-y,z
loop_
_atom_site_type_symbol
_atom_site_label
_atom_site_fract_x
_atom_site_fract_y
_atom_site_fract_z
Si Si1 0.207960 0.574377 0.969891
Si Si2 0.887229 0.426476 0.409376
Si Si3 0.236754 0.926542 0.140454
Si Si4 0.549087 0.073609 0.299405
Si Si5 0.404830 0.580114 0.465512
Si Si6 0.101560 0.075616 0.009452
Si Si7 0.597480 0.078712 0.771950
Si Si8 0.214242 0.426717 0.571333
O O1 0.197152 0.750000 0.979510
O O2 0.313293 0.524247 0.718446
O O3 0.129577 0.499945 0.059897
O O4 0.193233 0.520519 0.119826
O O5 0.874620 0.250000 0.419391
O O6 0.827877 0.486761 0.631626
O O7 0.853604 0.511736 0.377030
O O8 0.995454 0.472335 0.202025
O O9 0.238213 0.750000 0.138890
O O10 0.343647 0.985883 0.932789
O O11 0.545993 0.250000 0.318439
O O12 0.500000 0.000000 0.500000
O O13 0.493631 0.023736 0.310487
O O14 0.429929 0.750000 0.443090
O O15 0.381493 0.563124 0.393269
O O16 0.108791 0.250000 0.012272
O O17 0.170309 0.024017 0.773393
O O18 0.592784 0.250000 0.817838
O O19 0.682116 0.998084 0.658007
O O20 0.500000 0.000000 0.000000
O O21 0.222119 0.250000 0.545409
#
# Coordination Sequence:
#
# PCOD8072641 Si02
#       8
#     4   4   4   4   4   4   4   4
#     4  10  19  37  62  85 116 155 196 240 291 355
#     4  10  22  41  62  85 117 158 197 245 304 356
#     4   9  20  38  58  84 117 154 194 236 292 355
#     4  11  21  35  57  84 115 154 196 238 284 346
#     4  10  21  38  58  84 116 153 197 240 287 351
#     4  10  22  39  61  89 118 149 197 251 300 354
#     4  11  24  41  61  88 121 158 195 239 296 355
#     4  11  23  40  61  89 121 155 199 248 293 352
#
# _framework density 19.712350000000001
#
# number of rings (size 3 to 8) (size 9 to 14) (size 15 to 20)
#    0.000    1.750    2.500    1.500    1.750    3.000 
#    0.000    1.250    0.000    0.000    0.000    0.000 
#    0.000    0.000    0.000    0.000    0.000    0.000 
#
# Total GULP energy -396912.356231 kJ/mol
# GULP energy per Si atom -12403.511132 kJ/mol
# Density = 1.966748 g / cm^3
# Si number density = 19.712350 Si / 1000 Ang^3
#
#
#
# Elastic Constant Matrix: (Units=GPa)
#
#
# Indices 1 2 3 4 5 6 
#
# 1 129.9294 45.7915 32.8517 0.0000 -21.3542 0.0000
# 2 45.7915 64.7023 36.1028 0.0000 -11.5126 0.0000
# 3 32.8517 36.1028 92.0861 0.0000 -21.0705 0.0000
# 4 0.0000 0.0000 0.0000 24.2483 0.0000 -3.7062
# 5 -21.3542 -11.5126 -21.0705 0.0000 32.8914 0.0000
# 6 0.0000 0.0000 0.0000 -3.7062 0.0000 39.3700
#
#
#
# Elastic Compliance Matrix: (Units=1/GPa)
#
#
# Indices 1 2 3 4 5 6 
#
# 1 0.010887 -0.006794 -0.000172 0.000000 0.004580 0.000000
# 2 -0.006794 0.024171 -0.007178 0.000000 -0.000549 0.000000
# 3 -0.000172 -0.007178 0.015391 0.000000 0.007235 0.000000
# 4 0.000000 0.000000 0.000000 0.041842 0.000000 0.003939
# 5 0.004580 -0.000549 0.007235 0.000000 0.037819 0.000000
# 6 0.000000 0.000000 0.000000 0.003939 0.000000 0.025771
#
#
# Mechanical properties :
#
#
# Convention : Reuss Voigt Hill
#
# Bulk Modulus (GPa) = 45.12714 57.35664 51.24189
# Shear Modulus (GPa) = 26.10181 30.76674 28.43427
#
# Velocity S-wave (km/s) = 3.64281 3.95496 3.80209
# Velocity P-wave (km/s) = 6.37464 7.07217 6.73244
#
# Compressibility (1/GPa) = 0.02215961
#
# Stress axis : x y z
#
# Youngs Moduli (GPa) = 91.85044 41.37108 64.97436
#
# Poissons Ratio (x) = 0.28108 0.01120
# Poissons Ratio (y) = 0.62404 0.46641
# Poissons Ratio (z) = 0.01584 0.29698
#
# Static dielectric constant tensor:
#      x y z
#    x 3.761800 0.000000 0.046090 
#    y 0.000000 3.559520 0.000000 
#    z 0.046090 0.000000 3.776330 
# 
# 
# High freq. dielectric constant tensor:
#      x y z
#    x 1.782620 0.000000 -0.001570 
#    y 0.000000 1.752220 0.000000 
#    z -0.001570 0.000000 1.771380 
# 
# From -- ./inp_files/38228.got.cif
#   From: 2010.06.25/outbox.cif.g09.slc.cpg/sg11_20_cif.got.tgz:38228.got - 2010.06.27 23:14:04.
