data_PCOD8072004
_publ_section_title
;
Structure prediction by ZEFSAII (Michael W. Deem and Ramdas Pophale) SiO2 
 PCOD8072004
Probable space group: P 21/M
;
_chemical_formula_sum "Si O2"
_cell_formula_units_Z 28
_cell_length_a 5.222734
_cell_length_b 21.235916
_cell_length_c 12.922086
_cell_angle_alpha 90.000000
_cell_angle_beta 101.657394
_cell_angle_gamma 90.000000
_cell_volume 1403.620844
_symmetry_space_group_name_H-M "P 21/M"
_symmetry_group_IT_number 11
_symmetry_cell_setting 'monoclinic'
loop_
_space_group_symop_operation_xyz
x,y,z
-x,1/2+y,-z
-x,-y,-z
x,1/2-y,z
loop_
_atom_site_type_symbol
_atom_site_label
_atom_site_fract_x
_atom_site_fract_y
_atom_site_fract_z
Si Si1 0.267453 0.750000 0.473010
Si Si2 0.972534 0.931880 0.946163
Si Si3 0.614280 0.612540 0.274703
Si Si4 0.310190 0.876977 0.599285
Si Si5 0.698439 0.750000 0.334122
Si Si6 0.168711 0.939084 0.384193
Si Si7 0.481691 0.072324 0.962357
Si Si8 0.139240 0.423238 0.300559
O O1 0.265835 0.809619 0.546381
O O2 0.527699 0.750000 0.424726
O O3 0.006321 0.750000 0.383251
O O4 0.908271 0.940180 0.821763
O O5 0.744080 0.894231 0.987997
O O6 0.242970 0.894207 0.987845
O O7 0.000000 0.000000 0.000000
O O8 0.631256 0.687986 0.261491
O O9 0.362731 0.598212 0.324107
O O10 0.583287 0.577203 0.163562
O O11 0.875507 0.587296 0.350099
O O12 0.260526 0.930446 0.509427
O O13 0.602332 0.881215 0.667449
O O14 0.108242 0.885227 0.676811
O O15 0.178988 0.012710 0.365628
O O16 0.500000 0.000000 0.000000
#
# Coordination Sequence:
#
# PCOD8072004 Si02
#       8
#     2   4   4   4   2   4   4   4
#     4  12  24  46  66  83 130 173 224 248 306 370
#     4  10  20  37  58  85 119 158 201 250 304 379
#     4  12  22  37  65  92 127 169 213 262 319 377
#     4  12  24  41  62  91 126 172 206 263 300 380
#     4  12  22  42  62  93 122 167 224 260 300 384
#     4  12  22  39  59  95 133 165 193 260 325 381
#     4  10  19  34  56  88 119 159 204 253 317 376
#     4  12  24  39  63  96 127 161 210 256 323 378
#
# _framework density 19.948405999999999
#
# number of rings (size 3 to 8) (size 9 to 14) (size 15 to 20)
#    0.000    0.571    2.857    8.571    0.000    0.000 
#    0.000    0.000    0.000    5.143    0.000    0.000 
#    0.000    0.000    0.000    0.000    0.000    0.000 
#
# Total GULP energy -347239.788297 kJ/mol
# GULP energy per Si atom -12401.421011 kJ/mol
# Density = 1.990300 g / cm^3
# Si number density = 19.948406 Si / 1000 Ang^3
#
#
#
# Elastic Constant Matrix: (Units=GPa)
#
#
# Indices 1 2 3 4 5 6 
#
# 1 155.8848 7.1718 32.6130 0.0000 -3.7430 0.0000
# 2 7.1718 58.7570 5.6822 0.0000 5.5475 0.0000
# 3 32.6130 5.6822 116.2700 0.0000 -12.0452 0.0000
# 4 0.0000 0.0000 0.0000 32.2898 0.0000 7.0761
# 5 -3.7430 5.5475 -12.0452 0.0000 25.1224 0.0000
# 6 0.0000 0.0000 0.0000 7.0761 0.0000 22.1993
#
#
#
# Elastic Compliance Matrix: (Units=1/GPa)
#
#
# Indices 1 2 3 4 5 6 
#
# 1 0.006842 -0.000682 -0.001857 0.000000 0.000280 0.000000
# 2 -0.000682 0.017642 -0.001142 0.000000 -0.004545 0.000000
# 3 -0.001857 -0.001142 0.009654 0.000000 0.004604 0.000000
# 4 0.000000 0.000000 0.000000 0.033295 0.000000 -0.010613
# 5 0.000280 -0.004545 0.004604 0.000000 0.043058 0.000000
# 6 0.000000 0.000000 0.000000 -0.010613 0.000000 0.048429
#
#
# Mechanical properties :
#
#
# Convention : Reuss Voigt Hill
#
# Bulk Modulus (GPa) = 37.34537 46.87175 42.10856
# Shear Modulus (GPa) = 28.53770 34.95195 31.74482
#
# Velocity S-wave (km/s) = 3.78640 4.19037 3.99350
# Velocity P-wave (km/s) = 6.15446 6.85272 6.51295
#
# Compressibility (1/GPa) = 0.02677708
#
# Stress axis : x y z
#
# Youngs Moduli (GPa) = 146.16624 56.68299 103.58128
#
# Poissons Ratio (x) = 0.03865 0.19232
# Poissons Ratio (y) = 0.09967 0.11826
# Poissons Ratio (z) = 0.27139 0.06472
#
# Static dielectric constant tensor:
#      x y z
#    x -0.128220 0.000000 -0.144860 
#    y 0.000000 3.425480 0.000000 
#    z -0.144860 0.000000 3.551880 
# 
# 
# High freq. dielectric constant tensor:
#      x y z
#    x 1.818150 0.000000 0.001180 
#    y 0.000000 1.741950 0.000000 
#    z 0.001180 0.000000 1.776410 
# 
# From -- ./inp_files/30030.got.cif
#   From: 2010.06.25/outbox.cif.g09.slc.cpg/sg11_16_cif.got.tgz:30030.got - 2010.06.27 23:14:04.
