data_PCOD8072963
_publ_section_title
;
Structure prediction by ZEFSAII (Michael W. Deem and Ramdas Pophale) SiO2 
 PCOD8072963
Probable space group: P 21/M
;
_chemical_formula_sum "Si O2"
_cell_formula_units_Z 32
_cell_length_a 14.823893
_cell_length_b 9.061008
_cell_length_c 30.449216
_cell_angle_alpha 90.000000
_cell_angle_beta 28.993549
_cell_angle_gamma 90.000000
_cell_volume 1982.430195
_symmetry_space_group_name_H-M "P 21/M"
_symmetry_group_IT_number 11
_symmetry_cell_setting 'monoclinic'
loop_
_space_group_symop_operation_xyz
x,y,z
-x,1/2+y,-z
-x,-y,-z
x,1/2-y,z
loop_
_atom_site_type_symbol
_atom_site_label
_atom_site_fract_x
_atom_site_fract_y
_atom_site_fract_z
Si Si1 0.946672 0.080428 0.919072
Si Si2 0.272877 0.921859 0.398303
Si Si3 0.276573 0.421081 0.054161
Si Si4 0.367857 0.922470 0.876519
Si Si5 0.268170 0.575691 0.240843
Si Si6 0.658577 0.578782 0.874994
Si Si7 0.981420 0.077968 0.573538
Si Si8 0.327488 0.077855 0.802823
O O1 0.931021 0.250000 0.911057
O O2 0.154045 0.040973 0.845772
O O3 0.903047 0.978027 0.895606
O O4 0.806996 0.044728 0.018044
O O5 0.247038 0.750000 0.416521
O O6 0.488770 0.965693 0.302883
O O7 0.171886 0.975037 0.396640
O O8 0.178920 0.999913 0.480387
O O9 0.315946 0.250000 0.027412
O O10 0.241530 0.446455 0.120868
O O11 0.450846 0.515375 0.963492
O O12 0.415793 0.750000 0.853886
O O13 0.543935 0.009527 0.819634
O O14 0.311898 0.979885 0.852658
O O15 0.294551 0.750000 0.225596
O O16 0.223128 0.505745 0.212500
O O17 0.094754 0.535258 0.346011
O O18 0.644076 0.750000 0.868767
O O19 0.016176 0.250000 0.554688
O O20 0.332695 0.250000 0.814429
#
# Coordination Sequence:
#
# PCOD8072963 Si02
#       8
#     4   4   4   4   4   4   4   4
#     4  10  21  34  49  69  97 131 168 205 237 278
#     4   9  17  31  48  67  92 125 161 197 239 284
#     4  10  20  33  50  70  96 129 161 199 242 283
#     4  11  21  31  45  70  99 131 169 202 231 276
#     4  11  20  32  50  72  98 131 160 193 243 292
#     4  10  20  33  49  72  98 124 161 201 239 286
#     4   9  18  31  47  69  95 122 157 197 240 289
#     4  10  20  35  50  67  96 133 168 202 239 282
#
# _framework density 16.141802999999999
#
# number of rings (size 3 to 8) (size 9 to 14) (size 15 to 20)
#    0.000    2.000    2.500    1.875    0.000    4.000 
#    0.000    0.000    0.000    0.000    0.000    0.875 
#    0.000    0.000    0.000    0.000    0.000    0.000 
#
# Total GULP energy -396860.443373 kJ/mol
# GULP energy per Si atom -12401.888855 kJ/mol
# Density = 1.610506 g / cm^3
# Si number density = 16.141803 Si / 1000 Ang^3
#
#
#
# Elastic Constant Matrix: (Units=GPa)
#
#
# Indices 1 2 3 4 5 6 
#
# 1 92.8304 51.3134 64.9136 0.0000 9.8131 0.0000
# 2 51.3134 78.9773 54.7454 0.0000 10.1133 0.0000
# 3 64.9136 54.7454 109.5238 0.0000 7.1287 0.0000
# 4 0.0000 0.0000 0.0000 26.2203 0.0000 4.1111
# 5 9.8131 10.1133 7.1287 0.0000 21.8952 0.0000
# 6 0.0000 0.0000 0.0000 4.1111 0.0000 28.3061
#
#
#
# Elastic Compliance Matrix: (Units=1/GPa)
#
#
# Indices 1 2 3 4 5 6 
#
# 1 0.021292 -0.007364 -0.008724 0.000000 -0.003301 0.000000
# 2 -0.007364 0.022704 -0.006657 0.000000 -0.005019 0.000000
# 3 -0.008724 -0.006657 0.017546 0.000000 0.001272 0.000000
# 4 0.000000 0.000000 0.000000 0.039027 0.000000 -0.005668
# 5 -0.003301 -0.005019 0.001272 0.000000 0.049055 0.000000
# 6 0.000000 0.000000 0.000000 -0.005668 0.000000 0.036151
#
#
# Mechanical properties :
#
#
# Convention : Reuss Voigt Hill
#
# Bulk Modulus (GPa) = 62.29968 69.25294 65.77631
# Shear Modulus (GPa) = 21.13122 22.64160 21.88641
#
# Velocity S-wave (km/s) = 3.62207 3.74928 3.68623
# Velocity P-wave (km/s) = 7.49477 7.85741 7.67823
#
# Compressibility (1/GPa) = 0.01605145
#
# Stress axis : x y z
#
# Youngs Moduli (GPa) = 46.96534 44.04540 56.99384
#
# Poissons Ratio (x) = 0.32436 0.49721
# Poissons Ratio (y) = 0.34586 0.37942
# Poissons Ratio (z) = 0.40972 0.29322
#
# Static dielectric constant tensor:
#      x y z
#    x 3.041080 0.000000 0.161010 
#    y 0.000000 3.141970 0.000000 
#    z 0.161010 0.000000 3.114270 
# 
# 
# High freq. dielectric constant tensor:
#      x y z
#    x 1.600970 0.000000 0.012370 
#    y 0.000000 1.630820 0.000000 
#    z 0.012370 0.000000 1.608280 
# 
# From -- ./inp_files/51239.got.cif
#   From: 2010.06.25/outbox.cif.g09.slc.cpg/sg11_26_cif.got.tgz:51239.got - 2010.06.27 23:14:04.
