data_PCOD8072645
_publ_section_title
;
Structure prediction by ZEFSAII (Michael W. Deem and Ramdas Pophale) SiO2 
 PCOD8072645
Probable space group: P 21/M
;
_chemical_formula_sum "Si O2"
_cell_formula_units_Z 28
_cell_length_a 26.337192
_cell_length_b 8.669588
_cell_length_c 10.069001
_cell_angle_alpha 90.000000
_cell_angle_beta 38.193303
_cell_angle_gamma 90.000000
_cell_volume 1421.559934
_symmetry_space_group_name_H-M "P 21/M"
_symmetry_group_IT_number 11
_symmetry_cell_setting 'monoclinic'
loop_
_space_group_symop_operation_xyz
x,y,z
-x,1/2+y,-z
-x,-y,-z
x,1/2-y,z
loop_
_atom_site_type_symbol
_atom_site_label
_atom_site_fract_x
_atom_site_fract_y
_atom_site_fract_z
Si Si1 0.059384 0.430605 0.768614
Si Si2 0.775396 0.072090 0.481108
Si Si3 0.756109 0.433611 0.972159
Si Si4 0.518033 0.568001 0.819943
Si Si5 0.354563 0.930574 0.033346
Si Si6 0.311229 0.929675 0.609610
Si Si7 0.936938 0.433182 0.524601
O O1 0.043512 0.250000 0.788406
O O2 0.152258 0.461621 0.621490
O O3 0.038768 0.508336 0.670744
O O4 0.000000 0.500000 0.000000
O O5 0.801976 0.250000 0.448661
O O6 0.695563 0.030262 0.730534
O O7 0.753966 0.038327 0.372539
O O8 0.756984 0.250000 0.964413
O O9 0.690220 0.504522 0.002968
O O10 0.846259 0.495142 0.748863
O O11 0.731226 0.491256 0.169282
O O12 0.512466 0.750000 0.845417
O O13 0.605244 0.521251 0.583173
O O14 0.500000 0.500000 0.000000
O O15 0.447178 0.506986 0.863986
O O16 0.357079 0.750000 0.003834
O O17 0.333869 0.750000 0.570425
O O18 0.940717 0.250000 0.519351
O O19 0.000000 0.500000 0.500000
#
# Coordination Sequence:
#
# PCOD8072645 Si02
#       7
#     4   4   4   4   4   4   4
#     4  12  26  43  64  94 126 162 207 260 314 372
#     4  10  19  37  62  86 118 158 200 248 303 365
#     4   9  19  37  61  85 115 158 201 237 295 368
#     4  11  21  35  57  86 118 155 199 251 302 354
#     4   9  17  34  59  83 113 156 198 240 298 358
#     4  10  21  37  59  88 119 157 198 243 300 366
#     4  11  23  42  66  94 126 167 208 254 308 372
#
# _framework density 19.696672
#
# number of rings (size 3 to 8) (size 9 to 14) (size 15 to 20)
#    0.000    1.714    2.857    2.143    2.000    1.143 
#    0.000    1.429    0.000    0.000    0.000    0.000 
#    0.000    0.000    0.000    0.000    0.000    0.000 
#
# Total GULP energy -347229.964468 kJ/mol
# GULP energy per Si atom -12401.070160 kJ/mol
# Density = 1.965184 g / cm^3
# Si number density = 19.696672 Si / 1000 Ang^3
#
#
#
# Elastic Constant Matrix: (Units=GPa)
#
#
# Indices 1 2 3 4 5 6 
#
# 1 160.6299 40.6873 64.5065 0.0000 11.2612 0.0000
# 2 40.6873 65.9836 31.0959 0.0000 -0.8324 0.0000
# 3 64.5065 31.0959 114.1726 0.0000 17.3305 0.0000
# 4 0.0000 0.0000 0.0000 27.2765 0.0000 -4.4799
# 5 11.2612 -0.8324 17.3305 0.0000 40.6326 0.0000
# 6 0.0000 0.0000 0.0000 -4.4799 0.0000 29.9618
#
#
#
# Elastic Compliance Matrix: (Units=1/GPa)
#
#
# Indices 1 2 3 4 5 6 
#
# 1 0.008732 -0.003593 -0.003824 0.000000 -0.000863 0.000000
# 2 -0.003593 0.019114 -0.003621 0.000000 0.002932 0.000000
# 3 -0.003824 -0.003621 0.012569 0.000000 -0.004375 0.000000
# 4 0.000000 0.000000 0.000000 0.037585 0.000000 0.005620
# 5 -0.000863 0.002932 -0.004375 0.000000 0.026776 0.000000
# 6 0.000000 0.000000 0.000000 0.005620 0.000000 0.034216
#
#
# Mechanical properties :
#
#
# Convention : Reuss Voigt Hill
#
# Bulk Modulus (GPa) = 54.52598 68.15170 61.33884
# Shear Modulus (GPa) = 29.90773 33.20727 31.55750
#
# Velocity S-wave (km/s) = 3.90091 4.11047 4.00706
# Velocity P-wave (km/s) = 6.93054 7.56331 7.25383
#
# Compressibility (1/GPa) = 0.01833988
#
# Stress axis : x y z
#
# Youngs Moduli (GPa) = 114.52602 52.31701 79.55821
#
# Poissons Ratio (x) = 0.18798 0.30421
# Poissons Ratio (y) = 0.41150 0.28807
# Poissons Ratio (z) = 0.43792 0.18944
#
# Static dielectric constant tensor:
#      x y z
#    x 4.099440 0.000000 -0.104230 
#    y 0.000000 3.369220 0.000000 
#    z -0.104230 0.000000 3.933940 
# 
# 
# High freq. dielectric constant tensor:
#      x y z
#    x 1.787640 0.000000 0.001060 
#    y 0.000000 1.738430 0.000000 
#    z 0.001060 0.000000 1.772700 
# 
# From -- ./inp_files/28376.got.cif
#   From: 2010.06.25/outbox.cif.g09.slc.cpg/sg11_15_cif.got.tgz:28376.got - 2010.06.27 23:14:04.
