data_PCOD8072626
_publ_section_title
;
Structure prediction by ZEFSAII (Michael W. Deem and Ramdas Pophale) SiO2 
 PCOD8072626
Probable space group: P 21/M
;
_chemical_formula_sum "Si O2"
_cell_formula_units_Z 32
_cell_length_a 19.746338
_cell_length_b 13.687523
_cell_length_c 13.964248
_cell_angle_alpha 90.000000
_cell_angle_beta 155.860855
_cell_angle_gamma 90.000000
_cell_volume 1543.488738
_symmetry_space_group_name_H-M "P 21/M"
_symmetry_group_IT_number 11
_symmetry_cell_setting 'monoclinic'
loop_
_space_group_symop_operation_xyz
x,y,z
-x,1/2+y,-z
-x,-y,-z
x,1/2-y,z
loop_
_atom_site_type_symbol
_atom_site_label
_atom_site_fract_x
_atom_site_fract_y
_atom_site_fract_z
Si Si1 0.670472 0.860663 0.820341
Si Si2 0.792320 0.359276 0.059223
Si Si3 0.499679 0.858303 0.181419
Si Si4 0.234093 0.956470 0.712868
Si Si5 0.849235 0.030729 0.952048
Si Si6 0.300167 0.862804 0.407288
Si Si7 0.770796 0.010060 0.514672
Si Si8 0.871690 0.559101 0.250557
O O1 0.699269 0.750000 0.822356
O O2 0.479143 0.881974 0.592759
O O3 0.741087 0.932923 0.830614
O O4 0.763767 0.875218 0.041534
O O5 0.867822 0.250000 0.174399
O O6 0.605006 0.363215 0.855915
O O7 0.785138 0.381344 0.937018
O O8 0.895088 0.446278 0.242657
O O9 0.559659 0.750000 0.234810
O O10 0.664355 0.919121 0.413607
O O11 0.386778 0.892507 0.946712
O O12 0.270219 0.980222 0.649946
O O13 0.058397 0.898115 0.496015
O O14 0.216853 0.053123 0.759368
O O15 0.828802 0.068947 0.817546
O O16 0.037816 0.007484 0.219160
O O17 0.248645 0.750000 0.334871
O O18 0.290109 0.894641 0.505478
#
# Coordination Sequence:
#
# PCOD8072626 Si02
#       8
#     4   4   4   4   4   4   4   4
#     4  10  21  40  65  94 122 156 207 256 306 367
#     4   9  17  35  60  85 116 154 199 249 300 358
#     4  10  23  38  59  91 125 163 201 245 305 372
#     4  10  19  37  61  84 122 162 203 246 300 365
#     4  11  22  41  65  91 119 162 205 263 308 358
#     4  11  25  42  63  90 123 164 207 256 313 371
#     4  12  23  41  61  87 128 164 202 252 311 369
#     4   9  18  36  60  91 120 152 198 255 308 355
#
# _framework density 20.732254000000001
#
# number of rings (size 3 to 8) (size 9 to 14) (size 15 to 20)
#    0.000    1.750    2.500    3.750    0.000    2.500 
#    0.000    5.625    0.000    0.750    0.000    0.000 
#    0.000    0.000    0.000    0.000    0.000    0.000 
#
# Total GULP energy -396663.252193 kJ/mol
# GULP energy per Si atom -12395.726631 kJ/mol
# Density = 2.068507 g / cm^3
# Si number density = 20.732254 Si / 1000 Ang^3
#
#
#
# Elastic Constant Matrix: (Units=GPa)
#
#
# Indices 1 2 3 4 5 6 
#
# 1 94.5838 41.8552 10.3551 0.0000 -3.2611 0.0000
# 2 41.8552 115.5863 38.9490 0.0000 13.5964 0.0000
# 3 10.3551 38.9490 50.4161 0.0000 7.8962 0.0000
# 4 0.0000 0.0000 0.0000 19.2502 0.0000 -0.9442
# 5 -3.2611 13.5964 7.8962 0.0000 26.7369 0.0000
# 6 0.0000 0.0000 0.0000 -0.9442 0.0000 16.4637
#
#
#
# Elastic Compliance Matrix: (Units=1/GPa)
#
#
# Indices 1 2 3 4 5 6 
#
# 1 0.013060 -0.005534 0.000946 0.000000 0.004127 0.000000
# 2 -0.005534 0.014350 -0.009123 0.000000 -0.005278 0.000000
# 3 0.000946 -0.009123 0.027202 0.000000 -0.003279 0.000000
# 4 0.000000 0.000000 0.000000 0.052094 0.000000 0.002988
# 5 0.004127 -0.005278 -0.003279 0.000000 0.041557 0.000000
# 6 0.000000 0.000000 0.000000 0.002988 0.000000 0.060911
#
#
# Mechanical properties :
#
#
# Convention : Reuss Voigt Hill
#
# Bulk Modulus (GPa) = 36.77633 49.21164 42.99398
# Shear Modulus (GPa) = 20.35331 23.78529 22.06930
#
# Velocity S-wave (km/s) = 3.13664 3.39080 3.26619
# Velocity P-wave (km/s) = 5.55835 6.25446 5.91665
#
# Compressibility (1/GPa) = 0.02719141
#
# Stress axis : x y z
#
# Youngs Moduli (GPa) = 76.56933 69.68450 36.76156
#
# Poissons Ratio (x) = 0.38560 -0.03478
# Poissons Ratio (y) = 0.42370 0.33538
# Poissons Ratio (z) = -0.07244 0.63575
#
# Static dielectric constant tensor:
#      x y z
#    x 3.977290 0.000000 -0.017640 
#    y 0.000000 3.696390 0.000000 
#    z -0.017640 0.000000 3.661300 
# 
# 
# High freq. dielectric constant tensor:
#      x y z
#    x 1.815430 0.000000 -0.000700 
#    y 0.000000 1.792700 0.000000 
#    z -0.000700 0.000000 1.811760 
# 
# From -- ./inp_files/55032.got.cif
#   From: 2010.06.25/outbox.cif.g09.slc.cpg/sg11_28_cif.got.tgz:55032.got - 2010.06.27 23:14:04.
