data_PCOD8072995
_publ_section_title
;
Structure prediction by ZEFSAII (Michael W. Deem and Ramdas Pophale) SiO2 
 PCOD8072995
Probable space group: P 21/M
;
_chemical_formula_sum "Si O2"
_cell_formula_units_Z 24
_cell_length_a 23.578617
_cell_length_b 8.716669
_cell_length_c 13.654245
_cell_angle_alpha 90.000000
_cell_angle_beta 150.450741
_cell_angle_gamma 90.000000
_cell_volume 1383.995498
_symmetry_space_group_name_H-M "P 21/M"
_symmetry_group_IT_number 11
_symmetry_cell_setting 'monoclinic'
loop_
_space_group_symop_operation_xyz
x,y,z
-x,1/2+y,-z
-x,-y,-z
x,1/2-y,z
loop_
_atom_site_type_symbol
_atom_site_label
_atom_site_fract_x
_atom_site_fract_y
_atom_site_fract_z
Si Si1 0.369531 0.572318 0.402207
Si Si2 0.178362 0.428713 0.237003
Si Si3 0.828917 0.071920 0.219234
Si Si4 0.633843 0.572699 0.807703
Si Si5 0.951674 0.927903 0.577872
Si Si6 0.052071 0.571362 0.219212
O O1 0.351528 0.750000 0.349761
O O2 0.290781 0.522557 0.374339
O O3 0.500611 0.538449 0.629060
O O4 0.333436 0.475267 0.253156
O O5 0.207229 0.250000 0.277896
O O6 0.145956 0.477443 0.298273
O O7 0.075288 0.473001 0.008543
O O8 0.831556 0.250000 0.251354
O O9 0.923711 0.033215 0.279442
O O10 0.853225 0.973866 0.352947
O O11 0.704726 0.026203 0.992016
O O12 0.665669 0.750000 0.868625
O O13 0.939834 0.750000 0.587070
O O14 0.934578 0.028748 0.648140
O O15 0.076010 0.750000 0.239348
#
# Coordination Sequence:
#
# PCOD8072995 Si02
#       6
#     4   4   4   4   4   4
#     4  10  20  33  50  73 101 132 165 202 244 290
#     4  10  20  33  51  74 100 131 165 202 244 290
#     4  10  20  33  51  74 100 131 165 202 244 290
#     4  10  20  33  50  73 101 132 165 202 244 290
#     4  10  20  33  50  73 101 131 164 202 244 291
#     4  10  20  33  50  73 101 131 164 202 244 291
#
# _framework density 17.341097000000001
#
# number of rings (size 3 to 8) (size 9 to 14) (size 15 to 20)
#    0.000    2.000    0.000    4.000    0.000    8.667 
#    0.000    0.000    0.000    1.000    0.000    0.000 
#    0.000    0.000    0.000    0.000    0.000    0.000 
#
# Total GULP energy -297748.243751 kJ/mol
# GULP energy per Si atom -12406.176823 kJ/mol
# Density = 1.730163 g / cm^3
# Si number density = 17.341097 Si / 1000 Ang^3
#
#
#
# Elastic Constant Matrix: (Units=GPa)
#
#
# Indices 1 2 3 4 5 6 
#
# 1 91.9615 23.8039 36.1927 0.0000 0.6154 0.0000
# 2 23.8039 47.3500 24.8728 0.0000 5.9991 0.0000
# 3 36.1927 24.8728 82.9857 0.0000 -2.6709 0.0000
# 4 0.0000 0.0000 0.0000 30.8271 0.0000 -2.6016
# 5 0.6154 5.9991 -2.6709 0.0000 21.5918 0.0000
# 6 0.0000 0.0000 0.0000 -2.6016 0.0000 32.3721
#
#
#
# Elastic Compliance Matrix: (Units=1/GPa)
#
#
# Indices 1 2 3 4 5 6 
#
# 1 0.013897 -0.004563 -0.004684 0.000000 0.000292 0.000000
# 2 -0.004563 0.027992 -0.006672 0.000000 -0.008473 0.000000
# 3 -0.004684 -0.006672 0.016221 0.000000 0.003994 0.000000
# 4 0.000000 0.000000 0.000000 0.032661 0.000000 0.002625
# 5 0.000292 -0.008473 0.003994 0.000000 0.049154 0.000000
# 6 0.000000 0.000000 0.000000 0.002625 0.000000 0.031102
#
#
# Mechanical properties :
#
#
# Convention : Reuss Voigt Hill
#
# Bulk Modulus (GPa) = 38.06390 43.55955 40.81172
# Shear Modulus (GPa) = 23.62718 26.12005 24.87361
#
# Velocity S-wave (km/s) = 3.69520 3.88526 3.79142
# Velocity P-wave (km/s) = 6.34065 6.73058 6.53852
#
# Compressibility (1/GPa) = 0.02627161
#
# Stress axis : x y z
#
# Youngs Moduli (GPa) = 71.96023 35.72504 61.64677
#
# Poissons Ratio (x) = 0.16301 0.28874
# Poissons Ratio (y) = 0.32834 0.41134
# Poissons Ratio (z) = 0.33704 0.23837
#
# Static dielectric constant tensor:
#      x y z
#    x 3.094370 0.000000 0.036730 
#    y 0.000000 3.297830 0.000000 
#    z 0.036730 0.000000 3.107460 
# 
# 
# High freq. dielectric constant tensor:
#      x y z
#    x 1.658390 0.000000 -0.000980 
#    y 0.000000 1.687880 0.000000 
#    z -0.000980 0.000000 1.656280 
# 
# From -- ./inp_files/43881.got.cif
#   From: 2010.06.25/outbox.cif.g09.slc.cpg/sg11_22_cif.got.tgz:43881.got - 2010.06.27 23:14:04.
