data_PCOD8072774
_publ_section_title
;
Structure prediction by ZEFSAII (Michael W. Deem and Ramdas Pophale) SiO2 
 PCOD8072774
Probable space group: P 21/M
;
_chemical_formula_sum "Si O2"
_cell_formula_units_Z 24
_cell_length_a 10.598371
_cell_length_b 15.086731
_cell_length_c 16.985079
_cell_angle_alpha 90.000000
_cell_angle_beta 150.299943
_cell_angle_gamma 90.000000
_cell_volume 1345.581553
_symmetry_space_group_name_H-M "P 21/M"
_symmetry_group_IT_number 11
_symmetry_cell_setting 'monoclinic'
loop_
_space_group_symop_operation_xyz
x,y,z
-x,1/2+y,-z
-x,-y,-z
x,1/2-y,z
loop_
_atom_site_type_symbol
_atom_site_label
_atom_site_fract_x
_atom_site_fract_y
_atom_site_fract_z
Si Si1 0.073569 0.492518 0.912173
Si Si2 0.357744 0.652281 0.006412
Si Si3 0.589394 0.992508 0.750789
Si Si4 0.835413 0.146764 0.503198
Si Si5 0.303779 0.152281 0.655088
Si Si6 0.161178 0.353237 0.828984
O O1 0.785582 0.500021 0.785581
O O2 0.096844 0.404942 0.873154
O O3 0.136300 0.579288 0.893559
O O4 0.267894 0.483536 0.089293
O O5 0.235653 0.750000 0.925947
O O6 0.521434 0.655972 0.173812
O O7 0.546144 0.627416 0.036801
O O8 0.425757 0.904937 0.649484
O O9 0.408130 0.079288 0.650840
O O10 0.768228 0.250000 0.471218
O O11 0.972364 0.115321 0.657447
O O12 0.018142 0.127417 0.527457
O O13 0.306578 0.250000 0.616255
O O14 0.122762 0.250000 0.825770
#
# Coordination Sequence:
#
# PCOD8072774 Si02
#       6
#     4   4   4   4   4   4
#     4  10  20  31  47  74 102 127 155 191 239 288
#     4   8  15  30  50  69  92 125 163 199 236 281
#     4  10  20  31  47  74 102 127 155 191 239 288
#     4   9  18  33  52  70  90 124 166 201 235 277
#     4   8  15  30  50  69  92 125 163 199 236 281
#     4   9  18  33  52  70  90 124 166 201 235 277
#
# _framework density 17.836154000000001
#
# number of rings (size 3 to 8) (size 9 to 14) (size 15 to 20)
#    0.000    3.000    0.000    3.000    0.000    2.667 
#    0.000    3.333    0.000    3.000    0.000    0.000 
#    0.000    0.000    0.000    0.000    0.000    0.000 
#
# Total GULP energy -297551.316475 kJ/mol
# GULP energy per Si atom -12397.971520 kJ/mol
# Density = 1.779556 g / cm^3
# Si number density = 17.836154 Si / 1000 Ang^3
#
#
#
# Elastic Constant Matrix: (Units=GPa)
#
#
# Indices 1 2 3 4 5 6 
#
# 1 117.1842 75.7096 47.1999 0.0000 30.5992 0.0000
# 2 75.7096 106.4129 40.2914 0.0000 18.0521 0.0000
# 3 47.1999 40.2914 32.9660 0.0000 12.3083 0.0000
# 4 0.0000 0.0000 0.0000 27.1348 0.0000 -2.5783
# 5 30.5992 18.0521 12.3083 0.0000 14.2801 0.0000
# 6 0.0000 0.0000 0.0000 -2.5783 0.0000 22.0666
#
#
#
# Elastic Compliance Matrix: (Units=1/GPa)
#
#
# Indices 1 2 3 4 5 6 
#
# 1 0.034799 -0.008657 -0.022838 0.000000 -0.043937 0.000000
# 2 -0.008657 0.019937 -0.013990 0.000000 0.005406 0.000000
# 3 -0.022838 -0.013990 0.081478 0.000000 -0.003605 0.000000
# 4 0.000000 0.000000 0.000000 0.037267 0.000000 0.004354
# 5 -0.043937 0.005406 -0.003605 0.000000 0.160449 0.000000
# 6 0.000000 0.000000 0.000000 0.004354 0.000000 0.045826
#
#
# Mechanical properties :
#
#
# Convention : Reuss Voigt Hill
#
# Bulk Modulus (GPa) = 22.10311 64.77387 43.43849
# Shear Modulus (GPa) = 10.29215 18.92045 14.60630
#
# Velocity S-wave (km/s) = 2.40477 3.26051 2.86477
# Velocity P-wave (km/s) = 4.48662 7.11122 5.94555
#
# Compressibility (1/GPa) = 0.04524251
#
# Stress axis : x y z
#
# Youngs Moduli (GPa) = 28.73676 50.15876 12.27319
#
# Poissons Ratio (x) = 0.43424 0.28030
# Poissons Ratio (y) = 0.24878 0.17170
# Poissons Ratio (z) = 0.65630 0.70172
#
# Static dielectric constant tensor:
#      x y z
#    x 3.296160 0.000000 0.170300 
#    y 0.000000 3.539240 0.000000 
#    z 0.170300 0.000000 2.961350 
# 
# 
# High freq. dielectric constant tensor:
#      x y z
#    x 1.684360 0.000000 0.014560 
#    y 0.000000 1.701120 0.000000 
#    z 0.014560 0.000000 1.655740 
# 
# From -- ./inp_files/17544.got.cif
#   From: 2010.06.25/outbox.cif.g09.slc.cpg/sg11_9_cif.got.tgz:17544.got - 2010.06.27 23:14:04.
