data_PCOD8072360
_publ_section_title
;
Structure prediction by ZEFSAII (Michael W. Deem and Ramdas Pophale) SiO2 
 PCOD8072360
Probable space group: P 21/M
;
_chemical_formula_sum "Si O2"
_cell_formula_units_Z 32
_cell_length_a 15.453853
_cell_length_b 18.687069
_cell_length_c 9.754632
_cell_angle_alpha 90.000000
_cell_angle_beta 141.678256
_cell_angle_gamma 90.000000
_cell_volume 1746.764463
_symmetry_space_group_name_H-M "P 21/M"
_symmetry_group_IT_number 11
_symmetry_cell_setting 'monoclinic'
loop_
_space_group_symop_operation_xyz
x,y,z
-x,1/2+y,-z
-x,-y,-z
x,1/2-y,z
loop_
_atom_site_type_symbol
_atom_site_label
_atom_site_fract_x
_atom_site_fract_y
_atom_site_fract_z
Si Si1 0.465612 0.169393 0.595254
Si Si2 0.232827 0.331250 0.810438
Si Si3 0.639799 0.461679 0.829276
Si Si4 0.494961 0.330042 0.320707
Si Si5 0.199528 0.167462 0.449800
Si Si6 0.923744 0.977307 0.768937
Si Si7 0.649795 0.462627 0.529090
Si Si8 0.093503 0.468850 0.733162
O O1 0.512953 0.250000 0.683350
O O2 0.599021 0.121307 0.802425
O O3 0.426739 0.156169 0.386850
O O4 0.329584 0.149458 0.513461
O O5 0.184326 0.250000 0.782630
O O6 0.246815 0.343531 0.665234
O O7 0.121328 0.385198 0.738159
O O8 0.381831 0.347091 0.063923
O O9 0.693007 0.475750 0.740554
O O10 0.501997 0.506113 0.690894
O O11 0.762372 0.486112 0.082705
O O12 0.550886 0.250000 0.377128
O O13 0.632864 0.378466 0.474579
O O14 0.147580 0.250000 0.361508
O O15 0.078180 0.109085 0.262485
O O16 0.763536 0.003174 0.570924
O O17 0.005362 0.023123 0.759814
O O18 0.000000 0.000000 0.000000
O O19 0.000000 0.500000 0.500000
#
# Coordination Sequence:
#
# PCOD8072360 Si02
#       8
#     4   4   4   4   4   4   4   4
#     4   9  18  34  60  90 114 146 201 254 294 345
#     4  10  21  39  60  84 118 160 199 242 300 363
#     4  10  19  35  60  84 117 151 196 240 292 347
#     4   9  18  34  60  88 114 151 199 248 294 347
#     4  10  21  39  59  86 119 156 199 244 300 362
#     4  12  24  39  60  90 124 157 199 250 301 353
#     4  10  19  35  59  87 115 151 194 243 293 344
#     4  12  24  41  58  88 123 160 203 242 296 363
#
# _framework density 18.319586000000001
#
# number of rings (size 3 to 8) (size 9 to 14) (size 15 to 20)
#    0.000    1.750    5.000    0.000    1.750    0.000 
#    2.250    4.375    0.000    0.000    0.000    0.000 
#    0.000    0.000    0.000    0.000    0.000    0.000 
#
# Total GULP energy -396679.894667 kJ/mol
# GULP energy per Si atom -12396.246708 kJ/mol
# Density = 1.827789 g / cm^3
# Si number density = 18.319586 Si / 1000 Ang^3
#
#
#
# Elastic Constant Matrix: (Units=GPa)
#
#
# Indices 1 2 3 4 5 6 
#
# 1 72.2004 35.1272 25.6676 0.0000 -5.9843 0.0000
# 2 35.1272 122.9152 50.2670 0.0000 1.5960 0.0000
# 3 25.6676 50.2670 112.7044 0.0000 -8.3961 0.0000
# 4 0.0000 0.0000 0.0000 31.0736 0.0000 2.6909
# 5 -5.9843 1.5960 -8.3961 0.0000 22.2909 0.0000
# 6 0.0000 0.0000 0.0000 2.6909 0.0000 28.8362
#
#
#
# Elastic Compliance Matrix: (Units=1/GPa)
#
#
# Indices 1 2 3 4 5 6 
#
# 1 0.016822 -0.004187 -0.001651 0.000000 0.004194 0.000000
# 2 -0.004187 0.011125 -0.004271 0.000000 -0.003529 0.000000
# 3 -0.001651 -0.004271 0.011465 0.000000 0.004181 0.000000
# 4 0.000000 0.000000 0.000000 0.032444 0.000000 -0.003028
# 5 0.004194 -0.003529 0.004181 0.000000 0.047815 0.000000
# 6 0.000000 0.000000 0.000000 -0.003028 0.000000 0.034961
#
#
# Mechanical properties :
#
#
# Convention : Reuss Voigt Hill
#
# Bulk Modulus (GPa) = 52.10052 58.88262 55.49157
# Shear Modulus (GPa) = 27.58657 29.55735 28.57196
#
# Velocity S-wave (km/s) = 3.88474 4.02111 3.95351
# Velocity P-wave (km/s) = 6.97303 7.33286 7.15520
#
# Compressibility (1/GPa) = 0.01919366
#
# Stress axis : x y z
#
# Youngs Moduli (GPa) = 59.44641 89.89023 87.21966
#
# Poissons Ratio (x) = 0.37633 0.14404
# Poissons Ratio (y) = 0.24887 0.37253
# Poissons Ratio (z) = 0.09817 0.38393
#
# Static dielectric constant tensor:
#      x y z
#    x 3.310240 0.000000 -0.024950 
#    y 0.000000 3.964040 0.000000 
#    z -0.024950 0.000000 3.262590 
# 
# 
# High freq. dielectric constant tensor:
#      x y z
#    x 1.696300 0.000000 -0.011270 
#    y 0.000000 1.729830 0.000000 
#    z -0.011270 0.000000 1.695020 
# 
# From -- ./inp_files/23080.got.cif
#   From: 2010.06.25/outbox.cif.g09.slc.cpg/sg11_12_cif.got.tgz:23080.got - 2010.06.27 23:14:04.
