data_PCOD8072868
_publ_section_title
;
Structure prediction by ZEFSAII (Michael W. Deem and Ramdas Pophale) SiO2 
 PCOD8072868
Probable space group: P 21/M
;
_chemical_formula_sum "Si O2"
_cell_formula_units_Z 28
_cell_length_a 9.401415
_cell_length_b 8.788919
_cell_length_c 29.586812
_cell_angle_alpha 90.000000
_cell_angle_beta 37.515676
_cell_angle_gamma 90.000000
_cell_volume 1488.774062
_symmetry_space_group_name_H-M "P 21/M"
_symmetry_group_IT_number 11
_symmetry_cell_setting 'monoclinic'
loop_
_space_group_symop_operation_xyz
x,y,z
-x,1/2+y,-z
-x,-y,-z
x,1/2-y,z
loop_
_atom_site_type_symbol
_atom_site_label
_atom_site_fract_x
_atom_site_fract_y
_atom_site_fract_z
Si Si1 0.900177 0.929678 0.203037
Si Si2 0.254861 0.069265 0.933049
Si Si3 0.493447 0.571163 0.370047
Si Si4 0.171649 0.930154 0.369331
Si Si5 0.648705 0.929782 0.502152
Si Si6 0.421446 0.569117 0.066727
Si Si7 0.422008 0.431271 0.794667
O O1 0.907730 0.750000 0.196859
O O2 0.744112 0.974072 0.285649
O O3 0.783730 0.994117 0.186249
O O4 0.161614 0.993406 0.143175
O O5 0.234083 0.250000 0.937734
O O6 0.407233 0.011450 0.936927
O O7 0.380557 0.008659 0.855777
O O8 0.000000 0.000000 0.000000
O O9 0.480809 0.750000 0.384321
O O10 0.290271 0.521261 0.386596
O O11 0.467161 0.474471 0.421587
O O12 0.161612 0.750000 0.369768
O O13 0.328186 0.990119 0.287650
O O14 0.911360 0.998178 0.432565
O O15 0.651034 0.750000 0.496536
O O16 0.500000 0.000000 0.500000
O O17 0.425263 0.750000 0.062305
O O18 0.500000 0.500000 0.000000
O O19 0.420456 0.250000 0.794100
#
# Coordination Sequence:
#
# PCOD8072868 Si02
#       7
#     4   4   4   4   4   4   4
#     4   8  15  29  51  75  98 125 161 202 247 297
#     4  10  20  32  50  74 100 129 164 203 244 290
#     4   9  17  33  56  78  98 125 162 205 249 299
#     4   8  16  31  53  77  98 124 163 204 245 293
#     4  11  22  34  49  73 104 136 167 204 246 290
#     4  10  20  33  50  75 102 132 168 206 248 295
#     4   8  14  28  50  74  96 123 161 204 243 288
#
# _framework density 18.807421999999999
#
# number of rings (size 3 to 8) (size 9 to 14) (size 15 to 20)
#    0.000    2.857    0.000    3.429    0.000    2.857 
#    0.000    5.714    0.000    6.857    0.000    0.000 
#    0.000    0.000    0.000    0.000    0.000    0.000 
#
# Total GULP energy -347090.956104 kJ/mol
# GULP energy per Si atom -12396.105575 kJ/mol
# Density = 1.876462 g / cm^3
# Si number density = 18.807422 Si / 1000 Ang^3
#
#
#
# Elastic Constant Matrix: (Units=GPa)
#
#
# Indices 1 2 3 4 5 6 
#
# 1 164.4821 26.6901 111.6149 0.0000 -1.2541 0.0000
# 2 26.6901 23.3277 25.5166 0.0000 0.6548 0.0000
# 3 111.6149 25.5166 173.0294 0.0000 -2.4279 0.0000
# 4 0.0000 0.0000 0.0000 27.2452 0.0000 3.1427
# 5 -1.2541 0.6548 -2.4279 0.0000 40.5108 0.0000
# 6 0.0000 0.0000 0.0000 3.1427 0.0000 24.0168
#
#
#
# Elastic Compliance Matrix: (Units=1/GPa)
#
#
# Indices 1 2 3 4 5 6 
#
# 1 0.011477 -0.006004 -0.006517 0.000000 0.000062 0.000000
# 2 -0.006004 0.054320 -0.004156 0.000000 -0.001313 0.000000
# 3 -0.006517 -0.004156 0.010603 0.000000 0.000501 0.000000
# 4 0.000000 0.000000 0.000000 0.037266 0.000000 -0.004876
# 5 0.000062 -0.001313 0.000501 0.000000 0.024738 0.000000
# 6 0.000000 0.000000 0.000000 -0.004876 0.000000 0.042276
#
#
# Mechanical properties :
#
#
# Convention : Reuss Voigt Hill
#
# Bulk Modulus (GPa) = 23.23119 76.49807 49.86463
# Shear Modulus (GPa) = 21.89317 31.48908 26.69113
#
# Velocity S-wave (km/s) = 3.41555 4.09625 3.77129
# Velocity P-wave (km/s) = 5.28522 7.94576 6.74791
#
# Compressibility (1/GPa) = 0.04304558
#
# Stress axis : x y z
#
# Youngs Moduli (GPa) = 87.13295 18.40949 94.31249
#
# Poissons Ratio (x) = 0.11054 0.61462
# Poissons Ratio (y) = 0.52317 0.39194
# Poissons Ratio (z) = 0.56784 0.07651
#
# Static dielectric constant tensor:
#      x y z
#    x 3.855720 0.000000 -0.164150 
#    y 0.000000 2.941130 0.000000 
#    z -0.164150 0.000000 3.940580 
# 
# 
# High freq. dielectric constant tensor:
#      x y z
#    x 1.734400 0.000000 -0.001050 
#    y 0.000000 1.680060 0.000000 
#    z -0.001050 0.000000 1.748510 
# 
# From -- ./inp_files/26436.got.cif
#   From: 2010.06.25/outbox.cif.g09.slc.cpg/sg11_14_cif.got.tgz:26436.got - 2010.06.27 23:14:04.
