data_PCOD8072007
_publ_section_title
;
Structure prediction by ZEFSAII (Michael W. Deem and Ramdas Pophale) SiO2 
 PCOD8072007
Probable space group: P 21/M
;
_chemical_formula_sum "Si O2"
_cell_formula_units_Z 24
_cell_length_a 15.918905
_cell_length_b 18.391714
_cell_length_c 9.350232
_cell_angle_alpha 90.000000
_cell_angle_beta 28.120579
_cell_angle_gamma 90.000000
_cell_volume 1290.273135
_symmetry_space_group_name_H-M "P 21/M"
_symmetry_group_IT_number 11
_symmetry_cell_setting 'monoclinic'
loop_
_space_group_symop_operation_xyz
x,y,z
-x,1/2+y,-z
-x,-y,-z
x,1/2-y,z
loop_
_atom_site_type_symbol
_atom_site_label
_atom_site_fract_x
_atom_site_fract_y
_atom_site_fract_z
Si Si1 0.038536 0.403322 0.058143
Si Si2 0.391462 0.333703 0.459160
Si Si3 0.277439 0.667579 0.833921
Si Si4 0.674243 0.333179 0.570036
Si Si5 0.592615 0.577353 0.854145
Si Si6 0.011867 0.443580 0.768464
O O1 0.855212 0.362404 0.371922
O O2 0.056030 0.472998 0.136902
O O3 0.210910 0.352078 0.818109
O O4 0.031403 0.424830 0.904277
O O5 0.381937 0.250000 0.421467
O O6 0.552977 0.347044 0.323723
O O7 0.421704 0.386973 0.280821
O O8 0.205046 0.750000 0.961838
O O9 0.330470 0.653297 0.591372
O O10 0.123790 0.610578 0.108424
O O11 0.659832 0.250000 0.633823
O O12 0.499986 0.371648 0.891780
O O13 0.797464 0.566604 0.593259
O O14 0.500000 0.500000 0.000000
#
# Coordination Sequence:
#
# PCOD8072007 Si02
#       6
#     4   4   4   4   4   4
#     4   9  17  32  55  80 104 138 183 225 264 321
#     4  10  21  37  57  81 109 143 183 227 273 323
#     4   9  20  37  56  80 109 143 185 228 272 326
#     4  10  19  34  57  80 106 142 183 228 274 322
#     4  11  21  36  55  82 113 143 180 226 271 327
#     4   9  18  33  54  78 108 142 179 220 271 323
#
# _framework density 18.600714
#
# number of rings (size 3 to 8) (size 9 to 14) (size 15 to 20)
#    0.000    2.333    1.667    1.000    2.333    5.333 
#    0.000    2.500    0.000    4.000    0.000    0.000 
#    0.000    0.000    0.000    0.000    0.000    0.000 
#
# Total GULP energy -297560.411561 kJ/mol
# GULP energy per Si atom -12398.350482 kJ/mol
# Density = 1.855838 g / cm^3
# Si number density = 18.600714 Si / 1000 Ang^3
#
#
#
# Elastic Constant Matrix: (Units=GPa)
#
#
# Indices 1 2 3 4 5 6 
#
# 1 59.6622 43.1890 29.1264 0.0000 -19.0267 0.0000
# 2 43.1890 136.9321 69.4486 0.0000 -11.2465 0.0000
# 3 29.1264 69.4486 126.6700 0.0000 -20.5190 0.0000
# 4 0.0000 0.0000 0.0000 41.8936 0.0000 -6.8450
# 5 -19.0267 -11.2465 -20.5190 0.0000 21.0695 0.0000
# 6 0.0000 0.0000 0.0000 -6.8450 0.0000 22.8209
#
#
#
# Elastic Compliance Matrix: (Units=1/GPa)
#
#
# Indices 1 2 3 4 5 6 
#
# 1 0.029471 -0.008116 0.001523 0.000000 0.023765 0.000000
# 2 -0.008116 0.012351 -0.005966 0.000000 -0.006546 0.000000
# 3 0.001523 -0.005966 0.012493 0.000000 0.010357 0.000000
# 4 0.000000 0.000000 0.000000 0.025100 0.000000 0.007529
# 5 0.023765 -0.006546 0.010357 0.000000 0.075515 0.000000
# 6 0.000000 0.000000 0.000000 0.007529 0.000000 0.046078
#
#
# Mechanical properties :
#
#
# Convention : Reuss Voigt Hill
#
# Bulk Modulus (GPa) = 34.24980 67.42136 50.83558
# Shear Modulus (GPa) = 21.19920 29.25683 25.22801
#
# Velocity S-wave (km/s) = 3.37960 3.97027 3.68678
# Velocity P-wave (km/s) = 5.80363 7.57250 6.74629
#
# Compressibility (1/GPa) = 0.02919725
#
# Stress axis : x y z
#
# Youngs Moduli (GPa) = 33.93112 80.96741 80.04527
#
# Poissons Ratio (x) = 0.65712 -0.12188
# Poissons Ratio (y) = 0.27538 0.47753
# Poissons Ratio (z) = -0.05166 0.48303
#
# Static dielectric constant tensor:
#      x y z
#    x 3.086490 0.000000 -0.251260 
#    y 0.000000 4.039800 0.000000 
#    z -0.251260 0.000000 3.734740 
# 
# 
# High freq. dielectric constant tensor:
#      x y z
#    x 1.685240 0.000000 -0.017150 
#    y 0.000000 1.740330 0.000000 
#    z -0.017150 0.000000 1.728800 
# 
# From -- ./inp_files/13844.got.cif
#   From: 2010.06.25/outbox.cif.g09.slc.cpg/sg11_7_cif.got.tgz:13844.got - 2010.06.27 23:14:04.
