data_PCOD8072264
_publ_section_title
;
Structure prediction by ZEFSAII (Michael W. Deem and Ramdas Pophale) SiO2 
 PCOD8072264
Probable space group: P 21/M
;
_chemical_formula_sum "Si O2"
_cell_formula_units_Z 28
_cell_length_a 13.813168
_cell_length_b 13.716653
_cell_length_c 20.583495
_cell_angle_alpha 90.000000
_cell_angle_beta 160.525111
_cell_angle_gamma 90.000000
_cell_volume 1300.223311
_symmetry_space_group_name_H-M "P 21/M"
_symmetry_group_IT_number 11
_symmetry_cell_setting 'monoclinic'
loop_
_space_group_symop_operation_xyz
x,y,z
-x,1/2+y,-z
-x,-y,-z
x,1/2-y,z
loop_
_atom_site_type_symbol
_atom_site_label
_atom_site_fract_x
_atom_site_fract_y
_atom_site_fract_z
Si Si1 0.606523 0.042116 0.373104
Si Si2 0.665688 0.009953 0.269751
Si Si3 0.813280 0.470926 0.724337
Si Si4 0.395936 0.857866 0.291343
Si Si5 0.230700 0.361694 0.765781
Si Si6 0.297333 0.137691 0.954952
Si Si7 0.906838 0.859553 0.875128
O O1 0.491927 0.016774 0.227587
O O2 0.372086 0.108576 0.260049
O O3 0.903850 0.099699 0.560110
O O4 0.644427 0.939251 0.435823
O O5 0.581931 0.918267 0.170552
O O6 0.584687 0.106619 0.177064
O O7 0.000000 0.000000 0.500000
O O8 0.500000 0.500000 0.500000
O O9 0.782935 0.384230 0.757367
O O10 0.955535 0.567943 0.845455
O O11 0.023276 0.430293 0.800997
O O12 0.533952 0.750000 0.385692
O O13 0.183426 0.862831 0.095946
O O14 0.228970 0.250000 0.743484
O O15 0.368785 0.377096 0.924138
O O16 0.222953 0.250000 0.922675
O O17 0.855028 0.750000 0.815923
#
# Coordination Sequence:
#
# PCOD8072264 Si02
#       7
#     4   4   4   4   4   4   4
#     4  10  19  35  57  83 112 148 192 240 291 347
#     4  10  22  38  59  87 114 145 196 256 303 343
#     4  11  22  36  58  90 126 156 191 237 283 347
#     4  10  20  34  53  80 115 153 191 235 287 344
#     4  10  22  39  59  82 112 151 194 242 295 347
#     4  11  22  39  63  87 116 159 202 240 289 350
#     4  10  20  35  56  83 117 154 192 234 285 346
#
# _framework density 21.534762000000001
#
# number of rings (size 3 to 8) (size 9 to 14) (size 15 to 20)
#    0.000    1.714    0.000    6.429    0.000    6.857 
#    0.000    2.857    0.000    5.143    0.000    0.000 
#    0.000    0.000    0.000    0.000    0.000    0.000 
#
# Total GULP energy -347083.771632 kJ/mol
# GULP energy per Si atom -12395.848987 kJ/mol
# Density = 2.148575 g / cm^3
# Si number density = 21.534762 Si / 1000 Ang^3
#
#
#
# Elastic Constant Matrix: (Units=GPa)
#
#
# Indices 1 2 3 4 5 6 
#
# 1 61.3659 39.1300 8.2250 0.0000 -19.4333 0.0000
# 2 39.1300 145.0341 24.3935 0.0000 -16.8603 0.0000
# 3 8.2250 24.3935 72.0798 0.0000 -9.1811 0.0000
# 4 0.0000 0.0000 0.0000 30.1002 0.0000 0.9908
# 5 -19.4333 -16.8603 -9.1811 0.0000 23.3483 0.0000
# 6 0.0000 0.0000 0.0000 0.9908 0.0000 29.8568
#
#
#
# Elastic Compliance Matrix: (Units=1/GPa)
#
#
# Indices 1 2 3 4 5 6 
#
# 1 0.024793 -0.004822 0.001040 0.000000 0.017562 0.000000
# 2 -0.004822 0.008735 -0.002225 0.000000 0.001419 0.000000
# 3 0.001040 -0.002225 0.015173 0.000000 0.005225 0.000000
# 4 0.000000 0.000000 0.000000 0.033259 0.000000 -0.001104
# 5 0.017562 0.001419 0.005225 0.000000 0.060526 0.000000
# 6 0.000000 0.000000 0.000000 -0.001104 0.000000 0.033530
#
#
# Mechanical properties :
#
#
# Convention : Reuss Voigt Hill
#
# Bulk Modulus (GPa) = 27.25820 46.88628 37.07224
# Shear Modulus (GPa) = 24.96749 30.44316 27.70533
#
# Velocity S-wave (km/s) = 3.40870 3.76397 3.59073
# Velocity P-wave (km/s) = 5.30825 6.38040 5.86886
#
# Compressibility (1/GPa) = 0.03668620
#
# Stress axis : x y z
#
# Youngs Moduli (GPa) = 40.33419 114.47898 65.90455
#
# Poissons Ratio (x) = 0.55206 -0.06853
# Poissons Ratio (y) = 0.19451 0.14665
# Poissons Ratio (z) = -0.04194 0.25473
#
# Static dielectric constant tensor:
#      x y z
#    x 4.334950 0.000000 -0.316120 
#    y 0.000000 4.294760 0.000000 
#    z -0.316120 0.000000 3.714450 
# 
# 
# High freq. dielectric constant tensor:
#      x y z
#    x 1.850960 0.000000 -0.016980 
#    y 0.000000 1.853100 0.000000 
#    z -0.016980 0.000000 1.830170 
# 
# From -- ./inp_files/65663.got.cif
#   From: 2010.06.25/outbox.cif.g09.slc.cpg/sg11_33_cif.got.tgz:65663.got - 2010.06.27 23:14:04.
