data_PCOD8072019
_publ_section_title
;
Structure prediction by ZEFSAII (Michael W. Deem and Ramdas Pophale) SiO2 
 PCOD8072019
Probable space group: P 21/M
;
_chemical_formula_sum "Si O2"
_cell_formula_units_Z 32
_cell_length_a 27.765423
_cell_length_b 9.200950
_cell_length_c 21.400227
_cell_angle_alpha 90.000000
_cell_angle_beta 18.945862
_cell_angle_gamma 90.000000
_cell_volume 1775.021678
_symmetry_space_group_name_H-M "P 21/M"
_symmetry_group_IT_number 11
_symmetry_cell_setting 'monoclinic'
loop_
_space_group_symop_operation_xyz
x,y,z
-x,1/2+y,-z
-x,-y,-z
x,1/2-y,z
loop_
_atom_site_type_symbol
_atom_site_label
_atom_site_fract_x
_atom_site_fract_y
_atom_site_fract_z
Si Si1 0.163892 0.582545 0.191195
Si Si2 0.552570 0.917129 0.496371
Si Si3 0.691726 0.416973 0.503152
Si Si4 0.669861 0.921418 0.903455
Si Si5 0.423078 0.583908 0.784652
Si Si6 0.334176 0.584123 0.322983
Si Si7 0.832113 0.921108 0.578815
Si Si8 0.849292 0.577607 0.203655
O O1 0.160731 0.750000 0.215751
O O2 0.234701 0.493614 0.159980
O O3 0.999463 0.522145 0.381965
O O4 0.255551 0.562151 0.014161
O O5 0.551027 0.750000 0.479839
O O6 0.435856 0.951592 0.695257
O O7 0.718255 0.962498 0.315431
O O8 0.500000 0.000000 0.500000
O O9 0.700713 0.250000 0.469276
O O10 0.524899 0.474566 0.698926
O O11 0.731748 0.429526 0.526692
O O12 0.805844 0.516426 0.324850
O O13 0.680073 0.750000 0.900863
O O14 0.734553 0.970654 0.757468
O O15 0.501403 0.977406 0.114341
O O16 0.478390 0.750000 0.727940
O O17 0.332904 0.750000 0.301325
O O18 0.229802 0.490542 0.407629
O O19 0.828485 0.750000 0.574190
O O20 0.873013 0.750000 0.178864
O O21 0.000000 0.500000 0.000000
#
# Coordination Sequence:
#
# PCOD8072019 Si02
#       8
#     4   4   4   4   4   4   4   4
#     4  10  20  35  55  80 107 139 181 226 272 327
#     4   9  19  35  55  80 110 141 177 221 265 317
#     4  10  19  34  57  82 109 142 184 227 267 319
#     4  10  20  36  56  79 106 140 184 229 274 328
#     4   9  18  34  55  78 107 140 181 224 265 319
#     4  10  21  36  54  78 109 142 182 228 273 324
#     4  10  22  36  52  78 112 144 179 227 278 329
#     4  10  21  38  59  85 115 146 182 225 268 319
#
# _framework density 18.027947999999999
#
# number of rings (size 3 to 8) (size 9 to 14) (size 15 to 20)
#    0.000    2.250    1.250    2.250    0.000    5.000 
#    2.250    0.000    0.000    0.000    0.000    0.000 
#    0.000    0.000    0.000    0.000    0.000    0.000 
#
# Total GULP energy -396841.202093 kJ/mol
# GULP energy per Si atom -12401.287565 kJ/mol
# Density = 1.798692 g / cm^3
# Si number density = 18.027948 Si / 1000 Ang^3
#
#
#
# Elastic Constant Matrix: (Units=GPa)
#
#
# Indices 1 2 3 4 5 6 
#
# 1 122.6042 50.9690 48.6849 0.0000 -3.2782 0.0000
# 2 50.9690 64.6963 40.3611 0.0000 -0.5904 0.0000
# 3 48.6849 40.3611 107.3561 0.0000 -2.2273 0.0000
# 4 0.0000 0.0000 0.0000 32.2316 0.0000 3.0666
# 5 -3.2782 -0.5904 -2.2273 0.0000 25.4119 0.0000
# 6 0.0000 0.0000 0.0000 3.0666 0.0000 42.7289
#
#
#
# Elastic Compliance Matrix: (Units=1/GPa)
#
#
# Indices 1 2 3 4 5 6 
#
# 1 0.012699 -0.008382 -0.002582 0.000000 0.001217 0.000000
# 2 -0.008382 0.025727 -0.005892 0.000000 -0.001000 0.000000
# 3 -0.002582 -0.005892 0.012714 0.000000 0.000644 0.000000
# 4 0.000000 0.000000 0.000000 0.031239 0.000000 -0.002242
# 5 0.001217 -0.001000 0.000644 0.000000 0.039542 0.000000
# 6 0.000000 0.000000 0.000000 -0.002242 0.000000 0.023564
#
#
# Mechanical properties :
#
#
# Convention : Reuss Voigt Hill
#
# Bulk Modulus (GPa) = 57.38001 63.85406 60.61704
# Shear Modulus (GPa) = 27.02603 30.38394 28.70498
#
# Velocity S-wave (km/s) = 3.87605 4.10979 3.99463
# Velocity P-wave (km/s) = 7.20618 7.61688 7.41438
#
# Compressibility (1/GPa) = 0.01742767
#
# Stress axis : x y z
#
# Youngs Moduli (GPa) = 78.74646 38.86954 78.65267
#
# Poissons Ratio (x) = 0.32582 0.20309
# Poissons Ratio (y) = 0.66009 0.46339
# Poissons Ratio (z) = 0.20334 0.22900
#
# Static dielectric constant tensor:
#      x y z
#    x 3.206240 0.000000 0.130070 
#    y 0.000000 3.335260 0.000000 
#    z 0.130070 0.000000 3.667690 
# 
# 
# High freq. dielectric constant tensor:
#      x y z
#    x 1.692430 0.000000 0.011220 
#    y 0.000000 1.699160 0.000000 
#    z 0.011220 0.000000 1.703910 
# 
# From -- ./inp_files/66992.got.cif
#   From: 2010.06.25/outbox.cif.g09.slc.cpg/sg11_34_cif.got.tgz:66992.got - 2010.06.27 23:14:04.
