data_PCOD8072903
_publ_section_title
;
Structure prediction by ZEFSAII (Michael W. Deem and Ramdas Pophale) SiO2 
 PCOD8072903
Probable space group: P 21/M
;
_chemical_formula_sum "Si O2"
_cell_formula_units_Z 32
_cell_length_a 24.093341
_cell_length_b 9.138576
_cell_length_c 13.538726
_cell_angle_alpha 90.000000
_cell_angle_beta 135.338171
_cell_angle_gamma 90.000000
_cell_volume 2095.365919
_symmetry_space_group_name_H-M "P 21/M"
_symmetry_group_IT_number 11
_symmetry_cell_setting 'monoclinic'
loop_
_space_group_symop_operation_xyz
x,y,z
-x,1/2+y,-z
-x,-y,-z
x,1/2-y,z
loop_
_atom_site_type_symbol
_atom_site_label
_atom_site_fract_x
_atom_site_fract_y
_atom_site_fract_z
Si Si1 0.918815 0.414868 0.501171
Si Si2 0.497748 0.421179 0.101327
Si Si3 0.670310 0.419755 0.311665
Si Si4 0.968696 0.923610 0.863344
Si Si5 0.051034 0.579651 0.769837
Si Si6 0.814552 0.078406 0.193478
Si Si7 0.170000 0.584166 0.406395
Si Si8 0.348054 0.923642 0.935902
O O1 0.944425 0.250000 0.507039
O O2 0.868101 0.488145 0.349028
O O3 0.865786 0.417931 0.530699
O O4 0.997997 0.506770 0.618079
O O5 0.480306 0.250000 0.065653
O O6 0.585590 0.445634 0.258688
O O7 0.500000 0.500000 0.000000
O O8 0.427831 0.496310 0.076712
O O9 0.690351 0.250000 0.326462
O O10 0.741141 0.483704 0.469483
O O11 0.669455 0.480001 0.197991
O O12 0.967104 0.750000 0.875530
O O13 0.028313 0.974218 0.850806
O O14 0.880225 0.980237 0.729568
O O15 0.000000 0.000000 0.000000
O O16 0.033650 0.750000 0.740759
O O17 0.142997 0.544058 0.858419
O O18 0.809708 0.250000 0.207865
O O19 0.724219 0.021576 0.085411
O O20 0.169741 0.750000 0.362839
O O21 0.362295 0.750000 0.958215
#
# Coordination Sequence:
#
# PCOD8072903 Si02
#       8
#     4   4   4   4   4   4   4   4
#     4   9  15  24  40  58  79 109 140 164 195 239
#     4   9  16  25  37  54  78 110 146 177 203 232
#     4   8  13  23  39  56  77 107 141 168 192 233
#     4  10  20  33  46  61  81 105 133 171 214 253
#     4   9  18  29  41  59  81 103 134 173 208 239
#     4   9  15  25  41  58  80 112 142 167 196 240
#     4   9  15  26  44  63  80 105 139 169 198 240
#     4   9  15  25  39  55  79 113 147 170 196 235
#
# _framework density 15.271796
#
# number of rings (size 3 to 8) (size 9 to 14) (size 15 to 20)
#    0.000    3.000    1.250    1.875    0.000    0.500 
#    0.000    4.375    0.000    0.000    0.000    0.000 
#    0.000    1.000    0.000    2.000    0.000    2.750 
#
# Total GULP energy -396419.124685 kJ/mol
# GULP energy per Si atom -12388.097646 kJ/mol
# Density = 1.523704 g / cm^3
# Si number density = 15.271796 Si / 1000 Ang^3
#
#
#
# Elastic Constant Matrix: (Units=GPa)
#
#
# Indices 1 2 3 4 5 6 
#
# 1 89.4547 28.9704 52.8146 0.0000 30.1254 0.0000
# 2 28.9704 44.2935 29.7297 0.0000 9.9421 0.0000
# 3 52.8146 29.7297 81.9211 0.0000 20.7900 0.0000
# 4 0.0000 0.0000 0.0000 19.6378 0.0000 5.9264
# 5 30.1254 9.9421 20.7900 0.0000 28.1746 0.0000
# 6 0.0000 0.0000 0.0000 5.9264 0.0000 16.6413
#
#
#
# Elastic Compliance Matrix: (Units=1/GPa)
#
#
# Indices 1 2 3 4 5 6 
#
# 1 0.024246 -0.005872 -0.009163 0.000000 -0.017092 0.000000
# 2 -0.005872 0.031494 -0.007895 0.000000 0.000991 0.000000
# 3 -0.009163 -0.007895 0.021884 0.000000 -0.003565 0.000000
# 4 0.000000 0.000000 0.000000 0.057054 0.000000 -0.020319
# 5 -0.017092 0.000991 -0.003565 0.000000 0.056049 0.000000
# 6 0.000000 0.000000 0.000000 -0.020319 0.000000 0.067328
#
#
# Mechanical properties :
#
#
# Convention : Reuss Voigt Hill
#
# Bulk Modulus (GPa) = 31.48203 48.74431 40.11317
# Shear Modulus (GPa) = 15.89805 19.83437 17.86621
#
# Velocity S-wave (km/s) = 3.22996 3.60774 3.42407
# Velocity P-wave (km/s) = 5.87958 7.02435 6.47731
#
# Compressibility (1/GPa) = 0.03176415
#
# Stress axis : x y z
#
# Youngs Moduli (GPa) = 41.24329 31.75202 45.69487
#
# Poissons Ratio (x) = 0.18644 0.41871
# Poissons Ratio (y) = 0.24217 0.36078
# Poissons Ratio (z) = 0.37792 0.25069
#
# Static dielectric constant tensor:
#      x y z
#    x 3.147460 0.000000 0.457220 
#    y 0.000000 2.893620 0.000000 
#    z 0.457220 0.000000 2.953700 
# 
# 
# High freq. dielectric constant tensor:
#      x y z
#    x 1.570960 0.000000 0.035340 
#    y 0.000000 1.568230 0.000000 
#    z 0.035340 0.000000 1.553760 
# 
# From -- ./inp_files/56016.got.cif
#   From: 2010.06.25/outbox.cif.g09.slc.cpg/sg11_29_cif.got.tgz:56016.got - 2010.06.27 23:14:04.
