data_PCOD8072889
_publ_section_title
;
Structure prediction by ZEFSAII (Michael W. Deem and Ramdas Pophale) SiO2 
 PCOD8072889
Probable space group: P 21/M
;
_chemical_formula_sum "Si O2"
_cell_formula_units_Z 32
_cell_length_a 14.023048
_cell_length_b 9.243207
_cell_length_c 24.769589
_cell_angle_alpha 90.000000
_cell_angle_beta 28.048168
_cell_angle_gamma 90.000000
_cell_volume 1509.660049
_symmetry_space_group_name_H-M "P 21/M"
_symmetry_group_IT_number 11
_symmetry_cell_setting 'monoclinic'
loop_
_space_group_symop_operation_xyz
x,y,z
-x,1/2+y,-z
-x,-y,-z
x,1/2-y,z
loop_
_atom_site_type_symbol
_atom_site_label
_atom_site_fract_x
_atom_site_fract_y
_atom_site_fract_z
Si Si1 0.833289 0.424902 0.621815
Si Si2 0.660907 0.903879 0.391505
Si Si3 0.043315 0.412604 0.215293
Si Si4 0.425661 0.582830 0.827923
Si Si5 0.421597 0.905173 0.406357
Si Si6 0.833445 0.916602 0.962236
Si Si7 0.032179 0.417841 0.341370
Si Si8 0.750231 0.087333 0.193367
O O1 0.844962 0.250000 0.611720
O O2 0.615321 0.485993 0.712754
O O3 0.000000 0.500000 0.500000
O O4 0.861181 0.475897 0.669772
O O5 0.679660 0.750000 0.412531
O O6 0.589299 0.878228 0.367267
O O7 0.500000 0.000000 0.500000
O O8 0.875146 0.976583 0.282427
O O9 0.952666 0.250000 0.262966
O O10 0.125122 0.449274 0.234771
O O11 0.198013 0.425582 0.087411
O O12 0.492295 0.750000 0.804203
O O13 0.241599 0.575813 0.876011
O O14 0.342222 0.515646 0.925220
O O15 0.385349 0.750000 0.394418
O O16 0.207755 0.957455 0.538405
O O17 0.527715 0.019911 0.314984
O O18 0.807766 0.750000 0.994312
O O19 0.051586 0.977556 0.875557
O O20 0.068782 0.250000 0.338903
O O21 0.733414 0.250000 0.222739
#
# Coordination Sequence:
#
# PCOD8072889 Si02
#       8
#     4   4   4   4   4   4   4   4
#     4  12  26  46  70  95 121 155 199 251 308 363
#     4  11  20  31  49  78 118 164 206 245 296 356
#     4  10  20  37  59  86 124 165 203 247 303 359
#     4  11  24  42  64  91 121 158 204 256 306 359
#     4  10  20  32  52  84 121 160 200 243 298 355
#     4  10  21  38  61  90 125 165 202 245 299 361
#     4  10  21  39  61  89 124 162 205 255 307 360
#     4  10  21  36  58  88 123 161 203 247 300 360
#
# _framework density 21.196826000000001
#
# number of rings (size 3 to 8) (size 9 to 14) (size 15 to 20)
#    0.000    1.500    2.500    3.000    0.000    5.500 
#    0.000    0.625    0.000    0.000    0.000    0.000 
#    0.000    0.000    0.000    0.000    0.000    0.000 
#
# Total GULP energy -396427.060246 kJ/mol
# GULP energy per Si atom -12388.345633 kJ/mol
# Density = 2.114858 g / cm^3
# Si number density = 21.196826 Si / 1000 Ang^3
#
#
#
# Elastic Constant Matrix: (Units=GPa)
#
#
# Indices 1 2 3 4 5 6 
#
# 1 94.3374 29.2564 24.9745 0.0000 14.2516 0.0000
# 2 29.2564 108.1608 42.3289 0.0000 5.0561 0.0000
# 3 24.9745 42.3289 94.7684 0.0000 13.6527 0.0000
# 4 0.0000 0.0000 0.0000 34.4130 0.0000 2.4370
# 5 14.2516 5.0561 13.6527 0.0000 29.5550 0.0000
# 6 0.0000 0.0000 0.0000 2.4370 0.0000 24.6489
#
#
#
# Elastic Compliance Matrix: (Units=1/GPa)
#
#
# Indices 1 2 3 4 5 6 
#
# 1 0.012531 -0.002599 -0.001430 0.000000 -0.004937 0.000000
# 2 -0.002599 0.011748 -0.004771 0.000000 0.001447 0.000000
# 3 -0.001430 -0.004771 0.013759 0.000000 -0.004850 0.000000
# 4 0.000000 0.000000 0.000000 0.029264 0.000000 -0.002893
# 5 -0.004937 0.001447 -0.004850 0.000000 0.038209 0.000000
# 6 0.000000 0.000000 0.000000 -0.002893 0.000000 0.040856
#
#
# Mechanical properties :
#
#
# Convention : Reuss Voigt Hill
#
# Bulk Modulus (GPa) = 48.93029 54.48736 51.70882
# Shear Modulus (GPa) = 29.27782 31.10383 30.19082
#
# Velocity S-wave (km/s) = 3.72053 3.83480 3.77810
# Velocity P-wave (km/s) = 6.44906 6.73564 6.59390
#
# Compressibility (1/GPa) = 0.02043724
#
# Stress axis : x y z
#
# Youngs Moduli (GPa) = 79.80391 85.12138 72.68193
#
# Poissons Ratio (x) = 0.22123 0.10395
# Poissons Ratio (y) = 0.20741 0.34676
# Poissons Ratio (z) = 0.11413 0.40611
#
# Static dielectric constant tensor:
#      x y z
#    x 3.835230 0.000000 0.221300 
#    y 0.000000 5.134520 0.000000 
#    z 0.221300 0.000000 3.623730 
# 
# 
# High freq. dielectric constant tensor:
#      x y z
#    x 1.826300 0.000000 0.018080 
#    y 0.000000 1.831990 0.000000 
#    z 0.018080 0.000000 1.813740 
# 
# From -- ./inp_files/55753.got.cif
#   From: 2010.06.25/outbox.cif.g09.slc.cpg/sg11_28_cif.got.tgz:55753.got - 2010.06.27 23:14:04.
