data_PCOD8072705
_publ_section_title
;
Structure prediction by ZEFSAII (Michael W. Deem and Ramdas Pophale) SiO2 
 PCOD8072705
Probable space group: P 21/M
;
_chemical_formula_sum "Si O2"
_cell_formula_units_Z 32
_cell_length_a 12.075005
_cell_length_b 17.940163
_cell_length_c 9.309336
_cell_angle_alpha 90.000000
_cell_angle_beta 51.297095
_cell_angle_gamma 90.000000
_cell_volume 1573.797857
_symmetry_space_group_name_H-M "P 21/M"
_symmetry_group_IT_number 11
_symmetry_cell_setting 'monoclinic'
loop_
_space_group_symop_operation_xyz
x,y,z
-x,1/2+y,-z
-x,-y,-z
x,1/2-y,z
loop_
_atom_site_type_symbol
_atom_site_label
_atom_site_fract_x
_atom_site_fract_y
_atom_site_fract_z
Si Si1 0.747900 0.592302 0.483910
Si Si2 0.552760 0.068449 0.362731
Si Si3 0.769098 0.594654 0.803089
Si Si4 0.755690 0.435081 0.943443
Si Si5 0.538216 0.080769 0.905945
Si Si6 0.987663 0.164300 0.221837
Si Si7 0.278194 0.576662 0.520433
Si Si8 0.001786 0.337445 0.880749
O O1 0.581762 0.614038 0.591283
O O2 0.789679 0.601060 0.616098
O O3 0.773994 0.507816 0.410600
O O4 0.844146 0.647259 0.311694
O O5 0.652204 0.114783 0.392920
O O6 0.500000 0.000000 0.500000
O O7 0.653630 0.039168 0.154821
O O8 0.806862 0.510207 0.821626
O O9 0.871096 0.651003 0.802283
O O10 0.610921 0.624124 0.972998
O O11 0.660328 0.385099 0.910533
O O12 0.886948 0.385707 0.887296
O O13 0.599672 0.075456 0.697503
O O14 0.500000 0.000000 0.000000
O O15 0.950053 0.250000 0.252845
O O16 0.859618 0.123616 0.408810
O O17 0.004400 0.135956 0.044304
O O18 0.965873 0.250000 0.895843
#
# Coordination Sequence:
#
# PCOD8072705 Si02
#       8
#     4   4   4   4   4   4   4   4
#     4  11  22  39  64  97 125 155 200 254 311 366
#     4  10  20  35  64  98 122 150 202 256 310 362
#     4  11  22  39  65  95 127 156 196 255 312 368
#     4  11  20  40  66  92 122 160 200 257 310 362
#     4  10  19  38  64  98 127 150 188 257 319 362
#     4  11  27  45  58  84 127 169 210 255 300 361
#     4  11  21  39  67  96 122 158 204 258 308 364
#     4  11  27  45  59  84 125 170 213 253 299 360
#
# _framework density 20.332979000000002
#
# number of rings (size 3 to 8) (size 9 to 14) (size 15 to 20)
#    0.000    1.250    5.000    3.000    7.000    2.500 
#    0.000    2.500    0.000    0.000    0.000    0.000 
#    0.000    0.000    0.000    0.000    0.000    0.000 
#
# Total GULP energy -396678.227224 kJ/mol
# GULP energy per Si atom -12396.194601 kJ/mol
# Density = 2.028670 g / cm^3
# Si number density = 20.332979 Si / 1000 Ang^3
#
#
#
# Elastic Constant Matrix: (Units=GPa)
#
#
# Indices 1 2 3 4 5 6 
#
# 1 123.2795 16.9801 23.1996 0.0000 9.4679 0.0000
# 2 16.9801 40.0306 22.9195 0.0000 1.0861 0.0000
# 3 23.1996 22.9195 103.6061 0.0000 3.0368 0.0000
# 4 0.0000 0.0000 0.0000 15.4351 0.0000 7.3846
# 5 9.4679 1.0861 3.0368 0.0000 37.2756 0.0000
# 6 0.0000 0.0000 0.0000 7.3846 0.0000 12.7974
#
#
#
# Elastic Compliance Matrix: (Units=1/GPa)
#
#
# Indices 1 2 3 4 5 6 
#
# 1 0.008924 -0.003000 -0.001274 0.000000 -0.002075 0.000000
# 2 -0.003000 0.029616 -0.005891 0.000000 0.000379 0.000000
# 3 -0.001274 -0.005891 0.011253 0.000000 -0.000422 0.000000
# 4 0.000000 0.000000 0.000000 0.089494 0.000000 -0.051641
# 5 -0.002075 0.000379 -0.000422 0.000000 0.027378 0.000000
# 6 0.000000 0.000000 0.000000 -0.051641 0.000000 0.107940
#
#
# Mechanical properties :
#
#
# Convention : Reuss Voigt Hill
#
# Bulk Modulus (GPa) = 33.94023 43.67940 38.80982
# Shear Modulus (GPa) = 16.40670 26.68943 21.54807
#
# Velocity S-wave (km/s) = 2.84368 3.62694 3.25893
# Velocity P-wave (km/s) = 5.24504 6.25046 5.76969
#
# Compressibility (1/GPa) = 0.02946356
#
# Stress axis : x y z
#
# Youngs Moduli (GPa) = 112.05816 33.76563 88.86744
#
# Poissons Ratio (x) = 0.10129 0.11320
# Poissons Ratio (y) = 0.33614 0.52351
# Poissons Ratio (z) = 0.14274 0.19891
#
# Static dielectric constant tensor:
#      x y z
#    x 5.012260 0.000000 -0.253440 
#    y 0.000000 3.199160 0.000000 
#    z -0.253440 0.000000 3.926090 
# 
# 
# High freq. dielectric constant tensor:
#      x y z
#    x 1.825240 0.000000 0.002590 
#    y 0.000000 1.736040 0.000000 
#    z 0.002590 0.000000 1.808110 
# 
# From -- ./inp_files/19374.got.cif
#   From: 2010.06.25/outbox.cif.g09.slc.cpg/sg11_10_cif.got.tgz:19374.got - 2010.06.27 23:14:04.
