data_PCOD8072663
_publ_section_title
;
Structure prediction by ZEFSAII (Michael W. Deem and Ramdas Pophale) SiO2 
 PCOD8072663
Probable space group: P 21/M
;
_chemical_formula_sum "Si O2"
_cell_formula_units_Z 32
_cell_length_a 12.159454
_cell_length_b 8.404579
_cell_length_c 15.587171
_cell_angle_alpha 90.000000
_cell_angle_beta 89.761426
_cell_angle_gamma 90.000000
_cell_volume 1592.918561
_symmetry_space_group_name_H-M "P 21/M"
_symmetry_group_IT_number 11
_symmetry_cell_setting 'monoclinic'
loop_
_space_group_symop_operation_xyz
x,y,z
-x,1/2+y,-z
-x,-y,-z
x,1/2-y,z
loop_
_atom_site_type_symbol
_atom_site_label
_atom_site_fract_x
_atom_site_fract_y
_atom_site_fract_z
Si Si1 0.624804 0.060000 0.506781
Si Si2 0.271247 0.061825 0.152879
Si Si3 0.732684 0.060421 0.158905
Si Si4 0.772651 0.064594 0.347862
Si Si5 0.502098 0.061857 0.094116
Si Si6 0.778911 0.561828 0.654321
Si Si7 0.123385 0.438101 0.996483
Si Si8 0.995023 0.934536 0.406374
O O1 0.627209 0.250000 0.511251
O O2 0.695255 0.995000 0.424492
O O3 0.500000 0.000000 0.500000
O O4 0.678688 0.989881 0.593168
O O5 0.270865 0.250000 0.144011
O O6 0.393964 0.993392 0.140475
O O7 0.240680 0.009167 0.248160
O O8 0.189853 0.992857 0.079237
O O9 0.743094 0.250000 0.155772
O O10 0.747994 0.991419 0.254629
O O11 0.611874 0.996050 0.137182
O O12 0.821394 0.991447 0.092589
O O13 0.749436 0.250000 0.345724
O O14 0.900761 0.032006 0.359620
O O15 0.502256 0.250000 0.096368
O O16 0.500000 0.000000 0.000000
O O17 0.797914 0.750000 0.644538
O O18 0.887379 0.463395 0.634657
O O19 0.121836 0.250000 0.999947
O O20 0.000000 0.500000 0.000000
O O21 0.964407 0.750000 0.405075
O O22 0.000000 0.000000 0.500000
#
# Coordination Sequence:
#
# PCOD8072663 Si02
#       8
#     4   4   4   4   4   4   4   4
#     4  11  24  42  64  91 126 166 206 254 307 370
#     4   9  21  39  62  88 120 161 202 245 308 370
#     4  10  22  39  63  91 120 160 205 250 306 367
#     4  10  23  42  64  89 122 163 207 253 308 370
#     4  10  19  37  63  89 118 154 200 250 299 359
#     4  11  23  41  66  92 122 163 208 257 308 367
#     4  11  23  41  61  87 123 163 204 252 306 368
#     4  12  24  41  65  92 123 160 205 256 311 368
#
# _framework density 20.088912000000001
#
# number of rings (size 3 to 8) (size 9 to 14) (size 15 to 20)
#    0.000    1.500    2.500    2.250    3.500    1.000 
#    0.000    3.125    0.000    0.000    0.000    0.000 
#    0.000    0.000    0.000    0.000    0.000    0.000 
#
# Total GULP energy -396715.257114 kJ/mol
# GULP energy per Si atom -12397.351785 kJ/mol
# Density = 2.004319 g / cm^3
# Si number density = 20.088912 Si / 1000 Ang^3
#
#
#
# Elastic Constant Matrix: (Units=GPa)
#
#
# Indices 1 2 3 4 5 6 
#
# 1 164.4447 7.3059 73.3406 0.0000 3.5845 0.0000
# 2 7.3059 31.0818 19.6193 0.0000 -3.3891 0.0000
# 3 73.3406 19.6193 174.8725 0.0000 5.5948 0.0000
# 4 0.0000 0.0000 0.0000 29.4543 0.0000 -0.4762
# 5 3.5845 -3.3891 5.5948 0.0000 41.0501 0.0000
# 6 0.0000 0.0000 0.0000 -0.4762 0.0000 31.5837
#
#
#
# Elastic Compliance Matrix: (Units=1/GPa)
#
#
# Indices 1 2 3 4 5 6 
#
# 1 0.007484 0.000210 -0.003156 0.000000 -0.000206 0.000000
# 2 0.000210 0.035111 -0.004138 0.000000 0.003444 0.000000
# 3 -0.003156 -0.004138 0.007541 0.000000 -0.001094 0.000000
# 4 0.000000 0.000000 0.000000 0.033959 0.000000 0.000512
# 5 -0.000206 0.003444 -0.001094 0.000000 0.024812 0.000000
# 6 0.000000 0.000000 0.000000 0.000512 0.000000 0.031670
#
#
# Mechanical properties :
#
#
# Convention : Reuss Voigt Hill
#
# Bulk Modulus (GPa) = 27.80096 63.43673 45.61885
# Shear Modulus (GPa) = 29.98827 38.42652 34.20739
#
# Velocity S-wave (km/s) = 3.86784 4.37833 4.13098
# Velocity P-wave (km/s) = 5.81514 7.56348 6.74619
#
# Compressibility (1/GPa) = 0.03596998
#
# Stress axis : x y z
#
# Youngs Moduli (GPa) = 133.62607 28.48114 132.60691
#
# Poissons Ratio (x) = -0.00599 0.41845
# Poissons Ratio (y) = -0.02811 0.54867
# Poissons Ratio (z) = 0.42167 0.11784
#
# Static dielectric constant tensor:
#      x y z
#    x 3.827070 0.000000 0.031070 
#    y 0.000000 3.472780 0.000000 
#    z 0.031070 0.000000 3.935880 
# 
# 
# High freq. dielectric constant tensor:
#      x y z
#    x 1.802180 0.000000 0.001200 
#    y 0.000000 1.768170 0.000000 
#    z 0.001200 0.000000 1.799880 
# 
# From -- ./inp_files/38271.got.cif
#   From: 2010.06.25/outbox.cif.g09.slc.cpg/sg11_20_cif.got.tgz:38271.got - 2010.06.27 23:14:04.
