data_PCOD8072515
_publ_section_title
;
Structure prediction by ZEFSAII (Michael W. Deem and Ramdas Pophale) SiO2 
 PCOD8072515
Probable space group: P 21/M
;
_chemical_formula_sum "Si O2"
_cell_formula_units_Z 28
_cell_length_a 29.339561
_cell_length_b 8.641440
_cell_length_c 9.272315
_cell_angle_alpha 90.000000
_cell_angle_beta 142.244679
_cell_angle_gamma 90.000000
_cell_volume 1439.413515
_symmetry_space_group_name_H-M "P 21/M"
_symmetry_group_IT_number 11
_symmetry_cell_setting 'monoclinic'
loop_
_space_group_symop_operation_xyz
x,y,z
-x,1/2+y,-z
-x,-y,-z
x,1/2-y,z
loop_
_atom_site_type_symbol
_atom_site_label
_atom_site_fract_x
_atom_site_fract_y
_atom_site_fract_z
Si Si1 0.936241 0.571738 0.746506
Si Si2 0.497141 0.432755 0.333790
Si Si3 0.769683 0.569265 0.337380
Si Si4 0.223881 0.566350 0.962740
Si Si5 0.636558 0.433239 0.501027
Si Si6 0.930414 0.934231 0.409259
Si Si7 0.361790 0.567818 0.821988
O O1 0.953961 0.750000 0.783361
O O2 0.853977 0.539739 0.603535
O O3 0.940415 0.504352 0.596470
O O4 0.000000 0.500000 0.000000
O O5 0.500000 0.500000 0.500000
O O6 0.502121 0.250000 0.358426
O O7 0.566050 0.499342 0.412890
O O8 0.421316 0.479798 0.067514
O O9 0.748871 0.750000 0.293058
O O10 0.759950 0.514900 0.148865
O O11 0.719125 0.469592 0.317251
O O12 0.222996 0.750000 0.938469
O O13 0.146692 0.507887 0.840769
O O14 0.288057 0.511878 0.232969
O O15 0.633394 0.250000 0.489204
O O16 0.633900 0.496181 0.330709
O O17 0.925560 0.750000 0.384137
O O18 0.000000 0.000000 0.500000
O O19 0.376717 0.750000 0.867093
#
# Coordination Sequence:
#
# PCOD8072515 Si02
#       7
#     4   4   4   4   4   4   4
#     4   9  20  36  55  79 110 143 183 230 279 333
#     4  11  22  39  61  86 114 148 187 230 275 331
#     4  10  21  38  56  81 113 147 187 232 276 331
#     4  10  19  36  60  84 109 145 188 232 279 334
#     4   9  21  38  57  82 114 146 183 228 278 331
#     4  10  21  37  55  81 113 147 186 232 280 334
#     4  11  22  38  58  83 113 148 185 228 279 330
#
# _framework density 19.452368
#
# number of rings (size 3 to 8) (size 9 to 14) (size 15 to 20)
#    0.000    2.000    0.000    4.286    0.000    5.714 
#    0.000   11.429    0.000    0.000    0.000    0.000 
#    0.000    0.000    0.000    0.000    0.000    0.000 
#
# Total GULP energy -347230.890087 kJ/mol
# GULP energy per Si atom -12401.103217 kJ/mol
# Density = 1.940809 g / cm^3
# Si number density = 19.452368 Si / 1000 Ang^3
#
#
#
# Elastic Constant Matrix: (Units=GPa)
#
#
# Indices 1 2 3 4 5 6 
#
# 1 143.0049 22.1294 58.3103 0.0000 8.3298 0.0000
# 2 22.1294 48.4219 28.8897 0.0000 1.1686 0.0000
# 3 58.3103 28.8897 141.4425 0.0000 0.6871 0.0000
# 4 0.0000 0.0000 0.0000 33.6798 0.0000 2.6136
# 5 8.3298 1.1686 0.6871 0.0000 31.8622 0.0000
# 6 0.0000 0.0000 0.0000 2.6136 0.0000 31.3369
#
#
#
# Elastic Compliance Matrix: (Units=1/GPa)
#
#
# Indices 1 2 3 4 5 6 
#
# 1 0.008726 -0.002046 -0.003169 0.000000 -0.002138 0.000000
# 2 -0.002046 0.024016 -0.004061 0.000000 -0.000258 0.000000
# 3 -0.003169 -0.004061 0.009202 0.000000 0.000779 0.000000
# 4 0.000000 0.000000 0.000000 0.029885 0.000000 -0.002492
# 5 -0.002138 -0.000258 0.000779 0.000000 0.031937 0.000000
# 6 0.000000 0.000000 0.000000 -0.002492 0.000000 0.032119
#
#
# Mechanical properties :
#
#
# Convention : Reuss Voigt Hill
#
# Bulk Modulus (GPa) = 42.74776 61.28090 52.01433
# Shear Modulus (GPa) = 30.81989 34.27843 32.54916
#
# Velocity S-wave (km/s) = 3.98474 4.20238 4.09501
# Velocity P-wave (km/s) = 6.57223 7.42416 7.01114
#
# Compressibility (1/GPa) = 0.02339304
#
# Stress axis : x y z
#
# Youngs Moduli (GPa) = 114.59923 41.63969 108.67056
#
# Poissons Ratio (x) = 0.08517 0.34440
# Poissons Ratio (y) = 0.23441 0.44127
# Poissons Ratio (z) = 0.36318 0.16908
#
# Static dielectric constant tensor:
#      x y z
#    x 4.110610 0.000000 -0.554240 
#    y 0.000000 3.695740 0.000000 
#    z -0.554240 0.000000 4.969960 
# 
# 
# High freq. dielectric constant tensor:
#      x y z
#    x 1.765310 0.000000 0.009000 
#    y 0.000000 1.753720 0.000000 
#    z 0.009000 0.000000 1.767170 
# 
# From -- ./inp_files/28640.got.cif
#   From: 2010.06.25/outbox.cif.g09.slc.cpg/sg11_15_cif.got.tgz:28640.got - 2010.06.27 23:14:04.
