data_PCOD8072268
_publ_section_title
;
Structure prediction by ZEFSAII (Michael W. Deem and Ramdas Pophale) SiO2 
 PCOD8072268
Probable space group: P 21/M
;
_chemical_formula_sum "Si O2"
_cell_formula_units_Z 28
_cell_length_a 14.940279
_cell_length_b 8.771497
_cell_length_c 11.087027
_cell_angle_alpha 90.000000
_cell_angle_beta 113.452727
_cell_angle_gamma 90.000000
_cell_volume 1332.910367
_symmetry_space_group_name_H-M "P 21/M"
_symmetry_group_IT_number 11
_symmetry_cell_setting 'monoclinic'
loop_
_space_group_symop_operation_xyz
x,y,z
-x,1/2+y,-z
-x,-y,-z
x,1/2-y,z
loop_
_atom_site_type_symbol
_atom_site_label
_atom_site_fract_x
_atom_site_fract_y
_atom_site_fract_z
Si Si1 0.245508 0.070471 0.822999
Si Si2 0.658838 0.428388 0.922353
Si Si3 0.735677 0.924372 0.737473
Si Si4 0.950233 0.069182 0.353453
Si Si5 0.041452 0.429771 0.145977
Si Si6 0.418543 0.075975 0.534180
Si Si7 0.558439 0.931175 0.191269
O O1 0.229351 0.250000 0.798445
O O2 0.352227 0.008087 0.840564
O O3 0.162105 0.983706 0.704695
O O4 0.251442 0.019725 0.965944
O O5 0.672077 0.250000 0.952264
O O6 0.672358 0.466249 0.789340
O O7 0.550235 0.484785 0.907149
O O8 0.728785 0.750000 0.780063
O O9 0.846369 0.979235 0.786683
O O10 0.689006 0.941020 0.580137
O O11 0.959287 0.250000 0.367760
O O12 0.993575 0.011054 0.246995
O O13 0.000000 0.000000 0.500000
O O14 0.026576 0.250000 0.129521
O O15 0.000000 0.500000 0.000000
O O16 0.449616 0.250000 0.563908
O O17 0.418093 0.999829 0.664920
O O18 0.500000 0.000000 0.500000
O O19 0.561744 0.750000 0.193326
#
# Coordination Sequence:
#
# PCOD8072268 Si02
#       7
#     4   4   4   4   4   4   4
#     4  11  23  40  63  87 118 160 203 247 299 357
#     4  11  21  37  59  88 125 158 196 245 296 359
#     4  10  21  36  60  88 116 153 197 242 299 365
#     4  11  25  45  67  94 126 164 208 260 315 370
#     4  10  23  42  65  91 121 159 205 256 310 368
#     4  10  19  35  57  83 116 152 193 240 294 355
#     4   9  20  36  58  85 118 159 197 239 297 356
#
# _framework density 21.006665000000002
#
# number of rings (size 3 to 8) (size 9 to 14) (size 15 to 20)
#    0.000    1.714    1.429    2.571    2.000    4.000 
#    0.000    3.571    0.000    0.000    0.000    0.000 
#    0.000    0.000    0.000    0.000    0.000    0.000 
#
# Total GULP energy -347034.619947 kJ/mol
# GULP energy per Si atom -12394.093570 kJ/mol
# Density = 2.095885 g / cm^3
# Si number density = 21.006665 Si / 1000 Ang^3
#
#
#
# Elastic Constant Matrix: (Units=GPa)
#
#
# Indices 1 2 3 4 5 6 
#
# 1 103.1529 29.2293 45.3217 0.0000 15.5215 0.0000
# 2 29.2293 50.9566 35.7265 0.0000 5.8124 0.0000
# 3 45.3217 35.7265 145.7703 0.0000 17.0775 0.0000
# 4 0.0000 0.0000 0.0000 34.7193 0.0000 1.7919
# 5 15.5215 5.8124 17.0775 0.0000 38.2940 0.0000
# 6 0.0000 0.0000 0.0000 1.7919 0.0000 28.9402
#
#
#
# Elastic Compliance Matrix: (Units=1/GPa)
#
#
# Indices 1 2 3 4 5 6 
#
# 1 0.012693 -0.005322 -0.002252 0.000000 -0.003333 0.000000
# 2 -0.005322 0.025969 -0.004749 0.000000 0.000333 0.000000
# 3 -0.002252 -0.004749 0.009003 0.000000 -0.002382 0.000000
# 4 0.000000 0.000000 0.000000 0.028895 0.000000 -0.001789
# 5 -0.003333 0.000333 -0.002382 0.000000 0.028476 0.000000
# 6 0.000000 0.000000 0.000000 -0.001789 0.000000 0.034665
#
#
# Mechanical properties :
#
#
# Convention : Reuss Voigt Hill
#
# Bulk Modulus (GPa) = 43.44102 57.82608 50.63355
# Shear Modulus (GPa) = 29.06644 33.03087 31.04866
#
# Velocity S-wave (km/s) = 3.72382 3.96965 3.84870
# Velocity P-wave (km/s) = 6.26208 6.97123 6.62615
#
# Compressibility (1/GPa) = 0.02301972
#
# Stress axis : x y z
#
# Youngs Moduli (GPa) = 78.78226 38.50754 111.07300
#
# Poissons Ratio (x) = 0.20494 0.25009
# Poissons Ratio (y) = 0.41929 0.52749
# Poissons Ratio (z) = 0.17739 0.18287
#
# Static dielectric constant tensor:
#      x y z
#    x 3.991480 0.000000 0.001010 
#    y 0.000000 3.310400 0.000000 
#    z 0.001010 0.000000 4.330110 
# 
# 
# High freq. dielectric constant tensor:
#      x y z
#    x 1.825120 0.000000 0.005620 
#    y 0.000000 1.800950 0.000000 
#    z 0.005620 0.000000 1.845600 
# 
# From -- ./inp_files/38390.got.cif
#   From: 2010.06.25/outbox.cif.g09.slc.cpg/sg11_20_cif.got.tgz:38390.got - 2010.06.27 23:14:04.
