data_PCOD8072351
_publ_section_title
;
Structure prediction by ZEFSAII (Michael W. Deem and Ramdas Pophale) SiO2 
 PCOD8072351
Probable space group: P 21/M
;
_chemical_formula_sum "Si O2"
_cell_formula_units_Z 28
_cell_length_a 12.479913
_cell_length_b 15.740878
_cell_length_c 7.076883
_cell_angle_alpha 90.000000
_cell_angle_beta 62.540147
_cell_angle_gamma 90.000000
_cell_volume 1233.586841
_symmetry_space_group_name_H-M "P 21/M"
_symmetry_group_IT_number 11
_symmetry_cell_setting 'monoclinic'
loop_
_space_group_symop_operation_xyz
x,y,z
-x,1/2+y,-z
-x,-y,-z
x,1/2-y,z
loop_
_atom_site_type_symbol
_atom_site_label
_atom_site_fract_x
_atom_site_fract_y
_atom_site_fract_z
Si Si1 0.107398 0.570023 0.076752
Si Si2 0.486574 0.348111 0.004889
Si Si3 0.317400 0.151186 0.474711
Si Si4 0.080572 0.938308 0.680872
Si Si5 0.237933 0.652941 0.286488
Si Si6 0.130220 0.156169 0.323347
Si Si7 0.292767 0.084123 0.905264
O O1 0.147411 0.645880 0.180728
O O2 0.974809 0.533010 0.246896
O O3 0.090813 0.605440 0.878151
O O4 0.216199 0.501619 0.997248
O O5 0.460014 0.250000 0.967355
O O6 0.627460 0.368298 0.888957
O O7 0.421059 0.412422 0.910766
O O8 0.440843 0.363244 0.256819
O O9 0.301631 0.250000 0.538949
O O10 0.207821 0.116987 0.432872
O O11 0.317074 0.096121 0.664186
O O12 0.206770 0.919938 0.469797
O O13 0.991109 0.894249 0.606801
O O14 0.228045 0.750000 0.372419
O O15 0.091786 0.250000 0.408561
O O16 0.210753 0.157534 0.066371
#
# Coordination Sequence:
#
# PCOD8072351 Si02
#       7
#     4   4   4   4   4   4   4
#     4  10  24  41  61  88 118 152 197 246 292 350
#     4   9  20  37  58  88 121 154 198 244 286 344
#     4   9  17  32  56  85 116 151 193 243 297 345
#     4  10  22  41  61  85 118 156 194 240 294 347
#     4  11  24  42  63  86 118 160 197 236 291 351
#     4   9  18  32  55  88 116 145 194 246 291 346
#     4  10  19  35  59  85 117 155 192 243 300 344
#
# _framework density 22.698038
#
# number of rings (size 3 to 8) (size 9 to 14) (size 15 to 20)
#    0.000    2.286    0.000    3.000    0.000    9.714 
#    0.000    4.286    0.000    0.000    0.000    0.000 
#    0.000    0.000    0.000    0.000    0.000    0.000 
#
# Total GULP energy -346930.961752 kJ/mol
# GULP energy per Si atom -12390.391491 kJ/mol
# Density = 2.264638 g / cm^3
# Si number density = 22.698038 Si / 1000 Ang^3
#
#
#
# Elastic Constant Matrix: (Units=GPa)
#
#
# Indices 1 2 3 4 5 6 
#
# 1 59.3701 4.5428 35.2777 0.0000 -6.2884 0.0000
# 2 4.5428 30.6705 19.0971 0.0000 -7.3956 0.0000
# 3 35.2777 19.0971 128.8155 0.0000 2.6903 0.0000
# 4 0.0000 0.0000 0.0000 20.5504 0.0000 4.4429
# 5 -6.2884 -7.3956 2.6903 0.0000 37.6762 0.0000
# 6 0.0000 0.0000 0.0000 4.4429 0.0000 31.6877
#
#
#
# Elastic Compliance Matrix: (Units=1/GPa)
#
#
# Indices 1 2 3 4 5 6 
#
# 1 0.020737 0.001694 -0.006019 0.000000 0.004224 0.000000
# 2 0.001694 0.038271 -0.006310 0.000000 0.008246 0.000000
# 3 -0.006019 -0.006310 0.010409 0.000000 -0.002986 0.000000
# 4 0.000000 0.000000 0.000000 0.050182 0.000000 -0.007036
# 5 0.004224 0.008246 -0.002986 0.000000 0.029079 0.000000
# 6 0.000000 0.000000 0.000000 -0.007036 0.000000 0.032545
#
#
# Mechanical properties :
#
#
# Convention : Reuss Voigt Hill
#
# Bulk Modulus (GPa) = 20.76880 37.41015 29.08947
# Shear Modulus (GPa) = 22.87902 28.64542 25.76222
#
# Velocity S-wave (km/s) = 3.17830 3.55635 3.37263
# Velocity P-wave (km/s) = 4.75802 5.77762 5.29243
#
# Compressibility (1/GPa) = 0.04814916
#
# Stress axis : x y z
#
# Youngs Moduli (GPa) = 48.22192 26.12950 96.06937
#
# Poissons Ratio (x) = -0.04427 0.57820
# Poissons Ratio (y) = -0.08171 0.60620
# Poissons Ratio (z) = 0.29023 0.16488
#
# Static dielectric constant tensor:
#      x y z
#    x 4.156800 0.000000 -0.079110 
#    y 0.000000 3.769220 0.000000 
#    z -0.079110 0.000000 4.152620 
# 
# 
# High freq. dielectric constant tensor:
#      x y z
#    x 1.894660 0.000000 -0.005010 
#    y 0.000000 1.866840 0.000000 
#    z -0.005010 0.000000 1.903910 
# 
# From -- ./inp_files/5035.got.cif
#   From: 2010.06.25/outbox.cif.g09.slc.cpg/sg11_3_cif.got.tgz:5035.got - 2010.06.27 23:14:04.
