data_PCOD8072240
_publ_section_title
;
Structure prediction by ZEFSAII (Michael W. Deem and Ramdas Pophale) SiO2 
 PCOD8072240
Probable space group: P 21/M
;
_chemical_formula_sum "Si O2"
_cell_formula_units_Z 32
_cell_length_a 18.842019
_cell_length_b 9.289809
_cell_length_c 12.127384
_cell_angle_alpha 90.000000
_cell_angle_beta 53.445865
_cell_angle_gamma 90.000000
_cell_volume 1705.203209
_symmetry_space_group_name_H-M "P 21/M"
_symmetry_group_IT_number 11
_symmetry_cell_setting 'monoclinic'
loop_
_space_group_symop_operation_xyz
x,y,z
-x,1/2+y,-z
-x,-y,-z
x,1/2-y,z
loop_
_atom_site_type_symbol
_atom_site_label
_atom_site_fract_x
_atom_site_fract_y
_atom_site_fract_z
Si Si1 0.814505 0.916080 0.199917
Si Si2 0.563790 0.917670 0.023495
Si Si3 0.049436 0.079872 0.748226
Si Si4 0.381253 0.413362 0.565627
Si Si5 0.517844 0.918853 0.311256
Si Si6 0.849603 0.078736 0.951684
Si Si7 0.765781 0.584016 0.830370
Si Si8 0.918502 0.582432 0.523275
O O1 0.831643 0.750000 0.149657
O O2 0.891473 0.980536 0.206568
O O3 0.723352 0.929309 0.350723
O O4 0.807080 0.015450 0.100627
O O5 0.541053 0.750000 0.036216
O O6 0.550253 0.973553 0.161615
O O7 0.664439 0.948024 0.893445
O O8 0.500000 0.000000 0.000000
O O9 0.050108 0.250000 0.755892
O O10 0.091612 0.030172 0.593404
O O11 0.949980 0.021083 0.849906
O O12 0.412047 0.250000 0.517825
O O13 0.410116 0.462355 0.662416
O O14 0.425112 0.508416 0.429424
O O15 0.502396 0.750000 0.321852
O O16 0.844407 0.250000 0.957720
O O17 0.793844 0.020559 0.901796
O O18 0.777122 0.750000 0.857785
O O19 0.826271 0.548688 0.668696
O O20 0.942724 0.750000 0.506851
O O21 0.000000 0.500000 0.500000
#
# Coordination Sequence:
#
# PCOD8072240 Si02
#       8
#     4   4   4   4   4   4   4   4
#     4  10  20  35  54  77 109 145 181 221 271 331
#     4  10  22  39  57  82 114 147 185 229 277 330
#     4   9  19  34  52  77 109 143 178 223 273 320
#     4   9  18  33  56  81 102 135 181 222 264 323
#     4   9  18  34  54  76 108 140 172 222 274 319
#     4  11  21  34  54  80 112 144 181 229 273 322
#     4  10  21  37  60  84 108 146 189 226 273 333
#     4  10  19  35  57  80 108 142 184 231 274 322
#
# _framework density 18.766092
#
# number of rings (size 3 to 8) (size 9 to 14) (size 15 to 20)
#    0.000    2.250    1.250    1.500    0.000    4.500 
#    0.000    6.250    0.000    0.000    0.000    0.000 
#    0.000    0.000    0.000    0.000    0.000    0.000 
#
# Total GULP energy -396828.135998 kJ/mol
# GULP energy per Si atom -12400.879250 kJ/mol
# Density = 1.872338 g / cm^3
# Si number density = 18.766092 Si / 1000 Ang^3
#
#
#
# Elastic Constant Matrix: (Units=GPa)
#
#
# Indices 1 2 3 4 5 6 
#
# 1 84.8264 33.1670 30.1481 0.0000 -16.5526 0.0000
# 2 33.1670 48.6177 36.2019 0.0000 -3.8423 0.0000
# 3 30.1481 36.2019 110.6704 0.0000 -10.5575 0.0000
# 4 0.0000 0.0000 0.0000 25.1990 0.0000 -2.3612
# 5 -16.5526 -3.8423 -10.5575 0.0000 25.7429 0.0000
# 6 0.0000 0.0000 0.0000 -2.3612 0.0000 27.9598
#
#
#
# Elastic Compliance Matrix: (Units=1/GPa)
#
#
# Indices 1 2 3 4 5 6 
#
# 1 0.018331 -0.011511 -0.000278 0.000000 0.009955 0.000000
# 2 -0.011511 0.034425 -0.008681 0.000000 -0.005824 0.000000
# 3 -0.000278 -0.008681 0.012291 0.000000 0.003566 0.000000
# 4 0.000000 0.000000 0.000000 0.040001 0.000000 0.003378
# 5 0.009955 -0.005824 0.003566 0.000000 0.045840 0.000000
# 6 0.000000 0.000000 0.000000 0.003378 0.000000 0.036051
#
#
# Mechanical properties :
#
#
# Convention : Reuss Voigt Hill
#
# Bulk Modulus (GPa) = 41.48213 49.23870 45.36041
# Shear Modulus (GPa) = 21.19397 25.42019 23.30708
#
# Velocity S-wave (km/s) = 3.36426 3.68446 3.52799
# Velocity P-wave (km/s) = 6.10277 6.66298 6.38902
#
# Compressibility (1/GPa) = 0.02410677
#
# Stress axis : x y z
#
# Youngs Moduli (GPa) = 54.55175 29.04837 81.35720
#
# Poissons Ratio (x) = 0.33439 0.02266
# Poissons Ratio (y) = 0.62797 0.70624
# Poissons Ratio (z) = 0.01519 0.25216
#
# Static dielectric constant tensor:
#      x y z
#    x 3.513010 0.000000 0.005660 
#    y 0.000000 3.280790 0.000000 
#    z 0.005660 0.000000 3.644280 
# 
# 
# High freq. dielectric constant tensor:
#      x y z
#    x 1.726700 0.000000 -0.003860 
#    y 0.000000 1.710280 0.000000 
#    z -0.003860 0.000000 1.738880 
# 
# From -- ./inp_files/42780.got.cif
#   From: 2010.06.25/outbox.cif.g09.slc.cpg/sg11_22_cif.got.tgz:42780.got - 2010.06.27 23:14:04.
