data_PCOD8072956
_publ_section_title
;
Structure prediction by ZEFSAII (Michael W. Deem and Ramdas Pophale) SiO2 
 PCOD8072956
Probable space group: P 21/M
;
_chemical_formula_sum "Si O2"
_cell_formula_units_Z 32
_cell_length_a 11.490014
_cell_length_b 8.940483
_cell_length_c 17.746032
_cell_angle_alpha 90.000000
_cell_angle_beta 90.431973
_cell_angle_gamma 90.000000
_cell_volume 1822.931950
_symmetry_space_group_name_H-M "P 21/M"
_symmetry_group_IT_number 11
_symmetry_cell_setting 'monoclinic'
loop_
_space_group_symop_operation_xyz
x,y,z
-x,1/2+y,-z
-x,-y,-z
x,1/2-y,z
loop_
_atom_site_type_symbol
_atom_site_label
_atom_site_fract_x
_atom_site_fract_y
_atom_site_fract_z
Si Si1 0.463942 0.415297 0.390115
Si Si2 0.558935 0.079562 0.905214
Si Si3 0.775206 0.420548 0.819920
Si Si4 0.325989 0.419353 0.960400
Si Si5 0.119500 0.923674 0.018515
Si Si6 0.334714 0.416357 0.547283
Si Si7 0.776566 0.926904 0.669646
Si Si8 0.121091 0.571264 0.475869
O O1 0.503142 0.250000 0.365072
O O2 0.409796 0.408698 0.472608
O O3 0.579545 0.517813 0.387643
O O4 0.359801 0.474737 0.336166
O O5 0.582108 0.250000 0.936081
O O6 0.635023 0.059402 0.829744
O O7 0.419059 0.057747 0.891781
O O8 0.601321 0.955630 0.964227
O O9 0.806446 0.250000 0.799562
O O10 0.838236 0.469348 0.897673
O O11 0.820335 0.525722 0.752725
O O12 0.280468 0.250000 0.963097
O O13 0.213202 0.524814 0.955728
O O14 0.102056 0.750000 0.010371
O O15 0.000000 0.000000 0.000000
O O16 0.294442 0.250000 0.571292
O O17 0.221151 0.519093 0.534854
O O18 0.792319 0.750000 0.656383
O O19 0.851475 0.014106 0.608015
O O20 0.113567 0.750000 0.476693
O O21 0.000000 0.500000 0.500000
#
# Coordination Sequence:
#
# PCOD8072956 Si02
#       8
#     4   4   4   4   4   4   4   4
#     4   8  15  27  43  66  95 123 151 188 235 284
#     4   8  15  27  43  66  95 123 152 188 233 287
#     4   9  18  32  49  71  99 129 161 203 256 307
#     4   9  15  25  44  68  93 121 153 193 239 284
#     4  10  20  33  49  71  99 131 171 215 254 299
#     4   9  16  27  45  70  96 121 154 194 236 283
#     4  10  20  33  50  74 101 129 165 207 251 301
#     4  11  21  34  52  73 100 133 170 211 252 296
#
# _framework density 17.554138999999999
#
# number of rings (size 3 to 8) (size 9 to 14) (size 15 to 20)
#    0.000    2.750    0.000    4.125    0.000    6.500 
#    0.000    0.000    0.000    1.500    0.000    1.750 
#    0.000    0.000    0.000    0.000    0.000    0.000 
#
# Total GULP energy -396477.912741 kJ/mol
# GULP energy per Si atom -12389.934773 kJ/mol
# Density = 1.751418 g / cm^3
# Si number density = 17.554139 Si / 1000 Ang^3
#
#
#
# Elastic Constant Matrix: (Units=GPa)
#
#
# Indices 1 2 3 4 5 6 
#
# 1 129.4112 62.1385 39.1402 0.0000 -4.3039 0.0000
# 2 62.1385 109.8945 37.4103 0.0000 -2.0253 0.0000
# 3 39.1402 37.4103 51.8853 0.0000 -1.9798 0.0000
# 4 0.0000 0.0000 0.0000 20.9325 0.0000 0.2775
# 5 -4.3039 -2.0253 -1.9798 0.0000 14.3284 0.0000
# 6 0.0000 0.0000 0.0000 0.2775 0.0000 32.5209
#
#
#
# Elastic Compliance Matrix: (Units=1/GPa)
#
#
# Indices 1 2 3 4 5 6 
#
# 1 0.011689 -0.004766 -0.005301 0.000000 0.002105 0.000000
# 2 -0.004766 0.014007 -0.006517 0.000000 -0.000352 0.000000
# 3 -0.005301 -0.006517 0.028023 0.000000 0.001359 0.000000
# 4 0.000000 0.000000 0.000000 0.047778 0.000000 -0.000408
# 5 0.002105 -0.000352 0.001359 0.000000 0.070562 0.000000
# 6 0.000000 0.000000 0.000000 -0.000408 0.000000 0.030753
#
#
# Mechanical properties :
#
#
# Convention : Reuss Voigt Hill
#
# Bulk Modulus (GPa) = 48.66133 63.17433 55.91783
# Shear Modulus (GPa) = 20.59055 23.72317 22.15686
#
# Velocity S-wave (km/s) = 3.42859 3.68017 3.55660
# Velocity P-wave (km/s) = 6.59200 7.35694 6.98495
#
# Compressibility (1/GPa) = 0.02055020
#
# Stress axis : x y z
#
# Youngs Moduli (GPa) = 85.54978 71.39466 35.68499
#
# Poissons Ratio (x) = 0.34027 0.18917
# Poissons Ratio (y) = 0.40774 0.23256
# Poissons Ratio (z) = 0.45350 0.46529
#
# Static dielectric constant tensor:
#      x y z
#    x 3.428620 0.000000 -0.040070 
#    y 0.000000 3.400580 0.000000 
#    z -0.040070 0.000000 2.938250 
# 
# 
# High freq. dielectric constant tensor:
#      x y z
#    x 1.675200 0.000000 -0.004650 
#    y 0.000000 1.690840 0.000000 
#    z -0.004650 0.000000 1.625870 
# 
# From -- ./inp_files/58699.got.cif
#   From: 2010.06.25/outbox.cif.g09.slc.cpg/sg11_30_cif.got.tgz:58699.got - 2010.06.27 23:14:04.
