data_PCOD8072574
_publ_section_title
;
Structure prediction by ZEFSAII (Michael W. Deem and Ramdas Pophale) SiO2 
 PCOD8072574
Probable space group: P 21/M
;
_chemical_formula_sum "Si O2"
_cell_formula_units_Z 32
_cell_length_a 19.687124
_cell_length_b 12.396487
_cell_length_c 8.279742
_cell_angle_alpha 90.000000
_cell_angle_beta 50.890747
_cell_angle_gamma 90.000000
_cell_volume 1567.936229
_symmetry_space_group_name_H-M "P 21/M"
_symmetry_group_IT_number 11
_symmetry_cell_setting 'monoclinic'
loop_
_space_group_symop_operation_xyz
x,y,z
-x,1/2+y,-z
-x,-y,-z
x,1/2-y,z
loop_
_atom_site_type_symbol
_atom_site_label
_atom_site_fract_x
_atom_site_fract_y
_atom_site_fract_z
Si Si1 0.480953 0.955950 0.763805
Si Si2 0.781968 0.879196 0.933632
Si Si3 0.242789 0.045311 0.381942
Si Si4 0.933744 0.630206 0.239983
Si Si5 0.221043 0.623844 0.673038
Si Si6 0.644110 0.014377 0.314878
Si Si7 0.079762 0.019694 0.062329
Si Si8 0.429390 0.369792 0.082225
O O1 0.565161 0.956730 0.524378
O O2 0.497277 0.872466 0.886044
O O3 0.395377 0.925894 0.785628
O O4 0.464217 0.072066 0.870201
O O5 0.778271 0.750000 0.910741
O O6 0.763382 0.949076 0.801688
O O7 0.710346 0.916756 0.171767
O O8 0.877382 0.915982 0.853251
O O9 0.168821 0.123788 0.564267
O O10 0.339664 0.081730 0.289570
O O11 0.228554 0.926820 0.481227
O O12 0.966459 0.750000 0.232028
O O13 0.947148 0.608541 0.029686
O O14 0.992462 0.543943 0.252816
O O15 0.204450 0.750000 0.677652
O O16 0.309497 0.603016 0.642524
O O17 0.141808 0.570599 0.889575
O O18 0.411120 0.250000 0.051121
#
# Coordination Sequence:
#
# PCOD8072574 Si02
#       8
#     4   4   4   4   4   4   4   4
#     4  10  22  39  57  85 119 148 199 254 287 364
#     4  11  22  39  63  90 126 160 193 248 304 348
#     4  11  22  39  59  91 119 157 205 246 291 367
#     4  10  19  36  62  88 122 159 199 247 298 350
#     4  10  21  40  61  81 117 162 199 248 306 354
#     4  10  21  39  58  84 118 151 202 248 295 358
#     4   9  21  37  59  92 120 155 203 249 288 361
#     4  11  22  39  61  86 121 160 195 246 309 356
#
# _framework density 20.408992999999999
#
# number of rings (size 3 to 8) (size 9 to 14) (size 15 to 20)
#    0.000    1.750    2.500    1.875    0.000    2.000 
#    0.000    6.250    0.000    0.000    0.000    0.000 
#    0.000    0.000    0.000    0.000    0.000    0.000 
#
# Total GULP energy -396670.412858 kJ/mol
# GULP energy per Si atom -12395.950402 kJ/mol
# Density = 2.036254 g / cm^3
# Si number density = 20.408993 Si / 1000 Ang^3
#
#
#
# Elastic Constant Matrix: (Units=GPa)
#
#
# Indices 1 2 3 4 5 6 
#
# 1 113.4724 27.5578 19.9462 0.0000 3.6502 0.0000
# 2 27.5578 107.5573 31.0339 0.0000 6.3786 0.0000
# 3 19.9462 31.0339 64.8335 0.0000 3.8612 0.0000
# 4 0.0000 0.0000 0.0000 17.1837 0.0000 -0.9677
# 5 3.6502 6.3786 3.8612 0.0000 26.3699 0.0000
# 6 0.0000 0.0000 0.0000 -0.9677 0.0000 14.7469
#
#
#
# Elastic Compliance Matrix: (Units=1/GPa)
#
#
# Indices 1 2 3 4 5 6 
#
# 1 0.009639 -0.001844 -0.002048 0.000000 -0.000588 0.000000
# 2 -0.001844 0.011232 -0.004704 0.000000 -0.001773 0.000000
# 3 -0.002048 -0.004704 0.018381 0.000000 -0.001270 0.000000
# 4 0.000000 0.000000 0.000000 0.058411 0.000000 0.003833
# 5 -0.000588 -0.001773 -0.001270 0.000000 0.038618 0.000000
# 6 0.000000 0.000000 0.000000 0.003833 0.000000 0.068062
#
#
# Mechanical properties :
#
#
# Convention : Reuss Voigt Hill
#
# Bulk Modulus (GPa) = 45.32701 49.21546 47.27123
# Shear Modulus (GPa) = 21.84463 25.48177 23.66320
#
# Velocity S-wave (km/s) = 3.27516 3.53732 3.40876
# Velocity P-wave (km/s) = 6.04647 6.39144 6.22135
#
# Compressibility (1/GPa) = 0.02206190
#
# Stress axis : x y z
#
# Youngs Moduli (GPa) = 103.74034 89.03046 54.40316
#
# Poissons Ratio (x) = 0.16417 0.11141
# Poissons Ratio (y) = 0.19130 0.25589
# Poissons Ratio (z) = 0.21245 0.41876
#
# Static dielectric constant tensor:
#      x y z
#    x 4.118520 0.000000 -0.110330 
#    y 0.000000 3.413740 0.000000 
#    z -0.110330 0.000000 3.671010 
# 
# 
# High freq. dielectric constant tensor:
#      x y z
#    x 1.814790 0.000000 -0.007710 
#    y 0.000000 1.771360 0.000000 
#    z -0.007710 0.000000 1.791270 
# 
# From -- ./inp_files/26580.got.cif
#   From: 2010.06.25/outbox.cif.g09.slc.cpg/sg11_14_cif.got.tgz:26580.got - 2010.06.27 23:14:04.
