data_PCOD8072809
_publ_section_title
;
Structure prediction by ZEFSAII (Michael W. Deem and Ramdas Pophale) SiO2 
 PCOD8072809
Probable space group: P 21/M
;
_chemical_formula_sum "Si O2"
_cell_formula_units_Z 24
_cell_length_a 23.742053
_cell_length_b 9.485811
_cell_length_c 17.184488
_cell_angle_alpha 90.000000
_cell_angle_beta 158.955694
_cell_angle_gamma 90.000000
_cell_volume 1389.736178
_symmetry_space_group_name_H-M "P 21/M"
_symmetry_group_IT_number 11
_symmetry_cell_setting 'monoclinic'
loop_
_space_group_symop_operation_xyz
x,y,z
-x,1/2+y,-z
-x,-y,-z
x,1/2-y,z
loop_
_atom_site_type_symbol
_atom_site_label
_atom_site_fract_x
_atom_site_fract_y
_atom_site_fract_z
Si Si1 0.422109 0.086634 0.513038
Si Si2 0.550669 0.904899 0.953069
Si Si3 0.705107 0.587294 0.821305
Si Si4 0.268048 0.593838 0.709268
Si Si5 0.056367 0.582626 0.302894
Si Si6 0.317643 0.583032 0.521464
O O1 0.448391 0.250000 0.568641
O O2 0.324600 0.070657 0.308336
O O3 0.589617 0.010207 0.721971
O O4 0.320381 0.007827 0.446811
O O5 0.622829 0.750000 0.034286
O O6 0.418524 0.899524 0.848230
O O7 0.472250 0.955898 0.771355
O O8 0.694298 0.003919 0.164948
O O9 0.683087 0.750000 0.818782
O O10 0.879333 0.530619 0.063561
O O11 0.223646 0.750000 0.681137
O O12 0.125677 0.526196 0.474812
O O13 0.068626 0.750000 0.321185
O O14 0.162558 0.531728 0.367509
O O15 0.312424 0.750000 0.496205
#
# Coordination Sequence:
#
# PCOD8072809 Si02
#       6
#     4   4   4   4   4   4
#     4  10  20  32  47  69  93 118 153 192 227 268
#     4   8  14  24  39  62  91 120 147 175 215 267
#     4   9  18  34  52  66  87 122 156 186 226 275
#     4   8  13  23  41  64  89 116 146 181 218 259
#     4   8  15  29  49  71  92 118 154 188 222 270
#     4   9  17  30  48  69  94 123 152 184 224 270
#
# _framework density 17.269463999999999
#
# number of rings (size 3 to 8) (size 9 to 14) (size 15 to 20)
#    0.000    3.333    0.000    2.500    0.000    2.000 
#    0.000    4.167    0.000    1.000    0.000    0.000 
#    0.000    0.000    0.000    0.000    0.000    0.000 
#
# Total GULP energy -297461.237031 kJ/mol
# GULP energy per Si atom -12394.218210 kJ/mol
# Density = 1.723016 g / cm^3
# Si number density = 17.269464 Si / 1000 Ang^3
#
#
#
# Elastic Constant Matrix: (Units=GPa)
#
#
# Indices 1 2 3 4 5 6 
#
# 1 11.4513 11.0346 16.7629 0.0000 1.2114 0.0000
# 2 11.0346 59.6446 35.9189 0.0000 -0.9825 0.0000
# 3 16.7629 35.9189 118.5520 0.0000 0.4249 0.0000
# 4 0.0000 0.0000 0.0000 20.8640 0.0000 -4.9213
# 5 1.2114 -0.9825 0.4249 0.0000 13.3958 0.0000
# 6 0.0000 0.0000 0.0000 -4.9213 0.0000 28.4252
#
#
#
# Elastic Compliance Matrix: (Units=1/GPa)
#
#
# Indices 1 2 3 4 5 6 
#
# 1 0.121510 -0.015108 -0.012562 0.000000 -0.011698 0.000000
# 2 -0.015108 0.022425 -0.004669 0.000000 0.003159 0.000000
# 3 -0.012562 -0.004669 0.011625 0.000000 0.000425 0.000000
# 4 0.000000 0.000000 0.000000 0.049970 0.000000 0.008651
# 5 -0.011698 0.003159 0.000425 0.000000 0.075926 0.000000
# 6 0.000000 0.000000 0.000000 0.008651 0.000000 0.036678
#
#
# Mechanical properties :
#
#
# Convention : Reuss Voigt Hill
#
# Bulk Modulus (GPa) = 11.00336 35.23120 23.11728
# Shear Modulus (GPa) = 12.10343 20.93245 16.51794
#
# Velocity S-wave (km/s) = 2.65024 3.48531 3.09606
# Velocity P-wave (km/s) = 3.96868 6.05324 5.11821
#
# Compressibility (1/GPa) = 0.09088134
#
# Stress axis : x y z
#
# Youngs Moduli (GPa) = 8.22977 44.59290 86.02489
#
# Poissons Ratio (x) = 0.67371 1.08063
# Poissons Ratio (y) = 0.12433 0.40169
# Poissons Ratio (z) = 0.10338 0.20823
#
# Static dielectric constant tensor:
#      x y z
#    x 2.979490 0.000000 -0.220370 
#    y 0.000000 3.239230 0.000000 
#    z -0.220370 0.000000 3.383670 
# 
# 
# High freq. dielectric constant tensor:
#      x y z
#    x 1.641790 0.000000 -0.020250 
#    y 0.000000 1.649540 0.000000 
#    z -0.020250 0.000000 1.661510 
# 
# From -- ./inp_files/24369.got.cif
#   From: 2010.06.25/outbox.cif.g09.slc.cpg/sg11_13_cif.got.tgz:24369.got - 2010.06.27 23:14:04.
