data_PCOD8072201
_publ_section_title
;
Structure prediction by ZEFSAII (Michael W. Deem and Ramdas Pophale) SiO2 
 PCOD8072201
Probable space group: P 21/M
;
_chemical_formula_sum "Si O2"
_cell_formula_units_Z 32
_cell_length_a 18.961200
_cell_length_b 8.941848
_cell_length_c 12.078340
_cell_angle_alpha 90.000000
_cell_angle_beta 53.309296
_cell_angle_gamma 90.000000
_cell_volume 1642.123153
_symmetry_space_group_name_H-M "P 21/M"
_symmetry_group_IT_number 11
_symmetry_cell_setting 'monoclinic'
loop_
_space_group_symop_operation_xyz
x,y,z
-x,1/2+y,-z
-x,-y,-z
x,1/2-y,z
loop_
_atom_site_type_symbol
_atom_site_label
_atom_site_fract_x
_atom_site_fract_y
_atom_site_fract_z
Si Si1 0.810334 0.921906 0.210327
Si Si2 0.565974 0.073879 0.024987
Si Si3 0.049123 0.072920 0.750836
Si Si4 0.384102 0.420225 0.561148
Si Si5 0.526797 0.924711 0.295523
Si Si6 0.852846 0.073381 0.952570
Si Si7 0.767239 0.075152 0.806287
Si Si8 0.913878 0.926586 0.529042
O O1 0.829142 0.750000 0.163489
O O2 0.887862 0.991998 0.212582
O O3 0.719397 0.938600 0.361900
O O4 0.801735 0.012532 0.105801
O O5 0.548532 0.250000 0.044893
O O6 0.664375 0.038156 0.890384
O O7 0.500000 0.000000 0.000000
O O8 0.553692 0.011576 0.159885
O O9 0.045931 0.250000 0.763089
O O10 0.088954 0.026007 0.596139
O O11 0.951474 0.005773 0.856512
O O12 0.415403 0.250000 0.511734
O O13 0.406408 0.465451 0.667299
O O14 0.430340 0.525572 0.427550
O O15 0.525943 0.750000 0.268119
O O16 0.855886 0.250000 0.955589
O O17 0.799483 0.019394 0.895811
O O18 0.786741 0.250000 0.772206
O O19 0.822551 0.984949 0.664179
O O20 0.921349 0.750000 0.538874
O O21 0.000000 0.000000 0.500000
#
# Coordination Sequence:
#
# PCOD8072201 Si02
#       8
#     4   4   4   4   4   4   4   4
#     4  10  20  34  53  81 113 145 186 230 278 338
#     4  11  24  41  61  85 118 155 193 242 298 356
#     4   9  19  35  54  77 111 149 182 226 282 334
#     4   9  19  35  56  83 115 149 187 236 289 344
#     4  10  20  36  59  84 113 148 193 240 285 345
#     4  10  19  35  56  78 112 149 183 228 282 338
#     4  10  22  40  61  86 115 150 192 238 290 346
#     4  11  21  37  60  84 114 152 196 243 288 339
#
# _framework density 19.486967
#
# number of rings (size 3 to 8) (size 9 to 14) (size 15 to 20)
#    0.000    2.000    1.250    2.250    0.000    3.500 
#    0.000    2.500    0.000    0.000    0.000    0.000 
#    0.000    0.000    0.000    0.000    0.000    0.000 
#
# Total GULP energy -396846.252188 kJ/mol
# GULP energy per Si atom -12401.445381 kJ/mol
# Density = 1.944261 g / cm^3
# Si number density = 19.486967 Si / 1000 Ang^3
#
#
#
# Elastic Constant Matrix: (Units=GPa)
#
#
# Indices 1 2 3 4 5 6 
#
# 1 89.5886 28.2287 26.9452 0.0000 -17.4434 0.0000
# 2 28.2287 57.1879 41.1270 0.0000 -6.6015 0.0000
# 3 26.9452 41.1270 104.2262 0.0000 -7.8351 0.0000
# 4 0.0000 0.0000 0.0000 38.6057 0.0000 -0.2058
# 5 -17.4434 -6.6015 -7.8351 0.0000 28.1831 0.0000
# 6 0.0000 0.0000 0.0000 -0.2058 0.0000 24.9713
#
#
#
# Elastic Compliance Matrix: (Units=1/GPa)
#
#
# Indices 1 2 3 4 5 6 
#
# 1 0.014712 -0.005678 -0.000999 0.000000 0.007498 0.000000
# 2 -0.005678 0.026875 -0.009118 0.000000 0.000246 0.000000
# 3 -0.000999 -0.009118 0.013526 0.000000 0.001006 0.000000
# 4 0.000000 0.000000 0.000000 0.025904 0.000000 0.000214
# 5 0.007498 0.000246 0.001006 0.000000 0.040460 0.000000
# 6 0.000000 0.000000 0.000000 0.000214 0.000000 0.040048
#
#
# Mechanical properties :
#
#
# Convention : Reuss Voigt Hill
#
# Bulk Modulus (GPa) = 42.51295 49.28938 45.90116
# Shear Modulus (GPa) = 24.88111 28.66547 26.77329
#
# Velocity S-wave (km/s) = 3.57712 3.83953 3.71065
# Velocity P-wave (km/s) = 6.23895 6.70853 6.47800
#
# Compressibility (1/GPa) = 0.02352225
#
# Stress axis : x y z
#
# Youngs Moduli (GPa) = 67.97394 37.20988 73.92901
#
# Poissons Ratio (x) = 0.21126 0.07388
# Poissons Ratio (y) = 0.38593 0.67410
# Poissons Ratio (z) = 0.06793 0.33929
#
# Static dielectric constant tensor:
#      x y z
#    x 3.734300 0.000000 -0.032100 
#    y 0.000000 3.426040 0.000000 
#    z -0.032100 0.000000 3.587130 
# 
# 
# High freq. dielectric constant tensor:
#      x y z
#    x 1.763530 0.000000 -0.004760 
#    y 0.000000 1.745630 0.000000 
#    z -0.004760 0.000000 1.766280 
# 
# From -- ./inp_files/38277.got.cif
#   From: 2010.06.25/outbox.cif.g09.slc.cpg/sg11_20_cif.got.tgz:38277.got - 2010.06.27 23:14:04.
