data_PCOD8072183
_publ_section_title
;
Structure prediction by ZEFSAII (Michael W. Deem and Ramdas Pophale) SiO2 
 PCOD8072183
Probable space group: P 21/M
;
_chemical_formula_sum "Si O2"
_cell_formula_units_Z 20
_cell_length_a 5.201745
_cell_length_b 18.025482
_cell_length_c 11.213619
_cell_angle_alpha 90.000000
_cell_angle_beta 83.674757
_cell_angle_gamma 90.000000
_cell_volume 1045.032746
_symmetry_space_group_name_H-M "P 21/M"
_symmetry_group_IT_number 11
_symmetry_cell_setting 'monoclinic'
loop_
_space_group_symop_operation_xyz
x,y,z
-x,1/2+y,-z
-x,-y,-z
x,1/2-y,z
loop_
_atom_site_type_symbol
_atom_site_label
_atom_site_fract_x
_atom_site_fract_y
_atom_site_fract_z
Si Si1 0.181082 0.582403 0.092568
Si Si2 0.937259 0.335776 0.374053
Si Si3 0.604057 0.664107 0.475675
Si Si4 0.658580 0.587470 0.224705
Si Si5 0.902558 0.442177 0.161430
O O1 0.432257 0.612633 0.146885
O O2 0.927909 0.622726 0.162550
O O3 0.151515 0.492548 0.110514
O O4 0.204745 0.600004 0.950627
O O5 0.975531 0.250000 0.339350
O O6 0.651194 0.352440 0.435440
O O7 0.989955 0.381829 0.252340
O O8 0.145563 0.360279 0.462074
O O9 0.619608 0.750000 0.437712
O O10 0.591873 0.614832 0.359042
O O11 0.683739 0.497566 0.226578
#
# Coordination Sequence:
#
# PCOD8072183 Si02
#       5
#     4   4   4   4   4
#     4   9  20  34  55  80 106 134 168 220 266 299
#     4  10  22  37  54  76 106 143 173 214 264 308
#     4  10  22  38  53  75 110 141 175 217 260 308
#     4  10  19  35  55  79 104 139 173 212 265 305
#     4   9  21  34  58  76 112 132 176 217 260 310
#
# _framework density 19.138155999999999
#
# number of rings (size 3 to 8) (size 9 to 14) (size 15 to 20)
#    1.200    1.200    0.000    1.800    2.800    1.600 
#    0.000    2.000    0.000    0.000    0.000    0.000 
#    0.000    0.000    0.000    0.000    0.000    0.000 
#
# Total GULP energy -247918.437304 kJ/mol
# GULP energy per Si atom -12395.921865 kJ/mol
# Density = 1.909460 g / cm^3
# Si number density = 19.138156 Si / 1000 Ang^3
#
#
#
# Elastic Constant Matrix: (Units=GPa)
#
#
# Indices 1 2 3 4 5 6 
#
# 1 111.9109 15.0689 22.3282 0.0000 21.5693 0.0000
# 2 15.0689 31.0766 44.2875 0.0000 6.1450 0.0000
# 3 22.3282 44.2875 122.7160 0.0000 25.6017 0.0000
# 4 0.0000 0.0000 0.0000 -1.2399 0.0000 -0.2764
# 5 21.5693 6.1450 25.6017 0.0000 28.1763 0.0000
# 6 0.0000 0.0000 0.0000 -0.2764 0.0000 11.1189
#
#
#
# Elastic Compliance Matrix: (Units=1/GPa)
#
#
# Indices 1 2 3 4 5 6 
#
# 1 0.011182 -0.007089 0.002452 0.000000 -0.009242 0.000000
# 2 -0.007089 0.072641 -0.028075 0.000000 0.015094 0.000000
# 3 0.002452 -0.028075 0.020913 0.000000 -0.014756 0.000000
# 4 0.000000 0.000000 0.000000 -0.802066 0.000000 -0.019942
# 5 -0.009242 0.015094 -0.014756 0.000000 0.052682 0.000000
# 6 0.000000 0.000000 0.000000 -0.019942 0.000000 0.089441
#
#
# Mechanical properties :
#
#
# Convention : Reuss Voigt Hill
#
# Bulk Modulus (GPa) = 25.43700 47.67474 36.55587
# Shear Modulus (GPa) = -10.48924 19.87900 4.69488
#
# Velocity S-wave (km/s) = -2.34365 3.22640 1.56795
# Velocity P-wave (km/s) = 2.44878 6.23253 4.73503
#
# Compressibility (1/GPa) = 0.03931281
#
# Stress axis : x y z
#
# Youngs Moduli (GPa) = 89.42721 13.76634 47.81619
#
# Poissons Ratio (x) = 0.09759 -0.11724
# Poissons Ratio (y) = 0.63394 1.34243
# Poissons Ratio (z) = -0.21926 0.38649
#
# Static dielectric constant tensor:
#      x y z
#    x 3.515090 0.000000 0.067880 
#    y 0.000000 3.135890 0.000000 
#    z 0.067880 0.000000 3.340270 
# 
# 
# High freq. dielectric constant tensor:
#      x y z
#    x 1.751510 0.000000 0.007190 
#    y 0.000000 1.702260 0.000000 
#    z 0.007190 0.000000 1.749840 
# 
# From -- ./inp_files/2269.got.cif
#   From: 2010.06.25/outbox.cif.g09.slc.cpg/sg11_2_cif.got.tgz:2269.got - 2010.06.27 23:14:04.
