data_PCOD8072379
_publ_section_title
;
Structure prediction by ZEFSAII (Michael W. Deem and Ramdas Pophale) SiO2 
 PCOD8072379
Probable space group: P 21/M
;
_chemical_formula_sum "Si O2"
_cell_formula_units_Z 28
_cell_length_a 9.598761
_cell_length_b 13.131999
_cell_length_c 13.607773
_cell_angle_alpha 90.000000
_cell_angle_beta 61.080602
_cell_angle_gamma 90.000000
_cell_volume 1501.379318
_symmetry_space_group_name_H-M "P 21/M"
_symmetry_group_IT_number 11
_symmetry_cell_setting 'monoclinic'
loop_
_space_group_symop_operation_xyz
x,y,z
-x,1/2+y,-z
-x,-y,-z
x,1/2-y,z
loop_
_atom_site_type_symbol
_atom_site_label
_atom_site_fract_x
_atom_site_fract_y
_atom_site_fract_z
Si Si1 0.878637 0.522713 0.455460
Si Si2 0.668608 0.367928 0.933438
Si Si3 0.589303 0.633036 0.625904
Si Si4 0.344634 0.132955 0.749028
Si Si5 0.506919 0.492115 0.156294
Si Si6 0.983273 0.634925 0.239752
Si Si7 0.606580 0.131114 0.496869
O O1 0.764145 0.617122 0.521118
O O2 0.988083 0.555794 0.327374
O O3 0.770811 0.425133 0.465443
O O4 0.000000 0.500000 0.500000
O O5 0.618171 0.250000 0.934554
O O6 0.616845 0.436882 0.859168
O O7 0.858459 0.378426 0.879209
O O8 0.590238 0.409054 0.059351
O O9 0.565326 0.750000 0.661839
O O10 0.581729 0.567116 0.726824
O O11 0.458702 0.599431 0.588651
O O12 0.367522 0.250000 0.769873
O O13 0.363136 0.066801 0.840842
O O14 0.167615 0.109095 0.774909
O O15 0.472773 0.101305 0.622405
O O16 0.972072 0.750000 0.284751
O O17 0.644163 0.250000 0.487518
#
# Coordination Sequence:
#
# PCOD8072379 Si02
#       7
#     4   4   4   4   4   4   4
#     4  12  22  34  54  84 118 150 186 231 284 339
#     4  10  23  41  57  80 114 150 192 235 282 337
#     4  11  21  36  58  85 113 148 189 235 283 334
#     4  10  19  35  60  86 112 147 191 232 275 335
#     4  11  21  37  61  84 109 147 192 236 284 332
#     4  10  21  37  56  80 113 150 187 232 281 334
#     4  10  21  37  57  84 119 154 189 228 277 341
#
# _framework density 18.649518
#
# number of rings (size 3 to 8) (size 9 to 14) (size 15 to 20)
#    0.000    1.429    2.857    3.429    0.000    1.714 
#    0.000    0.000    0.000    1.714    0.000    0.000 
#    0.000    0.000    0.000    0.000    0.000    0.000 
#
# Total GULP energy -347221.782087 kJ/mol
# GULP energy per Si atom -12400.777932 kJ/mol
# Density = 1.860707 g / cm^3
# Si number density = 18.649518 Si / 1000 Ang^3
#
#
#
# Elastic Constant Matrix: (Units=GPa)
#
#
# Indices 1 2 3 4 5 6 
#
# 1 85.8998 48.0682 30.7824 0.0000 3.1088 0.0000
# 2 48.0682 86.2234 34.2971 0.0000 8.9572 0.0000
# 3 30.7824 34.2971 71.7662 0.0000 6.0785 0.0000
# 4 0.0000 0.0000 0.0000 30.8781 0.0000 2.1867
# 5 3.1088 8.9572 6.0785 0.0000 27.6348 0.0000
# 6 0.0000 0.0000 0.0000 2.1867 0.0000 29.6440
#
#
#
# Elastic Compliance Matrix: (Units=1/GPa)
#
#
# Indices 1 2 3 4 5 6 
#
# 1 0.017684 -0.008585 -0.003617 0.000000 0.001589 0.000000
# 2 -0.008585 0.018770 -0.004947 0.000000 -0.004030 0.000000
# 3 -0.003617 -0.004947 0.018015 0.000000 -0.001952 0.000000
# 4 0.000000 0.000000 0.000000 0.032555 0.000000 -0.002401
# 5 0.001589 -0.004030 -0.001952 0.000000 0.037743 0.000000
# 6 0.000000 0.000000 0.000000 -0.002401 0.000000 0.033911
#
#
# Mechanical properties :
#
#
# Convention : Reuss Voigt Hill
#
# Bulk Modulus (GPa) = 49.57361 52.24274 50.90817
# Shear Modulus (GPa) = 25.03762 26.34750 25.69256
#
# Velocity S-wave (km/s) = 3.66804 3.76276 3.71570
# Velocity P-wave (km/s) = 6.67673 6.85212 6.76499
#
# Compressibility (1/GPa) = 0.02017202
#
# Stress axis : x y z
#
# Youngs Moduli (GPa) = 56.54783 53.27647 55.50970
#
# Poissons Ratio (x) = 0.45738 0.20078
# Poissons Ratio (y) = 0.48546 0.27458
# Poissons Ratio (z) = 0.20453 0.26353
#
# Static dielectric constant tensor:
#      x y z
#    x 3.423820 0.000000 0.053070 
#    y 0.000000 3.606060 0.000000 
#    z 0.053070 0.000000 3.302680 
# 
# 
# High freq. dielectric constant tensor:
#      x y z
#    x 1.724250 0.000000 0.005880 
#    y 0.000000 1.741260 0.000000 
#    z 0.005880 0.000000 1.712120 
# 
# From -- ./inp_files/17726.got.cif
#   From: 2010.06.25/outbox.cif.g09.slc.cpg/sg11_9_cif.got.tgz:17726.got - 2010.06.27 23:14:04.
