data_PCOD8072580
_publ_section_title
;
Structure prediction by ZEFSAII (Michael W. Deem and Ramdas Pophale) SiO2 
 PCOD8072580
Probable space group: P 21/M
;
_chemical_formula_sum "Si O2"
_cell_formula_units_Z 24
_cell_length_a 13.819755
_cell_length_b 14.421437
_cell_length_c 10.153320
_cell_angle_alpha 90.000000
_cell_angle_beta 146.518597
_cell_angle_gamma 90.000000
_cell_volume 1116.332080
_symmetry_space_group_name_H-M "P 21/M"
_symmetry_group_IT_number 11
_symmetry_cell_setting 'monoclinic'
loop_
_space_group_symop_operation_xyz
x,y,z
-x,1/2+y,-z
-x,-y,-z
x,1/2-y,z
loop_
_atom_site_type_symbol
_atom_site_label
_atom_site_fract_x
_atom_site_fract_y
_atom_site_fract_z
Si Si1 0.610134 0.647803 0.422369
Si Si2 0.949227 0.141526 0.589987
Si Si3 0.661228 0.642601 0.008219
Si Si4 0.407306 0.640991 0.941040
Si Si5 0.855114 0.025938 0.731095
Si Si6 0.478386 0.901619 0.537696
O O1 0.683488 0.750000 0.462739
O O2 0.762095 0.571352 0.589704
O O3 0.522942 0.666179 0.467193
O O4 0.462006 0.612116 0.150780
O O5 0.932210 0.250000 0.612819
O O6 0.793077 0.110740 0.314171
O O7 0.946883 0.074208 0.712296
O O8 0.134480 0.124121 0.727399
O O9 0.616652 0.750000 0.954739
O O10 0.540281 0.594732 0.983784
O O11 0.616010 0.606256 0.812024
O O12 0.422892 0.750000 0.943347
O O13 0.720482 0.104222 0.634203
O O14 0.000000 0.000000 0.000000
O O15 0.500000 0.000000 0.500000
#
# Coordination Sequence:
#
# PCOD8072580 Si02
#       6
#     4   4   4   4   4   4
#     4  10  22  41  62  87 125 165 200 254 315 359
#     4  10  20  36  61  91 121 160 208 255 302 365
#     4  10  19  36  63  87 117 160 206 252 304 364
#     4   9  19  38  61  88 122 162 205 249 307 371
#     4  11  23  39  60  91 126 158 211 256 300 367
#     4  10  20  36  57  83 115 152 197 249 297 358
#
# _framework density 21.49898
#
# number of rings (size 3 to 8) (size 9 to 14) (size 15 to 20)
#    0.000    2.000    1.667    2.500    0.000    3.333 
#    3.000    0.833    0.000    0.000    0.000    0.000 
#    0.000    0.000    0.000    0.000    0.000    0.000 
#
# Total GULP energy -297418.757209 kJ/mol
# GULP energy per Si atom -12392.448217 kJ/mol
# Density = 2.145005 g / cm^3
# Si number density = 21.498980 Si / 1000 Ang^3
#
#
#
# Elastic Constant Matrix: (Units=GPa)
#
#
# Indices 1 2 3 4 5 6 
#
# 1 87.3518 15.3406 52.3336 0.0000 -7.8946 0.0000
# 2 15.3406 59.2227 34.8614 0.0000 1.4923 0.0000
# 3 52.3336 34.8614 190.9326 0.0000 -7.0202 0.0000
# 4 0.0000 0.0000 0.0000 29.4986 0.0000 -2.3776
# 5 -7.8946 1.4923 -7.0202 0.0000 40.4541 0.0000
# 6 0.0000 0.0000 0.0000 -2.3776 0.0000 24.0665
#
#
#
# Elastic Compliance Matrix: (Units=1/GPa)
#
#
# Indices 1 2 3 4 5 6 
#
# 1 0.014007 -0.001648 -0.003458 0.000000 0.002194 0.000000
# 2 -0.001648 0.019182 -0.003108 0.000000 -0.001569 0.000000
# 3 -0.003458 -0.003108 0.006775 0.000000 0.000616 0.000000
# 4 0.000000 0.000000 0.000000 0.034172 0.000000 0.003376
# 5 0.002194 -0.001569 0.000616 0.000000 0.025312 0.000000
# 6 0.000000 0.000000 0.000000 0.003376 0.000000 0.041885
#
#
# Mechanical properties :
#
#
# Convention : Reuss Voigt Hill
#
# Bulk Modulus (GPa) = 42.48827 60.28647 51.38737
# Shear Modulus (GPa) = 30.19195 34.46860 32.33028
#
# Velocity S-wave (km/s) = 3.75152 4.00843 3.88210
# Velocity P-wave (km/s) = 6.21056 7.03745 6.63690
#
# Compressibility (1/GPa) = 0.02353591
#
# Stress axis : x y z
#
# Youngs Moduli (GPa) = 71.39141 52.13353 147.59451
#
# Poissons Ratio (x) = 0.08593 0.51034
# Poissons Ratio (y) = 0.11767 0.45875
# Poissons Ratio (z) = 0.24685 0.16204
#
# Static dielectric constant tensor:
#      x y z
#    x -7.696710 0.000000 0.002430 
#    y 0.000000 3.537160 0.000000 
#    z 0.002430 0.000000 3.959800 
# 
# 
# High freq. dielectric constant tensor:
#      x y z
#    x 1.839020 0.000000 -0.006400 
#    y 0.000000 1.843000 0.000000 
#    z -0.006400 0.000000 1.847380 
# 
# From -- ./inp_files/39729.got.cif
#   From: 2010.06.25/outbox.cif.g09.slc.cpg/sg11_20_cif.got.tgz:39729.got - 2010.06.27 23:14:04.
