data_PCOD8072570
_publ_section_title
;
Structure prediction by ZEFSAII (Michael W. Deem and Ramdas Pophale) SiO2 
 PCOD8072570
Probable space group: P 21/M
;
_chemical_formula_sum "Si O2"
_cell_formula_units_Z 24
_cell_length_a 9.966684
_cell_length_b 17.735864
_cell_length_c 10.135591
_cell_angle_alpha 90.000000
_cell_angle_beta 43.650221
_cell_angle_gamma 90.000000
_cell_volume 1236.690623
_symmetry_space_group_name_H-M "P 21/M"
_symmetry_group_IT_number 11
_symmetry_cell_setting 'monoclinic'
loop_
_space_group_symop_operation_xyz
x,y,z
-x,1/2+y,-z
-x,-y,-z
x,1/2-y,z
loop_
_atom_site_type_symbol
_atom_site_label
_atom_site_fract_x
_atom_site_fract_y
_atom_site_fract_z
Si Si1 0.157786 0.161049 0.964825
Si Si2 0.784270 0.088683 0.612115
Si Si3 0.252590 0.836910 0.636820
Si Si4 0.216440 0.088058 0.382152
Si Si5 0.562226 0.839370 0.004599
Si Si6 0.674313 0.662622 0.429603
O O1 0.184113 0.250000 0.944744
O O2 0.290092 0.128490 0.989120
O O3 0.231825 0.129907 0.771984
O O4 0.934430 0.136880 0.146003
O O5 0.723117 0.112857 0.509595
O O6 0.653568 0.131764 0.811890
O O7 0.005402 0.112475 0.480567
O O8 0.750868 0.000443 0.653229
O O9 0.230954 0.750000 0.606805
O O10 0.441625 0.847780 0.592687
O O11 0.236781 0.112884 0.518271
O O12 0.377402 0.129943 0.180795
O O13 0.562836 0.750000 0.999092
O O14 0.729562 0.750000 0.411883
#
# Coordination Sequence:
#
# PCOD8072570 Si02
#       6
#     4   4   4   4   4   4
#     4   9  18  34  59  86 113 146 196 247 288 344
#     4  11  23  40  61  86 124 164 200 235 298 366
#     4  10  19  36  62  86 112 155 205 244 289 357
#     4  11  25  40  58  89 129 158 192 249 303 351
#     4  11  21  38  65  89 112 157 207 248 292 350
#     4  10  21  38  59  88 118 149 195 253 299 340
#
# _framework density 19.406631000000001
#
# number of rings (size 3 to 8) (size 9 to 14) (size 15 to 20)
#    0.000    1.667    3.333    1.500    0.000    4.000 
#    0.000    2.500    0.000    0.000    0.000    0.000 
#    0.000    0.000    0.000    0.000    0.000    0.000 
#
# Total GULP energy -297718.098118 kJ/mol
# GULP energy per Si atom -12404.920755 kJ/mol
# Density = 1.936246 g / cm^3
# Si number density = 19.406631 Si / 1000 Ang^3
#
#
#
# Elastic Constant Matrix: (Units=GPa)
#
#
# Indices 1 2 3 4 5 6 
#
# 1 60.3162 31.1540 20.8891 0.0000 7.3886 0.0000
# 2 31.1540 65.8020 38.2963 0.0000 -7.3741 0.0000
# 3 20.8891 38.2963 128.5882 0.0000 -2.8555 0.0000
# 4 0.0000 0.0000 0.0000 13.9095 0.0000 6.1506
# 5 7.3886 -7.3741 -2.8555 0.0000 37.1387 0.0000
# 6 0.0000 0.0000 0.0000 6.1506 0.0000 20.5533
#
#
#
# Elastic Compliance Matrix: (Units=1/GPa)
#
#
# Indices 1 2 3 4 5 6 
#
# 1 0.023666 -0.011695 -0.000518 0.000000 -0.007070 0.000000
# 2 -0.011695 0.024559 -0.005263 0.000000 0.006798 0.000000
# 3 -0.000518 -0.005263 0.009424 0.000000 -0.000217 0.000000
# 4 0.000000 0.000000 0.000000 0.082857 0.000000 -0.024795
# 5 -0.007070 0.006798 -0.000217 0.000000 0.029666 0.000000
# 6 0.000000 0.000000 0.000000 -0.024795 0.000000 0.056074
#
#
# Mechanical properties :
#
#
# Convention : Reuss Voigt Hill
#
# Bulk Modulus (GPa) = 44.06319 48.37613 46.21966
# Shear Modulus (GPa) = 18.60366 25.27810 21.94088
#
# Velocity S-wave (km/s) = 3.09952 3.61300 3.36607
# Velocity P-wave (km/s) = 5.96355 6.51051 6.24302
#
# Compressibility (1/GPa) = 0.02269468
#
# Stress axis : x y z
#
# Youngs Moduli (GPa) = 42.25560 40.71782 106.11515
#
# Poissons Ratio (x) = 0.47620 0.05501
# Poissons Ratio (y) = 0.49418 0.55853
# Poissons Ratio (z) = 0.02191 0.21432
#
# Static dielectric constant tensor:
#      x y z
#    x 3.506930 0.000000 -0.121220 
#    y 0.000000 3.303570 0.000000 
#    z -0.121220 0.000000 3.736520 
# 
# 
# High freq. dielectric constant tensor:
#      x y z
#    x 1.752730 0.000000 -0.006510 
#    y 0.000000 1.735800 0.000000 
#    z -0.006510 0.000000 1.770650 
# 
# From -- ./inp_files/14233.got.cif
#   From: 2010.06.25/outbox.cif.g09.slc.cpg/sg11_8_cif.got.tgz:14233.got - 2010.06.27 23:14:04.
