data_PCOD8072537
_publ_section_title
;
Structure prediction by ZEFSAII (Michael W. Deem and Ramdas Pophale) SiO2 
 PCOD8072537
Probable space group: P 21/M
;
_chemical_formula_sum "Si O2"
_cell_formula_units_Z 22
_cell_length_a 18.948110
_cell_length_b 14.223585
_cell_length_c 9.620831
_cell_angle_alpha 90.000000
_cell_angle_beta 27.763278
_cell_angle_gamma 90.000000
_cell_volume 1207.828611
_symmetry_space_group_name_H-M "P 21/M"
_symmetry_group_IT_number 11
_symmetry_cell_setting 'monoclinic'
loop_
_space_group_symop_operation_xyz
x,y,z
-x,1/2+y,-z
-x,-y,-z
x,1/2-y,z
loop_
_atom_site_type_symbol
_atom_site_label
_atom_site_fract_x
_atom_site_fract_y
_atom_site_fract_z
Si Si1 0.729397 0.750000 0.073117
Si Si2 0.058151 0.750000 0.602686
Si Si3 0.553287 0.750000 0.663603
Si Si4 0.640644 0.604008 0.005468
Si Si5 0.689711 0.100785 0.853830
Si Si6 0.933684 0.250000 0.089238
Si Si7 0.749273 0.750000 0.597811
Si Si8 0.656455 0.144223 0.609506
O O1 0.660285 0.750000 0.344811
O O2 0.676150 0.656618 0.086237
O O3 0.910752 0.750000 0.764053
O O4 0.154703 0.657472 0.397269
O O5 0.012632 0.750000 0.844123
O O6 0.660652 0.750000 0.609251
O O7 0.450454 0.657179 0.836883
O O8 0.705332 0.498924 0.903337
O O9 0.714032 0.656560 0.746179
O O10 0.457744 0.599942 0.303546
O O11 0.659411 0.081484 0.742973
O O12 0.826224 0.157374 0.250036
O O13 0.071113 0.250000 0.744171
O O14 0.598124 0.250000 0.756709
#
# Coordination Sequence:
#
# PCOD8072537 Si02
#       8
#     2   2   2   4   4   2   2   4
#     4  11  23  37  53  79 116 147 171 236 270 322
#     4   9  19  38  55  75 114 151 178 216 277 323
#     4  11  20  36  59  78 104 150 193 210 269 333
#     4  11  21  35  58  85 113 134 185 233 275 307
#     4  10  19  36  61  82 102 149 187 223 263 335
#     4   8  16  31  54  74 110 143 179 211 271 322
#     4  11  18  34  55  88 106 145 183 219 271 332
#     4   9  15  34  57  81 107 143 174 227 275 310
#
# _framework density 18.214503000000001
#
# number of rings (size 3 to 8) (size 9 to 14) (size 15 to 20)
#    0.545    1.455    6.364    0.545    0.000    1.455 
#    0.000   12.727    0.000    0.000    0.000    0.000 
#    0.000    0.000    0.000    0.000    0.000    0.000 
#
# Total GULP energy -272716.017490 kJ/mol
# GULP energy per Si atom -12396.182613 kJ/mol
# Density = 1.817305 g / cm^3
# Si number density = 18.214503 Si / 1000 Ang^3
#
#
#
# Elastic Constant Matrix: (Units=GPa)
#
#
# Indices 1 2 3 4 5 6 
#
# 1 81.4911 23.0451 37.5126 0.0000 -9.9385 0.0000
# 2 23.0451 110.6311 34.0151 0.0000 1.0943 0.0000
# 3 37.5126 34.0151 100.2241 0.0000 -3.9193 0.0000
# 4 0.0000 0.0000 0.0000 8.8739 0.0000 0.0248
# 5 -9.9385 1.0943 -3.9193 0.0000 28.9457 0.0000
# 6 0.0000 0.0000 0.0000 0.0248 0.0000 12.0861
#
#
#
# Elastic Compliance Matrix: (Units=1/GPa)
#
#
# Indices 1 2 3 4 5 6 
#
# 1 0.015692 -0.001750 -0.005093 0.000000 0.004764 0.000000
# 2 -0.001750 0.010308 -0.002898 0.000000 -0.001383 0.000000
# 3 -0.005093 -0.002898 0.012871 0.000000 0.000104 0.000000
# 4 0.000000 0.000000 0.000000 0.112691 0.000000 -0.000231
# 5 0.004764 -0.001383 0.000104 0.000000 0.036250 0.000000
# 6 0.000000 0.000000 0.000000 -0.000231 0.000000 0.082740
#
#
# Mechanical properties :
#
#
# Convention : Reuss Voigt Hill
#
# Bulk Modulus (GPa) = 51.57244 53.49910 52.53577
# Shear Modulus (GPa) = 16.86365 23.16603 20.01484
#
# Velocity S-wave (km/s) = 3.04606 3.57016 3.31847
# Velocity P-wave (km/s) = 6.38331 6.81397 6.60216
#
# Compressibility (1/GPa) = 0.01939020
#
# Stress axis : x y z
#
# Youngs Moduli (GPa) = 63.72833 97.01058 77.69192
#
# Poissons Ratio (x) = 0.16976 0.39568
# Poissons Ratio (y) = 0.11152 0.22512
# Poissons Ratio (z) = 0.32457 0.28110
#
# Static dielectric constant tensor:
#      x y z
#    x 3.199670 0.000000 -0.184450 
#    y 0.000000 3.129310 0.000000 
#    z -0.184450 0.000000 3.322520 
# 
# 
# High freq. dielectric constant tensor:
#      x y z
#    x 1.693680 0.000000 -0.015300 
#    y 0.000000 1.688020 0.000000 
#    z -0.015300 0.000000 1.700730 
# 
# From -- ./inp_files/24808.got.cif
#   From: 2010.06.25/outbox.cif.g09.slc.cpg/sg11_13_cif.got.tgz:24808.got - 2010.06.27 23:14:04.
