data_PCOD8072843
_publ_section_title
;
Structure prediction by ZEFSAII (Michael W. Deem and Ramdas Pophale) SiO2 
 PCOD8072843
Probable space group: P 21/M
;
_chemical_formula_sum "Si O2"
_cell_formula_units_Z 24
_cell_length_a 8.946539
_cell_length_b 18.907587
_cell_length_c 15.771241
_cell_angle_alpha 90.000000
_cell_angle_beta 29.984553
_cell_angle_gamma 90.000000
_cell_volume 1333.288634
_symmetry_space_group_name_H-M "P 21/M"
_symmetry_group_IT_number 11
_symmetry_cell_setting 'monoclinic'
loop_
_space_group_symop_operation_xyz
x,y,z
-x,1/2+y,-z
-x,-y,-z
x,1/2-y,z
loop_
_atom_site_type_symbol
_atom_site_label
_atom_site_fract_x
_atom_site_fract_y
_atom_site_fract_z
Si Si1 0.193338 0.328231 0.987036
Si Si2 0.325701 0.419609 0.173411
Si Si3 0.671640 0.419609 0.827474
Si Si4 0.152217 0.671769 0.667410
Si Si5 0.603646 0.332394 0.186253
Si Si6 0.733944 0.667606 0.476156
O O1 0.320058 0.250000 0.903112
O O2 0.031103 0.324893 0.156299
O O3 0.949191 0.351358 0.037147
O O4 0.467083 0.383320 0.855347
O O5 0.271416 0.500000 0.228580
O O6 0.513364 0.379607 0.151822
O O7 0.000207 0.383319 0.322224
O O8 0.512812 0.415488 0.995729
O O9 0.982195 0.379606 0.682991
O O10 0.150547 0.750000 0.626283
O O11 0.490173 0.648641 0.523488
O O12 0.574509 0.250000 0.176966
O O13 0.392626 0.350983 0.369124
O O14 0.820068 0.750000 0.428449
#
# Coordination Sequence:
#
# PCOD8072843 Si02
#       6
#     4   4   4   4   4   4
#     4   8  15  30  50  68  91 127 163 194 238 292
#     4  10  20  32  48  73 102 130 160 194 236 288
#     4  10  20  32  48  73 102 130 160 194 236 288
#     4   8  15  30  50  68  91 127 163 194 238 292
#     4   9  18  33  52  71  91 122 165 204 238 283
#     4   9  18  33  52  71  91 122 165 204 238 283
#
# _framework density 18.000603000000002
#
# number of rings (size 3 to 8) (size 9 to 14) (size 15 to 20)
#    0.000    3.000    0.000    3.000    0.000    4.000 
#    0.000    1.667    0.000    2.000    0.000    0.000 
#    0.000    0.000    0.000    0.000    0.000    0.000 
#
# Total GULP energy -297525.965307 kJ/mol
# GULP energy per Si atom -12396.915221 kJ/mol
# Density = 1.795963 g / cm^3
# Si number density = 18.000603 Si / 1000 Ang^3
#
#
#
# Elastic Constant Matrix: (Units=GPa)
#
#
# Indices 1 2 3 4 5 6 
#
# 1 101.4312 67.5657 26.7677 0.0000 -34.8238 0.0000
# 2 67.5657 119.3867 48.8810 0.0000 -33.0393 0.0000
# 3 26.7677 48.8810 63.1203 0.0000 -32.9266 0.0000
# 4 0.0000 0.0000 0.0000 10.1015 0.0000 -0.5327
# 5 -34.8238 -33.0393 -32.9266 0.0000 30.8396 0.0000
# 6 0.0000 0.0000 0.0000 -0.5327 0.0000 10.4037
#
#
#
# Elastic Compliance Matrix: (Units=1/GPa)
#
#
# Indices 1 2 3 4 5 6 
#
# 1 0.023751 -0.010843 0.014119 0.000000 0.030277 0.000000
# 2 -0.010843 0.017875 -0.012734 0.000000 -0.006690 0.000000
# 3 0.014119 -0.012734 0.047211 0.000000 0.052706 0.000000
# 4 0.000000 0.000000 0.000000 0.099263 0.000000 0.005083
# 5 0.030277 -0.006690 0.052706 0.000000 0.115720 0.000000
# 6 0.000000 0.000000 0.000000 0.005083 0.000000 0.096380
#
#
# Mechanical properties :
#
#
# Convention : Reuss Voigt Hill
#
# Bulk Modulus (GPa) = 14.30220 63.37412 38.83816
# Shear Modulus (GPa) = 11.30139 19.65054 15.47597
#
# Velocity S-wave (km/s) = 2.50838 3.30761 2.93533
# Velocity P-wave (km/s) = 4.04375 7.06188 5.75422
#
# Compressibility (1/GPa) = 0.06991933
#
# Stress axis : x y z
#
# Youngs Moduli (GPa) = 42.10415 55.94316 21.18158
#
# Poissons Ratio (x) = 0.60661 -0.29906
# Poissons Ratio (y) = 0.45655 0.26973
# Poissons Ratio (z) = -0.59446 0.71239
#
# Static dielectric constant tensor:
#      x y z
#    x 3.323480 0.000000 -0.335020 
#    y 0.000000 3.749910 0.000000 
#    z -0.335020 0.000000 3.134020 
# 
# 
# High freq. dielectric constant tensor:
#      x y z
#    x 1.691340 0.000000 -0.027620 
#    y 0.000000 1.697260 0.000000 
#    z -0.027620 0.000000 1.675720 
# 
# From -- ./inp_files/13132.got.cif
#   From: 2010.06.25/outbox.cif.g09.slc.cpg/sg11_7_cif.got.tgz:13132.got - 2010.06.27 23:14:04.
