data_PCOD8072401
_publ_section_title
;
Structure prediction by ZEFSAII (Michael W. Deem and Ramdas Pophale) SiO2 
 PCOD8072401
Probable space group: P 21/M
;
_chemical_formula_sum "Si O2"
_cell_formula_units_Z 32
_cell_length_a 11.534340
_cell_length_b 14.532949
_cell_length_c 16.794895
_cell_angle_alpha 90.000000
_cell_angle_beta 144.013595
_cell_angle_gamma 90.000000
_cell_volume 1654.247960
_symmetry_space_group_name_H-M "P 21/M"
_symmetry_group_IT_number 11
_symmetry_cell_setting 'monoclinic'
loop_
_space_group_symop_operation_xyz
x,y,z
-x,1/2+y,-z
-x,-y,-z
x,1/2-y,z
loop_
_atom_site_type_symbol
_atom_site_label
_atom_site_fract_x
_atom_site_fract_y
_atom_site_fract_z
Si Si1 0.983262 0.145662 0.673763
Si Si2 0.325643 0.858716 0.856026
Si Si3 0.226595 0.359354 0.661176
Si Si4 0.965591 0.490836 0.073273
Si Si5 0.107523 0.141025 0.421824
Si Si6 0.266560 0.146382 0.974831
Si Si7 0.351688 0.859308 0.047301
Si Si8 0.733556 0.993090 0.618076
O O1 0.900510 0.250000 0.621325
O O2 0.057405 0.106810 0.629203
O O3 0.176714 0.143492 0.836412
O O4 0.809837 0.083174 0.613416
O O5 0.344542 0.750000 0.875264
O O6 0.334115 0.900592 0.948938
O O7 0.121197 0.889216 0.703182
O O8 0.509710 0.892650 0.905476
O O9 0.223689 0.250000 0.663483
O O10 0.188666 0.394873 0.551005
O O11 0.442274 0.396085 0.803595
O O12 0.852452 0.583754 0.031610
O O13 0.831763 0.400631 0.007094
O O14 0.161755 0.482655 0.237358
O O15 0.000000 0.500000 0.000000
O O16 0.132248 0.250000 0.424779
O O17 0.221028 0.095507 0.411084
O O18 0.260367 0.250000 0.005531
O O19 0.334059 0.750000 0.042410
O O20 0.500000 0.000000 0.500000
#
# Coordination Sequence:
#
# PCOD8072401 Si02
#       8
#     4   4   4   4   4   4   4   4
#     4   9  18  37  61  84 112 145 183 229 278 333
#     4   9  16  32  58  87 113 138 174 223 285 344
#     4   9  18  34  59  90 116 141 179 226 281 344
#     4  11  25  40  56  81 111 149 199 238 269 323
#     4  10  21  37  58  86 118 146 178 227 285 339
#     4   9  18  36  61  85 112 144 181 229 282 336
#     4  10  19  35  61  87 111 142 181 231 285 334
#     4  11  25  41  56  78 112 155 197 230 272 330
#
# _framework density 19.344138000000001
#
# number of rings (size 3 to 8) (size 9 to 14) (size 15 to 20)
#    0.000    2.250    2.500    0.000    1.750    3.000 
#    2.250    0.000    0.000    0.000    0.000    0.000 
#    0.000    0.000    0.000    0.000    0.000    0.000 
#
# Total GULP energy -396732.617935 kJ/mol
# GULP energy per Si atom -12397.894310 kJ/mol
# Density = 1.930011 g / cm^3
# Si number density = 19.344138 Si / 1000 Ang^3
#
#
#
# Elastic Constant Matrix: (Units=GPa)
#
#
# Indices 1 2 3 4 5 6 
#
# 1 139.9049 43.2517 76.8032 0.0000 -3.0554 0.0000
# 2 43.2517 63.7305 40.5910 0.0000 2.7050 0.0000
# 3 76.8032 40.5910 137.7452 0.0000 5.8717 0.0000
# 4 0.0000 0.0000 0.0000 15.2052 0.0000 2.3471
# 5 -3.0554 2.7050 5.8717 0.0000 42.2599 0.0000
# 6 0.0000 0.0000 0.0000 2.3471 0.0000 26.9451
#
#
#
# Elastic Compliance Matrix: (Units=1/GPa)
#
#
# Indices 1 2 3 4 5 6 
#
# 1 0.011390 -0.004571 -0.005082 0.000000 0.001822 0.000000
# 2 -0.004571 0.021159 -0.003636 0.000000 -0.001180 0.000000
# 3 -0.005082 -0.003636 0.011237 0.000000 -0.001696 0.000000
# 4 0.000000 0.000000 0.000000 0.066663 0.000000 -0.005807
# 5 0.001822 -0.001180 -0.001696 0.000000 0.024106 0.000000
# 6 0.000000 0.000000 0.000000 -0.005807 0.000000 0.037618
#
#
# Mechanical properties :
#
#
# Convention : Reuss Voigt Hill
#
# Bulk Modulus (GPa) = 58.10981 73.63028 65.87005
# Shear Modulus (GPa) = 24.45130 28.93102 26.69116
#
# Velocity S-wave (km/s) = 3.55916 3.87149 3.71860
# Velocity P-wave (km/s) = 6.85532 7.62434 7.25003
#
# Compressibility (1/GPa) = 0.01720880
#
# Stress axis : x y z
#
# Youngs Moduli (GPa) = 87.79432 47.26045 88.99158
#
# Poissons Ratio (x) = 0.21602 0.45222
# Poissons Ratio (y) = 0.40130 0.32360
# Poissons Ratio (z) = 0.44614 0.17186
#
# Static dielectric constant tensor:
#      x y z
#    x 3.425020 0.000000 -0.039210 
#    y 0.000000 3.546730 0.000000 
#    z -0.039210 0.000000 3.688450 
# 
# 
# High freq. dielectric constant tensor:
#      x y z
#    x 1.741220 0.000000 -0.000330 
#    y 0.000000 1.752300 0.000000 
#    z -0.000330 0.000000 1.751360 
# 
# From -- ./inp_files/59540.got.cif
#   From: 2010.06.25/outbox.cif.g09.slc.cpg/sg11_30_cif.got.tgz:59540.got - 2010.06.27 23:14:04.
