data_PCOD8072624
_publ_section_title
;
Structure prediction by ZEFSAII (Michael W. Deem and Ramdas Pophale) SiO2 
 PCOD8072624
Probable space group: P 21/M
;
_chemical_formula_sum "Si O2"
_cell_formula_units_Z 28
_cell_length_a 8.067963
_cell_length_b 8.877739
_cell_length_c 28.304843
_cell_angle_alpha 90.000000
_cell_angle_beta 43.369311
_cell_angle_gamma 90.000000
_cell_volume 1392.172197
_symmetry_space_group_name_H-M "P 21/M"
_symmetry_group_IT_number 11
_symmetry_cell_setting 'monoclinic'
loop_
_space_group_symop_operation_xyz
x,y,z
-x,1/2+y,-z
-x,-y,-z
x,1/2-y,z
loop_
_atom_site_type_symbol
_atom_site_label
_atom_site_fract_x
_atom_site_fract_y
_atom_site_fract_z
Si Si1 0.821722 0.429635 0.074406
Si Si2 0.622510 0.426568 0.429775
Si Si3 0.090096 0.927377 0.293323
Si Si4 0.054239 0.576692 0.848062
Si Si5 0.570787 0.925056 0.708311
Si Si6 0.238520 0.425176 0.431171
Si Si7 0.277374 0.428885 0.164423
O O1 0.835131 0.250000 0.070108
O O2 0.899449 0.496794 0.109801
O O3 0.551435 0.482281 0.116279
O O4 0.000000 0.500000 0.000000
O O5 0.500000 0.500000 0.500000
O O6 0.653794 0.250000 0.432249
O O7 0.461785 0.464279 0.417954
O O8 0.881006 0.499467 0.368034
O O9 0.054893 0.750000 0.298661
O O10 0.337685 0.973203 0.267651
O O11 0.098794 0.993403 0.238918
O O12 0.013666 0.750000 0.867562
O O13 0.283195 0.552275 0.766218
O O14 0.818589 0.517918 0.867820
O O15 0.633960 0.750000 0.704830
O O16 0.691272 0.984914 0.635151
O O17 0.186042 0.250000 0.440274
O O18 0.000000 0.500000 0.500000
O O19 0.249686 0.250000 0.175934
#
# Coordination Sequence:
#
# PCOD8072624 Si02
#       7
#     4   4   4   4   4   4   4
#     4  10  21  38  61  90 124 160 198 245 300 360
#     4  11  23  40  59  83 115 154 199 247 300 359
#     4  12  24  37  57  88 121 154 195 247 303 358
#     4   9  18  36  63  90 114 152 207 250 292 357
#     4  10  19  37  61  83 110 152 200 245 295 354
#     4  10  22  37  57  82 111 149 195 245 297 354
#     4  10  20  39  65  88 116 159 205 247 296 355
#
# _framework density 20.112455000000001
#
# number of rings (size 3 to 8) (size 9 to 14) (size 15 to 20)
#    0.000    1.714    1.429    3.429    0.000    7.429 
#    0.000    2.857    0.000    0.000    0.000    0.000 
#    0.000    0.000    0.000    0.000    0.000    0.000 
#
# Total GULP energy -347168.645797 kJ/mol
# GULP energy per Si atom -12398.880207 kJ/mol
# Density = 2.006668 g / cm^3
# Si number density = 20.112455 Si / 1000 Ang^3
#
#
#
# Elastic Constant Matrix: (Units=GPa)
#
#
# Indices 1 2 3 4 5 6 
#
# 1 152.5620 38.1087 62.1553 0.0000 13.2381 0.0000
# 2 38.1087 51.4690 23.8972 0.0000 0.7721 0.0000
# 3 62.1553 23.8972 131.8399 0.0000 11.4482 0.0000
# 4 0.0000 0.0000 0.0000 35.6029 0.0000 1.6413
# 5 13.2381 0.7721 11.4482 0.0000 31.7468 0.0000
# 6 0.0000 0.0000 0.0000 1.6413 0.0000 18.3304
#
#
#
# Elastic Compliance Matrix: (Units=1/GPa)
#
#
# Indices 1 2 3 4 5 6 
#
# 1 0.009472 -0.005467 -0.003245 0.000000 -0.002647 0.000000
# 2 -0.005467 0.024395 -0.002055 0.000000 0.002427 0.000000
# 3 -0.003245 -0.002055 0.009668 0.000000 -0.002083 0.000000
# 4 0.000000 0.000000 0.000000 0.028204 0.000000 -0.002525
# 5 -0.002647 0.002427 -0.002083 0.000000 0.033295 0.000000
# 6 0.000000 0.000000 0.000000 -0.002525 0.000000 0.054780
#
#
# Mechanical properties :
#
#
# Convention : Reuss Voigt Hill
#
# Bulk Modulus (GPa) = 45.45234 64.91038 55.18136
# Shear Modulus (GPa) = 26.49966 31.25002 28.87484
#
# Velocity S-wave (km/s) = 3.63378 3.94606 3.79313
# Velocity P-wave (km/s) = 6.34460 7.28736 6.83226
#
# Compressibility (1/GPa) = 0.02200107
#
# Stress axis : x y z
#
# Youngs Moduli (GPa) = 105.57546 40.99228 103.43288
#
# Poissons Ratio (x) = 0.22410 0.33561
# Poissons Ratio (y) = 0.57718 0.21258
# Poissons Ratio (z) = 0.34256 0.08425
#
# Static dielectric constant tensor:
#      x y z
#    x 4.065770 0.000000 0.135140 
#    y 0.000000 3.298420 0.000000 
#    z 0.135140 0.000000 3.611630 
# 
# 
# High freq. dielectric constant tensor:
#      x y z
#    x 1.803030 0.000000 0.004070 
#    y 0.000000 1.755210 0.000000 
#    z 0.004070 0.000000 1.789100 
# 
# From -- ./inp_files/70820.got.cif
#   From: 2010.06.25/outbox.cif.g09.slc.cpg/sg11_36_cif.got.tgz:70820.got - 2010.06.27 23:14:04.
