data_PCOD8072371
_publ_section_title
;
Structure prediction by ZEFSAII (Michael W. Deem and Ramdas Pophale) SiO2 
 PCOD8072371
Probable space group: P 21/M
;
_chemical_formula_sum "Si O2"
_cell_formula_units_Z 32
_cell_length_a 14.761529
_cell_length_b 9.052217
_cell_length_c 12.701907
_cell_angle_alpha 90.000000
_cell_angle_beta 80.367887
_cell_angle_gamma 90.000000
_cell_volume 1673.359132
_symmetry_space_group_name_H-M "P 21/M"
_symmetry_group_IT_number 11
_symmetry_cell_setting 'monoclinic'
loop_
_space_group_symop_operation_xyz
x,y,z
-x,1/2+y,-z
-x,-y,-z
x,1/2-y,z
loop_
_atom_site_type_symbol
_atom_site_label
_atom_site_fract_x
_atom_site_fract_y
_atom_site_fract_z
Si Si1 0.925999 0.423749 0.309213
Si Si2 0.591650 0.921926 0.446280
Si Si3 0.156785 0.918816 0.888097
Si Si4 0.869839 0.574851 0.694722
Si Si5 0.778758 0.574453 0.927973
Si Si6 0.409885 0.918120 0.981788
Si Si7 0.213610 0.075017 0.507204
Si Si8 0.644226 0.086881 0.238121
O O1 0.912914 0.250000 0.331047
O O2 0.920180 0.457714 0.184388
O O3 0.847663 0.506064 0.389204
O O4 0.025126 0.481931 0.328019
O O5 0.575346 0.750000 0.461051
O O6 0.680177 0.972249 0.497651
O O7 0.500000 0.000000 0.500000
O O8 0.608304 0.961026 0.321904
O O9 0.149262 0.750000 0.929032
O O10 0.251109 0.946249 0.808890
O O11 0.152282 0.022976 0.991747
O O12 0.869568 0.750000 0.696520
O O13 0.819149 0.517552 0.809263
O O14 0.818324 0.514947 0.600747
O O15 0.769274 0.750000 0.934402
O O16 0.679372 0.502040 0.958677
O O17 0.407197 0.750000 0.024514
O O18 0.415858 0.920200 0.855025
O O19 0.500000 0.000000 0.000000
O O20 0.202263 0.250000 0.517293
O O21 0.634664 0.250000 0.291932
#
# Coordination Sequence:
#
# PCOD8072371 Si02
#       8
#     4   4   4   4   4   4   4   4
#     4  10  19  35  60  84 109 148 192 231 281 344
#     4  11  23  36  55  82 111 144 185 233 285 340
#     4   9  18  33  55  81 110 144 183 233 283 329
#     4   9  20  37  56  81 116 153 187 229 286 343
#     4  10  20  35  55  80 113 153 192 230 281 339
#     4  10  21  37  58  84 111 145 188 233 284 338
#     4  10  21  38  57  81 113 146 186 237 285 334
#     4   9  18  35  55  76 107 143 179 225 278 330
#
# _framework density 19.12321
#
# number of rings (size 3 to 8) (size 9 to 14) (size 15 to 20)
#    0.000    2.250    1.250    2.250    0.000    5.000 
#    0.000    5.000    0.000    0.000    0.000    0.000 
#    0.000    0.000    0.000    0.000    0.000    0.000 
#
# Total GULP energy -396757.576755 kJ/mol
# GULP energy per Si atom -12398.674274 kJ/mol
# Density = 1.907969 g / cm^3
# Si number density = 19.123210 Si / 1000 Ang^3
#
#
#
# Elastic Constant Matrix: (Units=GPa)
#
#
# Indices 1 2 3 4 5 6 
#
# 1 124.5540 46.5025 55.7263 0.0000 12.0995 0.0000
# 2 46.5025 68.4530 43.2388 0.0000 -1.6415 0.0000
# 3 55.7263 43.2388 110.8174 0.0000 5.1011 0.0000
# 4 0.0000 0.0000 0.0000 31.5008 0.0000 2.1212
# 5 12.0995 -1.6415 5.1011 0.0000 18.1398 0.0000
# 6 0.0000 0.0000 0.0000 2.1212 0.0000 23.1072
#
#
#
# Elastic Compliance Matrix: (Units=1/GPa)
#
#
# Indices 1 2 3 4 5 6 
#
# 1 0.012913 -0.006779 -0.003469 0.000000 -0.008251 0.000000
# 2 -0.006779 0.023227 -0.006037 0.000000 0.008321 0.000000
# 3 -0.003469 -0.006037 0.013213 0.000000 -0.001948 0.000000
# 4 0.000000 0.000000 0.000000 0.031943 0.000000 -0.002932
# 5 -0.008251 0.008321 -0.001948 0.000000 0.061932 0.000000
# 6 0.000000 0.000000 0.000000 -0.002932 0.000000 0.043546
#
#
# Mechanical properties :
#
#
# Convention : Reuss Voigt Hill
#
# Bulk Modulus (GPa) = 59.58059 66.08440 62.83250
# Shear Modulus (GPa) = 22.22848 25.10668 23.66758
#
# Velocity S-wave (km/s) = 3.41307 3.62731 3.52182
# Velocity P-wave (km/s) = 6.83783 7.22325 7.03318
#
# Compressibility (1/GPa) = 0.01678399
#
# Stress axis : x y z
#
# Youngs Moduli (GPa) = 77.44058 43.05427 75.68227
#
# Poissons Ratio (x) = 0.29187 0.26251
# Poissons Ratio (y) = 0.52499 0.45686
# Poissons Ratio (z) = 0.26861 0.25990
#
# Static dielectric constant tensor:
#      x y z
#    x 3.468150 0.000000 0.439040 
#    y 0.000000 3.407860 0.000000 
#    z 0.439040 0.000000 3.483660 
# 
# 
# High freq. dielectric constant tensor:
#      x y z
#    x 1.747530 0.000000 0.011160 
#    y 0.000000 1.731960 0.000000 
#    z 0.011160 0.000000 1.746060 
# 
# From -- ./inp_files/38114.got.cif
#   From: 2010.06.25/outbox.cif.g09.slc.cpg/sg11_20_cif.got.tgz:38114.got - 2010.06.27 23:14:04.
