data_PCOD8072171
_publ_section_title
;
Structure prediction by ZEFSAII (Michael W. Deem and Ramdas Pophale) SiO2 
 PCOD8072171
Probable space group: P 21/M
;
_chemical_formula_sum "Si O2"
_cell_formula_units_Z 32
_cell_length_a 23.412272
_cell_length_b 8.676834
_cell_length_c 15.853815
_cell_angle_alpha 90.000000
_cell_angle_beta 31.473177
_cell_angle_gamma 90.000000
_cell_volume 1681.480301
_symmetry_space_group_name_H-M "P 21/M"
_symmetry_group_IT_number 11
_symmetry_cell_setting 'monoclinic'
loop_
_space_group_symop_operation_xyz
x,y,z
-x,1/2+y,-z
-x,-y,-z
x,1/2-y,z
loop_
_atom_site_type_symbol
_atom_site_label
_atom_site_fract_x
_atom_site_fract_y
_atom_site_fract_z
Si Si1 0.087098 0.571404 0.507523
Si Si2 0.608542 0.431404 0.324232
Si Si3 0.915079 0.073284 0.169971
Si Si4 0.361570 0.932563 0.907634
Si Si5 0.851784 0.929845 0.742441
Si Si6 0.277727 0.423829 0.673333
Si Si7 0.595950 0.576767 0.647438
Si Si8 0.817455 0.931821 0.447576
O O1 0.106610 0.750000 0.502159
O O2 0.142623 0.529292 0.349253
O O3 0.149749 0.474274 0.499380
O O4 0.957459 0.531595 0.667735
O O5 0.500000 0.500000 0.500000
O O6 0.610925 0.250000 0.337173
O O7 0.626951 0.474190 0.204603
O O8 0.704293 0.516496 0.255097
O O9 0.943607 0.250000 0.147079
O O10 0.799021 0.048052 0.273626
O O11 0.911969 0.995857 0.266489
O O12 0.000000 0.000000 0.000000
O O13 0.344442 0.750000 0.942281
O O14 0.473220 0.992719 0.814366
O O15 0.258526 0.025964 0.071098
O O16 0.851811 0.750000 0.718785
O O17 0.228182 0.250000 0.738683
O O18 0.385022 0.423724 0.478224
O O19 0.589752 0.750000 0.688694
O O20 0.696468 0.498638 0.573769
O O21 0.814061 0.750000 0.439643
#
# Coordination Sequence:
#
# PCOD8072171 Si02
#       8
#     4   4   4   4   4   4   4   4
#     4  10  21  40  63  85 114 147 186 233 287 348
#     4  11  21  33  52  79 111 151 194 235 279 337
#     4  11  22  37  55  80 112 149 192 236 284 336
#     4  10  20  36  56  81 115 152 189 231 286 345
#     4  10  22  39  60  87 113 143 184 236 292 341
#     4  10  19  35  54  75 108 148 189 235 283 334
#     4   8  16  33  54  78 110 148 183 223 275 331
#     4  10  20  36  61  87 113 148 189 233 282 338
#
# _framework density 19.030850999999998
#
# number of rings (size 3 to 8) (size 9 to 14) (size 15 to 20)
#    0.000    2.000    1.250    3.750    0.000    3.500 
#    0.000    4.375    0.000    0.000    0.000    0.000 
#    0.000    0.000    0.000    0.000    0.000    0.000 
#
# Total GULP energy -396575.756663 kJ/mol
# GULP energy per Si atom -12392.992396 kJ/mol
# Density = 1.898754 g / cm^3
# Si number density = 19.030851 Si / 1000 Ang^3
#
#
#
# Elastic Constant Matrix: (Units=GPa)
#
#
# Indices 1 2 3 4 5 6 
#
# 1 107.8847 29.7536 40.1774 0.0000 0.7349 0.0000
# 2 29.7536 71.4536 28.8684 0.0000 -0.8614 0.0000
# 3 40.1774 28.8684 106.9866 0.0000 -8.2448 0.0000
# 4 0.0000 0.0000 0.0000 31.9000 0.0000 2.7403
# 5 0.7349 -0.8614 -8.2448 0.0000 18.1801 0.0000
# 6 0.0000 0.0000 0.0000 2.7403 0.0000 31.4643
#
#
#
# Elastic Compliance Matrix: (Units=1/GPa)
#
#
# Indices 1 2 3 4 5 6 
#
# 1 0.011560 -0.003386 -0.003602 0.000000 -0.002261 0.000000
# 2 -0.003386 0.016725 -0.003285 0.000000 -0.000560 0.000000
# 3 -0.003602 -0.003285 0.012005 0.000000 0.005434 0.000000
# 4 0.000000 0.000000 0.000000 0.031584 0.000000 -0.002751
# 5 -0.002261 -0.000560 0.005434 0.000000 0.057535 0.000000
# 6 0.000000 0.000000 0.000000 -0.002751 0.000000 0.032022
#
#
# Mechanical properties :
#
#
# Convention : Reuss Voigt Hill
#
# Bulk Modulus (GPa) = 50.64503 53.76930 52.20716
# Shear Modulus (GPa) = 26.51734 28.81059 27.66396
#
# Velocity S-wave (km/s) = 3.73686 3.89509 3.81680
# Velocity P-wave (km/s) = 6.72969 6.96736 6.84955
#
# Compressibility (1/GPa) = 0.01974527
#
# Stress axis : x y z
#
# Youngs Moduli (GPa) = 86.50821 59.79001 83.30090
#
# Poissons Ratio (x) = 0.20242 0.30003
# Poissons Ratio (y) = 0.29288 0.27362
# Poissons Ratio (z) = 0.31158 0.19640
#
# Static dielectric constant tensor:
#      x y z
#    x 3.672960 0.000000 -0.085920 
#    y 0.000000 3.239410 0.000000 
#    z -0.085920 0.000000 3.235640 
# 
# 
# High freq. dielectric constant tensor:
#      x y z
#    x 1.741720 0.000000 -0.008460 
#    y 0.000000 1.734930 0.000000 
#    z -0.008460 0.000000 1.729060 
# 
# From -- ./inp_files/55551.got.cif
#   From: 2010.06.25/outbox.cif.g09.slc.cpg/sg11_28_cif.got.tgz:55551.got - 2010.06.27 23:14:04.
