data_PCOD8072762
_publ_section_title
;
Structure prediction by ZEFSAII (Michael W. Deem and Ramdas Pophale) SiO2 
 PCOD8072762
Probable space group: P 21/M
;
_chemical_formula_sum "Si O2"
_cell_formula_units_Z 28
_cell_length_a 11.317875
_cell_length_b 14.161556
_cell_length_c 9.370598
_cell_angle_alpha 90.000000
_cell_angle_beta 114.230769
_cell_angle_gamma 90.000000
_cell_volume 1369.589183
_symmetry_space_group_name_H-M "P 21/M"
_symmetry_group_IT_number 11
_symmetry_cell_setting 'monoclinic'
loop_
_space_group_symop_operation_xyz
x,y,z
-x,1/2+y,-z
-x,-y,-z
x,1/2-y,z
loop_
_atom_site_type_symbol
_atom_site_label
_atom_site_fract_x
_atom_site_fract_y
_atom_site_fract_z
Si Si1 0.962481 0.140213 0.989676
Si Si2 0.443138 0.989141 0.127890
Si Si3 0.234894 0.141791 0.039576
Si Si4 0.133001 0.144964 0.672126
Si Si5 0.712144 0.481214 0.363234
Si Si6 0.252893 0.859540 0.903098
Si Si7 0.148281 0.641273 0.356227
O O1 0.980375 0.250000 0.961375
O O2 0.879140 0.099982 0.815577
O O3 0.109510 0.099734 0.063856
O O4 0.891379 0.122972 0.104662
O O5 0.564029 0.980757 0.296099
O O6 0.359670 0.079335 0.136834
O O7 0.500000 0.000000 0.000000
O O8 0.353731 0.895517 0.074675
O O9 0.266174 0.250000 0.096913
O O10 0.204945 0.131403 0.857915
O O11 0.160285 0.250000 0.626209
O O12 0.979752 0.129869 0.610360
O O13 0.191270 0.070294 0.589935
O O14 0.736282 0.415535 0.237661
O O15 0.737898 0.420977 0.518006
O O16 0.279753 0.750000 0.887593
O O17 0.194158 0.750000 0.374846
#
# Coordination Sequence:
#
# PCOD8072762 Si02
#       7
#     4   4   4   4   4   4   4
#     4   8  17  34  55  76  97 135 178 209 255 310
#     4  10  20  31  44  76 109 133 167 201 260 310
#     4   9  16  31  51  71  98 135 174 208 245 307
#     4   9  17  31  51  72 101 136 170 209 251 303
#     4  11  20  33  50  82 107 132 171 213 258 305
#     4  10  20  34  51  77 108 133 169 220 262 295
#     4   9  18  33  53  76 101 132 171 211 258 309
#
# _framework density 20.444089000000002
#
# number of rings (size 3 to 8) (size 9 to 14) (size 15 to 20)
#    0.000    2.571    2.857    2.571    0.000    4.000 
#    0.000    0.714    0.000    0.000    0.000    1.000 
#    0.000    0.000    0.000    0.000    0.000    0.000 
#
# Total GULP energy -347074.895649 kJ/mol
# GULP energy per Si atom -12395.531987 kJ/mol
# Density = 2.039756 g / cm^3
# Si number density = 20.444089 Si / 1000 Ang^3
#
#
#
# Elastic Constant Matrix: (Units=GPa)
#
#
# Indices 1 2 3 4 5 6 
#
# 1 72.2541 16.7908 8.8076 0.0000 3.6661 0.0000
# 2 16.7908 79.9805 6.3619 0.0000 0.0615 0.0000
# 3 8.8076 6.3619 26.8316 0.0000 4.8069 0.0000
# 4 0.0000 0.0000 0.0000 18.2308 0.0000 5.6057
# 5 3.6661 0.0615 4.8069 0.0000 21.4651 0.0000
# 6 0.0000 0.0000 0.0000 5.6057 0.0000 26.3211
#
#
#
# Elastic Compliance Matrix: (Units=1/GPa)
#
#
# Indices 1 2 3 4 5 6 
#
# 1 0.015071 -0.002847 -0.003972 0.000000 -0.001676 0.000000
# 2 -0.002847 0.013290 -0.002393 0.000000 0.000984 0.000000
# 3 -0.003972 -0.002393 0.040649 0.000000 -0.008418 0.000000
# 4 0.000000 0.000000 0.000000 0.058696 0.000000 -0.012501
# 5 -0.001676 0.000984 -0.008418 0.000000 0.048756 0.000000
# 6 0.000000 0.000000 0.000000 -0.012501 0.000000 0.040655
#
#
# Mechanical properties :
#
#
# Convention : Reuss Voigt Hill
#
# Bulk Modulus (GPa) = 19.76799 26.99853 23.38326
# Shear Modulus (GPa) = 19.80970 23.01046 21.41008
#
# Velocity S-wave (km/s) = 3.11620 3.35853 3.23964
# Velocity P-wave (km/s) = 4.75793 5.31736 5.04541
#
# Compressibility (1/GPa) = 0.05058683
#
# Stress axis : x y z
#
# Youngs Moduli (GPa) = 66.35358 75.24309 24.60101
#
# Poissons Ratio (x) = 0.21419 0.09771
# Poissons Ratio (y) = 0.18889 0.05887
# Poissons Ratio (z) = 0.26354 0.18006
#
# Static dielectric constant tensor:
#      x y z
#    x 3.954410 0.000000 0.300120 
#    y 0.000000 3.807180 0.000000 
#    z 0.300120 0.000000 3.323820 
# 
# 
# High freq. dielectric constant tensor:
#      x y z
#    x 1.794400 0.000000 0.011660 
#    y 0.000000 1.804160 0.000000 
#    z 0.011660 0.000000 1.754730 
# 
# From -- ./inp_files/17804.got.cif
#   From: 2010.06.25/outbox.cif.g09.slc.cpg/sg11_9_cif.got.tgz:17804.got - 2010.06.27 23:14:04.
