data_PCOD8072139
_publ_section_title
;
Structure prediction by ZEFSAII (Michael W. Deem and Ramdas Pophale) SiO2 
 PCOD8072139
Probable space group: P 21/M
;
_chemical_formula_sum "Si O2"
_cell_formula_units_Z 32
_cell_length_a 14.951861
_cell_length_b 13.254523
_cell_length_c 21.878225
_cell_angle_alpha 90.000000
_cell_angle_beta 20.846966
_cell_angle_gamma 90.000000
_cell_volume 1543.002525
_symmetry_space_group_name_H-M "P 21/M"
_symmetry_group_IT_number 11
_symmetry_cell_setting 'monoclinic'
loop_
_space_group_symop_operation_xyz
x,y,z
-x,1/2+y,-z
-x,-y,-z
x,1/2-y,z
loop_
_atom_site_type_symbol
_atom_site_label
_atom_site_fract_x
_atom_site_fract_y
_atom_site_fract_z
Si Si1 0.886511 0.634120 0.659686
Si Si2 0.625594 0.944506 0.294343
Si Si3 0.980421 0.868813 0.170825
Si Si4 0.786089 0.135113 0.361766
Si Si5 0.691309 0.633986 0.919432
Si Si6 0.479764 0.133339 0.447770
Si Si7 0.537676 0.369151 0.723000
Si Si8 0.474911 0.996316 0.878478
O O1 0.870455 0.750000 0.649807
O O2 0.747913 0.616600 0.812725
O O3 0.731241 0.568748 0.709538
O O4 0.176483 0.601060 0.477088
O O5 0.870621 0.915602 0.177745
O O6 0.387337 0.880349 0.468933
O O7 0.656258 0.912889 0.204036
O O8 0.539454 0.062739 0.351565
O O9 0.023450 0.750000 0.132568
O O10 0.795250 0.884631 0.347317
O O11 0.241128 0.920349 0.022583
O O12 0.767903 0.250000 0.355676
O O13 0.676436 0.083753 0.371013
O O14 0.066676 0.102545 0.195111
O O15 0.609823 0.750000 0.982384
O O16 0.497357 0.555494 0.073528
O O17 0.519036 0.250000 0.404125
O O18 0.499843 0.250000 0.753669
O O19 0.461331 0.419731 0.835073
#
# Coordination Sequence:
#
# PCOD8072139 Si02
#       8
#     4   4   4   4   4   4   4   4
#     4  10  22  41  63  83 107 148 198 241 282 342
#     4  11  18  34  59  83 113 156 197 232 282 337
#     4  10  21  35  56  87 122 155 188 234 291 349
#     4   9  15  28  54  84 112 146 193 241 280 325
#     4  10  19  34  59  89 114 143 193 248 288 329
#     4   9  18  31  52  87 122 152 192 239 281 334
#     4  11  24  41  62  85 112 149 200 246 278 333
#     4  12  23  38  57  86 121 156 183 230 300 352
#
# _framework density 20.738786999999999
#
# number of rings (size 3 to 8) (size 9 to 14) (size 15 to 20)
#    0.000    1.750    1.250    6.375    0.000    0.500 
#    0.000    1.875    0.000    0.750    0.000    0.000 
#    0.000    0.000    0.000    0.000    0.000    0.000 
#
# Total GULP energy -396570.009498 kJ/mol
# GULP energy per Si atom -12392.812797 kJ/mol
# Density = 2.069159 g / cm^3
# Si number density = 20.738787 Si / 1000 Ang^3
#
#
#
# Elastic Constant Matrix: (Units=GPa)
#
#
# Indices 1 2 3 4 5 6 
#
# 1 53.5316 36.3305 7.3018 0.0000 -1.5627 0.0000
# 2 36.3305 132.1514 29.9321 0.0000 4.2603 0.0000
# 3 7.3018 29.9321 26.8781 0.0000 -3.7286 0.0000
# 4 0.0000 0.0000 0.0000 28.3310 0.0000 2.8234
# 5 -1.5627 4.2603 -3.7286 0.0000 33.7601 0.0000
# 6 0.0000 0.0000 0.0000 2.8234 0.0000 30.0633
#
#
#
# Elastic Compliance Matrix: (Units=1/GPa)
#
#
# Indices 1 2 3 4 5 6 
#
# 1 0.023130 -0.006779 0.001557 0.000000 0.002098 0.000000
# 2 -0.006779 0.012329 -0.012337 0.000000 -0.003232 0.000000
# 3 0.001557 -0.012337 0.051536 0.000000 0.007321 0.000000
# 4 0.000000 0.000000 0.000000 0.035631 0.000000 -0.003346
# 5 0.002098 -0.003232 0.007321 0.000000 0.030934 0.000000
# 6 0.000000 0.000000 0.000000 -0.003346 0.000000 0.033577
#
#
# Mechanical properties :
#
#
# Convention : Reuss Voigt Hill
#
# Bulk Modulus (GPa) = 19.27620 39.96556 29.62088
# Shear Modulus (GPa) = 20.87252 27.69731 24.28492
#
# Velocity S-wave (km/s) = 3.17590 3.65846 3.42569
# Velocity P-wave (km/s) = 4.77110 6.09578 5.47366
#
# Compressibility (1/GPa) = 0.05187746
#
# Stress axis : x y z
#
# Youngs Moduli (GPa) = 43.23338 81.10776 19.40373
#
# Poissons Ratio (x) = 0.54984 -0.03021
# Poissons Ratio (y) = 0.29308 0.23938
# Poissons Ratio (z) = -0.06731 1.00062
#
# Static dielectric constant tensor:
#      x y z
#    x 3.534990 0.000000 -0.124020 
#    y 0.000000 3.872090 0.000000 
#    z -0.124020 0.000000 3.495950 
# 
# 
# High freq. dielectric constant tensor:
#      x y z
#    x 1.796470 0.000000 -0.009830 
#    y 0.000000 1.831880 0.000000 
#    z -0.009830 0.000000 1.786780 
# 
# From -- ./inp_files/65762.got.cif
#   From: 2010.06.25/outbox.cif.g09.slc.cpg/sg11_33_cif.got.tgz:65762.got - 2010.06.27 23:14:04.
