data_PCOD8072111
_publ_section_title
;
Structure prediction by ZEFSAII (Michael W. Deem and Ramdas Pophale) SiO2 
 PCOD8072111
Probable space group: P 21/M
;
_chemical_formula_sum "Si O2"
_cell_formula_units_Z 24
_cell_length_a 14.700790
_cell_length_b 8.509431
_cell_length_c 15.054709
_cell_angle_alpha 90.000000
_cell_angle_beta 139.950687
_cell_angle_gamma 90.000000
_cell_volume 1211.786552
_symmetry_space_group_name_H-M "P 21/M"
_symmetry_group_IT_number 11
_symmetry_cell_setting 'monoclinic'
loop_
_space_group_symop_operation_xyz
x,y,z
-x,1/2+y,-z
-x,-y,-z
x,1/2-y,z
loop_
_atom_site_type_symbol
_atom_site_label
_atom_site_fract_x
_atom_site_fract_y
_atom_site_fract_z
Si Si1 0.706774 0.565788 0.324732
Si Si2 0.613559 0.436200 0.923381
Si Si3 0.184222 0.566054 0.771060
Si Si4 0.803191 0.433915 0.906809
Si Si5 0.893914 0.068686 0.613610
Si Si6 0.112978 0.431568 0.207005
O O1 0.711381 0.750000 0.349054
O O2 0.547023 0.505524 0.189269
O O3 0.799604 0.529500 0.307695
O O4 0.766228 0.471547 0.452563
O O5 0.626167 0.250000 0.933943
O O6 0.681456 0.496979 0.881864
O O7 0.701290 0.500917 0.073138
O O8 0.205821 0.750000 0.768474
O O9 0.028133 0.539528 0.692027
O O10 0.790123 0.250000 0.877696
O O11 0.787385 0.523952 0.801646
O O12 0.951853 0.474483 0.063705
O O13 0.935922 0.250000 0.635234
O O14 0.840821 0.032509 0.673329
O O15 0.132184 0.250000 0.244579
#
# Coordination Sequence:
#
# PCOD8072111 Si02
#       6
#     4   4   4   4   4   4
#     4  11  23  39  58  84 117 154 191 233 286 341
#     4   9  19  37  61  86 116 151 188 233 285 337
#     4  11  21  39  62  86 114 149 192 239 285 336
#     4   9  17  34  58  86 116 146 183 231 284 338
#     4  12  24  39  58  84 115 153 195 237 283 336
#     4  10  19  34  58  87 116 146 185 236 286 335
#
# _framework density 19.805468000000001
#
# number of rings (size 3 to 8) (size 9 to 14) (size 15 to 20)
#    0.000    1.667    1.667    4.000    0.000    0.667 
#    0.000    5.000    0.000    0.000    0.000    0.000 
#    0.000    0.000    0.000    0.000    0.000    0.000 
#
# Total GULP energy -297721.053134 kJ/mol
# GULP energy per Si atom -12405.043881 kJ/mol
# Density = 1.976039 g / cm^3
# Si number density = 19.805468 Si / 1000 Ang^3
#
#
#
# Elastic Constant Matrix: (Units=GPa)
#
#
# Indices 1 2 3 4 5 6 
#
# 1 82.8168 22.5882 31.0378 0.0000 -27.5959 0.0000
# 2 22.5882 54.7847 26.8913 0.0000 -7.0640 0.0000
# 3 31.0378 26.8913 104.4872 0.0000 -16.3157 0.0000
# 4 0.0000 0.0000 0.0000 25.2453 0.0000 -6.8279
# 5 -27.5959 -7.0640 -16.3157 0.0000 31.8380 0.0000
# 6 0.0000 0.0000 0.0000 -6.8279 0.0000 26.3065
#
#
#
# Elastic Compliance Matrix: (Units=1/GPa)
#
#
# Indices 1 2 3 4 5 6 
#
# 1 0.018972 -0.004934 -0.002140 0.000000 0.014253 0.000000
# 2 -0.004934 0.022299 -0.004531 0.000000 -0.001651 0.000000
# 3 -0.002140 -0.004531 0.011876 0.000000 0.003226 0.000000
# 4 0.000000 0.000000 0.000000 0.042602 0.000000 0.011057
# 5 0.014253 -0.001651 0.003226 0.000000 0.045049 0.000000
# 6 0.000000 0.000000 0.000000 0.011057 0.000000 0.040883
#
#
# Mechanical properties :
#
#
# Convention : Reuss Voigt Hill
#
# Bulk Modulus (GPa) = 33.40435 44.79147 39.09791
# Shear Modulus (GPa) = 23.26980 27.44938 25.35959
#
# Velocity S-wave (km/s) = 3.43143 3.72687 3.58220
# Velocity P-wave (km/s) = 5.70985 6.41750 6.07399
#
# Compressibility (1/GPa) = 0.02993622
#
# Stress axis : x y z
#
# Youngs Moduli (GPa) = 52.70956 44.84538 84.20252
#
# Poissons Ratio (x) = 0.22127 0.18021
# Poissons Ratio (y) = 0.26007 0.38153
# Poissons Ratio (z) = 0.11281 0.20320
#
# Static dielectric constant tensor:
#      x y z
#    x 3.682690 0.000000 -0.119000 
#    y 0.000000 3.377930 0.000000 
#    z -0.119000 0.000000 3.593070 
# 
# 
# High freq. dielectric constant tensor:
#      x y z
#    x 1.777770 0.000000 -0.016910 
#    y 0.000000 1.760900 0.000000 
#    z -0.016910 0.000000 1.762480 
# 
# From -- ./inp_files/51521.got.cif
#   From: 2010.06.25/outbox.cif.g09.slc.cpg/sg11_26_cif.got.tgz:51521.got - 2010.06.27 23:14:04.
