data_PCOD8072764
_publ_section_title
;
Structure prediction by ZEFSAII (Michael W. Deem and Ramdas Pophale) SiO2 
 PCOD8072764
Probable space group: P 21/M
;
_chemical_formula_sum "Si O2"
_cell_formula_units_Z 32
_cell_length_a 15.492950
_cell_length_b 9.015028
_cell_length_c 14.277336
_cell_angle_alpha 90.000000
_cell_angle_beta 91.277878
_cell_angle_gamma 90.000000
_cell_volume 1993.610694
_symmetry_space_group_name_H-M "P 21/M"
_symmetry_group_IT_number 11
_symmetry_cell_setting 'monoclinic'
loop_
_space_group_symop_operation_xyz
x,y,z
-x,1/2+y,-z
-x,-y,-z
x,1/2-y,z
loop_
_atom_site_type_symbol
_atom_site_label
_atom_site_fract_x
_atom_site_fract_y
_atom_site_fract_z
Si Si1 0.181184 0.574197 0.605911
Si Si2 0.502124 0.925792 0.600594
Si Si3 0.823464 0.419428 0.610477
Si Si4 0.013561 0.422101 0.598178
Si Si5 0.593421 0.923836 0.897533
Si Si6 0.675482 0.923043 0.714454
Si Si7 0.344614 0.077383 0.700000
Si Si8 0.415448 0.419421 0.896630
O O1 0.178525 0.750000 0.618272
O O2 0.186960 0.526077 0.497172
O O3 0.094111 0.504175 0.650142
O O4 0.261417 0.507030 0.661880
O O5 0.485241 0.750000 0.593128
O O6 0.594702 0.963107 0.646947
O O7 0.500000 0.000000 0.500000
O O8 0.429383 0.000791 0.661714
O O9 0.794617 0.250000 0.614149
O O10 0.762607 0.507910 0.678053
O O11 0.922166 0.439532 0.650081
O O12 0.036344 0.250000 0.584095
O O13 0.000000 0.500000 0.500000
O O14 0.586064 0.750000 0.881940
O O15 0.658306 0.985813 0.819429
O O16 0.498330 0.983725 0.875730
O O17 0.625543 0.965962 0.003348
O O18 0.691863 0.750000 0.716653
O O19 0.342232 0.250000 0.669946
O O20 0.345286 0.060032 0.812986
O O21 0.447155 0.250000 0.903241
#
# Coordination Sequence:
#
# PCOD8072764 Si02
#       8
#     4   4   4   4   4   4   4   4
#     4  10  20  33  49  70  95 128 162 197 237 281
#     4  11  22  34  45  63  93 131 166 197 230 273
#     4   9  19  32  47  68  95 124 156 191 231 277
#     4   9  17  31  49  70  95 124 157 198 240 280
#     4   9  17  32  49  67  91 119 155 200 242 281
#     4  10  20  31  46  67  92 124 159 193 233 276
#     4  11  21  32  47  70  95 125 160 196 238 287
#     4   9  18  31  49  69  90 119 156 197 243 286
#
# _framework density 16.051279000000001
#
# number of rings (size 3 to 8) (size 9 to 14) (size 15 to 20)
#    0.000    2.250    1.250    3.000    0.000    7.000 
#    0.000    0.000    0.000    0.000    0.000    0.875 
#    0.000    0.000    0.000    0.000    0.000    0.000 
#
# Total GULP energy -396634.634409 kJ/mol
# GULP energy per Si atom -12394.832325 kJ/mol
# Density = 1.601475 g / cm^3
# Si number density = 16.051279 Si / 1000 Ang^3
#
#
#
# Elastic Constant Matrix: (Units=GPa)
#
#
# Indices 1 2 3 4 5 6 
#
# 1 95.4051 45.0965 44.9437 0.0000 -19.1250 0.0000
# 2 45.0965 69.3326 35.9318 0.0000 -7.7135 0.0000
# 3 44.9437 35.9318 97.1211 0.0000 -15.2405 0.0000
# 4 0.0000 0.0000 0.0000 19.0998 0.0000 -1.5576
# 5 -19.1250 -7.7135 -15.2405 0.0000 9.7263 0.0000
# 6 0.0000 0.0000 0.0000 -1.5576 0.0000 32.1124
#
#
#
# Elastic Compliance Matrix: (Units=1/GPa)
#
#
# Indices 1 2 3 4 5 6 
#
# 1 0.023032 -0.010406 -0.001322 0.000000 0.034965 0.000000
# 2 -0.010406 0.022735 -0.005274 0.000000 -0.010696 0.000000
# 3 -0.001322 -0.005274 0.015641 0.000000 0.017727 0.000000
# 4 0.000000 0.000000 0.000000 0.052565 0.000000 0.002550
# 5 0.034965 -0.010696 0.017727 0.000000 0.190862 0.000000
# 6 0.000000 0.000000 0.000000 0.002550 0.000000 0.031264
#
#
# Mechanical properties :
#
#
# Convention : Reuss Voigt Hill
#
# Bulk Modulus (GPa) = 36.49005 57.08921 46.78963
# Shear Modulus (GPa) = 13.18432 21.24681 17.21557
#
# Velocity S-wave (km/s) = 2.86910 3.64219 3.27851
# Velocity P-wave (km/s) = 5.81020 7.30284 6.59886
#
# Compressibility (1/GPa) = 0.02740473
#
# Stress axis : x y z
#
# Youngs Moduli (GPa) = 43.41762 43.98476 63.93398
#
# Poissons Ratio (x) = 0.45771 0.08449
# Poissons Ratio (y) = 0.45181 0.33720
# Poissons Ratio (z) = 0.05738 0.23199
#
# Static dielectric constant tensor:
#      x y z
#    x 3.193890 0.000000 -0.050210 
#    y 0.000000 3.152830 0.000000 
#    z -0.050210 0.000000 3.221170 
# 
# 
# High freq. dielectric constant tensor:
#      x y z
#    x 1.606070 0.000000 -0.002180 
#    y 0.000000 1.628750 0.000000 
#    z -0.002180 0.000000 1.599710 
# 
# From -- ./inp_files/51304.got.cif
#   From: 2010.06.25/outbox.cif.g09.slc.cpg/sg11_26_cif.got.tgz:51304.got - 2010.06.27 23:14:04.
