data_PCOD8072008
_publ_section_title
;
Structure prediction by ZEFSAII (Michael W. Deem and Ramdas Pophale) SiO2 
 PCOD8072008
Probable space group: P 21/M
;
_chemical_formula_sum "Si O2"
_cell_formula_units_Z 32
_cell_length_a 10.386611
_cell_length_b 11.144397
_cell_length_c 24.112197
_cell_angle_alpha 90.000000
_cell_angle_beta 141.295937
_cell_angle_gamma 90.000000
_cell_volume 1745.236400
_symmetry_space_group_name_H-M "P 21/M"
_symmetry_group_IT_number 11
_symmetry_cell_setting 'monoclinic'
loop_
_space_group_symop_operation_xyz
x,y,z
-x,1/2+y,-z
-x,-y,-z
x,1/2-y,z
loop_
_atom_site_type_symbol
_atom_site_label
_atom_site_fract_x
_atom_site_fract_y
_atom_site_fract_z
Si Si1 0.460503 0.885500 0.655623
Si Si2 0.187015 0.885633 0.774841
Si Si3 0.965142 0.118542 0.523471
Si Si4 0.697740 0.528290 0.291121
Si Si5 0.077600 0.989523 0.938941
Si Si6 0.266722 0.885185 0.109101
Si Si7 0.895753 0.610630 0.770108
Si Si8 0.446714 0.385343 0.020513
O O1 0.515459 0.750000 0.692411
O O2 0.666904 0.946461 0.699615
O O3 0.281791 0.886776 0.548101
O O4 0.386904 0.952382 0.685947
O O5 0.121995 0.750000 0.741245
O O6 0.409935 0.892565 0.877701
O O7 0.017706 0.947819 0.758975
O O8 0.193003 0.947370 0.717722
O O9 0.006525 0.250000 0.508105
O O10 0.115759 0.115437 0.627000
O O11 0.000000 0.000000 0.500000
O O12 0.509973 0.601473 0.201394
O O13 0.863305 0.030043 0.893980
O O14 0.212028 0.102420 0.962967
O O15 0.027320 0.905563 0.870071
O O16 0.215484 0.914252 0.028224
O O17 0.201454 0.750000 0.099869
O O18 0.879059 0.750000 0.751869
O O19 0.469652 0.250000 0.000964
O O20 0.500000 0.500000 0.000000
#
# Coordination Sequence:
#
# PCOD8072008 Si02
#       8
#     4   4   4   4   4   4   4   4
#     4   9  18  34  57  82 105 141 186 227 277 336
#     4  10  21  35  53  81 115 149 188 231 278 335
#     4   9  19  35  59  86 114 143 183 233 284 342
#     4  11  19  35  54  83 111 146 178 233 284 334
#     4  11  21  37  51  75 109 148 192 228 284 325
#     4  11  23  34  50  78 110 144 186 234 284 332
#     4  10  19  34  57  80 110 149 192 233 274 334
#     4  11  22  37  56  78 109 150 194 236 276 327
#
# _framework density 18.335625
#
# number of rings (size 3 to 8) (size 9 to 14) (size 15 to 20)
#    0.000    1.750    3.750    1.500    0.000    1.000 
#    0.000    0.625    0.000    0.000    0.000    0.000 
#    0.000    0.000    0.000    0.000    0.000    0.000 
#
# Total GULP energy -396417.808776 kJ/mol
# GULP energy per Si atom -12388.056524 kJ/mol
# Density = 1.829389 g / cm^3
# Si number density = 18.335625 Si / 1000 Ang^3
#
#
#
# Elastic Constant Matrix: (Units=GPa)
#
#
# Indices 1 2 3 4 5 6 
#
# 1 114.9386 21.2727 48.9362 0.0000 9.4925 0.0000
# 2 21.2727 79.7900 29.0204 0.0000 0.1933 0.0000
# 3 48.9362 29.0204 113.3099 0.0000 19.7219 0.0000
# 4 0.0000 0.0000 0.0000 25.7824 0.0000 -2.2941
# 5 9.4925 0.1933 19.7219 0.0000 22.8116 0.0000
# 6 0.0000 0.0000 0.0000 -2.2941 0.0000 21.6350
#
#
#
# Elastic Compliance Matrix: (Units=1/GPa)
#
#
# Indices 1 2 3 4 5 6 
#
# 1 0.010797 -0.001363 -0.004160 0.000000 -0.000885 0.000000
# 2 -0.001363 0.014229 -0.003688 0.000000 0.003635 0.000000
# 3 -0.004160 -0.003688 0.013254 0.000000 -0.009697 0.000000
# 4 0.000000 0.000000 0.000000 0.039156 0.000000 0.004152
# 5 -0.000885 0.003635 -0.009697 0.000000 0.052558 0.000000
# 6 0.000000 0.000000 0.000000 0.004152 0.000000 0.046662
#
#
# Mechanical properties :
#
#
# Convention : Reuss Voigt Hill
#
# Bulk Modulus (GPa) = 50.35914 56.27745 53.31829
# Shear Modulus (GPa) = 24.78964 27.96640 26.37802
#
# Velocity S-wave (km/s) = 3.68093 3.90968 3.79703
# Velocity P-wave (km/s) = 6.75208 7.15125 6.95453
#
# Compressibility (1/GPa) = 0.01985737
#
# Stress axis : x y z
#
# Youngs Moduli (GPa) = 92.62048 70.27893 75.44796
#
# Poissons Ratio (x) = 0.09582 0.31384
# Poissons Ratio (y) = 0.12628 0.27826
# Poissons Ratio (z) = 0.38527 0.25920
#
# Static dielectric constant tensor:
#      x y z
#    x 3.510410 0.000000 0.320850 
#    y 0.000000 3.367730 0.000000 
#    z 0.320850 0.000000 3.690190 
# 
# 
# High freq. dielectric constant tensor:
#      x y z
#    x 1.702050 0.000000 0.020900 
#    y 0.000000 1.701170 0.000000 
#    z 0.020900 0.000000 1.710880 
# 
# From -- ./inp_files/52269.got.cif
#   From: 2010.06.25/outbox.cif.g09.slc.cpg/sg11_27_cif.got.tgz:52269.got - 2010.06.27 23:14:04.
