data_PCOD8072496
_publ_section_title
;
Structure prediction by ZEFSAII (Michael W. Deem and Ramdas Pophale) SiO2 
 PCOD8072496
Probable space group: P 21/M
;
_chemical_formula_sum "Si O2"
_cell_formula_units_Z 32
_cell_length_a 15.183743
_cell_length_b 17.626948
_cell_length_c 11.689755
_cell_angle_alpha 90.000000
_cell_angle_beta 150.764119
_cell_angle_gamma 90.000000
_cell_volume 1528.067595
_symmetry_space_group_name_H-M "P 21/M"
_symmetry_group_IT_number 11
_symmetry_cell_setting 'monoclinic'
loop_
_space_group_symop_operation_xyz
x,y,z
-x,1/2+y,-z
-x,-y,-z
x,1/2-y,z
loop_
_atom_site_type_symbol
_atom_site_label
_atom_site_fract_x
_atom_site_fract_y
_atom_site_fract_z
Si Si1 0.700531 0.073211 0.322058
Si Si2 0.994268 0.410547 0.978554
Si Si3 0.344233 0.837175 0.516445
Si Si4 0.403420 0.548481 0.042249
Si Si5 0.024074 0.522223 0.658753
Si Si6 0.972706 0.163742 0.192653
Si Si7 0.548100 0.166062 0.726072
Si Si8 0.675110 0.661954 0.745915
O O1 0.675078 0.148098 0.369418
O O2 0.540936 0.016096 0.169043
O O3 0.893100 0.036173 0.576503
O O4 0.683375 0.090498 0.167674
O O5 0.794695 0.388109 0.712081
O O6 0.048859 0.368798 0.159104
O O7 0.000000 0.500000 0.000000
O O8 0.140597 0.386295 0.047801
O O9 0.300061 0.750000 0.439116
O O10 0.550374 0.856954 0.714633
O O11 0.506882 0.611828 0.231961
O O12 0.236986 0.512386 0.927178
O O13 0.000000 0.500000 0.500000
O O14 0.968535 0.608477 0.634741
O O15 0.044564 0.250000 0.295263
O O16 0.758696 0.164312 0.938655
O O17 0.484938 0.250000 0.689473
O O18 0.445798 0.137864 0.498587
O O19 0.729298 0.750000 0.806263
#
# Coordination Sequence:
#
# PCOD8072496 Si02
#       8
#     4   4   4   4   4   4   4   4
#     4  10  21  38  60  84 113 158 196 235 303 355
#     4  12  25  38  59  90 121 158 204 249 301 364
#     4  11  24  42  60  85 124 161 200 247 297 368
#     4   9  20  37  59  84 117 148 192 249 288 349
#     4   9  19  37  59  85 118 153 195 246 300 353
#     4  10  19  36  59  85 119 155 199 250 299 354
#     4   9  18  34  59  85 115 151 191 244 298 343
#     4  10  22  40  60  86 122 161 195 243 305 356
#
# _framework density 20.941482000000001
#
# number of rings (size 3 to 8) (size 9 to 14) (size 15 to 20)
#    0.000    2.000    1.250    1.875    3.500    4.000 
#    0.000    1.875    0.000    4.500    0.000    0.000 
#    0.000    0.000    0.000    0.000    0.000    0.000 
#
# Total GULP energy -396604.905180 kJ/mol
# GULP energy per Si atom -12393.903287 kJ/mol
# Density = 2.089382 g / cm^3
# Si number density = 20.941482 Si / 1000 Ang^3
#
#
#
# Elastic Constant Matrix: (Units=GPa)
#
#
# Indices 1 2 3 4 5 6 
#
# 1 81.0138 46.5534 20.6118 0.0000 14.2084 0.0000
# 2 46.5534 84.5993 15.5495 0.0000 5.3483 0.0000
# 3 20.6118 15.5495 38.9047 0.0000 10.5492 0.0000
# 4 0.0000 0.0000 0.0000 29.0066 0.0000 -4.6435
# 5 14.2084 5.3483 10.5492 0.0000 32.7970 0.0000
# 6 0.0000 0.0000 0.0000 -4.6435 0.0000 36.8048
#
#
#
# Elastic Compliance Matrix: (Units=1/GPa)
#
#
# Indices 1 2 3 4 5 6 
#
# 1 0.020329 -0.009858 -0.005344 0.000000 -0.005480 0.000000
# 2 -0.009858 0.017545 -0.002379 0.000000 0.002175 0.000000
# 3 -0.005344 -0.002379 0.031501 0.000000 -0.007429 0.000000
# 4 0.000000 0.000000 0.000000 0.035186 0.000000 0.004439
# 5 -0.005480 0.002175 -0.007429 0.000000 0.034900 0.000000
# 6 0.000000 0.000000 0.000000 0.004439 0.000000 0.027730
#
#
# Mechanical properties :
#
#
# Convention : Reuss Voigt Hill
#
# Bulk Modulus (GPa) = 29.23001 41.10525 35.16763
# Shear Modulus (GPa) = 23.39097 27.84189 25.61643
#
# Velocity S-wave (km/s) = 3.34573 3.65020 3.50128
# Velocity P-wave (km/s) = 5.37713 6.11854 5.75977
#
# Compressibility (1/GPa) = 0.03421142
#
# Stress axis : x y z
#
# Youngs Moduli (GPa) = 49.19028 56.99655 31.74535
#
# Poissons Ratio (x) = 0.56187 0.16966
# Poissons Ratio (y) = 0.48492 0.07553
# Poissons Ratio (z) = 0.26289 0.13561
#
# Static dielectric constant tensor:
#      x y z
#    x 4.177830 0.000000 0.139210 
#    y 0.000000 3.840720 0.000000 
#    z 0.139210 0.000000 3.763870 
# 
# 
# High freq. dielectric constant tensor:
#      x y z
#    x 1.830910 0.000000 0.016980 
#    y 0.000000 1.806360 0.000000 
#    z 0.016980 0.000000 1.809420 
# 
# From -- ./inp_files/40009.got.cif
#   From: 2010.06.25/outbox.cif.g09.slc.cpg/sg11_21_cif.got.tgz:40009.got - 2010.06.27 23:14:04.
