data_PCOD8072619
_publ_section_title
;
Structure prediction by ZEFSAII (Michael W. Deem and Ramdas Pophale) SiO2 
 PCOD8072619
Probable space group: P 21/M
;
_chemical_formula_sum "Si O2"
_cell_formula_units_Z 32
_cell_length_a 12.275148
_cell_length_b 9.038324
_cell_length_c 15.107858
_cell_angle_alpha 90.000000
_cell_angle_beta 87.235990
_cell_angle_gamma 90.000000
_cell_volume 1674.217956
_symmetry_space_group_name_H-M "P 21/M"
_symmetry_group_IT_number 11
_symmetry_cell_setting 'monoclinic'
loop_
_space_group_symop_operation_xyz
x,y,z
-x,1/2+y,-z
-x,-y,-z
x,1/2-y,z
loop_
_atom_site_type_symbol
_atom_site_label
_atom_site_fract_x
_atom_site_fract_y
_atom_site_fract_z
Si Si1 0.047258 0.425225 0.910952
Si Si2 0.464390 0.076726 0.633423
Si Si3 0.332334 0.577115 0.493160
Si Si4 0.093298 0.925704 0.438792
Si Si5 0.685106 0.419903 0.869435
Si Si6 0.739870 0.082016 0.067734
Si Si7 0.475300 0.922101 0.818896
Si Si8 0.104304 0.924895 0.239803
O O1 0.035516 0.250000 0.921273
O O2 0.172590 0.471392 0.893073
O O3 0.983405 0.485891 0.827143
O O4 0.000000 0.500000 0.000000
O O5 0.445396 0.250000 0.639331
O O6 0.582668 0.037479 0.588177
O O7 0.366155 0.009233 0.580001
O O8 0.457765 0.011237 0.730510
O O9 0.335834 0.750000 0.514660
O O10 0.212000 0.525635 0.469519
O O11 0.080304 0.750000 0.443777
O O12 0.080498 0.986154 0.338941
O O13 0.000000 0.000000 0.500000
O O14 0.648492 0.250000 0.855341
O O15 0.582817 0.526679 0.865479
O O16 0.773861 0.471016 0.793672
O O17 0.739524 0.439433 0.962664
O O18 0.772419 0.250000 0.090429
O O19 0.622899 0.041278 0.111357
O O20 0.483913 0.750000 0.795943
O O21 0.097020 0.750000 0.241400
#
# Coordination Sequence:
#
# PCOD8072619 Si02
#       8
#     4   4   4   4   4   4   4   4
#     4  11  21  37  61  86 115 149 193 241 286 341
#     4  10  20  36  60  85 110 147 190 231 282 349
#     4   9  19  37  60  83 110 145 188 239 289 334
#     4  10  21  38  58  82 114 150 189 233 287 341
#     4  10  19  37  61  80 108 149 194 236 283 344
#     4  10  22  39  57  80 114 153 191 237 288 336
#     4  11  23  36  53  84 122 150 183 235 289 340
#     4   9  19  37  61  84 110 150 191 232 283 340
#
# _framework density 19.113401
#
# number of rings (size 3 to 8) (size 9 to 14) (size 15 to 20)
#    0.000    2.000    1.250    2.250    0.000    5.500 
#    0.000    5.625    0.000    0.000    0.000    0.000 
#    0.000    0.000    0.000    0.000    0.000    0.000 
#
# Total GULP energy -396888.988499 kJ/mol
# GULP energy per Si atom -12402.780891 kJ/mol
# Density = 1.906990 g / cm^3
# Si number density = 19.113401 Si / 1000 Ang^3
#
#
#
# Elastic Constant Matrix: (Units=GPa)
#
#
# Indices 1 2 3 4 5 6 
#
# 1 132.5018 33.9858 60.6700 0.0000 9.1686 0.0000
# 2 33.9858 36.5423 22.0144 0.0000 9.0714 0.0000
# 3 60.6700 22.0144 76.3408 0.0000 0.8248 0.0000
# 4 0.0000 0.0000 0.0000 30.2270 0.0000 -1.3900
# 5 9.1686 9.0714 0.8248 0.0000 30.1221 0.0000
# 6 0.0000 0.0000 0.0000 -1.3900 0.0000 33.2651
#
#
#
# Elastic Compliance Matrix: (Units=1/GPa)
#
#
# Indices 1 2 3 4 5 6 
#
# 1 0.013372 -0.006779 -0.008653 0.000000 -0.001792 0.000000
# 2 -0.006779 0.039665 -0.005946 0.000000 -0.009719 0.000000
# 3 -0.008653 -0.005946 0.021649 0.000000 0.003832 0.000000
# 4 0.000000 0.000000 0.000000 0.033147 0.000000 0.001385
# 5 -0.001792 -0.009719 0.003832 0.000000 0.036566 0.000000
# 6 0.000000 0.000000 0.000000 0.001385 0.000000 0.030119
#
#
# Mechanical properties :
#
#
# Convention : Reuss Voigt Hill
#
# Bulk Modulus (GPa) = 31.31781 53.19171 42.25476
# Shear Modulus (GPa) = 21.93803 27.30383 24.62093
#
# Velocity S-wave (km/s) = 3.39157 3.78367 3.59297
# Velocity P-wave (km/s) = 5.63541 6.85407 6.27439
#
# Compressibility (1/GPa) = 0.03193071
#
# Stress axis : x y z
#
# Youngs Moduli (GPa) = 74.78521 25.21136 46.19186
#
# Poissons Ratio (x) = 0.17090 0.39968
# Poissons Ratio (y) = 0.50695 0.27465
# Poissons Ratio (z) = 0.64709 0.14990
#
# Static dielectric constant tensor:
#      x y z
#    x 3.678990 0.000000 0.057410 
#    y 0.000000 3.429140 0.000000 
#    z 0.057410 0.000000 3.678440 
# 
# 
# High freq. dielectric constant tensor:
#      x y z
#    x 1.751380 0.000000 0.003270 
#    y 0.000000 1.729320 0.000000 
#    z 0.003270 0.000000 1.751010 
# 
# From -- ./inp_files/42779.got.cif
#   From: 2010.06.25/outbox.cif.g09.slc.cpg/sg11_22_cif.got.tgz:42779.got - 2010.06.27 23:14:04.
