data_PCOD8072466
_publ_section_title
;
Structure prediction by ZEFSAII (Michael W. Deem and Ramdas Pophale) SiO2 
 PCOD8072466
Probable space group: P 21/M
;
_chemical_formula_sum "Si O2"
_cell_formula_units_Z 32
_cell_length_a 21.084637
_cell_length_b 9.186057
_cell_length_c 26.953348
_cell_angle_alpha 90.000000
_cell_angle_beta 160.653441
_cell_angle_gamma 90.000000
_cell_volume 1729.437232
_symmetry_space_group_name_H-M "P 21/M"
_symmetry_group_IT_number 11
_symmetry_cell_setting 'monoclinic'
loop_
_space_group_symop_operation_xyz
x,y,z
-x,1/2+y,-z
-x,-y,-z
x,1/2-y,z
loop_
_atom_site_type_symbol
_atom_site_label
_atom_site_fract_x
_atom_site_fract_y
_atom_site_fract_z
Si Si1 0.903538 0.420031 0.196452
Si Si2 0.725275 0.084111 0.789999
Si Si3 0.012746 0.078336 0.457123
Si Si4 0.300013 0.580497 0.853795
Si Si5 0.653655 0.081556 0.353552
Si Si6 0.238450 0.416723 0.001920
Si Si7 0.325458 0.417646 0.530360
Si Si8 0.948012 0.579817 0.037607
O O1 0.872867 0.250000 0.167325
O O2 0.822458 0.473941 0.189427
O O3 0.127227 0.462990 0.358189
O O4 0.787807 0.495698 0.067603
O O5 0.776040 0.250000 0.841123
O O6 0.496261 0.062953 0.616011
O O7 0.833568 0.043349 0.818273
O O8 0.799853 0.987465 0.889804
O O9 0.041994 0.250000 0.486357
O O10 0.818928 0.045692 0.283663
O O11 0.190946 0.015710 0.559031
O O12 0.000000 0.000000 0.500000
O O13 0.343771 0.750000 0.890590
O O14 0.500000 0.500000 0.000000
O O15 0.718085 0.250000 0.402325
O O16 0.455682 0.062946 0.178838
O O17 0.628321 0.023073 0.390191
O O18 0.190144 0.250000 0.954772
O O19 0.095132 0.479163 0.938896
O O20 0.312959 0.250000 0.539981
O O21 0.902698 0.750000 0.004341
#
# Coordination Sequence:
#
# PCOD8072466 Si02
#       8
#     4   4   4   4   4   4   4   4
#     4  10  22  40  58  79 111 149 189 229 276 331
#     4   9  17  29  54  82 107 145 187 228 282 335
#     4  11  24  43  63  88 119 147 184 233 281 331
#     4  10  23  42  61  83 113 148 184 227 275 331
#     4  11  22  37  59  86 114 148 189 232 281 332
#     4  10  22  37  54  81 117 151 186 232 281 329
#     4  10  19  36  58  83 111 145 190 237 280 330
#     4   9  17  32  50  78 116 146 180 231 282 331
#
# _framework density 18.503129999999999
#
# number of rings (size 3 to 8) (size 9 to 14) (size 15 to 20)
#    0.000    2.000    2.500    0.750    1.750    3.500 
#    0.000    0.625    0.000    0.000    0.000    0.000 
#    0.000    0.000    0.000    0.000    0.000    0.000 
#
# Total GULP energy -396767.253838 kJ/mol
# GULP energy per Si atom -12398.976682 kJ/mol
# Density = 1.846102 g / cm^3
# Si number density = 18.503130 Si / 1000 Ang^3
#
#
#
# Elastic Constant Matrix: (Units=GPa)
#
#
# Indices 1 2 3 4 5 6 
#
# 1 90.8230 43.0083 53.1505 0.0000 8.0720 0.0000
# 2 43.0083 64.4929 47.7538 0.0000 -0.9974 0.0000
# 3 53.1505 47.7538 106.5611 0.0000 10.7007 0.0000
# 4 0.0000 0.0000 0.0000 24.7501 0.0000 0.2048
# 5 8.0720 -0.9974 10.7007 0.0000 36.0266 0.0000
# 6 0.0000 0.0000 0.0000 0.2048 0.0000 28.3719
#
#
#
# Elastic Compliance Matrix: (Units=1/GPa)
#
#
# Indices 1 2 3 4 5 6 
#
# 1 0.018201 -0.008486 -0.004991 0.000000 -0.002830 0.000000
# 2 -0.008486 0.027691 -0.008704 0.000000 0.005253 0.000000
# 3 -0.004991 -0.008704 0.016169 0.000000 -0.003925 0.000000
# 4 0.000000 0.000000 0.000000 0.040406 0.000000 -0.000292
# 5 -0.002830 0.005253 -0.003925 0.000000 0.029703 0.000000
# 6 0.000000 0.000000 0.000000 -0.000292 0.000000 0.035248
#
#
# Mechanical properties :
#
#
# Convention : Reuss Voigt Hill
#
# Bulk Modulus (GPa) = 56.50355 61.07799 58.79077
# Shear Modulus (GPa) = 22.96946 25.69401 24.33173
#
# Velocity S-wave (km/s) = 3.52715 3.73048 3.63024
# Velocity P-wave (km/s) = 6.86959 7.18585 7.02950
#
# Compressibility (1/GPa) = 0.01769800
#
# Stress axis : x y z
#
# Youngs Moduli (GPa) = 54.94085 36.11318 61.84774
#
# Poissons Ratio (x) = 0.30645 0.30871
# Poissons Ratio (y) = 0.46621 0.53833
# Poissons Ratio (z) = 0.27424 0.31434
#
# Static dielectric constant tensor:
#      x y z
#    x 3.745390 0.000000 0.268710 
#    y 0.000000 3.450420 0.000000 
#    z 0.268710 0.000000 3.401300 
# 
# 
# High freq. dielectric constant tensor:
#      x y z
#    x 1.721480 0.000000 0.019360 
#    y 0.000000 1.717440 0.000000 
#    z 0.019360 0.000000 1.715290 
# 
# From -- ./inp_files/72148.got.cif
#   From: 2010.06.25/outbox.cif.g09.slc.cpg/sg11_37_cif.got.tgz:72148.got - 2010.06.27 23:14:04.
