data_PCOD8072068
_publ_section_title
;
Structure prediction by ZEFSAII (Michael W. Deem and Ramdas Pophale) SiO2 
 PCOD8072068
Probable space group: P 21/M
;
_chemical_formula_sum "Si O2"
_cell_formula_units_Z 32
_cell_length_a 21.042517
_cell_length_b 14.671588
_cell_length_c 14.865119
_cell_angle_alpha 90.000000
_cell_angle_beta 19.469906
_cell_angle_gamma 90.000000
_cell_volume 1529.655947
_symmetry_space_group_name_H-M "P 21/M"
_symmetry_group_IT_number 11
_symmetry_cell_setting 'monoclinic'
loop_
_space_group_symop_operation_xyz
x,y,z
-x,1/2+y,-z
-x,-y,-z
x,1/2-y,z
loop_
_atom_site_type_symbol
_atom_site_label
_atom_site_fract_x
_atom_site_fract_y
_atom_site_fract_z
Si Si1 0.611201 0.644191 0.610700
Si Si2 0.408578 0.644496 0.381631
Si Si3 0.944797 0.144179 0.277250
Si Si4 0.988899 0.644513 0.220953
Si Si5 0.689741 0.996969 0.938951
Si Si6 0.302366 0.151776 0.697704
Si Si7 0.946903 0.503078 0.424507
Si Si8 0.615399 0.411947 0.384576
O O1 0.544441 0.750000 0.698286
O O2 0.641549 0.601979 0.470037
O O3 0.810926 0.632600 0.393233
O O4 0.446816 0.585114 0.876405
O O5 0.459494 0.750000 0.329256
O O6 0.219556 0.632465 0.576016
O O7 0.381495 0.593310 0.512235
O O8 0.577164 0.597286 0.101301
O O9 0.969894 0.250000 0.272920
O O10 0.906747 0.085167 0.416612
O O11 0.135089 0.101977 0.976622
O O12 0.036896 0.750000 0.174524
O O13 0.933389 0.597249 0.388299
O O14 0.169026 0.593309 0.937431
O O15 0.782310 0.995699 0.717752
O O16 0.844987 0.000149 0.810091
O O17 0.217947 0.250000 0.782111
O O18 0.488399 0.168482 0.511694
O O19 0.500000 0.500000 0.500000
#
# Coordination Sequence:
#
# PCOD8072068 Si02
#       8
#     4   4   4   4   4   4   4   4
#     4  10  22  40  64  93 125 163 206 257 315 375
#     4  11  23  40  63  91 125 164 207 256 312 374
#     4  10  22  40  64  93 125 163 206 257 315 375
#     4  11  23  40  63  91 125 164 207 256 312 374
#     4  11  25  43  62  87 120 160 209 262 314 373
#     4  10  19  34  57  86 121 155 191 237 294 360
#     4  11  25  43  62  87 120 160 209 262 314 373
#     4  12  23  36  60  94 128 163 201 247 305 368
#
# _framework density 20.919737000000001
#
# number of rings (size 3 to 8) (size 9 to 14) (size 15 to 20)
#    0.000    1.250    0.000    6.375    0.000    8.000 
#    0.000    8.750    0.000    0.000    0.000    0.000 
#    0.000    0.000    0.000    0.000    0.000    0.000 
#
# Total GULP energy -396745.114678 kJ/mol
# GULP energy per Si atom -12398.284834 kJ/mol
# Density = 2.087212 g / cm^3
# Si number density = 20.919737 Si / 1000 Ang^3
#
#
#
# Elastic Constant Matrix: (Units=GPa)
#
#
# Indices 1 2 3 4 5 6 
#
# 1 120.7884 56.6036 77.1398 0.0000 -1.6219 0.0000
# 2 56.6036 139.1304 60.4617 0.0000 7.2216 0.0000
# 3 77.1398 60.4617 121.8286 0.0000 6.1352 0.0000
# 4 0.0000 0.0000 0.0000 -15.2672 0.0000 -36.6898
# 5 -1.6219 7.2216 6.1352 0.0000 31.4647 0.0000
# 6 0.0000 0.0000 0.0000 -36.6898 0.0000 9.3383
#
#
#
# Elastic Compliance Matrix: (Units=1/GPa)
#
#
# Indices 1 2 3 4 5 6 
#
# 1 0.014787 -0.002596 -0.008224 0.000000 0.002962 0.000000
# 2 -0.002596 0.009667 -0.003065 0.000000 -0.001755 0.000000
# 3 -0.008224 -0.003065 0.015071 0.000000 -0.002659 0.000000
# 4 0.000000 0.000000 0.000000 -0.006273 0.000000 -0.024645
# 5 0.002962 -0.001755 -0.002659 0.000000 0.032855 0.000000
# 6 0.000000 0.000000 0.000000 -0.024645 0.000000 0.010255
#
#
# Mechanical properties :
#
#
# Convention : Reuss Voigt Hill
#
# Bulk Modulus (GPa) = 85.07495 85.57305 85.32400
# Shear Modulus (GPa) = 46.27427 17.61000 31.94213
#
# Velocity S-wave (km/s) = 4.70828 2.90451 3.91178
# Velocity P-wave (km/s) = 8.38527 7.22789 7.82800
#
# Compressibility (1/GPa) = 0.01175434
#
# Stress axis : x y z
#
# Youngs Moduli (GPa) = 67.62580 103.44630 66.35390
#
# Poissons Ratio (x) = 0.26854 0.54569
# Poissons Ratio (y) = 0.17555 0.20340
# Poissons Ratio (z) = 0.55615 0.31711
#
# Static dielectric constant tensor:
#      x y z
#    x 3.963800 0.000000 -0.155540 
#    y 0.000000 4.089490 0.000000 
#    z -0.155540 0.000000 3.859720 
# 
# 
# High freq. dielectric constant tensor:
#      x y z
#    x 1.830080 0.000000 -0.009990 
#    y 0.000000 1.834530 0.000000 
#    z -0.009990 0.000000 1.823380 
# 
# From -- ./inp_files/54972.got.cif
#   From: 2010.06.25/outbox.cif.g09.slc.cpg/sg11_28_cif.got.tgz:54972.got - 2010.06.27 23:14:04.
