data_PCOD8072507
_publ_section_title
;
Structure prediction by ZEFSAII (Michael W. Deem and Ramdas Pophale) SiO2 
 PCOD8072507
Probable space group: P 21/M
;
_chemical_formula_sum "Si O2"
_cell_formula_units_Z 32
_cell_length_a 13.014979
_cell_length_b 8.994083
_cell_length_c 30.292812
_cell_angle_alpha 90.000000
_cell_angle_beta 152.026676
_cell_angle_gamma 90.000000
_cell_volume 1663.292946
_symmetry_space_group_name_H-M "P 21/M"
_symmetry_group_IT_number 11
_symmetry_cell_setting 'monoclinic'
loop_
_space_group_symop_operation_xyz
x,y,z
-x,1/2+y,-z
-x,-y,-z
x,1/2-y,z
loop_
_atom_site_type_symbol
_atom_site_label
_atom_site_fract_x
_atom_site_fract_y
_atom_site_fract_z
Si Si1 0.204417 0.079697 0.556478
Si Si2 0.923220 0.927305 0.107896
Si Si3 0.032326 0.079520 0.397463
Si Si4 0.510690 0.075222 0.906998
Si Si5 0.266532 0.574906 0.407926
Si Si6 0.588579 0.922190 0.230297
Si Si7 0.078725 0.074040 0.792904
Si Si8 0.633257 0.076655 0.765367
O O1 0.189705 0.250000 0.566228
O O2 0.430763 0.008548 0.660402
O O3 0.198929 0.065003 0.501566
O O4 0.000000 0.000000 0.500000
O O5 0.913430 0.750000 0.103061
O O6 0.926534 0.987977 0.159390
O O7 0.137485 0.992430 0.164186
O O8 0.713000 0.989300 0.003891
O O9 0.021485 0.250000 0.377044
O O10 0.792893 0.024685 0.321060
O O11 0.114192 0.972364 0.390335
O O12 0.541183 0.250000 0.926228
O O13 0.502115 0.035115 0.852051
O O14 0.291671 0.013885 0.847662
O O15 0.500000 0.500000 0.500000
O O16 0.300711 0.750000 0.422099
O O17 0.143148 0.523886 0.316332
O O18 0.662495 0.750000 0.259707
O O19 0.399995 0.954054 0.195053
O O20 0.091149 0.250000 0.797649
O O21 0.644108 0.250000 0.758953
#
# Coordination Sequence:
#
# PCOD8072507 Si02
#       8
#     4   4   4   4   4   4   4   4
#     4  10  20  34  56  83 112 150 191 232 275 335
#     4  10  21  37  58  83 109 145 190 237 287 341
#     4  11  22  35  56  88 118 148 191 241 285 336
#     4  10  20  37  58  82 108 145 192 237 288 343
#     4  11  23  40  60  86 119 156 191 232 285 345
#     4  10  19  36  60  81 111 155 194 229 281 349
#     4   9  19  37  61  82 109 150 190 227 281 346
#     4   9  19  35  56  81 112 151 190 226 280 345
#
# _framework density 19.238944
#
# number of rings (size 3 to 8) (size 9 to 14) (size 15 to 20)
#    0.000    2.000    2.500    1.125    1.750    1.500 
#    0.000    2.500    0.000    0.000    0.000    0.000 
#    0.000    0.000    0.000    0.000    0.000    0.000 
#
# Total GULP energy -396807.896638 kJ/mol
# GULP energy per Si atom -12400.246770 kJ/mol
# Density = 1.919515 g / cm^3
# Si number density = 19.238944 Si / 1000 Ang^3
#
#
#
# Elastic Constant Matrix: (Units=GPa)
#
#
# Indices 1 2 3 4 5 6 
#
# 1 144.5694 29.0728 83.0654 0.0000 -4.2409 0.0000
# 2 29.0728 43.3264 38.9435 0.0000 -1.3794 0.0000
# 3 83.0654 38.9435 165.6623 0.0000 0.5809 0.0000
# 4 0.0000 0.0000 0.0000 32.6493 0.0000 2.9995
# 5 -4.2409 -1.3794 0.5809 0.0000 35.4293 0.0000
# 6 0.0000 0.0000 0.0000 2.9995 0.0000 15.9368
#
#
#
# Elastic Compliance Matrix: (Units=1/GPa)
#
#
# Indices 1 2 3 4 5 6 
#
# 1 0.010023 -0.002748 -0.004383 0.000000 0.001165 0.000000
# 2 -0.002748 0.030073 -0.005695 0.000000 0.000935 0.000000
# 3 -0.004383 -0.005695 0.009576 0.000000 -0.000903 0.000000
# 4 0.000000 0.000000 0.000000 0.031167 0.000000 -0.005866
# 5 0.001165 0.000935 -0.000903 0.000000 0.028416 0.000000
# 6 0.000000 0.000000 0.000000 -0.005866 0.000000 0.063852
#
#
# Mechanical properties :
#
#
# Convention : Reuss Voigt Hill
#
# Bulk Modulus (GPa) = 41.63381 72.85794 57.24588
# Shear Modulus (GPa) = 24.18186 30.30151 27.24168
#
# Velocity S-wave (km/s) = 3.54916 3.97294 3.76701
# Velocity P-wave (km/s) = 6.20344 7.68101 6.98143
#
# Compressibility (1/GPa) = 0.02401894
#
# Stress axis : x y z
#
# Youngs Moduli (GPa) = 99.77514 33.25222 104.42535
#
# Poissons Ratio (x) = 0.09138 0.45775
# Poissons Ratio (y) = 0.27420 0.59469
# Poissons Ratio (z) = 0.43736 0.18937
#
# Static dielectric constant tensor:
#      x y z
#    x 3.836990 0.000000 -0.022340 
#    y 0.000000 3.237510 0.000000 
#    z -0.022340 0.000000 3.704350 
# 
# 
# High freq. dielectric constant tensor:
#      x y z
#    x 1.760360 0.000000 -0.005540 
#    y 0.000000 1.717520 0.000000 
#    z -0.005540 0.000000 1.756070 
# 
# From -- ./inp_files/73187.got.cif
#   From: 2010.06.25/outbox.cif.g09.slc.cpg/sg11_37_cif.got.tgz:73187.got - 2010.06.27 23:14:04.
