data_PCOD8072794
_publ_section_title
;
Structure prediction by ZEFSAII (Michael W. Deem and Ramdas Pophale) SiO2 
 PCOD8072794
Probable space group: P 21/M
;
_chemical_formula_sum "Si O2"
_cell_formula_units_Z 24
_cell_length_a 11.407512
_cell_length_b 9.093738
_cell_length_c 20.045256
_cell_angle_alpha 90.000000
_cell_angle_beta 136.418161
_cell_angle_gamma 90.000000
_cell_volume 1433.540407
_symmetry_space_group_name_H-M "P 21/M"
_symmetry_group_IT_number 11
_symmetry_cell_setting 'monoclinic'
loop_
_space_group_symop_operation_xyz
x,y,z
-x,1/2+y,-z
-x,-y,-z
x,1/2-y,z
loop_
_atom_site_type_symbol
_atom_site_label
_atom_site_fract_x
_atom_site_fract_y
_atom_site_fract_z
Si Si1 0.379697 0.578007 0.039532
Si Si2 0.588469 0.076706 0.474442
Si Si3 0.177348 0.922564 0.085793
Si Si4 0.104330 0.921823 0.318481
Si Si5 0.329452 0.924233 0.288620
Si Si6 0.260774 0.076440 0.862530
O O1 0.358469 0.750000 0.016910
O O2 0.311620 0.533656 0.083987
O O3 0.577922 0.530062 0.116157
O O4 0.269863 0.493409 0.939423
O O5 0.550500 0.250000 0.458537
O O6 0.790940 0.045622 0.569789
O O7 0.500000 0.000000 0.500000
O O8 0.514048 0.001891 0.376701
O O9 0.142521 0.750000 0.073092
O O10 0.257257 0.977118 0.188119
O O11 0.000000 0.000000 0.000000
O O12 0.092352 0.750000 0.301413
O O13 0.201067 0.983848 0.292784
O O14 0.911900 0.984191 0.243819
O O15 0.357421 0.750000 0.302593
O O16 0.255623 0.250000 0.870331
#
# Coordination Sequence:
#
# PCOD8072794 Si02
#       6
#     4   4   4   4   4   4
#     4   9  18  30  44  66  91 114 146 184 219 258
#     4   9  16  27  43  64  88 112 143 181 219 261
#     4  10  20  32  46  66  92 120 150 183 219 265
#     4   8  14  25  43  64  82 107 144 177 210 257
#     4   9  17  29  43  61  88 118 146 178 218 263
#     4   9  16  29  48  65  86 117 147 179 221 264
#
# _framework density 16.741768
#
# number of rings (size 3 to 8) (size 9 to 14) (size 15 to 20)
#    0.000    3.000    0.000    2.500    0.000    2.667 
#    0.000    5.833    0.000    1.000    0.000    0.000 
#    0.000    0.000    0.000    0.000    0.000    0.667 
#
# Total GULP energy -297397.635120 kJ/mol
# GULP energy per Si atom -12391.568130 kJ/mol
# Density = 1.670366 g / cm^3
# Si number density = 16.741768 Si / 1000 Ang^3
#
#
#
# Elastic Constant Matrix: (Units=GPa)
#
#
# Indices 1 2 3 4 5 6 
#
# 1 78.8038 20.5821 68.9430 0.0000 2.6841 0.0000
# 2 20.5821 34.4428 42.7349 0.0000 1.4162 0.0000
# 3 68.9430 42.7349 187.2909 0.0000 11.5784 0.0000
# 4 0.0000 0.0000 0.0000 29.3302 0.0000 -0.6301
# 5 2.6841 1.4162 11.5784 0.0000 26.0900 0.0000
# 6 0.0000 0.0000 0.0000 -0.6301 0.0000 16.2659
#
#
#
# Elastic Compliance Matrix: (Units=1/GPa)
#
#
# Indices 1 2 3 4 5 6 
#
# 1 0.019083 -0.003699 -0.006243 0.000000 0.001008 0.000000
# 2 -0.003699 0.041314 -0.008174 0.000000 0.001766 0.000000
# 3 -0.006243 -0.008174 0.009702 0.000000 -0.003219 0.000000
# 4 0.000000 0.000000 0.000000 0.034123 0.000000 0.001322
# 5 0.001008 0.001766 -0.003219 0.000000 0.039558 0.000000
# 6 0.000000 0.000000 0.000000 0.001322 0.000000 0.061530
#
#
# Mechanical properties :
#
#
# Convention : Reuss Voigt Hill
#
# Bulk Modulus (GPa) = 29.52821 62.78415 46.15618
# Shear Modulus (GPa) = 19.77610 25.55572 22.66591
#
# Velocity S-wave (km/s) = 3.44065 3.91124 3.68347
# Velocity P-wave (km/s) = 5.78445 7.61446 6.76165
#
# Compressibility (1/GPa) = 0.03386592
#
# Stress axis : x y z
#
# Youngs Moduli (GPa) = 52.40171 24.20505 103.07670
#
# Poissons Ratio (x) = 0.08954 0.64350
# Poissons Ratio (y) = 0.19384 0.84256
# Poissons Ratio (z) = 0.32714 0.19786
#
# Static dielectric constant tensor:
#      x y z
#    x 3.163380 0.000000 0.258550 
#    y 0.000000 3.078670 0.000000 
#    z 0.258550 0.000000 3.734600 
# 
# 
# High freq. dielectric constant tensor:
#      x y z
#    x 1.612060 0.000000 0.013090 
#    y 0.000000 1.629930 0.000000 
#    z 0.013090 0.000000 1.659410 
# 
# From -- ./inp_files/34076.got.cif
#   From: 2010.06.25/outbox.cif.g09.slc.cpg/sg11_18_cif.got.tgz:34076.got - 2010.06.27 23:14:04.
