data_PCOD8072084
_publ_section_title
;
Structure prediction by ZEFSAII (Michael W. Deem and Ramdas Pophale) SiO2 
 PCOD8072084
Probable space group: P 21/M
;
_chemical_formula_sum "Si O2"
_cell_formula_units_Z 28
_cell_length_a 15.957319
_cell_length_b 8.863583
_cell_length_c 19.653000
_cell_angle_alpha 90.000000
_cell_angle_beta 148.087584
_cell_angle_gamma 90.000000
_cell_volume 1469.411967
_symmetry_space_group_name_H-M "P 21/M"
_symmetry_group_IT_number 11
_symmetry_cell_setting 'monoclinic'
loop_
_space_group_symop_operation_xyz
x,y,z
-x,1/2+y,-z
-x,-y,-z
x,1/2-y,z
loop_
_atom_site_type_symbol
_atom_site_label
_atom_site_fract_x
_atom_site_fract_y
_atom_site_fract_z
Si Si1 0.526878 0.570704 0.592483
Si Si2 0.445967 0.080927 0.063700
Si Si3 0.028826 0.428930 0.445755
Si Si4 0.657590 0.079675 0.882906
Si Si5 0.829817 0.925885 0.885960
Si Si6 0.727266 0.919570 0.198115
Si Si7 0.658042 0.921360 0.416139
O O1 0.500000 0.500000 0.500000
O O2 0.517813 0.750000 0.580744
O O3 0.700515 0.518063 0.740469
O O4 0.388560 0.517142 0.548919
O O5 0.468680 0.250000 0.108376
O O6 0.335877 0.980128 0.035976
O O7 0.617520 0.003019 0.177536
O O8 0.360171 0.085918 0.933172
O O9 0.030234 0.250000 0.454072
O O10 0.887337 0.485433 0.299948
O O11 0.000000 0.500000 0.500000
O O12 0.187518 0.485718 0.516494
O O13 0.724159 0.250000 0.925012
O O14 0.478920 0.070363 0.733836
O O15 0.767146 0.967225 0.916743
O O16 0.853503 0.750000 0.894900
O O17 0.000000 0.000000 0.000000
O O18 0.762264 0.750000 0.248708
O O19 0.686653 0.750000 0.460558
#
# Coordination Sequence:
#
# PCOD8072084 Si02
#       7
#     4   4   4   4   4   4   4
#     4  10  21  38  62  88 115 151 191 235 290 348
#     4  10  20  35  55  78 106 144 187 230 277 330
#     4  11  22  36  56  82 113 149 187 232 280 331
#     4  10  19  34  58  83 109 143 182 227 278 331
#     4  10  21  38  59  86 116 147 189 236 285 343
#     4  10  21  36  53  76 109 145 185 231 277 329
#     4   9  20  37  56  81 112 146 187 230 274 331
#
# _framework density 19.055243000000001
#
# number of rings (size 3 to 8) (size 9 to 14) (size 15 to 20)
#    0.000    2.000    0.000    3.429    0.000    6.286 
#    2.571    0.000    0.000    0.000    0.000    0.000 
#    0.000    0.000    0.000    0.000    0.000    0.000 
#
# Total GULP energy -347153.139509 kJ/mol
# GULP energy per Si atom -12398.326411 kJ/mol
# Density = 1.901187 g / cm^3
# Si number density = 19.055243 Si / 1000 Ang^3
#
#
#
# Elastic Constant Matrix: (Units=GPa)
#
#
# Indices 1 2 3 4 5 6 
#
# 1 120.1501 46.3541 51.8011 0.0000 14.1012 0.0000
# 2 46.3541 86.5990 40.6952 0.0000 3.7976 0.0000
# 3 51.8011 40.6952 80.8759 0.0000 29.6715 0.0000
# 4 0.0000 0.0000 0.0000 31.8892 0.0000 1.6053
# 5 14.1012 3.7976 29.6715 0.0000 27.6698 0.0000
# 6 0.0000 0.0000 0.0000 1.6053 0.0000 38.0908
#
#
#
# Elastic Compliance Matrix: (Units=1/GPa)
#
#
# Indices 1 2 3 4 5 6 
#
# 1 0.012407 -0.003599 -0.006590 0.000000 0.001238 0.000000
# 2 -0.003599 0.018069 -0.010798 0.000000 0.010933 0.000000
# 3 -0.006590 -0.010798 0.033372 0.000000 -0.030946 0.000000
# 4 0.000000 0.000000 0.000000 0.031425 0.000000 -0.001324
# 5 0.001238 0.010933 -0.030946 0.000000 0.067194 0.000000
# 6 0.000000 0.000000 0.000000 -0.001324 0.000000 0.026309
#
#
# Mechanical properties :
#
#
# Convention : Reuss Voigt Hill
#
# Bulk Modulus (GPa) = 45.71519 62.81398 54.26458
# Shear Modulus (GPa) = 21.00473 29.44827 25.22650
#
# Velocity S-wave (km/s) = 3.32370 3.93544 3.64244
# Velocity P-wave (km/s) = 6.22674 7.32707 6.79920
#
# Compressibility (1/GPa) = 0.02187457
#
# Stress axis : x y z
#
# Youngs Moduli (GPa) = 80.59766 55.34479 29.96484
#
# Poissons Ratio (x) = 0.19917 0.19748
# Poissons Ratio (y) = 0.29004 0.32356
# Poissons Ratio (z) = 0.53116 0.59761
#
# Static dielectric constant tensor:
#      x y z
#    x 4.866650 0.000000 0.889800 
#    y 0.000000 3.723980 0.000000 
#    z 0.889800 0.000000 3.948520 
# 
# 
# High freq. dielectric constant tensor:
#      x y z
#    x 1.741690 0.000000 0.004150 
#    y 0.000000 1.753580 0.000000 
#    z 0.004150 0.000000 1.732300 
# 
# From -- ./inp_files/65422.got.cif
#   From: 2010.06.25/outbox.cif.g09.slc.cpg/sg11_33_cif.got.tgz:65422.got - 2010.06.27 23:14:04.
