data_PCOD8072233
_publ_section_title
;
Structure prediction by ZEFSAII (Michael W. Deem and Ramdas Pophale) SiO2 
 PCOD8072233
Probable space group: P 21/M
;
_chemical_formula_sum "Si O2"
_cell_formula_units_Z 32
_cell_length_a 19.589439
_cell_length_b 15.003242
_cell_length_c 13.473277
_cell_angle_alpha 90.000000
_cell_angle_beta 25.225724
_cell_angle_gamma 90.000000
_cell_volume 1687.636886
_symmetry_space_group_name_H-M "P 21/M"
_symmetry_group_IT_number 11
_symmetry_cell_setting 'monoclinic'
loop_
_space_group_symop_operation_xyz
x,y,z
-x,1/2+y,-z
-x,-y,-z
x,1/2-y,z
loop_
_atom_site_type_symbol
_atom_site_label
_atom_site_fract_x
_atom_site_fract_y
_atom_site_fract_z
Si Si1 0.510411 0.057147 0.085419
Si Si2 0.627029 0.991574 0.526619
Si Si3 0.922744 0.096422 0.102773
Si Si4 0.712700 0.983270 0.101285
Si Si5 0.077737 0.851220 0.116986
Si Si6 0.239402 0.349838 0.351416
Si Si7 0.214047 0.148886 0.817845
Si Si8 0.813273 0.517752 0.752559
O O1 0.407118 0.144740 0.193153
O O2 0.419704 0.012135 0.297022
O O3 0.500000 0.000000 0.000000
O O4 0.698326 0.067736 0.872387
O O5 0.737024 0.080162 0.373316
O O6 0.477509 0.007035 0.650878
O O7 0.708970 0.899877 0.379842
O O8 0.940522 0.147733 0.976484
O O9 0.021012 0.153392 0.055063
O O10 0.000000 0.000000 0.000000
O O11 0.755677 0.908281 0.123923
O O12 0.779442 0.950449 0.908170
O O13 0.785136 0.080323 0.030448
O O14 0.122291 0.750000 0.091628
O O15 0.909262 0.882714 0.385839
O O16 0.212680 0.250000 0.352899
O O17 0.243353 0.404240 0.244767
O O18 0.280692 0.250000 0.741392
O O19 0.000000 0.500000 0.500000
#
# Coordination Sequence:
#
# PCOD8072233 Si02
#       8
#     4   4   4   4   4   4   4   4
#     4   9  20  35  59  88 107 148 193 233 289 349
#     4  10  21  37  59  83 117 155 192 240 296 346
#     4  10  19  35  57  79 110 152 192 237 283 342
#     4  11  22  39  58  86 120 158 193 239 296 352
#     4  11  21  34  59  90 116 151 196 244 296 344
#     4  10  20  36  59  88 118 149 195 246 290 342
#     4  11  23  37  58  87 117 156 200 239 290 346
#     4  10  20  37  61  82 114 156 195 231 295 357
#
# _framework density 18.961424000000001
#
# number of rings (size 3 to 8) (size 9 to 14) (size 15 to 20)
#    0.000    1.750    3.750    2.250    0.000    2.500 
#    0.000    3.125    0.000   10.500    0.000    0.000 
#    0.000    0.000    0.000    0.000    0.000    0.000 
#
# Total GULP energy -396464.885447 kJ/mol
# GULP energy per Si atom -12389.527670 kJ/mol
# Density = 1.891827 g / cm^3
# Si number density = 18.961424 Si / 1000 Ang^3
#
#
#
# Elastic Constant Matrix: (Units=GPa)
#
#
# Indices 1 2 3 4 5 6 
#
# 1 132.8421 44.2529 60.8240 0.0000 -3.4081 0.0000
# 2 44.2529 83.7383 40.1819 0.0000 0.5899 0.0000
# 3 60.8240 40.1819 103.5119 0.0000 -12.9079 0.0000
# 4 0.0000 0.0000 0.0000 20.0753 0.0000 1.6281
# 5 -3.4081 0.5899 -12.9079 0.0000 44.8505 0.0000
# 6 0.0000 0.0000 0.0000 1.6281 0.0000 16.8279
#
#
#
# Elastic Compliance Matrix: (Units=1/GPa)
#
#
# Indices 1 2 3 4 5 6 
#
# 1 0.011025 -0.003287 -0.005282 0.000000 -0.000639 0.000000
# 2 -0.003287 0.015814 -0.004423 0.000000 -0.001731 0.000000
# 3 -0.005282 -0.004423 0.014976 0.000000 0.003967 0.000000
# 4 0.000000 0.000000 0.000000 0.050206 0.000000 -0.004857
# 5 -0.000639 -0.001731 0.003967 0.000000 0.023412 0.000000
# 6 0.000000 0.000000 0.000000 -0.004857 0.000000 0.059895
#
#
# Mechanical properties :
#
#
# Convention : Reuss Voigt Hill
#
# Bulk Modulus (GPa) = 63.16930 67.84556 65.50743
# Shear Modulus (GPa) = 24.20268 28.00630 26.10449
#
# Velocity S-wave (km/s) = 3.57657 3.84736 3.71444
# Velocity P-wave (km/s) = 7.10231 7.45619 7.28140
#
# Compressibility (1/GPa) = 0.01583047
#
# Stress axis : x y z
#
# Youngs Moduli (GPa) = 90.70485 63.23635 66.77385
#
# Poissons Ratio (x) = 0.20787 0.35269
# Poissons Ratio (y) = 0.29817 0.29533
# Poissons Ratio (z) = 0.47909 0.27969
#
# Static dielectric constant tensor:
#      x y z
#    x 3.854530 0.000000 -0.275830 
#    y 0.000000 3.327050 0.000000 
#    z -0.275830 0.000000 3.899520 
# 
# 
# High freq. dielectric constant tensor:
#      x y z
#    x 1.757080 0.000000 -0.004850 
#    y 0.000000 1.704470 0.000000 
#    z -0.004850 0.000000 1.744380 
# 
# From -- ./inp_files/41680.got.cif
#   From: 2010.06.25/outbox.cif.g09.slc.cpg/sg11_21_cif.got.tgz:41680.got - 2010.06.27 23:14:04.
