data_PCOD8072198
_publ_section_title
;
Structure prediction by ZEFSAII (Michael W. Deem and Ramdas Pophale) SiO2 
 PCOD8072198
Probable space group: P 21/M
;
_chemical_formula_sum "Si O2"
_cell_formula_units_Z 28
_cell_length_a 9.563995
_cell_length_b 8.707509
_cell_length_c 26.924497
_cell_angle_alpha 90.000000
_cell_angle_beta 140.659278
_cell_angle_gamma 90.000000
_cell_volume 1421.420778
_symmetry_space_group_name_H-M "P 21/M"
_symmetry_group_IT_number 11
_symmetry_cell_setting 'monoclinic'
loop_
_space_group_symop_operation_xyz
x,y,z
-x,1/2+y,-z
-x,-y,-z
x,1/2-y,z
loop_
_atom_site_type_symbol
_atom_site_label
_atom_site_fract_x
_atom_site_fract_y
_atom_site_fract_z
Si Si1 0.414044 0.933951 0.743050
Si Si2 0.409557 0.424839 0.524172
Si Si3 0.284254 0.567047 0.916071
Si Si4 0.717426 0.572973 0.682700
Si Si5 0.833768 0.430090 0.816096
Si Si6 0.061479 0.576824 0.568488
Si Si7 0.190707 0.926971 0.780658
O O1 0.413094 0.750000 0.743092
O O2 0.268527 0.994538 0.655848
O O3 0.309371 0.002015 0.765449
O O4 0.661636 0.998693 0.808207
O O5 0.500000 0.500000 0.500000
O O6 0.494006 0.250000 0.551268
O O7 0.496111 0.522861 0.594471
O O8 0.145884 0.432401 0.451275
O O9 0.284036 0.750000 0.917725
O O10 0.272656 0.504322 0.856035
O O11 0.072805 0.507564 0.888829
O O12 0.500000 0.500000 0.000000
O O13 0.700111 0.750000 0.695633
O O14 0.740860 0.464504 0.736241
O O15 0.926693 0.550380 0.703676
O O16 0.855241 0.250000 0.831132
O O17 0.120735 0.750000 0.571069
O O18 0.000000 0.500000 0.500000
O O19 0.254351 0.750000 0.798330
#
# Coordination Sequence:
#
# PCOD8072198 Si02
#       7
#     4   4   4   4   4   4   4
#     4  10  19  36  57  77 104 144 187 229 274 324
#     4  11  22  35  51  76 106 140 183 234 285 336
#     4  10  20  38  63  90 115 144 178 219 269 326
#     4  10  19  35  56  78 104 141 186 232 279 331
#     4  11  22  36  55  83 113 143 179 221 265 323
#     4  10  22  36  52  74 105 144 188 233 281 330
#     4   8  17  34  58  82 107 140 182 226 273 324
#
# _framework density 19.698602000000001
#
# number of rings (size 3 to 8) (size 9 to 14) (size 15 to 20)
#    0.000    2.000    0.000    5.143    0.000    6.286 
#    0.000    6.429    0.000    0.000    0.000    0.000 
#    0.000    0.000    0.000    0.000    0.000    0.000 
#
# Total GULP energy -347147.870910 kJ/mol
# GULP energy per Si atom -12398.138247 kJ/mol
# Density = 1.965377 g / cm^3
# Si number density = 19.698602 Si / 1000 Ang^3
#
#
#
# Elastic Constant Matrix: (Units=GPa)
#
#
# Indices 1 2 3 4 5 6 
#
# 1 108.1611 29.6528 26.5241 0.0000 13.2481 0.0000
# 2 29.6528 71.3557 28.4110 0.0000 4.8726 0.0000
# 3 26.5241 28.4110 101.8861 0.0000 16.6698 0.0000
# 4 0.0000 0.0000 0.0000 30.5989 0.0000 2.3492
# 5 13.2481 4.8726 16.6698 0.0000 26.9634 0.0000
# 6 0.0000 0.0000 0.0000 2.3492 0.0000 26.5599
#
#
#
# Elastic Compliance Matrix: (Units=1/GPa)
#
#
# Indices 1 2 3 4 5 6 
#
# 1 0.011083 -0.003874 -0.001144 0.000000 -0.004038 0.000000
# 2 -0.003874 0.017119 -0.003972 0.000000 0.001266 0.000000
# 3 -0.001144 -0.003972 0.012250 0.000000 -0.006293 0.000000
# 4 0.000000 0.000000 0.000000 0.032904 0.000000 -0.002910
# 5 -0.004038 0.001266 -0.006293 0.000000 0.042733 0.000000
# 6 0.000000 0.000000 0.000000 -0.002910 0.000000 0.037908
#
#
# Mechanical properties :
#
#
# Convention : Reuss Voigt Hill
#
# Bulk Modulus (GPa) = 44.50209 50.06432 47.28321
# Shear Modulus (GPa) = 27.85980 29.94544 28.90262
#
# Velocity S-wave (km/s) = 3.76480 3.90318 3.83462
# Velocity P-wave (km/s) = 6.44506 6.76634 6.60766
#
# Compressibility (1/GPa) = 0.02247085
#
# Stress axis : x y z
#
# Youngs Moduli (GPa) = 90.22999 58.41299 81.63196
#
# Poissons Ratio (x) = 0.22631 0.09340
# Poissons Ratio (y) = 0.34958 0.32426
# Poissons Ratio (z) = 0.10324 0.23203
#
# Static dielectric constant tensor:
#      x y z
#    x 3.860700 0.000000 -0.066810 
#    y 0.000000 3.468910 0.000000 
#    z -0.066810 0.000000 4.138030 
# 
# 
# High freq. dielectric constant tensor:
#      x y z
#    x 1.777450 0.000000 0.011520 
#    y 0.000000 1.751680 0.000000 
#    z 0.011520 0.000000 1.756040 
# 
# From -- ./inp_files/28568.got.cif
#   From: 2010.06.25/outbox.cif.g09.slc.cpg/sg11_15_cif.got.tgz:28568.got - 2010.06.27 23:14:04.
