data_PCOD8072951
_publ_section_title
;
Structure prediction by ZEFSAII (Michael W. Deem and Ramdas Pophale) SiO2 
 PCOD8072951
Probable space group: P 21/M
;
_chemical_formula_sum "Si O2"
_cell_formula_units_Z 24
_cell_length_a 21.421802
_cell_length_b 8.949602
_cell_length_c 22.471103
_cell_angle_alpha 90.000000
_cell_angle_beta 18.527006
_cell_angle_gamma 90.000000
_cell_volume 1368.900461
_symmetry_space_group_name_H-M "P 21/M"
_symmetry_group_IT_number 11
_symmetry_cell_setting 'monoclinic'
loop_
_space_group_symop_operation_xyz
x,y,z
-x,1/2+y,-z
-x,-y,-z
x,1/2-y,z
loop_
_atom_site_type_symbol
_atom_site_label
_atom_site_fract_x
_atom_site_fract_y
_atom_site_fract_z
Si Si1 0.868995 0.927791 0.298898
Si Si2 0.546908 0.427677 0.285840
Si Si3 0.064704 0.926126 0.002070
Si Si4 0.577955 0.074428 0.015595
Si Si5 0.207232 0.574698 0.299187
Si Si6 0.255158 0.927651 0.011323
O O1 0.862300 0.750000 0.307523
O O2 0.660385 0.998141 0.506504
O O3 0.918858 0.978401 0.186670
O O4 0.036042 0.985900 0.193705
O O5 0.536464 0.250000 0.295007
O O6 0.715247 0.479015 0.179833
O O7 0.596650 0.484014 0.174222
O O8 0.056480 0.750000 0.001332
O O9 0.000000 0.000000 0.000000
O O10 0.533072 0.250000 0.059774
O O11 0.371315 0.991026 0.194866
O O12 0.729026 0.037855 0.825971
O O13 0.676162 0.010545 0.987013
O O14 0.188884 0.750000 0.326895
O O15 0.000000 0.500000 0.500000
O O16 0.253289 0.750000 0.014536
#
# Coordination Sequence:
#
# PCOD8072951 Si02
#       6
#     4   4   4   4   4   4
#     4   8  14  25  41  63  89 112 138 178 223 262
#     4   8  14  25  42  64  89 113 140 180 224 262
#     4   9  17  28  42  62  86 113 145 178 215 259
#     4   9  18  32  50  73  97 121 154 195 237 280
#     4  10  20  33  49  70  98 129 159 193 232 276
#     4   8  14  25  43  67  89 110 143 185 225 265
#
# _framework density 17.532319000000001
#
# number of rings (size 3 to 8) (size 9 to 14) (size 15 to 20)
#    0.000    3.333    0.000    2.500    0.000    2.667 
#    0.000    5.000    0.000    4.000    0.000    0.000 
#    0.000    0.000    0.000    0.000    0.000    0.000 
#
# Total GULP energy -297466.852015 kJ/mol
# GULP energy per Si atom -12394.452167 kJ/mol
# Density = 1.749241 g / cm^3
# Si number density = 17.532319 Si / 1000 Ang^3
#
#
#
# Elastic Constant Matrix: (Units=GPa)
#
#
# Indices 1 2 3 4 5 6 
#
# 1 184.0404 29.7229 91.9745 0.0000 -3.7514 0.0000
# 2 29.7229 29.3930 30.9183 0.0000 -3.5256 0.0000
# 3 91.9745 30.9183 179.7326 0.0000 -14.5358 0.0000
# 4 0.0000 0.0000 0.0000 16.7562 0.0000 -1.8196
# 5 -3.7514 -3.5256 -14.5358 0.0000 16.5583 0.0000
# 6 0.0000 0.0000 0.0000 -1.8196 0.0000 24.1575
#
#
#
# Elastic Compliance Matrix: (Units=1/GPa)
#
#
# Indices 1 2 3 4 5 6 
#
# 1 0.007828 -0.004613 -0.003389 0.000000 -0.002184 0.000000
# 2 -0.004613 0.044374 -0.004944 0.000000 0.004063 0.000000
# 3 -0.003389 -0.004944 0.008613 0.000000 0.005740 0.000000
# 4 0.000000 0.000000 0.000000 0.060172 0.000000 0.004532
# 5 -0.002184 0.004063 0.005740 0.000000 0.065802 0.000000
# 6 0.000000 0.000000 0.000000 0.004532 0.000000 0.041736
#
#
# Mechanical properties :
#
#
# Convention : Reuss Voigt Hill
#
# Bulk Modulus (GPa) = 28.63442 77.59971 53.11706
# Shear Modulus (GPa) = 18.79293 27.53109 23.16201
#
# Velocity S-wave (km/s) = 3.27754 3.96701 3.63864
# Velocity P-wave (km/s) = 5.53993 8.08331 6.92931
#
# Compressibility (1/GPa) = 0.03492301
#
# Stress axis : x y z
#
# Youngs Moduli (GPa) = 127.75390 22.53547 116.10770
#
# Poissons Ratio (x) = 0.10395 0.39345
# Poissons Ratio (y) = 0.58930 0.57408
# Poissons Ratio (z) = 0.43292 0.11142
#
# Static dielectric constant tensor:
#      x y z
#    x 3.508730 0.000000 -0.046740 
#    y 0.000000 2.397180 0.000000 
#    z -0.046740 0.000000 3.627890 
# 
# 
# High freq. dielectric constant tensor:
#      x y z
#    x 1.684090 0.000000 -0.002350 
#    y 0.000000 1.625070 0.000000 
#    z -0.002350 0.000000 1.685380 
# 
# From -- ./inp_files/66385.got.cif
#   From: 2010.06.25/outbox.cif.g09.slc.cpg/sg11_34_cif.got.tgz:66385.got - 2010.06.27 23:14:04.
