data_PCOD8072527
_publ_section_title
;
Structure prediction by ZEFSAII (Michael W. Deem and Ramdas Pophale) SiO2 
 PCOD8072527
Probable space group: P 21/M
;
_chemical_formula_sum "Si O2"
_cell_formula_units_Z 32
_cell_length_a 13.984120
_cell_length_b 8.843076
_cell_length_c 24.517436
_cell_angle_alpha 90.000000
_cell_angle_beta 30.711872
_cell_angle_gamma 90.000000
_cell_volume 1548.450504
_symmetry_space_group_name_H-M "P 21/M"
_symmetry_group_IT_number 11
_symmetry_cell_setting 'monoclinic'
loop_
_space_group_symop_operation_xyz
x,y,z
-x,1/2+y,-z
-x,-y,-z
x,1/2-y,z
loop_
_atom_site_type_symbol
_atom_site_label
_atom_site_fract_x
_atom_site_fract_y
_atom_site_fract_z
Si Si1 0.120662 0.929564 0.988789
Si Si2 0.540106 0.072749 0.421958
Si Si3 0.578300 0.077011 0.908491
Si Si4 0.798803 0.419677 0.455451
Si Si5 0.096101 0.070280 0.400546
Si Si6 0.921007 0.917004 0.770407
Si Si7 0.491798 0.930605 0.177184
Si Si8 0.939188 0.424960 0.181615
O O1 0.131831 0.750000 0.977280
O O2 0.329011 0.998373 0.880879
O O3 0.000000 0.000000 0.000000
O O4 0.021640 0.971056 0.094066
O O5 0.543019 0.250000 0.429577
O O6 0.733916 0.017853 0.299872
O O7 0.500000 0.000000 0.500000
O O8 0.381667 0.027536 0.455155
O O9 0.537452 0.250000 0.935562
O O10 0.488051 0.021507 0.896199
O O11 0.798748 0.041869 0.799305
O O12 0.500000 0.000000 0.000000
O O13 0.736405 0.250000 0.502143
O O14 0.963886 0.475055 0.414500
O O15 0.872524 0.424340 0.356774
O O16 0.117176 0.250000 0.395493
O O17 0.301199 0.998042 0.294804
O O18 0.000000 0.000000 0.500000
O O19 0.835303 0.750000 0.801004
O O20 0.925864 0.945424 0.832531
O O21 0.488909 0.750000 0.186052
O O22 0.935884 0.250000 0.164044
#
# Coordination Sequence:
#
# PCOD8072527 Si02
#       8
#     4   4   4   4   4   4   4   4
#     4  12  27  47  71  96 125 166 215 269 323 383
#     4  11  22  37  61  92 130 173 215 264 321 383
#     4  11  23  36  57  91 128 166 209 258 314 379
#     4  10  21  39  61  89 125 169 212 258 316 375
#     4  11  24  43  68  96 132 174 219 270 321 381
#     4  10  19  36  60  86 125 166 205 256 315 375
#     4  11  24  44  68  96 130 168 214 266 320 382
#     4  10  22  41  63  92 130 171 214 267 322 378
#
# _framework density 20.665821000000001
#
# number of rings (size 3 to 8) (size 9 to 14) (size 15 to 20)
#    0.000    1.250    2.500    3.375    0.000    8.500 
#    0.000    2.500    0.000    0.000    0.000    0.000 
#    0.000    0.000    0.000    0.000    0.000    0.000 
#
# Total GULP energy -396778.523351 kJ/mol
# GULP energy per Si atom -12399.328855 kJ/mol
# Density = 2.061878 g / cm^3
# Si number density = 20.665821 Si / 1000 Ang^3
#
#
#
# Elastic Constant Matrix: (Units=GPa)
#
#
# Indices 1 2 3 4 5 6 
#
# 1 115.2110 51.7342 52.9540 0.0000 -10.4064 0.0000
# 2 51.7342 85.1892 58.5833 0.0000 -1.2535 0.0000
# 3 52.9540 58.5833 112.1710 0.0000 -6.8008 0.0000
# 4 0.0000 0.0000 0.0000 38.6880 0.0000 -3.0753
# 5 -10.4064 -1.2535 -6.8008 0.0000 38.8426 0.0000
# 6 0.0000 0.0000 0.0000 -3.0753 0.0000 36.4329
#
#
#
# Elastic Compliance Matrix: (Units=1/GPa)
#
#
# Indices 1 2 3 4 5 6 
#
# 1 0.012848 -0.005782 -0.002878 0.000000 0.002751 0.000000
# 2 -0.005782 0.020966 -0.008362 0.000000 -0.002337 0.000000
# 3 -0.002878 -0.008362 0.014734 0.000000 0.001539 0.000000
# 4 0.000000 0.000000 0.000000 0.026022 0.000000 0.002197
# 5 0.002751 -0.002337 0.001539 0.000000 0.026676 0.000000
# 6 0.000000 0.000000 0.000000 0.002197 0.000000 0.027633
#
#
# Mechanical properties :
#
#
# Convention : Reuss Voigt Hill
#
# Bulk Modulus (GPa) = 68.95208 71.01269 69.98238
# Shear Modulus (GPa) = 29.80466 32.74600 31.27533
#
# Velocity S-wave (km/s) = 3.80178 3.98496 3.89444
# Velocity P-wave (km/s) = 7.26010 7.45722 7.35932
#
# Compressibility (1/GPa) = 0.01450283
#
# Stress axis : x y z
#
# Youngs Moduli (GPa) = 77.83457 47.69634 67.86919
#
# Poissons Ratio (x) = 0.27579 0.19536
# Poissons Ratio (y) = 0.45006 0.56751
# Poissons Ratio (z) = 0.22405 0.39883
#
# Static dielectric constant tensor:
#      x y z
#    x 4.258860 0.000000 -0.435790 
#    y 0.000000 3.771250 0.000000 
#    z -0.435790 0.000000 4.056720 
# 
# 
# High freq. dielectric constant tensor:
#      x y z
#    x 1.814040 0.000000 -0.007880 
#    y 0.000000 1.806140 0.000000 
#    z -0.007880 0.000000 1.816550 
# 
# From -- ./inp_files/69048.got.cif
#   From: 2010.06.25/outbox.cif.g09.slc.cpg/sg11_35_cif.got.tgz:69048.got - 2010.06.27 23:14:04.
