data_PCOD8072937
_publ_section_title
;
Structure prediction by ZEFSAII (Michael W. Deem and Ramdas Pophale) SiO2 
 PCOD8072937
Probable space group: P 21/M
;
_chemical_formula_sum "Si O2"
_cell_formula_units_Z 32
_cell_length_a 11.691665
_cell_length_b 8.960831
_cell_length_c 21.365010
_cell_angle_alpha 90.000000
_cell_angle_beta 122.178979
_cell_angle_gamma 90.000000
_cell_volume 1894.512881
_symmetry_space_group_name_H-M "P 21/M"
_symmetry_group_IT_number 11
_symmetry_cell_setting 'monoclinic'
loop_
_space_group_symop_operation_xyz
x,y,z
-x,1/2+y,-z
-x,-y,-z
x,1/2-y,z
loop_
_atom_site_type_symbol
_atom_site_label
_atom_site_fract_x
_atom_site_fract_y
_atom_site_fract_z
Si Si1 0.380958 0.076085 0.630715
Si Si2 0.323247 0.579680 0.929668
Si Si3 0.876981 0.425594 0.643260
Si Si4 0.879299 0.073408 0.501534
Si Si5 0.536937 0.419818 0.912120
Si Si6 0.132359 0.580822 0.769230
Si Si7 0.602672 0.075488 0.233035
Si Si8 0.420048 0.923159 0.421005
O O1 0.341281 0.250000 0.621122
O O2 0.512026 0.047303 0.626181
O O3 0.260322 0.981605 0.567118
O O4 0.413101 0.018945 0.709011
O O5 0.373011 0.750000 0.928150
O O6 0.418717 0.455576 0.926906
O O7 0.175905 0.559437 0.854859
O O8 0.324586 0.557887 0.006127
O O9 0.882884 0.250000 0.649051
O O10 0.892425 0.480259 0.576618
O O11 0.733345 0.485199 0.627526
O O12 0.999775 0.484414 0.720323
O O13 0.886764 0.250000 0.496746
O O14 0.000000 0.000000 0.500000
O O15 0.523628 0.250000 0.884568
O O16 0.523315 0.528336 0.848381
O O17 0.093174 0.750000 0.742859
O O18 0.256353 0.533022 0.759880
O O19 0.592983 0.250000 0.245134
O O20 0.417995 0.750000 0.437944
O O21 0.500000 0.000000 0.500000
#
# Coordination Sequence:
#
# PCOD8072937 Si02
#       8
#     4   4   4   4   4   4   4   4
#     4  11  22  35  53  74  95 124 165 207 250 297
#     4   8  15  27  42  65  99 134 165 199 240 287
#     4  10  21  35  50  70  96 126 160 201 247 289
#     4  11  22  35  51  71 100 132 163 198 242 295
#     4   9  15  25  44  68  96 131 168 201 237 286
#     4   9  18  31  47  70 100 133 164 195 237 289
#     4  10  20  33  48  70 104 136 163 200 246 296
#     4  10  21  38  56  73  93 121 162 211 253 295
#
# _framework density 16.890885999999998
#
# number of rings (size 3 to 8) (size 9 to 14) (size 15 to 20)
#    0.000    2.250    1.250    3.000    0.000    7.000 
#    0.000    0.000    0.000    0.000    0.000    0.875 
#    0.000    0.000    0.000    0.000    0.000    0.000 
#
# Total GULP energy -396620.558096 kJ/mol
# GULP energy per Si atom -12394.392440 kJ/mol
# Density = 1.685244 g / cm^3
# Si number density = 16.890886 Si / 1000 Ang^3
#
#
#
# Elastic Constant Matrix: (Units=GPa)
#
#
# Indices 1 2 3 4 5 6 
#
# 1 89.1288 31.4764 48.2550 0.0000 11.8609 0.0000
# 2 31.4764 36.7094 29.0717 0.0000 -7.1260 0.0000
# 3 48.2550 29.0717 131.7029 0.0000 12.9441 0.0000
# 4 0.0000 0.0000 0.0000 31.4896 0.0000 2.7076
# 5 11.8609 -7.1260 12.9441 0.0000 -3.4950 0.0000
# 6 0.0000 0.0000 0.0000 2.7076 0.0000 20.1428
#
#
#
# Elastic Compliance Matrix: (Units=1/GPa)
#
#
# Indices 1 2 3 4 5 6 
#
# 1 0.012286 -0.001420 -0.006283 0.000000 0.021319 0.000000
# 2 -0.001420 0.019696 0.000435 0.000000 -0.043367 0.000000
# 3 -0.006283 0.000435 0.008784 0.000000 0.010324 0.000000
# 4 0.000000 0.000000 0.000000 0.032128 0.000000 -0.004319
# 5 0.021319 -0.043367 0.010324 0.000000 -0.087117 0.000000
# 6 0.000000 0.000000 0.000000 -0.004319 0.000000 0.050226
#
#
# Mechanical properties :
#
#
# Convention : Reuss Voigt Hill
#
# Bulk Modulus (GPa) = 38.12536 52.79413 45.45974
# Shear Modulus (GPa) = 84.34053 19.54334 51.94194
#
# Velocity S-wave (km/s) = 7.07396 3.40521 5.55142
# Velocity P-wave (km/s) = 9.45208 6.83992 8.25004
#
# Compressibility (1/GPa) = 0.02622926
#
# Stress axis : x y z
#
# Youngs Moduli (GPa) = 81.39341 50.77167 113.83812
#
# Poissons Ratio (x) = 0.07210 0.71528
# Poissons Ratio (y) = 0.11559 -0.04950
# Poissons Ratio (z) = 0.51142 -0.02208
#
# Static dielectric constant tensor:
#      x y z
#    x 2.973220 0.000000 -0.008880 
#    y 0.000000 3.193490 0.000000 
#    z -0.008880 0.000000 3.541890 
# 
# 
# High freq. dielectric constant tensor:
#      x y z
#    x 1.605730 0.000000 0.002760 
#    y 0.000000 1.660160 0.000000 
#    z 0.002760 0.000000 1.667120 
# 
# From -- ./inp_files/40644.got.cif
#   From: 2010.06.25/outbox.cif.g09.slc.cpg/sg11_21_cif.got.tgz:40644.got - 2010.06.27 23:14:04.
