data_PCOD8072672
_publ_section_title
;
Structure prediction by ZEFSAII (Michael W. Deem and Ramdas Pophale) SiO2 
 PCOD8072672
Probable space group: P 21/M
;
_chemical_formula_sum "Si O2"
_cell_formula_units_Z 32
_cell_length_a 8.920609
_cell_length_b 12.576431
_cell_length_c 14.614151
_cell_angle_alpha 90.000000
_cell_angle_beta 91.797916
_cell_angle_gamma 90.000000
_cell_volume 1638.746028
_symmetry_space_group_name_H-M "P 21/M"
_symmetry_group_IT_number 11
_symmetry_cell_setting 'monoclinic'
loop_
_space_group_symop_operation_xyz
x,y,z
-x,1/2+y,-z
-x,-y,-z
x,1/2-y,z
loop_
_atom_site_type_symbol
_atom_site_label
_atom_site_fract_x
_atom_site_fract_y
_atom_site_fract_z
Si Si1 0.990124 0.124053 0.261362
Si Si2 0.763678 0.459400 0.733069
Si Si3 0.877313 0.039643 0.068222
Si Si4 0.189534 0.002465 0.589577
Si Si5 0.319008 0.628574 0.083421
Si Si6 0.353475 0.367802 0.878543
Si Si7 0.097342 0.868336 0.430725
Si Si8 0.448854 0.372059 0.678578
O O1 0.997494 0.250000 0.279381
O O2 0.943176 0.101512 0.155986
O O3 0.868275 0.070239 0.326659
O O4 0.157418 0.074756 0.281230
O O5 0.776140 0.433081 0.840880
O O6 0.857234 0.375443 0.674783
O O7 0.592891 0.447816 0.696267
O O8 0.787441 0.935868 0.095262
O O9 0.763550 0.119629 0.014826
O O10 0.000000 0.000000 0.000000
O O11 0.211509 0.931837 0.498971
O O12 0.346008 0.062618 0.606926
O O13 0.071424 0.092660 0.560984
O O14 0.331387 0.750000 0.116748
O O15 0.489257 0.584086 0.080127
O O16 0.327924 0.250000 0.918915
O O17 0.355593 0.363376 0.769515
O O18 0.102735 0.750000 0.466487
O O19 0.488091 0.250000 0.646459
#
# Coordination Sequence:
#
# PCOD8072672 Si02
#       8
#     4   4   4   4   4   4   4   4
#     4  11  23  41  57  79 120 160 193 237 289 342
#     4  10  21  39  59  85 116 148 191 243 286 337
#     4  12  22  37  56  86 114 149 196 241 283 347
#     4  10  21  37  60  86 118 152 194 235 281 347
#     4  10  20  37  59  83 114 152 188 235 291 340
#     4   9  20  37  58  83 114 150 190 236 285 339
#     4  10  20  36  59  88 116 151 192 235 285 338
#     4  10  19  37  64  90 116 150 189 237 291 339
#
# _framework density 19.527127
#
# number of rings (size 3 to 8) (size 9 to 14) (size 15 to 20)
#    0.000    1.750    2.500    3.375    0.000    1.500 
#    0.000    1.875    0.000    0.000    0.000    0.000 
#    0.000    0.000    0.000    0.000    0.000    0.000 
#
# Total GULP energy -396645.828955 kJ/mol
# GULP energy per Si atom -12395.182155 kJ/mol
# Density = 1.948268 g / cm^3
# Si number density = 19.527127 Si / 1000 Ang^3
#
#
#
# Elastic Constant Matrix: (Units=GPa)
#
#
# Indices 1 2 3 4 5 6 
#
# 1 77.3594 49.1546 24.5684 0.0000 13.7841 0.0000
# 2 49.1546 113.8030 31.6012 0.0000 6.9196 0.0000
# 3 24.5684 31.6012 64.5688 0.0000 14.8959 0.0000
# 4 0.0000 0.0000 0.0000 21.0165 0.0000 4.7722
# 5 13.7841 6.9196 14.8959 0.0000 35.4813 0.0000
# 6 0.0000 0.0000 0.0000 4.7722 0.0000 25.7007
#
#
#
# Elastic Compliance Matrix: (Units=1/GPa)
#
#
# Indices 1 2 3 4 5 6 
#
# 1 0.019281 -0.007299 -0.002618 0.000000 -0.004968 0.000000
# 2 -0.007299 0.012933 -0.004013 0.000000 0.001998 0.000000
# 3 -0.002618 -0.004013 0.019966 0.000000 -0.006583 0.000000
# 4 0.000000 0.000000 0.000000 0.049676 0.000000 -0.009224
# 5 -0.004968 0.001998 -0.006583 0.000000 0.032488 0.000000
# 6 0.000000 0.000000 0.000000 -0.009224 0.000000 0.040622
#
#
# Mechanical properties :
#
#
# Convention : Reuss Voigt Hill
#
# Bulk Modulus (GPa) = 41.11943 51.81997 46.46970
# Shear Modulus (GPa) = 23.70419 26.46683 25.08551
#
# Velocity S-wave (km/s) = 3.48790 3.68555 3.58809
# Velocity P-wave (km/s) = 6.10933 6.68626 6.40430
#
# Compressibility (1/GPa) = 0.02431940
#
# Stress axis : x y z
#
# Youngs Moduli (GPa) = 51.86407 77.32361 50.08447
#
# Poissons Ratio (x) = 0.56438 0.13113
# Poissons Ratio (y) = 0.37856 0.20100
# Poissons Ratio (z) = 0.13579 0.31032
#
# Static dielectric constant tensor:
#      x y z
#    x 3.503990 0.000000 0.084660 
#    y 0.000000 3.529620 0.000000 
#    z 0.084660 0.000000 3.687680 
# 
# 
# High freq. dielectric constant tensor:
#      x y z
#    x 1.758230 0.000000 0.005150 
#    y 0.000000 1.752320 0.000000 
#    z 0.005150 0.000000 1.763370 
# 
# From -- ./inp_files/47193.got.cif
#   From: 2010.06.25/outbox.cif.g09.slc.cpg/sg11_24_cif.got.tgz:47193.got - 2010.06.27 23:14:04.
