data_PCOD8072092
_publ_section_title
;
Structure prediction by ZEFSAII (Michael W. Deem and Ramdas Pophale) SiO2 
 PCOD8072092
Probable space group: P 21/M
;
_chemical_formula_sum "Si O2"
_cell_formula_units_Z 28
_cell_length_a 22.941761
_cell_length_b 9.149625
_cell_length_c 19.980155
_cell_angle_alpha 90.000000
_cell_angle_beta 160.091360
_cell_angle_gamma 90.000000
_cell_volume 1428.148048
_symmetry_space_group_name_H-M "P 21/M"
_symmetry_group_IT_number 11
_symmetry_cell_setting 'monoclinic'
loop_
_space_group_symop_operation_xyz
x,y,z
-x,1/2+y,-z
-x,-y,-z
x,1/2-y,z
loop_
_atom_site_type_symbol
_atom_site_label
_atom_site_fract_x
_atom_site_fract_y
_atom_site_fract_z
Si Si1 0.463710 0.424747 0.391141
Si Si2 0.734467 0.423314 0.574253
Si Si3 0.156359 0.086447 0.853299
Si Si4 0.411943 0.417519 0.844467
Si Si5 0.459405 0.913546 0.762470
Si Si6 0.020566 0.082484 0.453088
Si Si7 0.105315 0.423313 0.945104
O O1 0.500000 0.500000 0.500000
O O2 0.467536 0.250000 0.402596
O O3 0.611664 0.482823 0.500380
O O4 0.277041 0.482829 0.165761
O O5 0.719312 0.250000 0.557475
O O6 0.672770 0.479170 0.434658
O O7 0.932887 0.473557 0.798669
O O8 0.083026 0.250000 0.760989
O O9 0.089128 0.020830 0.851019
O O10 0.106180 0.982782 0.738417
O O11 0.359852 0.093062 0.079539
O O12 0.469483 0.250000 0.910283
O O13 0.473931 0.482763 0.841691
O O14 0.210107 0.436147 0.630333
O O15 0.500000 0.500000 0.000000
O O16 0.405049 0.750000 0.727095
O O17 0.971297 0.250000 0.412097
O O18 0.000000 0.000000 0.500000
O O19 0.118856 0.250000 0.957017
#
# Coordination Sequence:
#
# PCOD8072092 Si02
#       7
#     4   4   4   4   4   4   4
#     4  10  20  36  56  82 114 148 188 230 276 336
#     4   9  17  32  56  83 111 145 185 229 277 331
#     4  10  19  34  58  85 109 138 182 233 281 335
#     4  11  24  39  54  77 109 145 186 231 280 336
#     4  10  19  34  58  85 109 138 182 233 281 335
#     4  11  24  39  54  77 109 145 186 231 280 336
#     4   9  17  32  56  83 111 145 185 229 277 331
#
# _framework density 19.605809000000001
#
# number of rings (size 3 to 8) (size 9 to 14) (size 15 to 20)
#    0.000    2.000    1.429    2.571    0.000    8.000 
#    0.000    1.429    0.000    1.714    0.000    0.000 
#    0.000    0.000    0.000    0.000    0.000    0.000 
#
# Total GULP energy -347173.705394 kJ/mol
# GULP energy per Si atom -12399.060907 kJ/mol
# Density = 1.956119 g / cm^3
# Si number density = 19.605809 Si / 1000 Ang^3
#
#
#
# Elastic Constant Matrix: (Units=GPa)
#
#
# Indices 1 2 3 4 5 6 
#
# 1 137.9214 35.8271 68.8752 0.0000 -6.3152 0.0000
# 2 35.8271 66.7513 31.1330 0.0000 -4.4465 0.0000
# 3 68.8752 31.1330 129.4664 0.0000 -1.7127 0.0000
# 4 0.0000 0.0000 0.0000 22.8764 0.0000 -6.5275
# 5 -6.3152 -4.4465 -1.7127 0.0000 35.5588 0.0000
# 6 0.0000 0.0000 0.0000 -6.5275 0.0000 29.7612
#
#
#
# Elastic Compliance Matrix: (Units=1/GPa)
#
#
# Indices 1 2 3 4 5 6 
#
# 1 0.010577 -0.003355 -0.004804 0.000000 0.001228 0.000000
# 2 -0.003355 0.018069 -0.002540 0.000000 0.001541 0.000000
# 3 -0.004804 -0.002540 0.010882 0.000000 -0.000647 0.000000
# 4 0.000000 0.000000 0.000000 0.046632 0.000000 0.010228
# 5 0.001228 0.001541 -0.000647 0.000000 0.028502 0.000000
# 6 0.000000 0.000000 0.000000 0.010228 0.000000 0.035844
#
#
# Mechanical properties :
#
#
# Convention : Reuss Voigt Hill
#
# Bulk Modulus (GPa) = 55.15539 67.31219 61.23379
# Shear Modulus (GPa) = 28.09833 30.85953 29.47893
#
# Velocity S-wave (km/s) = 3.78982 3.97167 3.88181
# Velocity P-wave (km/s) = 6.88067 7.44577 7.16879
#
# Compressibility (1/GPa) = 0.01813059
#
# Stress axis : x y z
#
# Youngs Moduli (GPa) = 94.54312 55.34394 91.89511
#
# Poissons Ratio (x) = 0.18566 0.44147
# Poissons Ratio (y) = 0.31716 0.23341
# Poissons Ratio (z) = 0.45419 0.14057
#
# Static dielectric constant tensor:
#      x y z
#    x 3.624280 0.000000 0.175770 
#    y 0.000000 3.255320 0.000000 
#    z 0.175770 0.000000 3.809750 
# 
# 
# High freq. dielectric constant tensor:
#      x y z
#    x 1.770470 0.000000 0.006950 
#    y 0.000000 1.725170 0.000000 
#    z 0.006950 0.000000 1.777800 
# 
# From -- ./inp_files/66682.got.cif
#   From: 2010.06.25/outbox.cif.g09.slc.cpg/sg11_34_cif.got.tgz:66682.got - 2010.06.27 23:14:04.
