data_PCOD8072493
_publ_section_title
;
Structure prediction by ZEFSAII (Michael W. Deem and Ramdas Pophale) SiO2 
 PCOD8072493
Probable space group: P 21/M
;
_chemical_formula_sum "Si O2"
_cell_formula_units_Z 28
_cell_length_a 28.879221
_cell_length_b 8.548521
_cell_length_c 8.992336
_cell_angle_alpha 90.000000
_cell_angle_beta 38.978127
_cell_angle_gamma 90.000000
_cell_volume 1396.419703
_symmetry_space_group_name_H-M "P 21/M"
_symmetry_group_IT_number 11
_symmetry_cell_setting 'monoclinic'
loop_
_space_group_symop_operation_xyz
x,y,z
-x,1/2+y,-z
-x,-y,-z
x,1/2-y,z
loop_
_atom_site_type_symbol
_atom_site_label
_atom_site_fract_x
_atom_site_fract_y
_atom_site_fract_z
Si Si1 0.070393 0.564951 0.907202
Si Si2 0.356053 0.564639 0.525367
Si Si3 0.931437 0.933739 0.759962
Si Si4 0.498952 0.934941 0.338155
Si Si5 0.640024 0.063748 0.821968
Si Si6 0.786081 0.064766 0.618593
Si Si7 0.208039 0.935727 0.055386
O O1 0.068841 0.750000 0.901882
O O2 0.142964 0.497382 0.644492
O O3 0.071659 0.513945 0.073293
O O4 0.000000 0.500000 0.000000
O O5 0.358268 0.750000 0.520931
O O6 0.427078 0.497270 0.433668
O O7 0.355974 0.502985 0.357007
O O8 0.282684 0.506859 0.790790
O O9 0.941072 0.750000 0.756737
O O10 0.857940 0.971898 0.854711
O O11 0.000000 0.000000 0.500000
O O12 0.495648 0.750000 0.353745
O O13 0.500000 0.000000 0.500000
O O14 0.569959 0.988244 0.072453
O O15 0.633708 0.250000 0.847563
O O16 0.712364 0.000133 0.725306
O O17 0.785765 0.250000 0.609021
O O18 0.788150 0.010307 0.783582
O O19 0.195617 0.750000 0.069861
#
# Coordination Sequence:
#
# PCOD8072493 Si02
#       7
#     4   4   4   4   4   4   4
#     4  11  22  39  62  90 121 157 197 241 289 345
#     4   9  19  35  59  85 114 151 192 233 286 350
#     4  12  25  41  60  86 117 154 196 243 295 351
#     4  11  22  37  56  83 114 150 191 236 286 342
#     4  10  19  36  59  84 112 149 191 234 282 341
#     4   9  19  35  60  87 114 149 190 230 283 348
#     4  10  19  37  62  87 113 148 191 237 285 345
#
# _framework density 20.051276999999999
#
# number of rings (size 3 to 8) (size 9 to 14) (size 15 to 20)
#    0.000    1.714    0.000    5.143    0.000    5.714 
#    0.000    8.571    0.000    0.000    0.000    0.000 
#    0.000    0.000    0.000    0.000    0.000    0.000 
#
# Total GULP energy -347297.220962 kJ/mol
# GULP energy per Si atom -12403.472177 kJ/mol
# Density = 2.000564 g / cm^3
# Si number density = 20.051277 Si / 1000 Ang^3
#
#
#
# Elastic Constant Matrix: (Units=GPa)
#
#
# Indices 1 2 3 4 5 6 
#
# 1 184.9888 19.1105 95.9992 0.0000 -3.1413 0.0000
# 2 19.1105 45.9086 25.3997 0.0000 -3.2932 0.0000
# 3 95.9992 25.3997 205.2302 0.0000 -0.7890 0.0000
# 4 0.0000 0.0000 0.0000 31.1826 0.0000 -2.4170
# 5 -3.1413 -3.2932 -0.7890 0.0000 49.5196 0.0000
# 6 0.0000 0.0000 0.0000 -2.4170 0.0000 30.8133
#
#
#
# Elastic Compliance Matrix: (Units=1/GPa)
#
#
# Indices 1 2 3 4 5 6 
#
# 1 0.007207 -0.001194 -0.003222 0.000000 0.000326 0.000000
# 2 -0.001194 0.023695 -0.002368 0.000000 0.001462 0.000000
# 3 -0.003222 -0.002368 0.006672 0.000000 -0.000256 0.000000
# 4 0.000000 0.000000 0.000000 0.032265 0.000000 0.002531
# 5 0.000326 0.001462 -0.000256 0.000000 0.020308 0.000000
# 6 0.000000 0.000000 0.000000 0.002531 0.000000 0.032652
#
#
# Mechanical properties :
#
#
# Convention : Reuss Voigt Hill
#
# Bulk Modulus (GPa) = 41.65875 79.68295 60.67085
# Shear Modulus (GPa) = 34.63355 42.01097 38.32226
#
# Velocity S-wave (km/s) = 4.16053 4.58228 4.37648
# Velocity P-wave (km/s) = 6.62580 8.23542 7.47407
#
# Compressibility (1/GPa) = 0.02400456
#
# Stress axis : x y z
#
# Youngs Moduli (GPa) = 138.76062 42.20356 149.88345
#
# Poissons Ratio (x) = 0.05039 0.48292
# Poissons Ratio (y) = 0.16567 0.35499
# Poissons Ratio (z) = 0.44709 0.09996
#
# Static dielectric constant tensor:
#      x y z
#    x 4.055250 0.000000 -0.007310 
#    y 0.000000 3.357130 0.000000 
#    z -0.007310 0.000000 3.951290 
# 
# 
# High freq. dielectric constant tensor:
#      x y z
#    x 1.805520 0.000000 -0.000050 
#    y 0.000000 1.753470 0.000000 
#    z -0.000050 0.000000 1.805750 
# 
# From -- ./inp_files/28354.got.cif
#   From: 2010.06.25/outbox.cif.g09.slc.cpg/sg11_15_cif.got.tgz:28354.got - 2010.06.27 23:14:04.
