data_PCOD8072223
_publ_section_title
;
Structure prediction by ZEFSAII (Michael W. Deem and Ramdas Pophale) SiO2 
 PCOD8072223
Probable space group: P 21/M
;
_chemical_formula_sum "Si O2"
_cell_formula_units_Z 32
_cell_length_a 6.292547
_cell_length_b 21.285387
_cell_length_c 12.136397
_cell_angle_alpha 90.000000
_cell_angle_beta 105.748325
_cell_angle_gamma 90.000000
_cell_volume 1564.522861
_symmetry_space_group_name_H-M "P 21/M"
_symmetry_group_IT_number 11
_symmetry_cell_setting 'monoclinic'
loop_
_space_group_symop_operation_xyz
x,y,z
-x,1/2+y,-z
-x,-y,-z
x,1/2-y,z
loop_
_atom_site_type_symbol
_atom_site_label
_atom_site_fract_x
_atom_site_fract_y
_atom_site_fract_z
Si Si1 0.645591 0.398229 0.494283
Si Si2 0.820365 0.900620 0.910314
Si Si3 0.594750 0.625350 0.103264
Si Si4 0.225245 0.819017 0.927751
Si Si5 0.531821 0.176804 0.261742
Si Si6 0.022330 0.396747 0.701130
Si Si7 0.290734 0.532106 0.190657
Si Si8 0.334348 0.469911 0.592898
O O1 0.621044 0.353130 0.386846
O O2 0.411503 0.411500 0.524143
O O3 0.744536 0.467333 0.480632
O O4 0.830081 0.364302 0.599725
O O5 0.691435 0.857969 0.803937
O O6 0.066890 0.873510 0.948418
O O7 0.829813 0.972725 0.878207
O O8 0.719963 0.901308 0.016224
O O9 0.777481 0.647201 0.221659
O O10 0.441291 0.569664 0.126158
O O11 0.440512 0.681983 0.038528
O O12 0.116049 0.750000 0.922293
O O13 0.288993 0.832578 0.809795
O O14 0.480666 0.250000 0.274634
O O15 0.136745 0.450008 0.643530
O O16 0.906896 0.425450 0.791984
O O17 0.447657 0.508176 0.310626
#
# Coordination Sequence:
#
# PCOD8072223 Si02
#       8
#     4   4   4   4   4   4   4   4
#     4  10  19  35  56  83 116 151 194 238 283 346
#     4  11  21  36  61  84 116 154 189 238 294 343
#     4  10  22  38  55  83 121 151 191 239 286 347
#     4  10  23  40  59  83 111 153 202 238 282 345
#     4  10  22  39  59  85 117 150 190 241 289 342
#     4  10  21  34  56  83 117 153 190 231 292 349
#     4  10  20  34  56  90 120 148 188 236 296 353
#     4   9  19  34  54  85 116 151 190 234 291 342
#
# _framework density 20.453520999999999
#
# number of rings (size 3 to 8) (size 9 to 14) (size 15 to 20)
#    0.000    2.000    1.250    1.875    1.750    4.500 
#    0.000    0.625    0.000    9.750    0.000    0.000 
#    0.000    0.000    0.000    0.000    0.000    0.000 
#
# Total GULP energy -396530.116441 kJ/mol
# GULP energy per Si atom -12391.566139 kJ/mol
# Density = 2.040697 g / cm^3
# Si number density = 20.453521 Si / 1000 Ang^3
#
#
#
# Elastic Constant Matrix: (Units=GPa)
#
#
# Indices 1 2 3 4 5 6 
#
# 1 92.0581 24.3295 48.0001 0.0000 -0.4178 0.0000
# 2 24.3295 54.2895 41.1930 0.0000 0.1722 0.0000
# 3 48.0001 41.1930 123.9217 0.0000 4.8186 0.0000
# 4 0.0000 0.0000 0.0000 19.8066 0.0000 -0.8047
# 5 -0.4178 0.1722 4.8186 0.0000 30.7893 0.0000
# 6 0.0000 0.0000 0.0000 -0.8047 0.0000 21.2723
#
#
#
# Elastic Compliance Matrix: (Units=1/GPa)
#
#
# Indices 1 2 3 4 5 6 
#
# 1 0.013965 -0.002848 -0.004498 0.000000 0.000909 0.000000
# 2 -0.002848 0.025254 -0.007329 0.000000 0.000967 0.000000
# 3 -0.004498 -0.007329 0.012324 0.000000 -0.001949 0.000000
# 4 0.000000 0.000000 0.000000 0.050566 0.000000 0.001913
# 5 0.000909 0.000967 -0.001949 0.000000 0.032791 0.000000
# 6 0.000000 0.000000 0.000000 0.001913 0.000000 0.047082
#
#
# Mechanical properties :
#
#
# Convention : Reuss Voigt Hill
#
# Bulk Modulus (GPa) = 45.06039 55.25717 50.15878
# Shear Modulus (GPa) = 22.85935 24.82345 23.84140
#
# Velocity S-wave (km/s) = 3.34672 3.48753 3.41785
# Velocity P-wave (km/s) = 6.08379 6.57965 6.33657
#
# Compressibility (1/GPa) = 0.02219244
#
# Stress axis : x y z
#
# Youngs Moduli (GPa) = 71.60888 39.59732 81.14397
#
# Poissons Ratio (x) = 0.11279 0.36496
# Poissons Ratio (y) = 0.20397 0.59471
# Poissons Ratio (z) = 0.32207 0.29021
#
# Static dielectric constant tensor:
#      x y z
#    x 3.873930 0.000000 0.088230 
#    y 0.000000 3.274120 0.000000 
#    z 0.088230 0.000000 4.041900 
# 
# 
# High freq. dielectric constant tensor:
#      x y z
#    x 1.809840 0.000000 0.001400 
#    y 0.000000 1.754410 0.000000 
#    z 0.001400 0.000000 1.818690 
# 
# From -- ./inp_files/30260.got.cif
#   From: 2010.06.25/outbox.cif.g09.slc.cpg/sg11_16_cif.got.tgz:30260.got - 2010.06.27 23:14:04.
