data_PCOD8072179
_publ_section_title
;
Structure prediction by ZEFSAII (Michael W. Deem and Ramdas Pophale) SiO2 
 PCOD8072179
Probable space group: P 21/M
;
_chemical_formula_sum "Si O2"
_cell_formula_units_Z 32
_cell_length_a 18.444606
_cell_length_b 15.100162
_cell_length_c 11.456234
_cell_angle_alpha 90.000000
_cell_angle_beta 32.616412
_cell_angle_gamma 90.000000
_cell_volume 1719.853132
_symmetry_space_group_name_H-M "P 21/M"
_symmetry_group_IT_number 11
_symmetry_cell_setting 'monoclinic'
loop_
_space_group_symop_operation_xyz
x,y,z
-x,1/2+y,-z
-x,-y,-z
x,1/2-y,z
loop_
_atom_site_type_symbol
_atom_site_label
_atom_site_fract_x
_atom_site_fract_y
_atom_site_fract_z
Si Si1 0.860608 0.488018 0.753376
Si Si2 0.195455 0.984788 0.661764
Si Si3 0.333159 0.148708 0.989825
Si Si4 0.344239 0.646491 0.073866
Si Si5 0.693896 0.651464 0.228098
Si Si6 0.910088 0.510948 0.947480
Si Si7 0.612217 0.147893 0.718048
Si Si8 0.382055 0.353303 0.422143
O O1 0.786078 0.580255 0.826148
O O2 0.780125 0.405520 0.810968
O O3 0.880580 0.463994 0.863403
O O4 0.000000 0.500000 0.500000
O O5 0.302052 0.909984 0.486628
O O6 0.069148 0.976978 0.746661
O O7 0.258272 0.082809 0.554480
O O8 0.151750 0.962336 0.854495
O O9 0.281536 0.250000 0.077800
O O10 0.384958 0.133984 0.785930
O O11 0.454906 0.127766 0.911638
O O12 0.319112 0.750000 0.086878
O O13 0.353864 0.622348 0.196203
O O14 0.482870 0.616182 0.825186
O O15 0.745015 0.750000 0.168535
O O16 0.594285 0.630124 0.471137
O O17 0.837643 0.604780 0.039354
O O18 0.644018 0.250000 0.647973
O O19 0.347103 0.250000 0.440615
#
# Coordination Sequence:
#
# PCOD8072179 Si02
#       8
#     4   4   4   4   4   4   4   4
#     4  11  22  36  55  77 105 142 177 208 258 315
#     4  10  19  35  55  76 108 139 172 219 259 299
#     4   9  19  35  55  80 105 130 170 218 256 304
#     4  10  22  38  54  76 105 135 174 218 257 309
#     4   8  15  31  54  77 103 136 172 210 254 304
#     4   9  20  34  50  78 108 138 177 215 253 306
#     4  10  21  36  55  78 102 135 176 215 262 311
#     4   9  18  33  55  79 103 136 171 208 260 311
#
# _framework density 18.60624
#
# number of rings (size 3 to 8) (size 9 to 14) (size 15 to 20)
#    0.000    2.500    0.000    1.500    0.000    5.000 
#    0.000   10.625    0.000    0.000    0.000    0.000 
#    0.000    0.000    0.000    0.000    0.000    0.000 
#
# Total GULP energy -396614.418430 kJ/mol
# GULP energy per Si atom -12394.200576 kJ/mol
# Density = 1.856389 g / cm^3
# Si number density = 18.606240 Si / 1000 Ang^3
#
#
#
# Elastic Constant Matrix: (Units=GPa)
#
#
# Indices 1 2 3 4 5 6 
#
# 1 122.7110 47.7905 41.5076 0.0000 -3.5021 0.0000
# 2 47.7905 65.9371 43.4163 0.0000 1.2049 0.0000
# 3 41.5076 43.4163 100.5761 0.0000 1.6676 0.0000
# 4 0.0000 0.0000 0.0000 22.3786 0.0000 -1.5746
# 5 -3.5021 1.2049 1.6676 0.0000 24.2440 0.0000
# 6 0.0000 0.0000 0.0000 -1.5746 0.0000 27.0246
#
#
#
# Elastic Compliance Matrix: (Units=1/GPa)
#
#
# Indices 1 2 3 4 5 6 
#
# 1 0.011650 -0.007396 -0.001651 0.000000 0.002164 0.000000
# 2 -0.007396 0.025888 -0.008093 0.000000 -0.001798 0.000000
# 3 -0.001651 -0.008093 0.014131 0.000000 -0.000808 0.000000
# 4 0.000000 0.000000 0.000000 0.044869 0.000000 0.002614
# 5 0.002164 -0.001798 -0.000808 0.000000 0.041705 0.000000
# 6 0.000000 0.000000 0.000000 0.002614 0.000000 0.037156
#
#
# Mechanical properties :
#
#
# Convention : Reuss Voigt Hill
#
# Bulk Modulus (GPa) = 57.50864 61.62812 59.56838
# Shear Modulus (GPa) = 23.20439 25.16346 24.18393
#
# Velocity S-wave (km/s) = 3.53530 3.68152 3.60915
# Velocity P-wave (km/s) = 6.90216 7.16000 7.03226
#
# Compressibility (1/GPa) = 0.01738869
#
# Stress axis : x y z
#
# Youngs Moduli (GPa) = 85.83734 38.62726 70.76565
#
# Poissons Ratio (x) = 0.28569 0.11684
# Poissons Ratio (y) = 0.63487 0.57272
# Poissons Ratio (z) = 0.14172 0.31262
#
# Static dielectric constant tensor:
#      x y z
#    x 3.675740 0.000000 0.228310 
#    y 0.000000 3.468850 0.000000 
#    z 0.228310 0.000000 3.391150 
# 
# 
# High freq. dielectric constant tensor:
#      x y z
#    x 1.729700 0.000000 0.010860 
#    y 0.000000 1.718610 0.000000 
#    z 0.010860 0.000000 1.717820 
# 
# From -- ./inp_files/41616.got.cif
#   From: 2010.06.25/outbox.cif.g09.slc.cpg/sg11_21_cif.got.tgz:41616.got - 2010.06.27 23:14:04.
