data_PCOD8072293
_publ_section_title
;
Structure prediction by ZEFSAII (Michael W. Deem and Ramdas Pophale) SiO2 
 PCOD8072293
Probable space group: P 21/M
;
_chemical_formula_sum "Si O2"
_cell_formula_units_Z 24
_cell_length_a 14.641096
_cell_length_b 14.243678
_cell_length_c 8.854906
_cell_angle_alpha 90.000000
_cell_angle_beta 40.899003
_cell_angle_gamma 90.000000
_cell_volume 1209.039195
_symmetry_space_group_name_H-M "P 21/M"
_symmetry_group_IT_number 11
_symmetry_cell_setting 'monoclinic'
loop_
_space_group_symop_operation_xyz
x,y,z
-x,1/2+y,-z
-x,-y,-z
x,1/2-y,z
loop_
_atom_site_type_symbol
_atom_site_label
_atom_site_fract_x
_atom_site_fract_y
_atom_site_fract_z
Si Si1 0.306808 0.036414 0.448177
Si Si2 0.964168 0.855273 0.176713
Si Si3 0.981951 0.142587 0.540669
Si Si4 0.431622 0.940595 0.716256
Si Si5 0.260146 0.644042 0.684011
Si Si6 0.770258 0.986704 0.787924
O O1 0.322561 0.928459 0.484219
O O2 0.310145 0.043777 0.263341
O O3 0.164802 0.076823 0.698035
O O4 0.439574 0.097367 0.342182
O O5 0.911968 0.750000 0.211440
O O6 0.013758 0.866081 0.285661
O O7 0.096076 0.879538 0.907318
O O8 0.972765 0.250000 0.495291
O O9 0.846213 0.085708 0.654920
O O10 0.119636 0.093465 0.299830
O O11 0.337559 0.861876 0.751402
O O12 0.500000 0.000000 0.500000
O O13 0.336085 0.005698 0.941658
O O14 0.280696 0.750000 0.598213
#
# Coordination Sequence:
#
# PCOD8072293 Si02
#       6
#     4   4   4   4   4   4
#     4  10  21  34  55  84 114 143 185 237 286 330
#     4   9  17  33  56  81 109 145 189 231 275 331
#     4   9  18  33  57  85 110 145 188 233 283 332
#     4  10  21  37  56  79 112 154 189 224 281 341
#     4  10  20  36  56  79 112 151 190 231 279 337
#     4  10  19  35  58  82 113 147 187 238 280 333
#
# _framework density 19.850473000000001
#
# number of rings (size 3 to 8) (size 9 to 14) (size 15 to 20)
#    0.000    2.333    1.667    1.000    0.000    1.333 
#    0.000    3.333    0.000    6.000    0.000    0.000 
#    0.000    0.000    0.000    0.000    0.000    0.000 
#
# Total GULP energy -297493.614865 kJ/mol
# GULP energy per Si atom -12395.567286 kJ/mol
# Density = 1.980529 g / cm^3
# Si number density = 19.850473 Si / 1000 Ang^3
#
#
#
# Elastic Constant Matrix: (Units=GPa)
#
#
# Indices 1 2 3 4 5 6 
#
# 1 83.5647 18.3137 25.3418 0.0000 -15.2318 0.0000
# 2 18.3137 85.8815 15.9200 0.0000 -8.3921 0.0000
# 3 25.3418 15.9200 84.9162 0.0000 -2.1124 0.0000
# 4 0.0000 0.0000 0.0000 17.4187 0.0000 4.9097
# 5 -15.2318 -8.3921 -2.1124 0.0000 25.5003 0.0000
# 6 0.0000 0.0000 0.0000 4.9097 0.0000 20.7582
#
#
#
# Elastic Compliance Matrix: (Units=1/GPa)
#
#
# Indices 1 2 3 4 5 6 
#
# 1 0.015010 -0.001676 -0.003964 0.000000 0.008086 0.000000
# 2 -0.001676 0.012627 -0.001792 0.000000 0.003006 0.000000
# 3 -0.003964 -0.001792 0.013249 0.000000 -0.001860 0.000000
# 4 0.000000 0.000000 0.000000 0.061510 0.000000 -0.014548
# 5 0.008086 0.003006 -0.001860 0.000000 0.044880 0.000000
# 6 0.000000 0.000000 0.000000 -0.014548 0.000000 0.051615
#
#
# Mechanical properties :
#
#
# Convention : Reuss Voigt Hill
#
# Bulk Modulus (GPa) = 38.42957 41.50149 39.96553
# Shear Modulus (GPa) = 22.47894 25.72124 24.10009
#
# Velocity S-wave (km/s) = 3.36879 3.60356 3.48815
# Velocity P-wave (km/s) = 5.87649 6.18600 6.03323
#
# Compressibility (1/GPa) = 0.02602163
#
# Stress axis : x y z
#
# Youngs Moduli (GPa) = 66.62190 79.19332 75.47667
#
# Poissons Ratio (x) = 0.13271 0.29920
# Poissons Ratio (y) = 0.11165 0.13529
# Poissons Ratio (z) = 0.26410 0.14195
#
# Static dielectric constant tensor:
#      x y z
#    x 3.920060 0.000000 -0.286620 
#    y 0.000000 3.530390 0.000000 
#    z -0.286620 0.000000 3.511060 
# 
# 
# High freq. dielectric constant tensor:
#      x y z
#    x 1.775440 0.000000 -0.012850 
#    y 0.000000 1.753980 0.000000 
#    z -0.012850 0.000000 1.767740 
# 
# From -- ./inp_files/21984.got.cif
#   From: 2010.06.25/outbox.cif.g09.slc.cpg/sg11_11_cif.got.tgz:21984.got - 2010.06.27 23:14:04.
