data_PCOD8072255
_publ_section_title
;
Structure prediction by ZEFSAII (Michael W. Deem and Ramdas Pophale) SiO2 
 PCOD8072255
Probable space group: P 21/M
;
_chemical_formula_sum "Si O2"
_cell_formula_units_Z 24
_cell_length_a 12.148501
_cell_length_b 15.104217
_cell_length_c 8.887588
_cell_angle_alpha 90.000000
_cell_angle_beta 49.343830
_cell_angle_gamma 90.000000
_cell_volume 1237.190364
_symmetry_space_group_name_H-M "P 21/M"
_symmetry_group_IT_number 11
_symmetry_cell_setting 'monoclinic'
loop_
_space_group_symop_operation_xyz
x,y,z
-x,1/2+y,-z
-x,-y,-z
x,1/2-y,z
loop_
_atom_site_type_symbol
_atom_site_label
_atom_site_fract_x
_atom_site_fract_y
_atom_site_fract_z
Si Si1 0.883932 0.488607 0.813651
Si Si2 0.553775 0.588137 0.867524
Si Si3 0.682227 0.650980 0.041706
Si Si4 0.200243 0.980883 0.452827
Si Si5 0.395986 0.853568 0.456946
Si Si6 0.693059 0.148068 0.132127
O O1 0.838356 0.460881 0.686143
O O2 0.056873 0.495286 0.674617
O O3 0.815278 0.582545 0.924379
O O4 0.832899 0.411616 0.971661
O O5 0.687229 0.562782 0.638220
O O6 0.428259 0.633571 0.885488
O O7 0.500000 0.500000 0.000000
O O8 0.609726 0.657073 0.941443
O O9 0.737788 0.750000 0.034029
O O10 0.559146 0.616301 0.267492
O O11 0.274720 0.895068 0.457205
O O12 0.380970 0.750000 0.444921
O O13 0.370619 0.881811 0.651145
O O14 0.742084 0.250000 0.090101
#
# Coordination Sequence:
#
# PCOD8072255 Si02
#       6
#     4   4   4   4   4   4
#     4  10  21  37  56  83 114 147 187 225 281 330
#     4  11  18  36  59  82 102 144 185 233 277 324
#     4  10  19  35  57  82 110 142 186 234 276 327
#     4  10  20  36  56  81 112 144 184 232 272 334
#     4  10  21  35  55  84 112 148 191 228 274 329
#     4  11  22  37  57  82 114 148 186 231 278 329
#
# _framework density 19.398793999999999
#
# number of rings (size 3 to 8) (size 9 to 14) (size 15 to 20)
#    0.000    1.667    5.000    0.500    0.000    6.000 
#    0.000    7.500    0.000    4.000    0.000    0.000 
#    0.000    0.000    0.000    0.000    0.000    0.000 
#
# Total GULP energy -297605.598933 kJ/mol
# GULP energy per Si atom -12400.233289 kJ/mol
# Density = 1.935464 g / cm^3
# Si number density = 19.398794 Si / 1000 Ang^3
#
#
#
# Elastic Constant Matrix: (Units=GPa)
#
#
# Indices 1 2 3 4 5 6 
#
# 1 29.0400 23.1664 35.0727 0.0000 -14.4137 0.0000
# 2 23.1664 80.6013 59.2674 0.0000 -9.8859 0.0000
# 3 35.0727 59.2674 152.8545 0.0000 -26.2235 0.0000
# 4 0.0000 0.0000 0.0000 30.9064 0.0000 4.3498
# 5 -14.4137 -9.8859 -26.2235 0.0000 34.5669 0.0000
# 6 0.0000 0.0000 0.0000 4.3498 0.0000 19.5082
#
#
#
# Elastic Compliance Matrix: (Units=1/GPa)
#
#
# Indices 1 2 3 4 5 6 
#
# 1 0.058710 -0.009829 -0.006832 0.000000 0.016487 0.000000
# 2 -0.009829 0.019001 -0.005614 0.000000 -0.002923 0.000000
# 3 -0.006832 -0.005614 0.010947 0.000000 0.003851 0.000000
# 4 0.000000 0.000000 0.000000 0.033404 0.000000 -0.007448
# 5 0.016487 -0.002923 0.003851 0.000000 0.037889 0.000000
# 6 0.000000 0.000000 0.000000 -0.007448 0.000000 0.052921
#
#
# Mechanical properties :
#
#
# Convention : Reuss Voigt Hill
#
# Bulk Modulus (GPa) = 22.67060 55.27873 38.97467
# Shear Modulus (GPa) = 18.37395 26.66226 22.51811
#
# Velocity S-wave (km/s) = 3.08095 3.71135 3.41075
# Velocity P-wave (km/s) = 4.93643 6.85006 5.97041
#
# Compressibility (1/GPa) = 0.04410999
#
# Stress axis : x y z
#
# Youngs Moduli (GPa) = 17.03280 52.62875 91.35013
#
# Poissons Ratio (x) = 0.51728 0.62407
# Poissons Ratio (y) = 0.16741 0.51280
# Poissons Ratio (z) = 0.11636 0.29544
#
# Static dielectric constant tensor:
#      x y z
#    x 3.393820 0.000000 -0.097490 
#    y 0.000000 3.466200 0.000000 
#    z -0.097490 0.000000 3.984520 
# 
# 
# High freq. dielectric constant tensor:
#      x y z
#    x 1.732390 0.000000 -0.004030 
#    y 0.000000 1.749870 0.000000 
#    z -0.004030 0.000000 1.768840 
# 
# From -- ./inp_files/12530.got.cif
#   From: 2010.06.25/outbox.cif.g09.slc.cpg/sg11_7_cif.got.tgz:12530.got - 2010.06.27 23:14:04.
