data_PCOD8072829
_publ_section_title
;
Structure prediction by ZEFSAII (Michael W. Deem and Ramdas Pophale) SiO2 
 PCOD8072829
Probable space group: P 21/M
;
_chemical_formula_sum "Si O2"
_cell_formula_units_Z 24
_cell_length_a 14.813859
_cell_length_b 8.896415
_cell_length_c 20.191558
_cell_angle_alpha 90.000000
_cell_angle_beta 145.565274
_cell_angle_gamma 90.000000
_cell_volume 1504.736051
_symmetry_space_group_name_H-M "P 21/M"
_symmetry_group_IT_number 11
_symmetry_cell_setting 'monoclinic'
loop_
_space_group_symop_operation_xyz
x,y,z
-x,1/2+y,-z
-x,-y,-z
x,1/2-y,z
loop_
_atom_site_type_symbol
_atom_site_label
_atom_site_fract_x
_atom_site_fract_y
_atom_site_fract_z
Si Si1 0.326740 0.427606 0.901055
Si Si2 0.151586 0.579889 0.061549
Si Si3 0.289005 0.920691 0.010327
Si Si4 0.810189 0.078226 0.442955
Si Si5 0.544418 0.926217 0.779632
Si Si6 0.116613 0.577391 0.664582
O O1 0.343639 0.250000 0.914200
O O2 0.218423 0.473014 0.774013
O O3 0.500000 0.500000 0.000000
O O4 0.241766 0.487164 0.916497
O O5 0.157739 0.750000 0.091595
O O6 0.142985 0.575168 0.975509
O O7 0.316420 0.495835 0.183451
O O8 0.000000 0.500000 0.000000
O O9 0.333138 0.750000 0.017531
O O10 0.442409 0.997451 0.139246
O O11 0.854535 0.250000 0.486364
O O12 0.629523 0.039827 0.356345
O O13 0.818872 0.050602 0.369860
O O14 0.930651 0.970996 0.555449
O O15 0.572546 0.750000 0.805237
O O16 0.131649 0.750000 0.696030
#
# Coordination Sequence:
#
# PCOD8072829 Si02
#       6
#     4   4   4   4   4   4
#     4  12  23  34  49  68  96 131 166 202 241 290
#     4   9  18  30  48  73 101 128 160 201 247 297
#     4   9  19  32  47  70  98 127 161 197 238 289
#     4   9  18  32  47  67  93 127 165 202 241 283
#     4   9  16  28  48  70  97 127 158 197 242 287
#     4  10  20  32  48  68  94 127 165 204 241 281
#
# _framework density 15.949641
#
# number of rings (size 3 to 8) (size 9 to 14) (size 15 to 20)
#    1.000    1.333    0.000    4.000    0.000    3.333 
#    0.000    0.000    0.000    0.000    0.000    1.167 
#    0.000    0.000    0.000    0.000    0.000    0.000 
#
# Total GULP energy -297422.345858 kJ/mol
# GULP energy per Si atom -12392.597744 kJ/mol
# Density = 1.591334 g / cm^3
# Si number density = 15.949641 Si / 1000 Ang^3
#
#
#
# Elastic Constant Matrix: (Units=GPa)
#
#
# Indices 1 2 3 4 5 6 
#
# 1 70.7683 42.7600 35.2455 0.0000 19.7515 0.0000
# 2 42.7600 134.4080 50.0443 0.0000 11.0321 0.0000
# 3 35.2455 50.0443 80.0589 0.0000 15.7185 0.0000
# 4 0.0000 0.0000 0.0000 29.8617 0.0000 1.8369
# 5 19.7515 11.0321 15.7185 0.0000 25.1433 0.0000
# 6 0.0000 0.0000 0.0000 1.8369 0.0000 26.3241
#
#
#
# Elastic Compliance Matrix: (Units=1/GPa)
#
#
# Indices 1 2 3 4 5 6 
#
# 1 0.022781 -0.004427 -0.004708 0.000000 -0.013011 0.000000
# 2 -0.004427 0.010563 -0.005046 0.000000 0.001997 0.000000
# 3 -0.004708 -0.005046 0.018874 0.000000 -0.005887 0.000000
# 4 0.000000 0.000000 0.000000 0.033632 0.000000 -0.002347
# 5 -0.013011 0.001997 -0.005887 0.000000 0.052796 0.000000
# 6 0.000000 0.000000 0.000000 -0.002347 0.000000 0.038152
#
#
# Mechanical properties :
#
#
# Convention : Reuss Voigt Hill
#
# Bulk Modulus (GPa) = 41.91749 60.14833 51.03291
# Shear Modulus (GPa) = 23.46184 26.74486 25.10335
#
# Velocity S-wave (km/s) = 3.83952 4.09936 3.97156
# Velocity P-wave (km/s) = 6.78189 7.75884 7.28675
#
# Compressibility (1/GPa) = 0.02385639
#
# Stress axis : x y z
#
# Youngs Moduli (GPa) = 43.89563 94.66709 52.98423
#
# Poissons Ratio (x) = 0.41907 0.24943
# Poissons Ratio (y) = 0.19432 0.26738
# Poissons Ratio (z) = 0.20665 0.47772
#
# Static dielectric constant tensor:
#      x y z
#    x 2.847670 0.000000 0.102780 
#    y 0.000000 3.179280 0.000000 
#    z 0.102780 0.000000 2.906380 
# 
# 
# High freq. dielectric constant tensor:
#      x y z
#    x 1.585570 0.000000 0.015020 
#    y 0.000000 1.633920 0.000000 
#    z 0.015020 0.000000 1.589840 
# 
# From -- ./inp_files/52855.got.cif
#   From: 2010.06.25/outbox.cif.g09.slc.cpg/sg11_27_cif.got.tgz:52855.got - 2010.06.27 23:14:04.
