data_PCOD8072870
_publ_section_title
;
Structure prediction by ZEFSAII (Michael W. Deem and Ramdas Pophale) SiO2 
 PCOD8072870
Probable space group: P 21/M
;
_chemical_formula_sum "Si O2"
_cell_formula_units_Z 32
_cell_length_a 24.000108
_cell_length_b 13.449200
_cell_length_c 17.639103
_cell_angle_alpha 90.000000
_cell_angle_beta 18.990256
_cell_angle_gamma 90.000000
_cell_volume 1852.735840
_symmetry_space_group_name_H-M "P 21/M"
_symmetry_group_IT_number 11
_symmetry_cell_setting 'monoclinic'
loop_
_space_group_symop_operation_xyz
x,y,z
-x,1/2+y,-z
-x,-y,-z
x,1/2-y,z
loop_
_atom_site_type_symbol
_atom_site_label
_atom_site_fract_x
_atom_site_fract_y
_atom_site_fract_z
Si Si1 0.898459 0.865711 0.486780
Si Si2 0.761469 0.478215 0.934800
Si Si3 0.288992 0.138757 0.121154
Si Si4 0.613865 0.949504 0.571733
Si Si5 0.663582 0.138036 0.585524
Si Si6 0.132864 0.034539 0.629793
Si Si7 0.750733 0.495972 0.120061
Si Si8 0.577105 0.867787 0.457849
O O1 0.900603 0.750000 0.465563
O O2 0.089807 0.897367 0.263864
O O3 0.768922 0.893987 0.720646
O O4 0.831778 0.921875 0.498295
O O5 0.795451 0.565577 0.831275
O O6 0.580559 0.421524 0.153608
O O7 0.758853 0.527634 0.021715
O O8 0.221204 0.250000 0.190526
O O9 0.494317 0.136605 0.855061
O O10 0.748604 0.907029 0.460752
O O11 0.657685 0.907447 0.432919
O O12 0.627614 0.071642 0.555608
O O13 0.717928 0.250000 0.493198
O O14 0.813972 0.082897 0.439516
O O15 0.935327 0.044869 0.908922
O O16 0.615555 0.407033 0.306328
O O17 0.698405 0.592938 0.234896
O O18 0.574993 0.750000 0.459621
#
# Coordination Sequence:
#
# PCOD8072870 Si02
#       8
#     4   4   4   4   4   4   4   4
#     4  10  20  32  50  76 105 138 174 213 254 296
#     4   9  17  34  53  74 101 136 170 212 254 300
#     4   9  17  31  53  76 102 135 174 213 254 303
#     4   8  18  33  52  78  99 134 170 207 251 305
#     4   8  16  33  52  73 103 137 166 206 258 297
#     4   9  19  34  53  77 103 136 169 210 247 308
#     4   9  20  35  53  77 104 131 172 210 253 306
#     4  10  20  36  55  76 105 135 165 212 258 298
#
# _framework density 17.271756
#
# number of rings (size 3 to 8) (size 9 to 14) (size 15 to 20)
#    0.750    2.250    0.000    0.375    0.000    7.000 
#    0.000    8.125    0.000    0.750    0.000    0.000 
#    0.000    0.000    0.000    0.000    0.000    0.000 
#
# Total GULP energy -396563.821190 kJ/mol
# GULP energy per Si atom -12392.619412 kJ/mol
# Density = 1.723244 g / cm^3
# Si number density = 17.271756 Si / 1000 Ang^3
#
#
#
# Elastic Constant Matrix: (Units=GPa)
#
#
# Indices 1 2 3 4 5 6 
#
# 1 98.1987 50.9226 56.4293 0.0000 -4.1369 0.0000
# 2 50.9226 98.9196 29.0306 0.0000 12.6666 0.0000
# 3 56.4293 29.0306 78.3232 0.0000 -1.0165 0.0000
# 4 0.0000 0.0000 0.0000 21.6550 0.0000 -0.6506
# 5 -4.1369 12.6666 -1.0165 0.0000 33.9271 0.0000
# 6 0.0000 0.0000 0.0000 -0.6506 0.0000 27.8128
#
#
#
# Elastic Compliance Matrix: (Units=1/GPa)
#
#
# Indices 1 2 3 4 5 6 
#
# 1 0.022024 -0.008295 -0.012723 0.000000 0.005401 0.000000
# 2 -0.008295 0.015152 0.000274 0.000000 -0.006660 0.000000
# 3 -0.012723 0.000274 0.021819 0.000000 -0.001000 0.000000
# 4 0.000000 0.000000 0.000000 0.046211 0.000000 0.001081
# 5 0.005401 -0.006660 -0.001000 0.000000 0.032590 0.000000
# 6 0.000000 0.000000 0.000000 0.001081 0.000000 0.035980
#
#
# Mechanical properties :
#
#
# Convention : Reuss Voigt Hill
#
# Bulk Modulus (GPa) = 57.11972 60.91183 59.01578
# Shear Modulus (GPa) = 22.61425 25.94957 24.28191
#
# Velocity S-wave (km/s) = 3.62238 3.88032 3.75357
# Velocity P-wave (km/s) = 7.11607 7.44440 7.28209
#
# Compressibility (1/GPa) = 0.01750709
#
# Stress axis : x y z
#
# Youngs Moduli (GPa) = 45.40586 65.99789 45.83111
#
# Poissons Ratio (x) = 0.54748 0.58309
# Poissons Ratio (y) = 0.37666 -0.01256
# Poissons Ratio (z) = 0.57768 -0.01808
#
# Static dielectric constant tensor:
#      x y z
#    x 3.170240 0.000000 -0.021020 
#    y 0.000000 3.061700 0.000000 
#    z -0.021020 0.000000 3.280080 
# 
# 
# High freq. dielectric constant tensor:
#      x y z
#    x 1.660200 0.000000 -0.000660 
#    y 0.000000 1.649970 0.000000 
#    z -0.000660 0.000000 1.669980 
# 
# From -- ./inp_files/62035.got.cif
#   From: 2010.06.25/outbox.cif.g09.slc.cpg/sg11_32_cif.got.tgz:62035.got - 2010.06.27 23:14:04.
