data_PCOD8072140
_publ_section_title
;
Structure prediction by ZEFSAII (Michael W. Deem and Ramdas Pophale) SiO2 
 PCOD8072140
Probable space group: P 21/M
;
_chemical_formula_sum "Si O2"
_cell_formula_units_Z 20
_cell_length_a 16.621628
_cell_length_b 8.867475
_cell_length_c 21.598671
_cell_angle_alpha 90.000000
_cell_angle_beta 162.529905
_cell_angle_gamma 90.000000
_cell_volume 955.702639
_symmetry_space_group_name_H-M "P 21/M"
_symmetry_group_IT_number 11
_symmetry_cell_setting 'monoclinic'
loop_
_space_group_symop_operation_xyz
x,y,z
-x,1/2+y,-z
-x,-y,-z
x,1/2-y,z
loop_
_atom_site_type_symbol
_atom_site_label
_atom_site_fract_x
_atom_site_fract_y
_atom_site_fract_z
Si Si1 0.649315 0.927442 0.052356
Si Si2 0.100525 0.075625 0.200304
Si Si3 0.746820 0.426739 0.474014
Si Si4 0.466657 0.924944 0.378225
Si Si5 0.534044 0.072060 0.839275
O O1 0.602466 0.750000 0.018569
O O2 0.962628 0.969222 0.286040
O O3 0.500000 0.000000 0.000000
O O4 0.522374 0.995619 0.897381
O O5 0.116069 0.250000 0.193316
O O6 0.291613 0.038627 0.398028
O O7 0.189374 0.979951 0.205599
O O8 0.805263 0.025464 0.002978
O O9 0.712536 0.250000 0.438694
O O10 0.519693 0.485169 0.354222
O O11 0.710775 0.509616 0.381554
O O12 0.443517 0.750000 0.344445
O O13 0.509275 0.250000 0.830205
#
# Coordination Sequence:
#
# PCOD8072140 Si02
#       5
#     4   4   4   4   4
#     4  11  25  45  69  93 122 159 202 255 313 370
#     4   9  19  35  57  88 124 163 207 252 301 358
#     4  11  24  41  63  93 127 163 205 252 306 368
#     4  10  19  34  59  89 123 165 209 253 301 356
#     4  11  23  41  66  94 126 163 206 255 306 363
#
# _framework density 20.927012000000001
#
# number of rings (size 3 to 8) (size 9 to 14) (size 15 to 20)
#    0.000    1.600    2.000    2.400    0.000    6.400 
#    0.000    0.000    0.000    0.000    0.000    0.000 
#    0.000    0.000    0.000    0.000    0.000    0.000 
#
# Total GULP energy -248123.092923 kJ/mol
# GULP energy per Si atom -12406.154646 kJ/mol
# Density = 2.087938 g / cm^3
# Si number density = 20.927012 Si / 1000 Ang^3
#
#
#
# Elastic Constant Matrix: (Units=GPa)
#
#
# Indices 1 2 3 4 5 6 
#
# 1 145.9782 62.1675 34.4939 0.0000 -5.4084 0.0000
# 2 62.1675 95.6632 29.0733 0.0000 1.5818 0.0000
# 3 34.4939 29.0733 19.4399 0.0000 -5.2954 0.0000
# 4 0.0000 0.0000 0.0000 29.4912 0.0000 -0.5378
# 5 -5.4084 1.5818 -5.2954 0.0000 31.3287 0.0000
# 6 0.0000 0.0000 0.0000 -0.5378 0.0000 45.0126
#
#
#
# Elastic Compliance Matrix: (Units=1/GPa)
#
#
# Indices 1 2 3 4 5 6 
#
# 1 0.012125 -0.002297 -0.018321 0.000000 -0.000888 0.000000
# 2 -0.002297 0.020776 -0.028712 0.000000 -0.006299 0.000000
# 3 -0.018321 -0.028712 0.132524 0.000000 0.020687 0.000000
# 4 0.000000 0.000000 0.000000 0.033916 0.000000 0.000405
# 5 -0.000888 -0.006299 0.020687 0.000000 0.035581 0.000000
# 6 0.000000 0.000000 0.000000 0.000405 0.000000 0.022221
#
#
# Mechanical properties :
#
#
# Convention : Reuss Voigt Hill
#
# Bulk Modulus (GPa) = 14.97770 56.95008 35.96389
# Shear Modulus (GPa) = 13.22552 30.18960 21.70756
#
# Velocity S-wave (km/s) = 2.51666 3.80230 3.22421
# Velocity P-wave (km/s) = 3.95188 6.82271 5.57525
#
# Compressibility (1/GPa) = 0.06676591
#
# Stress axis : x y z
#
# Youngs Moduli (GPa) = 82.47652 48.13261 7.54579
#
# Poissons Ratio (x) = 0.11055 0.13825
# Poissons Ratio (y) = 0.18942 0.21665
# Poissons Ratio (z) = 1.51104 1.38198
#
# Static dielectric constant tensor:
#      x y z
#    x 3.679480 0.000000 -0.061900 
#    y 0.000000 3.742560 0.000000 
#    z -0.061900 0.000000 3.827230 
# 
# 
# High freq. dielectric constant tensor:
#      x y z
#    x 1.828420 0.000000 -0.005830 
#    y 0.000000 1.825430 0.000000 
#    z -0.005830 0.000000 1.813760 
# 
# From -- ./inp_files/57443.got.cif
#   From: 2010.06.25/outbox.cif.g09.slc.cpg/sg11_29_cif.got.tgz:57443.got - 2010.06.27 23:14:04.
