data_PCOD8072410
_publ_section_title
;
Structure prediction by ZEFSAII (Michael W. Deem and Ramdas Pophale) SiO2 
 PCOD8072410
Probable space group: P 21/M
;
_chemical_formula_sum "Si O2"
_cell_formula_units_Z 32
_cell_length_a 31.441919
_cell_length_b 8.924137
_cell_length_c 12.714981
_cell_angle_alpha 90.000000
_cell_angle_beta 153.249877
_cell_angle_gamma 90.000000
_cell_volume 1605.832885
_symmetry_space_group_name_H-M "P 21/M"
_symmetry_group_IT_number 11
_symmetry_cell_setting 'monoclinic'
loop_
_space_group_symop_operation_xyz
x,y,z
-x,1/2+y,-z
-x,-y,-z
x,1/2-y,z
loop_
_atom_site_type_symbol
_atom_site_label
_atom_site_fract_x
_atom_site_fract_y
_atom_site_fract_z
Si Si1 0.921175 0.078539 0.550771
Si Si2 0.867000 0.576702 0.042842
Si Si3 0.399300 0.426913 0.261936
Si Si4 0.412538 0.576075 0.861223
Si Si5 0.858544 0.919735 0.612166
Si Si6 0.354657 0.082190 0.928822
Si Si7 0.794641 0.072758 0.672651
Si Si8 0.217799 0.928242 0.939945
O O1 0.900402 0.250000 0.534813
O O2 0.925560 0.986936 0.669633
O O3 0.841465 0.019538 0.293639
O O4 0.020651 0.059268 0.712984
O O5 0.836833 0.750000 0.984513
O O6 0.819767 0.506538 0.836010
O O7 0.833391 0.487005 0.069744
O O8 0.500000 0.500000 0.500000
O O9 0.403367 0.250000 0.291453
O O10 0.322402 0.500888 0.169214
O O11 0.368641 0.470404 0.077596
O O12 0.428379 0.750000 0.887522
O O13 0.413609 0.528789 0.985358
O O14 0.313672 0.527239 0.590311
O O15 0.500000 0.500000 0.000000
O O16 0.890201 0.750000 0.706244
O O17 0.754890 0.928630 0.336562
O O18 0.863387 0.013168 0.731377
O O19 0.393079 0.250000 0.995326
O O20 0.807995 0.250000 0.711346
O O21 0.224988 0.750000 0.961842
#
# Coordination Sequence:
#
# PCOD8072410 Si02
#       8
#     4   4   4   4   4   4   4   4
#     4  10  22  39  62  91 121 157 204 251 303 364
#     4  11  24  41  61  88 123 163 204 251 304 364
#     4  11  23  40  61  90 122 157 199 248 302 360
#     4  10  21  36  59  86 113 149 194 241 293 354
#     4  10  19  35  62  90 116 153 197 246 299 355
#     4   9  19  36  57  82 114 148 189 240 291 346
#     4  10  22  40  59  85 121 158 198 248 304 361
#     4  11  23  41  64  89 121 161 203 253 306 362
#
# _framework density 19.927356
#
# number of rings (size 3 to 8) (size 9 to 14) (size 15 to 20)
#    0.000    1.750    1.250    2.625    0.000    6.000 
#    0.000    1.250    0.000    0.000    0.000    0.000 
#    0.000    0.000    0.000    0.000    0.000    0.000 
#
# Total GULP energy -396896.037986 kJ/mol
# GULP energy per Si atom -12403.001187 kJ/mol
# Density = 1.988200 g / cm^3
# Si number density = 19.927356 Si / 1000 Ang^3
#
#
#
# Elastic Constant Matrix: (Units=GPa)
#
#
# Indices 1 2 3 4 5 6 
#
# 1 116.3252 52.3675 31.8572 0.0000 4.3953 0.0000
# 2 52.3675 97.7391 42.8068 0.0000 0.5230 0.0000
# 3 31.8572 42.8068 55.1453 0.0000 1.5690 0.0000
# 4 0.0000 0.0000 0.0000 30.2893 0.0000 -0.0849
# 5 4.3953 0.5230 1.5690 0.0000 28.7536 0.0000
# 6 0.0000 0.0000 0.0000 -0.0849 0.0000 44.0597
#
#
#
# Elastic Compliance Matrix: (Units=1/GPa)
#
#
# Indices 1 2 3 4 5 6 
#
# 1 0.011685 -0.005023 -0.002807 0.000000 -0.001542 0.000000
# 2 -0.005023 0.017665 -0.010840 0.000000 0.001038 0.000000
# 3 -0.002807 -0.010840 0.028196 0.000000 -0.000912 0.000000
# 4 0.000000 0.000000 0.000000 0.033015 0.000000 0.000064
# 5 -0.001542 0.001038 -0.000912 0.000000 0.035045 0.000000
# 6 0.000000 0.000000 0.000000 0.000064 0.000000 0.022697
#
#
# Mechanical properties :
#
#
# Convention : Reuss Voigt Hill
#
# Bulk Modulus (GPa) = 49.49239 58.14142 53.81690
# Shear Modulus (GPa) = 25.99049 30.09907 28.04478
#
# Velocity S-wave (km/s) = 3.61537 3.89065 3.75554
# Velocity P-wave (km/s) = 6.50525 7.03015 6.77278
#
# Compressibility (1/GPa) = 0.02020513
#
# Stress axis : x y z
#
# Youngs Moduli (GPa) = 85.58080 56.61061 35.46551
#
# Poissons Ratio (x) = 0.28434 0.09957
# Poissons Ratio (y) = 0.42985 0.38445
# Poissons Ratio (z) = 0.24027 0.61366
#
# Static dielectric constant tensor:
#      x y z
#    x 3.762810 0.000000 -0.056310 
#    y 0.000000 3.757290 0.000000 
#    z -0.056310 0.000000 3.681710 
# 
# 
# High freq. dielectric constant tensor:
#      x y z
#    x 1.787500 0.000000 -0.000480 
#    y 0.000000 1.786760 0.000000 
#    z -0.000480 0.000000 1.773740 
# 
# From -- ./inp_files/45067.got.cif
#   From: 2010.06.25/outbox.cif.g09.slc.cpg/sg11_23_cif.got.tgz:45067.got - 2010.06.27 23:14:04.
