data_PCOD8072443
_publ_section_title
;
Structure prediction by ZEFSAII (Michael W. Deem and Ramdas Pophale) SiO2 
 PCOD8072443
Probable space group: P 21/M
;
_chemical_formula_sum "Si O2"
_cell_formula_units_Z 24
_cell_length_a 20.066174
_cell_length_b 8.725326
_cell_length_c 9.637795
_cell_angle_alpha 90.000000
_cell_angle_beta 49.673350
_cell_angle_gamma 90.000000
_cell_volume 1286.436165
_symmetry_space_group_name_H-M "P 21/M"
_symmetry_group_IT_number 11
_symmetry_cell_setting 'monoclinic'
loop_
_space_group_symop_operation_xyz
x,y,z
-x,1/2+y,-z
-x,-y,-z
x,1/2-y,z
loop_
_atom_site_type_symbol
_atom_site_label
_atom_site_fract_x
_atom_site_fract_y
_atom_site_fract_z
Si Si1 0.522469 0.571360 0.117278
Si Si2 0.095138 0.069359 0.863247
Si Si3 0.723455 0.929168 0.906992
Si Si4 0.224274 0.070416 0.457982
Si Si5 0.368412 0.432160 0.475223
Si Si6 0.757781 0.430265 0.146936
O O1 0.502604 0.750000 0.135679
O O2 0.464809 0.496124 0.317020
O O3 0.500000 0.500000 0.000000
O O4 0.621683 0.537385 0.022846
O O5 0.091960 0.250000 0.891686
O O6 0.134139 0.029495 0.658102
O O7 0.155503 0.997841 0.900157
O O8 0.000000 0.000000 0.000000
O O9 0.740947 0.750000 0.911903
O O10 0.774609 0.991103 0.700867
O O11 0.761495 0.028726 0.980358
O O12 0.239833 0.250000 0.429287
O O13 0.305724 0.005333 0.436596
O O14 0.370781 0.250000 0.482115
O O15 0.330420 0.496454 0.670674
O O16 0.756423 0.250000 0.170704
#
# Coordination Sequence:
#
# PCOD8072443 Si02
#       6
#     4   4   4   4   4   4
#     4  11  21  33  54  82 113 149 195 240 280 331
#     4  10  20  38  64  89 113 144 181 227 278 340
#     4  10  20  37  56  79 112 152 189 230 283 334
#     4   8  16  33  57  81 107 143 185 226 275 330
#     4  10  19  36  57  79 109 151 194 236 281 330
#     4  11  23  38  56  84 115 146 186 233 284 338
#
# _framework density 18.656191
#
# number of rings (size 3 to 8) (size 9 to 14) (size 15 to 20)
#    0.000    2.000    1.667    4.000    0.000    2.000 
#    0.000    2.500    0.000    0.000    0.000    0.000 
#    0.000    0.000    0.000    0.000    0.000    0.000 
#
# Total GULP energy -297602.704084 kJ/mol
# GULP energy per Si atom -12400.112670 kJ/mol
# Density = 1.861373 g / cm^3
# Si number density = 18.656191 Si / 1000 Ang^3
#
#
#
# Elastic Constant Matrix: (Units=GPa)
#
#
# Indices 1 2 3 4 5 6 
#
# 1 79.4001 52.2339 63.7938 0.0000 4.7742 0.0000
# 2 52.2339 107.5040 54.9082 0.0000 -4.6582 0.0000
# 3 63.7938 54.9082 143.3971 0.0000 3.5759 0.0000
# 4 0.0000 0.0000 0.0000 30.5497 0.0000 -2.3174
# 5 4.7742 -4.6582 3.5759 0.0000 34.1129 0.0000
# 6 0.0000 0.0000 0.0000 -2.3174 0.0000 29.2954
#
#
#
# Elastic Compliance Matrix: (Units=1/GPa)
#
#
# Indices 1 2 3 4 5 6 
#
# 1 0.024214 -0.008043 -0.007600 0.000000 -0.003690 0.000000
# 2 -0.008043 0.014380 -0.002010 0.000000 0.003300 0.000000
# 3 -0.007600 -0.002010 0.011134 0.000000 -0.000378 0.000000
# 4 0.000000 0.000000 0.000000 0.032931 0.000000 0.002605
# 5 -0.003690 0.003300 -0.000378 0.000000 0.030321 0.000000
# 6 0.000000 0.000000 0.000000 0.002605 0.000000 0.034341
#
#
# Mechanical properties :
#
#
# Convention : Reuss Voigt Hill
#
# Bulk Modulus (GPa) = 69.34667 74.68589 72.01628
# Shear Modulus (GPa) = 26.67585 29.41596 28.04590
#
# Velocity S-wave (km/s) = 3.78546 3.97513 3.88145
# Velocity P-wave (km/s) = 7.50718 7.82231 7.66637
#
# Compressibility (1/GPa) = 0.01442030
#
# Stress axis : x y z
#
# Youngs Moduli (GPa) = 41.29827 69.54278 89.81434
#
# Poissons Ratio (x) = 0.55933 0.68263
# Poissons Ratio (y) = 0.33216 0.18055
# Poissons Ratio (z) = 0.31389 0.13980
#
# Static dielectric constant tensor:
#      x y z
#    x 3.337800 0.000000 0.110120 
#    y 0.000000 3.350870 0.000000 
#    z 0.110120 0.000000 3.772110 
# 
# 
# High freq. dielectric constant tensor:
#      x y z
#    x 1.703820 0.000000 0.004260 
#    y 0.000000 1.719880 0.000000 
#    z 0.004260 0.000000 1.736650 
# 
# From -- ./inp_files/25735.got.cif
#   From: 2010.06.25/outbox.cif.g09.slc.cpg/sg11_13_cif.got.tgz:25735.got - 2010.06.27 23:14:04.
