data_PCOD8072532
_publ_section_title
;
Structure prediction by ZEFSAII (Michael W. Deem and Ramdas Pophale) SiO2 
 PCOD8072532
Probable space group: P 21/M
;
_chemical_formula_sum "Si O2"
_cell_formula_units_Z 28
_cell_length_a 31.427340
_cell_length_b 8.466777
_cell_length_c 31.427354
_cell_angle_alpha 90.000000
_cell_angle_beta 170.532556
_cell_angle_gamma 90.000000
_cell_volume 1375.515763
_symmetry_space_group_name_H-M "P 21/M"
_symmetry_group_IT_number 11
_symmetry_cell_setting 'monoclinic'
loop_
_space_group_symop_operation_xyz
x,y,z
-x,1/2+y,-z
-x,-y,-z
x,1/2-y,z
loop_
_atom_site_type_symbol
_atom_site_label
_atom_site_fract_x
_atom_site_fract_y
_atom_site_fract_z
Si Si1 0.808885 0.061983 0.691143
Si Si2 0.906079 0.563374 0.593917
Si Si3 0.382461 0.061190 0.117532
Si Si4 0.333818 0.436901 0.166211
Si Si5 0.761499 0.935387 0.738501
Si Si6 0.476275 0.564105 0.023730
Si Si7 0.046817 0.564486 0.453181
O O1 0.806434 0.250000 0.693594
O O2 0.573454 0.999323 0.430085
O O3 0.785930 0.984320 0.714069
O O4 0.069955 0.999323 0.926590
O O5 0.909919 0.750000 0.590082
O O6 0.643643 0.510848 0.357184
O O7 0.928364 0.473658 0.571633
O O8 0.142810 0.510851 0.856351
O O9 0.384626 0.250000 0.115354
O O10 0.358038 0.002996 0.141960
O O11 0.333723 0.250000 0.166308
O O12 0.759390 0.750000 0.740603
O O13 0.500000 0.000000 0.500000
O O14 0.000000 0.000000 0.000000
O O15 0.477165 0.750000 0.022853
O O16 0.713278 0.506894 0.285471
O O17 0.500000 0.500000 0.000000
O O18 0.214533 0.506895 0.786728
O O19 0.043210 0.750000 0.456795
#
# Coordination Sequence:
#
# PCOD8072532 Si02
#       7
#     4   4   4   4   4   4   4
#     4  10  19  36  60  88 119 157 200 249 302 361
#     4  12  25  42  62  92 129 166 204 256 317 369
#     4  11  22  41  66  93 122 163 212 255 298 365
#     4   9  19  35  60  88 118 156 202 247 298 360
#     4  12  25  42  63  91 123 161 204 253 306 365
#     4  12  25  44  67  96 130 167 207 256 311 370
#     4  12  25  44  67  94 125 166 213 260 309 368
#
# _framework density 20.356000000000002
#
# number of rings (size 3 to 8) (size 9 to 14) (size 15 to 20)
#    0.000    0.857    0.000    8.571    0.000    3.429 
#    0.000    4.286    0.000    0.000    0.000    0.000 
#    0.000    0.000    0.000    0.000    0.000    0.000 
#
# Total GULP energy -347353.622052 kJ/mol
# GULP energy per Si atom -12405.486502 kJ/mol
# Density = 2.030967 g / cm^3
# Si number density = 20.356000 Si / 1000 Ang^3
#
#
#
# Elastic Constant Matrix: (Units=GPa)
#
#
# Indices 1 2 3 4 5 6 
#
# 1 185.7457 41.6427 101.4283 0.0000 2.1252 0.0000
# 2 41.6427 130.1215 52.7694 0.0000 0.9803 0.0000
# 3 101.4283 52.7694 220.9205 0.0000 0.9771 0.0000
# 4 0.0000 0.0000 0.0000 34.6233 0.0000 -0.1707
# 5 2.1252 0.9803 0.9771 0.0000 54.1027 0.0000
# 6 0.0000 0.0000 0.0000 -0.1707 0.0000 36.5636
#
#
#
# Elastic Compliance Matrix: (Units=1/GPa)
#
#
# Indices 1 2 3 4 5 6 
#
# 1 0.007323 -0.001084 -0.003102 0.000000 -0.000212 0.000000
# 2 -0.001084 0.008671 -0.001573 0.000000 -0.000086 0.000000
# 3 -0.003102 -0.001573 0.006326 0.000000 0.000036 0.000000
# 4 0.000000 0.000000 0.000000 0.028883 0.000000 0.000135
# 5 -0.000212 -0.000086 0.000036 0.000000 0.018493 0.000000
# 6 0.000000 0.000000 0.000000 0.000135 0.000000 0.027350
#
#
# Mechanical properties :
#
#
# Convention : Reuss Voigt Hill
#
# Bulk Modulus (GPa) = 92.57892 103.16316 97.87104
# Shear Modulus (GPa) = 44.57709 47.78773 46.18241
#
# Velocity S-wave (km/s) = 4.68469 4.85046 4.76829
# Velocity P-wave (km/s) = 8.65103 9.06415 8.86000
#
# Compressibility (1/GPa) = 0.01080159
#
# Stress axis : x y z
#
# Youngs Moduli (GPa) = 136.55203 115.33243 158.06665
#
# Poissons Ratio (x) = 0.12501 0.49038
# Poissons Ratio (y) = 0.14801 0.24865
# Poissons Ratio (z) = 0.42363 0.18142
#
# Static dielectric constant tensor:
#      x y z
#    x 3.983710 0.000000 0.011070 
#    y 0.000000 3.789290 0.000000 
#    z 0.011070 0.000000 4.109220 
# 
# 
# High freq. dielectric constant tensor:
#      x y z
#    x 1.819900 0.000000 0.000200 
#    y 0.000000 1.796790 0.000000 
#    z 0.000200 0.000000 1.822170 
# 
# From -- ./inp_files/73876.got.cif
#   From: 2010.06.25/outbox.cif.g09.slc.cpg/sg11_37_cif.got.tgz:73876.got - 2010.06.27 23:14:04.
