data_PCOD8072101
_publ_section_title
;
Structure prediction by ZEFSAII (Michael W. Deem and Ramdas Pophale) SiO2 
 PCOD8072101
Probable space group: P 21/M
;
_chemical_formula_sum "Si O2"
_cell_formula_units_Z 32
_cell_length_a 12.151461
_cell_length_b 8.640030
_cell_length_c 20.713494
_cell_angle_alpha 90.000000
_cell_angle_beta 52.341473
_cell_angle_gamma 90.000000
_cell_volume 1721.627098
_symmetry_space_group_name_H-M "P 21/M"
_symmetry_group_IT_number 11
_symmetry_cell_setting 'monoclinic'
loop_
_space_group_symop_operation_xyz
x,y,z
-x,1/2+y,-z
-x,-y,-z
x,1/2-y,z
loop_
_atom_site_type_symbol
_atom_site_label
_atom_site_fract_x
_atom_site_fract_y
_atom_site_fract_z
Si Si1 0.153878 0.071926 0.253525
Si Si2 0.582548 0.932196 0.030762
Si Si3 0.585229 0.568551 0.528628
Si Si4 0.552931 0.928721 0.794831
Si Si5 0.446339 0.067766 0.702904
Si Si6 0.849965 0.431655 0.883324
Si Si7 0.124775 0.068452 0.629070
Si Si8 0.845062 0.932684 0.236839
O O1 0.145398 0.250000 0.234287
O O2 0.283035 0.045520 0.254730
O O3 0.175019 0.965498 0.183207
O O4 0.014909 0.022045 0.342136
O O5 0.557981 0.750000 0.043467
O O6 0.531025 0.012484 0.113702
O O7 0.500000 0.000000 0.000000
O O8 0.745557 0.969726 0.964644
O O9 0.500000 0.500000 0.500000
O O10 0.562449 0.750000 0.534283
O O11 0.538589 0.505226 0.613881
O O12 0.748528 0.526468 0.463599
O O13 0.516907 0.750000 0.796262
O O14 0.507855 0.026329 0.749587
O O15 0.448588 0.250000 0.692044
O O16 0.287281 0.003216 0.755449
O O17 0.824864 0.250000 0.904045
O O18 0.006869 0.484739 0.846642
O O19 0.091461 0.250000 0.640915
O O20 0.166863 0.008913 0.685337
O O21 0.841030 0.750000 0.238696
#
# Coordination Sequence:
#
# PCOD8072101 Si02
#       8
#     4   4   4   4   4   4   4   4
#     4  10  20  34  55  83 115 147 190 239 284 341
#     4  12  23  37  59  88 116 149 193 240 285 338
#     4  11  21  36  58  87 118 152 193 241 288 340
#     4  11  24  41  58  83 118 154 191 237 290 345
#     4  11  22  39  60  85 117 154 195 236 286 350
#     4  10  19  34  58  85 116 149 185 235 288 338
#     4   9  18  34  56  82 115 148 186 236 288 338
#     4   8  16  33  55  82 114 148 185 231 283 334
#
# _framework density 18.587067999999999
#
# number of rings (size 3 to 8) (size 9 to 14) (size 15 to 20)
#    0.000    1.750    2.500    3.750    0.000    2.500 
#    0.000    3.125    0.000    0.000    0.000    0.000 
#    0.000    0.000    0.000    0.000    0.000    0.000 
#
# Total GULP energy -396788.821237 kJ/mol
# GULP energy per Si atom -12399.650664 kJ/mol
# Density = 1.854476 g / cm^3
# Si number density = 18.587068 Si / 1000 Ang^3
#
#
#
# Elastic Constant Matrix: (Units=GPa)
#
#
# Indices 1 2 3 4 5 6 
#
# 1 102.5389 13.3311 59.1407 0.0000 -21.2211 0.0000
# 2 13.3311 29.5068 13.6740 0.0000 -21.4336 0.0000
# 3 59.1407 13.6740 113.8192 0.0000 -19.3143 0.0000
# 4 0.0000 0.0000 0.0000 33.4215 0.0000 -2.0192
# 5 -21.2211 -21.4336 -19.3143 0.0000 31.0466 0.0000
# 6 0.0000 0.0000 0.0000 -2.0192 0.0000 28.2668
#
#
#
# Elastic Compliance Matrix: (Units=1/GPa)
#
#
# Indices 1 2 3 4 5 6 
#
# 1 0.014891 0.001491 -0.006724 0.000000 0.007024 0.000000
# 2 0.001491 0.068137 -0.000900 0.000000 0.047499 0.000000
# 3 -0.006724 -0.000900 0.012860 0.000000 0.002783 0.000000
# 4 0.000000 0.000000 0.000000 0.030051 0.000000 0.002147
# 5 0.007024 0.047499 0.002783 0.000000 0.071534 0.000000
# 6 0.000000 0.000000 0.000000 0.002147 0.000000 0.035531
#
#
# Mechanical properties :
#
#
# Convention : Reuss Voigt Hill
#
# Bulk Modulus (GPa) = 11.95881 46.46183 29.21032
# Shear Modulus (GPa) = 18.30540 29.19491 23.75016
#
# Velocity S-wave (km/s) = 3.14163 3.96752 3.57848
# Velocity P-wave (km/s) = 4.42806 6.78523 5.72918
#
# Compressibility (1/GPa) = 0.08362033
#
# Stress axis : x y z
#
# Youngs Moduli (GPa) = 67.15632 14.67633 77.75919
#
# Poissons Ratio (x) = -0.02188 0.52288
# Poissons Ratio (y) = -0.10013 0.07001
# Poissons Ratio (z) = 0.45158 0.01321
#
# Static dielectric constant tensor:
#      x y z
#    x 3.568090 0.000000 -0.353770 
#    y 0.000000 3.429790 0.000000 
#    z -0.353770 0.000000 3.638690 
# 
# 
# High freq. dielectric constant tensor:
#      x y z
#    x 1.712170 0.000000 -0.028080 
#    y 0.000000 1.723500 0.000000 
#    z -0.028080 0.000000 1.718980 
# 
# From -- ./inp_files/64369.got.cif
#   From: 2010.06.25/outbox.cif.g09.slc.cpg/sg11_33_cif.got.tgz:64369.got - 2010.06.27 23:14:04.
