data_PCOD8072575
_publ_section_title
;
Structure prediction by ZEFSAII (Michael W. Deem and Ramdas Pophale) SiO2 
 PCOD8072575
Probable space group: P 21/M
;
_chemical_formula_sum "Si O2"
_cell_formula_units_Z 24
_cell_length_a 10.406203
_cell_length_b 14.455204
_cell_length_c 13.214693
_cell_angle_alpha 90.000000
_cell_angle_beta 34.708398
_cell_angle_gamma 90.000000
_cell_volume 1131.855736
_symmetry_space_group_name_H-M "P 21/M"
_symmetry_group_IT_number 11
_symmetry_cell_setting 'monoclinic'
loop_
_space_group_symop_operation_xyz
x,y,z
-x,1/2+y,-z
-x,-y,-z
x,1/2-y,z
loop_
_atom_site_type_symbol
_atom_site_label
_atom_site_fract_x
_atom_site_fract_y
_atom_site_fract_z
Si Si1 0.522817 0.849917 0.515196
Si Si2 0.666195 0.574533 0.215161
Si Si3 0.299685 0.051021 0.407703
Si Si4 0.558344 0.639562 0.888432
Si Si5 0.855562 0.014960 0.791655
Si Si6 0.071436 0.927149 0.837258
O O1 0.594585 0.750000 0.508655
O O2 0.624420 0.862575 0.338432
O O3 0.624024 0.921700 0.528443
O O4 0.251345 0.854104 0.677686
O O5 0.434701 0.546679 0.304516
O O6 0.794359 0.479283 0.160207
O O7 0.844966 0.625061 0.024454
O O8 0.377666 0.122479 0.270753
O O9 0.027176 0.039947 0.587693
O O10 0.570018 0.750000 0.902804
O O11 0.732119 0.581296 0.844336
O O12 0.310938 0.600907 0.078056
O O13 0.002838 0.000199 0.795862
#
# Coordination Sequence:
#
# PCOD8072575 Si02
#       6
#     4   4   4   4   4   4
#     4  11  22  34  57  94 128 155 201 254 298 366
#     4  10  19  36  62  89 118 157 200 240 304 374
#     4  11  20  41  65  87 117 163 204 251 313 366
#     4  11  26  42  62  93 120 158 218 262 305 366
#     4  11  22  43  67  86 123 168 201 259 316 360
#     4  10  19  37  62  85 116 163 200 232 308 372
#
# _framework density 21.204115999999999
#
# number of rings (size 3 to 8) (size 9 to 14) (size 15 to 20)
#    0.000    1.333    5.000    2.000    0.000    2.667 
#    0.000    0.000    0.000    0.000    0.000    0.000 
#    0.000    0.000    0.000    0.000    0.000    0.000 
#
# Total GULP energy -297363.328840 kJ/mol
# GULP energy per Si atom -12390.138702 kJ/mol
# Density = 2.115585 g / cm^3
# Si number density = 21.204116 Si / 1000 Ang^3
#
#
#
# Elastic Constant Matrix: (Units=GPa)
#
#
# Indices 1 2 3 4 5 6 
#
# 1 40.6140 17.9590 26.3290 0.0000 -0.4831 0.0000
# 2 17.9590 91.5275 40.7243 0.0000 -7.4096 0.0000
# 3 26.3290 40.7243 188.3280 0.0000 -4.0233 0.0000
# 4 0.0000 0.0000 0.0000 19.0041 0.0000 5.4820
# 5 -0.4831 -7.4096 -4.0233 0.0000 28.3459 0.0000
# 6 0.0000 0.0000 0.0000 5.4820 0.0000 18.6424
#
#
#
# Elastic Compliance Matrix: (Units=1/GPa)
#
#
# Indices 1 2 3 4 5 6 
#
# 1 0.028510 -0.004313 -0.003076 0.000000 -0.001078 0.000000
# 2 -0.004313 0.012966 -0.002137 0.000000 0.003013 0.000000
# 3 -0.003076 -0.002137 0.006208 0.000000 0.000270 0.000000
# 4 0.000000 0.000000 0.000000 0.057497 0.000000 -0.016908
# 5 -0.001078 0.003013 0.000270 0.000000 0.036086 0.000000
# 6 0.000000 0.000000 0.000000 -0.016908 0.000000 0.058613
#
#
# Mechanical properties :
#
#
# Convention : Reuss Voigt Hill
#
# Bulk Modulus (GPa) = 34.92407 54.49933 44.71170
# Shear Modulus (GPa) = 21.88409 28.89565 25.38987
#
# Velocity S-wave (km/s) = 3.21607 3.69553 3.46411
# Velocity P-wave (km/s) = 5.50427 6.63079 6.09361
#
# Compressibility (1/GPa) = 0.02863354
#
# Stress axis : x y z
#
# Youngs Moduli (GPa) = 35.07480 77.12226 161.08877
#
# Poissons Ratio (x) = 0.33260 0.49556
# Poissons Ratio (y) = 0.15127 0.34418
# Poissons Ratio (z) = 0.10790 0.16478
#
# Static dielectric constant tensor:
#      x y z
#    x 3.644310 0.000000 -0.205460 
#    y 0.000000 3.393440 0.000000 
#    z -0.205460 0.000000 4.656620 
# 
# 
# High freq. dielectric constant tensor:
#      x y z
#    x 1.818780 0.000000 -0.003110 
#    y 0.000000 1.783470 0.000000 
#    z -0.003110 0.000000 1.868430 
# 
# From -- ./inp_files/39553.got.cif
#   From: 2010.06.25/outbox.cif.g09.slc.cpg/sg11_20_cif.got.tgz:39553.got - 2010.06.27 23:14:04.
