data_PCOD8072229
_publ_section_title
;
Structure prediction by ZEFSAII (Michael W. Deem and Ramdas Pophale) SiO2 
 PCOD8072229
Probable space group: P 21/M
;
_chemical_formula_sum "Si O2"
_cell_formula_units_Z 20
_cell_length_a 8.862495
_cell_length_b 16.082848
_cell_length_c 12.767115
_cell_angle_alpha 90.000000
_cell_angle_beta 148.713740
_cell_angle_gamma 90.000000
_cell_volume 945.022005
_symmetry_space_group_name_H-M "P 21/M"
_symmetry_group_IT_number 11
_symmetry_cell_setting 'monoclinic'
loop_
_space_group_symop_operation_xyz
x,y,z
-x,1/2+y,-z
-x,-y,-z
x,1/2-y,z
loop_
_atom_site_type_symbol
_atom_site_label
_atom_site_fract_x
_atom_site_fract_y
_atom_site_fract_z
Si Si1 0.836622 0.387795 0.353639
Si Si2 0.372388 0.750000 0.906383
Si Si3 0.250000 0.513497 0.500000
Si Si4 0.780518 0.750000 0.683646
Si Si5 0.872390 0.250000 0.906384
Si Si6 0.663378 0.387795 0.646362
Si Si7 0.280520 0.250000 0.683647
O O1 0.965556 0.458363 0.354037
O O2 0.100520 0.332549 0.554284
O O3 0.605543 0.332129 0.152811
O O4 0.671841 0.429728 0.353418
O O5 0.058533 0.750000 0.774431
O O6 0.633111 0.750000 0.143111
O O7 0.534442 0.458361 0.645964
O O8 0.171843 0.570271 0.353419
O O9 0.600519 0.832549 0.554283
O O10 0.866887 0.750000 0.856888
O O11 0.894458 0.332129 0.847190
O O12 0.558534 0.250000 0.774432
#
# Coordination Sequence:
#
# PCOD8072229 Si02
#       7
#     4   2   4   2   2   4   2
#     4  10  19  38  55  79 105 141 171 222 255 316
#     4  10  19  35  57  78 103 143 180 210 256 316
#     4  10  20  34  58  78 110 136 172 214 278 298
#     4  10  19  35  57  78 103 143 180 210 256 316
#     4  10  19  35  57  78 103 143 180 210 256 316
#     4  10  19  38  55  79 105 141 171 222 255 316
#     4  10  19  35  57  78 103 143 180 210 256 316
#
# _framework density 21.163530000000002
#
# number of rings (size 3 to 8) (size 9 to 14) (size 15 to 20)
#    0.000    2.000    4.000    1.200    0.000    3.200 
#    0.000   16.000    0.000    0.000    0.000    0.000 
#    0.000    0.000    0.000    0.000    0.000    0.000 
#
# Total GULP energy -248059.971628 kJ/mol
# GULP energy per Si atom -12402.998581 kJ/mol
# Density = 2.111536 g / cm^3
# Si number density = 21.163530 Si / 1000 Ang^3
#
#
#
# Elastic Constant Matrix: (Units=GPa)
#
#
# Indices 1 2 3 4 5 6 
#
# 1 108.7087 55.3195 23.2126 0.0000 -35.4504 0.0000
# 2 55.3195 126.1437 42.3765 0.0000 -29.8337 0.0000
# 3 23.2126 42.3765 106.3880 0.0000 -29.9134 0.0000
# 4 0.0000 0.0000 0.0000 11.0546 0.0000 -19.5564
# 5 -35.4504 -29.8337 -29.9134 0.0000 31.4804 0.0000
# 6 0.0000 0.0000 0.0000 -19.5564 0.0000 34.1800
#
#
#
# Elastic Compliance Matrix: (Units=1/GPa)
#
#
# Indices 1 2 3 4 5 6 
#
# 1 0.016251 -0.004024 0.002907 0.000000 0.017249 0.000000
# 2 -0.004024 0.011484 -0.002607 0.000000 0.003875 0.000000
# 3 0.002907 -0.002607 0.013686 0.000000 0.013808 0.000000
# 4 0.000000 0.000000 0.000000 -7.420083 0.000000 -4.245456
# 5 0.017249 0.003875 0.013808 0.000000 0.067983 0.000000
# 6 0.000000 0.000000 0.000000 -4.245456 0.000000 -2.399813
#
#
# Mechanical properties :
#
#
# Convention : Reuss Voigt Hill
#
# Bulk Modulus (GPa) = 29.43433 64.78418 47.10926
# Shear Modulus (GPa) = -0.51590 30.03180 14.75795
#
# Velocity S-wave (km/s) = -0.49427 3.77110 2.64356
# Velocity P-wave (km/s) = 3.68951 7.04551 5.62369
#
# Compressibility (1/GPa) = 0.03397393
#
# Stress axis : x y z
#
# Youngs Moduli (GPa) = 61.53561 87.07521 73.06725
#
# Poissons Ratio (x) = 0.35036 -0.21240
# Poissons Ratio (y) = 0.24760 0.19048
# Poissons Ratio (z) = -0.17888 0.22699
#
# Static dielectric constant tensor:
#      x y z
#    x 3.839060 0.000000 -0.436100 
#    y 0.000000 4.102290 0.000000 
#    z -0.436100 0.000000 3.565040 
# 
# 
# High freq. dielectric constant tensor:
#      x y z
#    x 1.831670 0.000000 -0.030160 
#    y 0.000000 1.846890 0.000000 
#    z -0.030160 0.000000 1.796850 
# 
# From -- ./inp_files/18256.got.cif
#   From: 2010.06.25/outbox.cif.g09.slc.cpg/sg11_10_cif.got.tgz:18256.got - 2010.06.27 23:14:04.
