data_PCOD8072295
_publ_section_title
;
Structure prediction by ZEFSAII (Michael W. Deem and Ramdas Pophale) SiO2 
 PCOD8072295
Probable space group: P 21/M
;
_chemical_formula_sum "Si O2"
_cell_formula_units_Z 32
_cell_length_a 12.619963
_cell_length_b 8.963827
_cell_length_c 31.444571
_cell_angle_alpha 90.000000
_cell_angle_beta 152.382211
_cell_angle_gamma 90.000000
_cell_volume 1648.973323
_symmetry_space_group_name_H-M "P 21/M"
_symmetry_group_IT_number 11
_symmetry_cell_setting 'monoclinic'
loop_
_space_group_symop_operation_xyz
x,y,z
-x,1/2+y,-z
-x,-y,-z
x,1/2-y,z
loop_
_atom_site_type_symbol
_atom_site_label
_atom_site_fract_x
_atom_site_fract_y
_atom_site_fract_z
Si Si1 0.222658 0.914894 0.093056
Si Si2 0.597130 0.916464 0.156736
Si Si3 0.070256 0.927410 0.436607
Si Si4 0.845792 0.921555 0.713437
Si Si5 0.371740 0.576596 0.916220
Si Si6 0.960694 0.574467 0.659621
Si Si7 0.544579 0.925657 0.373602
Si Si8 0.568084 0.573692 0.284470
O O1 0.147977 0.750000 0.081279
O O2 0.374081 0.905420 0.105250
O O3 0.366772 0.992832 0.182746
O O4 0.000000 0.000000 0.000000
O O5 0.691508 0.750000 0.180225
O O6 0.524349 0.001086 0.088411
O O7 0.785019 0.009838 0.248848
O O8 0.083692 0.750000 0.438534
O O9 0.816648 0.986243 0.358243
O O10 0.236532 0.984898 0.532387
O O11 0.159481 0.996043 0.423467
O O12 0.772866 0.750000 0.694572
O O13 0.099891 0.949972 0.821436
O O14 0.831977 0.961589 0.658229
O O15 0.679788 0.029409 0.680060
O O16 0.431073 0.750000 0.936522
O O17 0.500000 0.500000 0.000000
O O18 0.972820 0.750000 0.656383
O O19 0.587263 0.750000 0.393839
O O20 0.512284 0.971113 0.312941
O O21 0.573269 0.750000 0.279671
#
# Coordination Sequence:
#
# PCOD8072295 Si02
#       8
#     4   4   4   4   4   4   4   4
#     4  10  21  38  58  85 117 152 194 240 293 351
#     4  10  19  35  58  82 114 152 191 238 295 352
#     4  11  21  38  63  86 115 155 194 240 299 356
#     4   9  21  40  57  80 118 155 190 240 295 348
#     4  10  21  37  59  86 116 151 198 246 292 352
#     4  10  20  36  60  87 114 147 195 246 288 345
#     4  11  23  38  59  87 118 154 197 244 290 351
#     4   9  20  40  60  82 117 155 194 240 292 346
#
# _framework density 19.406015
#
# number of rings (size 3 to 8) (size 9 to 14) (size 15 to 20)
#    0.000    2.000    1.250    3.000    0.000    5.500 
#    0.000    5.625    0.000    0.000    0.000    0.000 
#    0.000    0.000    0.000    0.000    0.000    0.000 
#
# Total GULP energy -396781.812996 kJ/mol
# GULP energy per Si atom -12399.431656 kJ/mol
# Density = 1.936185 g / cm^3
# Si number density = 19.406015 Si / 1000 Ang^3
#
#
#
# Elastic Constant Matrix: (Units=GPa)
#
#
# Indices 1 2 3 4 5 6 
#
# 1 111.4192 55.0221 62.4255 0.0000 -11.1885 0.0000
# 2 55.0221 99.8766 50.5497 0.0000 -9.6074 0.0000
# 3 62.4255 50.5497 131.1078 0.0000 -19.5836 0.0000
# 4 0.0000 0.0000 0.0000 36.5552 0.0000 -1.3014
# 5 -11.1885 -9.6074 -19.5836 0.0000 28.6829 0.0000
# 6 0.0000 0.0000 0.0000 -1.3014 0.0000 27.5293
#
#
#
# Elastic Compliance Matrix: (Units=1/GPa)
#
#
# Indices 1 2 3 4 5 6 
#
# 1 0.014341 -0.005507 -0.004616 0.000000 0.000598 0.000000
# 2 -0.005507 0.014580 -0.002885 0.000000 0.000766 0.000000
# 3 -0.004616 -0.002885 0.011719 0.000000 0.005235 0.000000
# 4 0.000000 0.000000 0.000000 0.027402 0.000000 0.001295
# 5 0.000598 0.000766 0.005235 0.000000 0.038928 0.000000
# 6 0.000000 0.000000 0.000000 0.001295 0.000000 0.036386
#
#
# Mechanical properties :
#
#
# Convention : Reuss Voigt Hill
#
# Bulk Modulus (GPa) = 68.37629 75.37759 71.87694
# Shear Modulus (GPa) = 28.69519 30.18056 29.43787
#
# Velocity S-wave (km/s) = 3.84953 3.94790 3.89902
# Velocity P-wave (km/s) = 7.42089 7.72709 7.57554
#
# Compressibility (1/GPa) = 0.01462495
#
# Stress axis : x y z
#
# Youngs Moduli (GPa) = 69.73245 68.58800 85.32955
#
# Poissons Ratio (x) = 0.37769 0.39385
# Poissons Ratio (y) = 0.38399 0.24618
# Poissons Ratio (z) = 0.32186 0.19788
#
# Static dielectric constant tensor:
#      x y z
#    x 3.585840 0.000000 -0.164300 
#    y 0.000000 5.384090 0.000000 
#    z -0.164300 0.000000 3.547520 
# 
# 
# High freq. dielectric constant tensor:
#      x y z
#    x 1.758970 0.000000 -0.012620 
#    y 0.000000 1.752690 0.000000 
#    z -0.012620 0.000000 1.756240 
# 
# From -- ./inp_files/73153.got.cif
#   From: 2010.06.25/outbox.cif.g09.slc.cpg/sg11_37_cif.got.tgz:73153.got - 2010.06.27 23:14:04.
