data_PCOD8072143
_publ_section_title
;
Structure prediction by ZEFSAII (Michael W. Deem and Ramdas Pophale) SiO2 
 PCOD8072143
Probable space group: P 21/M
;
_chemical_formula_sum "Si O2"
_cell_formula_units_Z 32
_cell_length_a 11.577599
_cell_length_b 19.097940
_cell_length_c 9.382605
_cell_angle_alpha 90.000000
_cell_angle_beta 126.140528
_cell_angle_gamma 90.000000
_cell_volume 1675.367962
_symmetry_space_group_name_H-M "P 21/M"
_symmetry_group_IT_number 11
_symmetry_cell_setting 'monoclinic'
loop_
_space_group_symop_operation_xyz
x,y,z
-x,1/2+y,-z
-x,-y,-z
x,1/2-y,z
loop_
_atom_site_type_symbol
_atom_site_label
_atom_site_fract_x
_atom_site_fract_y
_atom_site_fract_z
Si Si1 0.141721 0.172088 0.583003
Si Si2 0.765028 0.673793 0.675032
Si Si3 0.068765 0.561959 0.636696
Si Si4 0.461880 0.670413 0.340290
Si Si5 0.365682 0.950809 0.439907
Si Si6 0.422213 0.103104 0.850719
Si Si7 0.614962 0.443862 0.228634
Si Si8 0.085220 0.461218 0.184784
O O1 0.125083 0.250000 0.634095
O O2 0.189859 0.173090 0.455736
O O3 0.260285 0.129325 0.759584
O O4 0.989664 0.133303 0.477917
O O5 0.800380 0.750000 0.769092
O O6 0.595087 0.661002 0.546172
O O7 0.849264 0.613243 0.822472
O O8 0.238265 0.563408 0.750812
O O9 0.974263 0.446463 0.230203
O O10 0.000000 0.500000 0.500000
O O11 0.402235 0.750000 0.303498
O O12 0.348298 0.613290 0.314988
O O13 0.499891 0.654791 0.203560
O O14 0.380685 0.916329 0.607171
O O15 0.500000 0.000000 0.500000
O O16 0.218603 0.993590 0.335528
O O17 0.428265 0.025195 0.791403
O O18 0.499733 0.102968 0.060210
O O19 0.000000 0.500000 0.000000
#
# Coordination Sequence:
#
# PCOD8072143 Si02
#       8
#     4   4   4   4   4   4   4   4
#     4   9  17  34  59  83 111 154 196 234 289 357
#     4   8  15  33  58  82 108 145 196 240 286 350
#     4  11  20  39  58  83 122 157 194 238 297 362
#     4  10  20  37  61  86 117 158 196 242 302 361
#     4  12  21  39  60  87 120 155 200 249 300 357
#     4  10  19  34  59  92 116 148 197 259 295 349
#     4  11  22  35  60  92 120 154 197 253 308 347
#     4  11  23  35  59  91 116 156 199 249 297 350
#
# _framework density 19.100282
#
# number of rings (size 3 to 8) (size 9 to 14) (size 15 to 20)
#    0.000    1.750    5.000    1.875    1.750    0.000 
#    0.000    3.750    0.000    2.250    0.000    0.000 
#    0.000    0.000    0.000    0.000    0.000    0.000 
#
# Total GULP energy -396699.746683 kJ/mol
# GULP energy per Si atom -12396.867084 kJ/mol
# Density = 1.905681 g / cm^3
# Si number density = 19.100282 Si / 1000 Ang^3
#
#
#
# Elastic Constant Matrix: (Units=GPa)
#
#
# Indices 1 2 3 4 5 6 
#
# 1 69.9427 15.8832 21.9405 0.0000 0.0257 0.0000
# 2 15.8832 120.6806 39.5587 0.0000 -0.9967 0.0000
# 3 21.9405 39.5587 102.7548 0.0000 2.2994 0.0000
# 4 0.0000 0.0000 0.0000 30.0922 0.0000 2.3792
# 5 0.0257 -0.9967 2.2994 0.0000 21.3051 0.0000
# 6 0.0000 0.0000 0.0000 2.3792 0.0000 23.5105
#
#
#
# Elastic Compliance Matrix: (Units=1/GPa)
#
#
# Indices 1 2 3 4 5 6 
#
# 1 0.015449 -0.001085 -0.002886 0.000000 0.000242 0.000000
# 2 -0.001085 0.009574 -0.003473 0.000000 0.000824 0.000000
# 3 -0.002886 -0.003473 0.011717 0.000000 -0.001424 0.000000
# 4 0.000000 0.000000 0.000000 0.033499 0.000000 -0.003390
# 5 0.000242 0.000824 -0.001424 0.000000 0.047129 0.000000
# 6 0.000000 0.000000 0.000000 -0.003390 0.000000 0.042877
#
#
# Mechanical properties :
#
#
# Convention : Reuss Voigt Hill
#
# Bulk Modulus (GPa) = 45.76238 49.79366 47.77802
# Shear Modulus (GPa) = 27.40950 29.38127 28.39539
#
# Velocity S-wave (km/s) = 3.79229 3.92633 3.85989
# Velocity P-wave (km/s) = 6.57163 6.83234 6.70325
#
# Compressibility (1/GPa) = 0.02185201
#
# Stress axis : x y z
#
# Youngs Moduli (GPa) = 64.72829 104.44641 85.34619
#
# Poissons Ratio (x) = 0.11334 0.24634
# Poissons Ratio (y) = 0.07024 0.29638
# Poissons Ratio (z) = 0.18683 0.36271
#
# Static dielectric constant tensor:
#      x y z
#    x 3.905760 0.000000 0.204360 
#    y 0.000000 4.255950 0.000000 
#    z 0.204360 0.000000 3.396650 
# 
# 
# High freq. dielectric constant tensor:
#      x y z
#    x 1.725670 0.000000 0.008460 
#    y 0.000000 1.746160 0.000000 
#    z 0.008460 0.000000 1.720680 
# 
# From -- ./inp_files/19423.got.cif
#   From: 2010.06.25/outbox.cif.g09.slc.cpg/sg11_10_cif.got.tgz:19423.got - 2010.06.27 23:14:04.
