data_PCOD8072055
_publ_section_title
;
Structure prediction by ZEFSAII (Michael W. Deem and Ramdas Pophale) SiO2 
 PCOD8072055
Probable space group: P 21/M
;
_chemical_formula_sum "Si O2"
_cell_formula_units_Z 32
_cell_length_a 11.665486
_cell_length_b 13.836023
_cell_length_c 19.919178
_cell_angle_alpha 90.000000
_cell_angle_beta 148.842189
_cell_angle_gamma 90.000000
_cell_volume 1663.448877
_symmetry_space_group_name_H-M "P 21/M"
_symmetry_group_IT_number 11
_symmetry_cell_setting 'monoclinic'
loop_
_space_group_symop_operation_xyz
x,y,z
-x,1/2+y,-z
-x,-y,-z
x,1/2-y,z
loop_
_atom_site_type_symbol
_atom_site_label
_atom_site_fract_x
_atom_site_fract_y
_atom_site_fract_z
Si Si1 0.540566 0.862482 0.546789
Si Si2 0.666505 0.362941 0.690578
Si Si3 0.845095 0.860234 0.117327
Si Si4 0.260524 0.637447 0.531811
Si Si5 0.928733 0.862722 0.834201
Si Si6 0.359545 0.523174 0.063439
Si Si7 0.615971 0.979443 0.771190
Si Si8 0.789368 0.639323 0.244347
O O1 0.492524 0.750000 0.512772
O O2 0.483838 0.908184 0.445570
O O3 0.371633 0.899902 0.518566
O O4 0.791520 0.883360 0.696633
O O5 0.622118 0.250000 0.681156
O O6 0.602073 0.418173 0.725930
O O7 0.920724 0.384071 0.799516
O O8 0.775771 0.750000 0.069443
O O9 0.657322 0.926194 0.989250
O O10 0.860942 0.881769 0.204121
O O11 0.313828 0.750000 0.570829
O O12 0.377614 0.575174 0.649192
O O13 0.998497 0.618670 0.397551
O O14 0.937591 0.750000 0.855038
O O15 0.808573 0.913079 0.836608
O O16 0.174539 0.901536 0.945754
O O17 0.319256 0.498673 0.120354
O O18 0.598756 0.568264 0.172374
O O19 0.710756 0.750000 0.212924
#
# Coordination Sequence:
#
# PCOD8072055 Si02
#       8
#     4   4   4   4   4   4   4   4
#     4   8  15  31  55  81 106 136 184 237 281 323
#     4  10  19  34  57  85 116 146 187 240 287 335
#     4  10  21  38  60  83 111 149 195 239 280 332
#     4   9  18  36  61  85 107 142 191 239 283 330
#     4  10  21  36  55  83 118 151 185 233 289 340
#     4  12  24  38  54  85 121 155 190 224 279 345
#     4  11  23  36  54  85 120 150 189 225 281 349
#     4  10  21  40  64  84 106 144 196 245 285 331
#
# _framework density 19.237141000000001
#
# number of rings (size 3 to 8) (size 9 to 14) (size 15 to 20)
#    0.000    2.000    2.500    2.250    0.000    5.500 
#    0.000    0.000    0.000    0.750    0.000    0.000 
#    0.000    0.000    0.000    0.000    0.000    0.000 
#
# Total GULP energy -396820.863478 kJ/mol
# GULP energy per Si atom -12400.651984 kJ/mol
# Density = 1.919336 g / cm^3
# Si number density = 19.237141 Si / 1000 Ang^3
#
#
#
# Elastic Constant Matrix: (Units=GPa)
#
#
# Indices 1 2 3 4 5 6 
#
# 1 32.8814 26.6161 15.4339 0.0000 8.1667 0.0000
# 2 26.6161 81.2664 37.9739 0.0000 9.0561 0.0000
# 3 15.4339 37.9739 74.9197 0.0000 13.4849 0.0000
# 4 0.0000 0.0000 0.0000 30.5522 0.0000 9.8357
# 5 8.1667 9.0561 13.4849 0.0000 29.5571 0.0000
# 6 0.0000 0.0000 0.0000 9.8357 0.0000 20.8483
#
#
#
# Elastic Compliance Matrix: (Units=1/GPa)
#
#
# Indices 1 2 3 4 5 6 
#
# 1 0.043131 -0.012801 -0.001044 0.000000 -0.007519 0.000000
# 2 -0.012801 0.019970 -0.007649 0.000000 0.000908 0.000000
# 3 -0.001044 -0.007649 0.018484 0.000000 -0.005801 0.000000
# 4 0.000000 0.000000 0.000000 0.038592 0.000000 -0.018207
# 5 -0.007519 0.000908 -0.005801 0.000000 0.038279 0.000000
# 6 0.000000 0.000000 0.000000 -0.018207 0.000000 0.056555
#
#
# Mechanical properties :
#
#
# Convention : Reuss Voigt Hill
#
# Bulk Modulus (GPa) = 25.90723 38.79059 32.34891
# Shear Modulus (GPa) = 18.45944 23.46108 20.96026
#
# Velocity S-wave (km/s) = 3.10106 3.49603 3.30445
# Velocity P-wave (km/s) = 5.13017 6.04189 5.60460
#
# Compressibility (1/GPa) = 0.03859926
#
# Stress axis : x y z
#
# Youngs Moduli (GPa) = 23.18505 50.07388 54.10206
#
# Poissons Ratio (x) = 0.64097 0.05647
# Poissons Ratio (y) = 0.29678 0.41381
# Poissons Ratio (z) = 0.02420 0.38300
#
# Static dielectric constant tensor:
#      x y z
#    x 3.143830 0.000000 0.005140 
#    y 0.000000 3.594710 0.000000 
#    z 0.005140 0.000000 3.709470 
# 
# 
# High freq. dielectric constant tensor:
#      x y z
#    x 1.710300 0.000000 -0.001250 
#    y 0.000000 1.759250 0.000000 
#    z -0.001250 0.000000 1.757180 
# 
# From -- ./inp_files/59492.got.cif
#   From: 2010.06.25/outbox.cif.g09.slc.cpg/sg11_30_cif.got.tgz:59492.got - 2010.06.27 23:14:04.
