data_PCOD8072902
_publ_section_title
;
Structure prediction by ZEFSAII (Michael W. Deem and Ramdas Pophale) SiO2 
 PCOD8072902
Probable space group: P 21/M
;
_chemical_formula_sum "Si O2"
_cell_formula_units_Z 32
_cell_length_a 33.345798
_cell_length_b 8.826751
_cell_length_c 22.262752
_cell_angle_alpha 90.000000
_cell_angle_beta 162.105112
_cell_angle_gamma 90.000000
_cell_volume 2013.461928
_symmetry_space_group_name_H-M "P 21/M"
_symmetry_group_IT_number 11
_symmetry_cell_setting 'monoclinic'
loop_
_space_group_symop_operation_xyz
x,y,z
-x,1/2+y,-z
-x,-y,-z
x,1/2-y,z
loop_
_atom_site_type_symbol
_atom_site_label
_atom_site_fract_x
_atom_site_fract_y
_atom_site_fract_z
Si Si1 0.825126 0.075903 0.264839
Si Si2 0.194308 0.569857 0.164317
Si Si3 0.254853 0.574323 0.026013
Si Si4 0.641498 0.929144 0.707834
Si Si5 0.044140 0.422268 0.657271
Si Si6 0.426659 0.578524 0.154624
Si Si7 0.694164 0.074691 0.550434
Si Si8 0.040739 0.572247 0.120218
O O1 0.853260 0.250000 0.283040
O O2 0.888008 0.051972 0.421338
O O3 0.888376 0.954582 0.310342
O O4 0.668226 0.050973 0.038388
O O5 0.196466 0.750000 0.161461
O O6 0.265987 0.496023 0.210880
O O7 0.263321 0.508176 0.323805
O O8 0.043123 0.511858 0.947711
O O9 0.260606 0.750000 0.052494
O O10 0.299438 0.470067 0.143803
O O11 0.348481 0.534918 0.103626
O O12 0.105028 0.531194 0.795011
O O13 0.631179 0.750000 0.686082
O O14 0.500000 0.000000 0.500000
O O15 0.071596 0.250000 0.715963
O O16 0.473759 0.750000 0.225961
O O17 0.556214 0.482940 0.330658
O O18 0.679721 0.250000 0.541354
O O19 0.802706 0.042487 0.653132
O O20 0.009161 0.750000 0.076303
O O21 0.000000 0.500000 0.000000
#
# Coordination Sequence:
#
# PCOD8072902 Si02
#       8
#     4   4   4   4   4   4   4   4
#     4   8  15  26  38  57  85 114 144 179 219 263
#     4  10  20  34  49  65  86 115 151 189 226 263
#     4  10  20  33  45  61  87 118 153 190 223 259
#     4  12  24  36  49  66  89 119 153 187 223 260
#     4   9  15  25  42  60  80 110 147 184 221 261
#     4   9  17  27  41  61  87 118 148 178 215 259
#     4   9  18  29  43  64  89 114 142 178 219 263
#     4   9  17  30  46  65  87 112 144 183 226 269
#
# _framework density 15.893025
#
# number of rings (size 3 to 8) (size 9 to 14) (size 15 to 20)
#    0.000    2.500    0.000    4.875    0.000    8.000 
#    0.000    0.000    0.000    0.000    0.000    0.000 
#    0.000    1.000    0.000    3.000    0.000    4.875 
#
# Total GULP energy -396472.150933 kJ/mol
# GULP energy per Si atom -12389.754717 kJ/mol
# Density = 1.585685 g / cm^3
# Si number density = 15.893025 Si / 1000 Ang^3
#
#
#
# Elastic Constant Matrix: (Units=GPa)
#
#
# Indices 1 2 3 4 5 6 
#
# 1 52.6184 26.7341 46.2421 0.0000 8.7362 0.0000
# 2 26.7341 68.1506 37.6282 0.0000 6.7078 0.0000
# 3 46.2421 37.6282 123.5294 0.0000 1.1056 0.0000
# 4 0.0000 0.0000 0.0000 29.4079 0.0000 1.2444
# 5 8.7362 6.7078 1.1056 0.0000 22.7318 0.0000
# 6 0.0000 0.0000 0.0000 1.2444 0.0000 21.5034
#
#
#
# Elastic Compliance Matrix: (Units=1/GPa)
#
#
# Indices 1 2 3 4 5 6 
#
# 1 0.032979 -0.006196 -0.010366 0.000000 -0.010342 0.000000
# 2 -0.006196 0.019378 -0.003555 0.000000 -0.003164 0.000000
# 3 -0.010366 -0.003555 0.013019 0.000000 0.004399 0.000000
# 4 0.000000 0.000000 0.000000 0.034088 0.000000 -0.001973
# 5 -0.010342 -0.003164 0.004399 0.000000 0.048685 0.000000
# 6 0.000000 0.000000 0.000000 -0.001973 0.000000 0.046618
#
#
# Mechanical properties :
#
#
# Convention : Reuss Voigt Hill
#
# Bulk Modulus (GPa) = 39.77203 51.72302 45.74752
# Shear Modulus (GPa) = 20.54376 23.64156 22.09266
#
# Velocity S-wave (km/s) = 3.59921 3.86105 3.73243
# Velocity P-wave (km/s) = 6.50781 7.24514 6.88635
#
# Compressibility (1/GPa) = 0.02514330
#
# Stress axis : x y z
#
# Youngs Moduli (GPa) = 30.32199 51.60426 76.81063
#
# Poissons Ratio (x) = 0.31974 0.79619
# Poissons Ratio (y) = 0.18788 0.27307
# Poissons Ratio (z) = 0.31431 0.18346
#
# Static dielectric constant tensor:
#      x y z
#    x 2.803090 0.000000 0.058850 
#    y 0.000000 3.401470 0.000000 
#    z 0.058850 0.000000 3.636430 
# 
# 
# High freq. dielectric constant tensor:
#      x y z
#    x 1.554510 0.000000 -0.003150 
#    y 0.000000 1.623890 0.000000 
#    z -0.003150 0.000000 1.617860 
# 
# From -- ./inp_files/67414.got.cif
#   From: 2010.06.25/outbox.cif.g09.slc.cpg/sg11_34_cif.got.tgz:67414.got - 2010.06.27 23:14:04.
