data_PCOD8072053
_publ_section_title
;
Structure prediction by ZEFSAII (Michael W. Deem and Ramdas Pophale) SiO2 
 PCOD8072053
Probable space group: P 21/M
;
_chemical_formula_sum "Si O2"
_cell_formula_units_Z 32
_cell_length_a 15.051621
_cell_length_b 18.992332
_cell_length_c 9.345918
_cell_angle_alpha 90.000000
_cell_angle_beta 37.399272
_cell_angle_gamma 90.000000
_cell_volume 1622.683533
_symmetry_space_group_name_H-M "P 21/M"
_symmetry_group_IT_number 11
_symmetry_cell_setting 'monoclinic'
loop_
_space_group_symop_operation_xyz
x,y,z
-x,1/2+y,-z
-x,-y,-z
x,1/2-y,z
loop_
_atom_site_type_symbol
_atom_site_label
_atom_site_fract_x
_atom_site_fract_y
_atom_site_fract_z
Si Si1 0.378830 0.829608 0.781760
Si Si2 0.296112 0.331555 0.714984
Si Si3 0.792134 0.670914 0.871918
Si Si4 0.113972 0.669192 0.570398
Si Si5 0.148004 0.062683 0.423528
Si Si6 0.921821 0.568080 0.172463
Si Si7 0.813372 0.421173 0.771034
Si Si8 0.841083 0.170267 0.170575
O O1 0.344400 0.750000 0.884741
O O2 0.551210 0.843250 0.560697
O O3 0.318481 0.834205 0.696447
O O4 0.302537 0.892589 0.966074
O O5 0.240207 0.250000 0.763776
O O6 0.182973 0.389967 0.802691
O O7 0.322069 0.343734 0.852746
O O8 0.785508 0.750000 0.824899
O O9 0.765359 0.627666 0.760052
O O10 0.945089 0.653076 0.754534
O O11 0.154508 0.750000 0.506611
O O12 0.211299 0.630058 0.330563
O O13 0.159509 0.639958 0.667589
O O14 0.171006 0.050472 0.564388
O O15 0.976624 0.076982 0.622770
O O16 0.218984 0.999072 0.243663
O O17 0.000000 0.500000 0.000000
O O18 0.047903 0.621987 0.061849
O O19 0.901437 0.250000 0.093133
#
# Coordination Sequence:
#
# PCOD8072053 Si02
#       8
#     4   4   4   4   4   4   4   4
#     4  10  21  38  61  87 116 153 195 240 293 352
#     4  10  22  41  62  86 120 155 190 239 297 354
#     4   9  18  34  56  82 112 151 193 237 297 347
#     4   9  16  29  53  82 109 145 189 241 291 336
#     4  10  22  34  55  84 119 152 192 247 290 339
#     4  12  23  37  59  88 118 154 199 247 291 342
#     4  10  19  35  53  82 121 151 191 238 290 350
#     4  10  19  34  57  85 113 144 197 248 286 341
#
# _framework density 19.720420000000001
#
# number of rings (size 3 to 8) (size 9 to 14) (size 15 to 20)
#    0.000    2.000    2.500    1.500    3.500    1.500 
#    0.000    4.375    0.000    3.000    0.000    0.000 
#    0.000    0.000    0.000    0.000    0.000    0.000 
#
# Total GULP energy -396464.136181 kJ/mol
# GULP energy per Si atom -12389.504256 kJ/mol
# Density = 1.967554 g / cm^3
# Si number density = 19.720420 Si / 1000 Ang^3
#
#
#
# Elastic Constant Matrix: (Units=GPa)
#
#
# Indices 1 2 3 4 5 6 
#
# 1 47.7066 40.0689 32.3243 0.0000 14.4040 0.0000
# 2 40.0689 105.1264 62.3329 0.0000 11.6974 0.0000
# 3 32.3243 62.3329 95.4830 0.0000 20.0630 0.0000
# 4 0.0000 0.0000 0.0000 36.6357 0.0000 3.4290
# 5 14.4040 11.6974 20.0630 0.0000 35.6708 0.0000
# 6 0.0000 0.0000 0.0000 3.4290 0.0000 17.7637
#
#
#
# Elastic Compliance Matrix: (Units=1/GPa)
#
#
# Indices 1 2 3 4 5 6 
#
# 1 0.034327 -0.010295 -0.003058 0.000000 -0.008765 0.000000
# 2 -0.010295 0.018622 -0.009369 0.000000 0.003320 0.000000
# 3 -0.003058 -0.009369 0.018961 0.000000 -0.006357 0.000000
# 4 0.000000 0.000000 0.000000 0.027798 0.000000 -0.005366
# 5 -0.008765 0.003320 -0.006357 0.000000 0.034060 0.000000
# 6 0.000000 0.000000 0.000000 -0.005366 0.000000 0.057330
#
#
# Mechanical properties :
#
#
# Convention : Reuss Voigt Hill
#
# Bulk Modulus (GPa) = 37.78666 57.52980 47.65823
# Shear Modulus (GPa) = 20.37778 25.58670 22.98224
#
# Velocity S-wave (km/s) = 3.21804 3.60595 3.41750
# Velocity P-wave (km/s) = 5.74547 6.82446 6.30808
#
# Compressibility (1/GPa) = 0.02646437
#
# Stress axis : x y z
#
# Youngs Moduli (GPa) = 29.13166 53.69920 52.74080
#
# Poissons Ratio (x) = 0.55283 0.16130
# Poissons Ratio (y) = 0.29991 0.49415
# Poissons Ratio (z) = 0.08910 0.50313
#
# Static dielectric constant tensor:
#      x y z
#    x 3.382890 0.000000 0.309060 
#    y 0.000000 3.760980 0.000000 
#    z 0.309060 0.000000 3.602050 
# 
# 
# High freq. dielectric constant tensor:
#      x y z
#    x 1.741360 0.000000 0.028010 
#    y 0.000000 1.775770 0.000000 
#    z 0.028010 0.000000 1.754370 
# 
# From -- ./inp_files/23074.got.cif
#   From: 2010.06.25/outbox.cif.g09.slc.cpg/sg11_12_cif.got.tgz:23074.got - 2010.06.27 23:14:04.
