data_PCOD8072484
_publ_section_title
;
Structure prediction by ZEFSAII (Michael W. Deem and Ramdas Pophale) SiO2 
 PCOD8072484
Probable space group: P 21/M
;
_chemical_formula_sum "Si O2"
_cell_formula_units_Z 32
_cell_length_a 24.263684
_cell_length_b 9.000708
_cell_length_c 15.704734
_cell_angle_alpha 90.000000
_cell_angle_beta 151.597708
_cell_angle_gamma 90.000000
_cell_volume 1631.398580
_symmetry_space_group_name_H-M "P 21/M"
_symmetry_group_IT_number 11
_symmetry_cell_setting 'monoclinic'
loop_
_space_group_symop_operation_xyz
x,y,z
-x,1/2+y,-z
-x,-y,-z
x,1/2-y,z
loop_
_atom_site_type_symbol
_atom_site_label
_atom_site_fract_x
_atom_site_fract_y
_atom_site_fract_z
Si Si1 0.002054 0.581510 0.746856
Si Si2 0.590118 0.425093 0.687639
Si Si3 0.356599 0.573664 0.050266
Si Si4 0.094462 0.579458 0.685502
Si Si5 0.119846 0.419723 0.174923
Si Si6 0.804231 0.918852 0.903924
Si Si7 0.478826 0.427187 0.880716
Si Si8 0.231803 0.077214 0.494662
O O1 0.024745 0.750000 0.809234
O O2 0.864484 0.547336 0.563203
O O3 0.049133 0.556474 0.717940
O O4 0.065672 0.466591 0.895478
O O5 0.500000 0.500000 0.500000
O O6 0.569817 0.250000 0.653994
O O7 0.584139 0.478746 0.779104
O O8 0.717999 0.466051 0.830483
O O9 0.349071 0.750000 0.044630
O O10 0.431581 0.519771 0.071068
O O11 0.225076 0.511189 0.858737
O O12 0.097738 0.750000 0.661736
O O13 0.000000 0.500000 0.500000
O O14 0.088748 0.250000 0.153370
O O15 0.205634 0.431424 0.211118
O O16 0.187784 0.493058 0.346221
O O17 0.000000 0.500000 0.000000
O O18 0.779105 0.750000 0.899754
O O19 0.482500 0.250000 0.895330
O O20 0.353780 0.493792 0.685573
O O21 0.500000 0.500000 0.000000
O O22 0.255695 0.250000 0.513290
#
# Coordination Sequence:
#
# PCOD8072484 Si02
#       8
#     4   4   4   4   4   4   4   4
#     4  10  19  36  59  82 114 153 195 236 291 358
#     4  11  23  41  63  87 118 159 202 246 296 356
#     4   9  20  40  63  84 115 156 196 235 291 360
#     4  10  21  37  58  86 112 147 190 237 295 350
#     4  10  20  34  55  84 116 153 193 233 281 348
#     4  11  22  35  56  88 121 153 194 242 294 350
#     4  10  22  41  63  84 111 152 198 244 292 348
#     4   9  19  35  58  82 110 153 195 231 284 349
#
# _framework density 19.615072000000001
#
# number of rings (size 3 to 8) (size 9 to 14) (size 15 to 20)
#    0.000    2.000    2.500    0.750    3.500    1.000 
#    0.000    2.500    0.000    0.000    0.000    0.000 
#    0.000    0.000    0.000    0.000    0.000    0.000 
#
# Total GULP energy -396623.662414 kJ/mol
# GULP energy per Si atom -12394.489450 kJ/mol
# Density = 1.957043 g / cm^3
# Si number density = 19.615072 Si / 1000 Ang^3
#
#
#
# Elastic Constant Matrix: (Units=GPa)
#
#
# Indices 1 2 3 4 5 6 
#
# 1 147.1081 35.8225 77.7497 0.0000 5.8686 0.0000
# 2 35.8225 44.3838 37.2269 0.0000 -5.3411 0.0000
# 3 77.7497 37.2269 172.4406 0.0000 -0.8939 0.0000
# 4 0.0000 0.0000 0.0000 32.9384 0.0000 -2.8644
# 5 5.8686 -5.3411 -0.8939 0.0000 30.2680 0.0000
# 6 0.0000 0.0000 0.0000 -2.8644 0.0000 18.7820
#
#
#
# Elastic Compliance Matrix: (Units=1/GPa)
#
#
# Indices 1 2 3 4 5 6 
#
# 1 0.010065 -0.005704 -0.003322 0.000000 -0.003056 0.000000
# 2 -0.005704 0.031425 -0.004178 0.000000 0.006528 0.000000
# 3 -0.003322 -0.004178 0.008200 0.000000 0.000149 0.000000
# 4 0.000000 0.000000 0.000000 0.030768 0.000000 0.004692
# 5 -0.003056 0.006528 0.000149 0.000000 0.034787 0.000000
# 6 0.000000 0.000000 0.000000 0.004692 0.000000 0.053958
#
#
# Mechanical properties :
#
#
# Convention : Reuss Voigt Hill
#
# Bulk Modulus (GPa) = 42.95641 73.94786 58.45214
# Shear Modulus (GPa) = 24.58552 30.60658 27.59605
#
# Velocity S-wave (km/s) = 3.54418 3.95443 3.75491
# Velocity P-wave (km/s) = 6.22057 7.65711 6.97592
#
# Compressibility (1/GPa) = 0.02327941
#
# Stress axis : x y z
#
# Youngs Moduli (GPa) = 99.35778 31.82194 121.95390
#
# Poissons Ratio (x) = 0.18153 0.40516
# Poissons Ratio (y) = 0.56678 0.50955
# Poissons Ratio (z) = 0.33009 0.13296
#
# Static dielectric constant tensor:
#      x y z
#    x 3.697030 0.000000 -0.021010 
#    y 0.000000 3.296740 0.000000 
#    z -0.021010 0.000000 4.066520 
# 
# 
# High freq. dielectric constant tensor:
#      x y z
#    x 1.778300 0.000000 0.000150 
#    y 0.000000 1.729850 0.000000 
#    z 0.000150 0.000000 1.771820 
# 
# From -- ./inp_files/55763.got.cif
#   From: 2010.06.25/outbox.cif.g09.slc.cpg/sg11_28_cif.got.tgz:55763.got - 2010.06.27 23:14:04.
