data_PCOD8072677
_publ_section_title
;
Structure prediction by ZEFSAII (Michael W. Deem and Ramdas Pophale) SiO2 
 PCOD8072677
Probable space group: P 21/M
;
_chemical_formula_sum "Si O2"
_cell_formula_units_Z 32
_cell_length_a 23.784327
_cell_length_b 13.860628
_cell_length_c 9.126133
_cell_angle_alpha 90.000000
_cell_angle_beta 29.738114
_cell_angle_gamma 90.000000
_cell_volume 1492.361727
_symmetry_space_group_name_H-M "P 21/M"
_symmetry_group_IT_number 11
_symmetry_cell_setting 'monoclinic'
loop_
_space_group_symop_operation_xyz
x,y,z
-x,1/2+y,-z
-x,-y,-z
x,1/2-y,z
loop_
_atom_site_type_symbol
_atom_site_label
_atom_site_fract_x
_atom_site_fract_y
_atom_site_fract_z
Si Si1 0.177795 0.859361 0.931790
Si Si2 0.585539 0.360054 0.495418
Si Si3 0.554259 0.137955 0.246164
Si Si4 0.704399 0.640218 0.180849
Si Si5 0.883531 0.481783 0.681691
Si Si6 0.035844 0.482876 0.081572
Si Si7 0.419193 0.484328 0.044969
Si Si8 0.756933 0.640155 0.394558
O O1 0.140743 0.750000 0.983171
O O2 0.313574 0.874686 0.613519
O O3 0.111075 0.928035 0.972071
O O4 0.159267 0.883590 0.145993
O O5 0.546934 0.250000 0.576886
O O6 0.618850 0.390106 0.251833
O O7 0.477611 0.417358 0.793016
O O8 0.566866 0.250000 0.176765
O O9 0.422546 0.111653 0.577403
O O10 0.606782 0.082572 0.986382
O O11 0.736210 0.750000 0.064362
O O12 0.701479 0.627561 0.361840
O O13 0.795335 0.569707 0.899985
O O14 0.000000 0.500000 0.500000
O O15 0.917084 0.468390 0.436395
O O16 0.110542 0.386173 0.919686
O O17 0.000000 0.500000 0.000000
O O18 0.303041 0.433068 0.357023
O O19 0.500000 0.500000 0.000000
O O20 0.745281 0.750000 0.477288
#
# Coordination Sequence:
#
# PCOD8072677 Si02
#       8
#     4   4   4   4   4   4   4   4
#     4  10  21  40  64  89 121 161 207 254 314 383
#     4  10  22  40  61  90 128 167 211 260 309 379
#     4  10  22  39  62  94 130 172 220 263 311 377
#     4  10  19  37  65  93 124 162 211 264 311 369
#     4  10  20  38  63  89 114 160 211 256 317 371
#     4  11  25  44  63  91 127 161 206 270 324 382
#     4  12  22  36  62  93 131 172 210 256 320 379
#     4  11  23  40  62  91 125 165 210 263 320 378
#
# _framework density 21.442523000000001
#
# number of rings (size 3 to 8) (size 9 to 14) (size 15 to 20)
#    0.000    1.500    3.750    2.250    0.000    5.500 
#    0.000    1.875    0.000    0.000    0.000    0.000 
#    0.000    0.000    0.000    0.000    0.000    0.000 
#
# Total GULP energy -396638.313511 kJ/mol
# GULP energy per Si atom -12394.947297 kJ/mol
# Density = 2.139372 g / cm^3
# Si number density = 21.442523 Si / 1000 Ang^3
#
#
#
# Elastic Constant Matrix: (Units=GPa)
#
#
# Indices 1 2 3 4 5 6 
#
# 1 105.4000 37.4174 20.4070 0.0000 13.7673 0.0000
# 2 37.4174 104.2364 57.4831 0.0000 5.8804 0.0000
# 3 20.4070 57.4831 103.5379 0.0000 16.7323 0.0000
# 4 0.0000 0.0000 0.0000 27.4139 0.0000 3.1315
# 5 13.7673 5.8804 16.7323 0.0000 32.0848 0.0000
# 6 0.0000 0.0000 0.0000 3.1315 0.0000 23.4715
#
#
#
# Elastic Compliance Matrix: (Units=1/GPa)
#
#
# Indices 1 2 3 4 5 6 
#
# 1 0.011457 -0.004349 0.000898 0.000000 -0.004587 0.000000
# 2 -0.004349 0.015554 -0.008320 0.000000 0.003354 0.000000
# 3 0.000898 -0.008320 0.015197 0.000000 -0.006786 0.000000
# 4 0.000000 0.000000 0.000000 0.037042 0.000000 -0.004942
# 5 -0.004587 0.003354 -0.006786 0.000000 0.036060 0.000000
# 6 0.000000 0.000000 0.000000 -0.004942 0.000000 0.043264
#
#
# Mechanical properties :
#
#
# Convention : Reuss Voigt Hill
#
# Bulk Modulus (GPa) = 53.57617 60.42102 56.99860
# Shear Modulus (GPa) = 26.54788 29.78515 28.16651
#
# Velocity S-wave (km/s) = 3.52247 3.73107 3.62827
# Velocity P-wave (km/s) = 6.44856 6.84108 6.64772
#
# Compressibility (1/GPa) = 0.01866501
#
# Stress axis : x y z
#
# Youngs Moduli (GPa) = 87.28352 64.29302 65.80125
#
# Poissons Ratio (x) = 0.27960 -0.05907
# Poissons Ratio (y) = 0.37959 0.54748
# Poissons Ratio (z) = -0.07835 0.53493
#
# Static dielectric constant tensor:
#      x y z
#    x 3.577050 0.000000 0.841710 
#    y 0.000000 3.894040 0.000000 
#    z 0.841710 0.000000 2.644130 
# 
# 
# High freq. dielectric constant tensor:
#      x y z
#    x 1.837860 0.000000 -0.001400 
#    y 0.000000 1.847070 0.000000 
#    z -0.001400 0.000000 1.834660 
# 
# From -- ./inp_files/27777.got.cif
#   From: 2010.06.25/outbox.cif.g09.slc.cpg/sg11_14_cif.got.tgz:27777.got - 2010.06.27 23:14:04.
