data_PCOD8072104
_publ_section_title
;
Structure prediction by ZEFSAII (Michael W. Deem and Ramdas Pophale) SiO2 
 PCOD8072104
Probable space group: P 21/M
;
_chemical_formula_sum "Si O2"
_cell_formula_units_Z 28
_cell_length_a 8.658969
_cell_length_b 15.384588
_cell_length_c 11.995957
_cell_angle_alpha 90.000000
_cell_angle_beta 119.367746
_cell_angle_gamma 90.000000
_cell_volume 1392.673701
_symmetry_space_group_name_H-M "P 21/M"
_symmetry_group_IT_number 11
_symmetry_cell_setting 'monoclinic'
loop_
_space_group_symop_operation_xyz
x,y,z
-x,1/2+y,-z
-x,-y,-z
x,1/2-y,z
loop_
_atom_site_type_symbol
_atom_site_label
_atom_site_fract_x
_atom_site_fract_y
_atom_site_fract_z
Si Si1 0.508510 0.150203 0.297003
Si Si2 0.611717 0.151656 0.776299
Si Si3 0.877012 0.844968 0.800066
Si Si4 0.571761 0.500547 0.152985
Si Si5 0.656421 0.069701 0.554377
Si Si6 0.967070 0.991417 0.245371
Si Si7 0.992104 0.655442 0.080399
O O1 0.532838 0.250000 0.265989
O O2 0.326780 0.136648 0.303646
O O3 0.656895 0.124920 0.440342
O O4 0.508678 0.088110 0.189239
O O5 0.537219 0.250000 0.764087
O O6 0.494060 0.085029 0.804083
O O7 0.625065 0.130340 0.649970
O O8 0.808829 0.143075 0.895034
O O9 0.939205 0.750000 0.779466
O O10 0.013024 0.913846 0.800740
O O11 0.866160 0.848476 0.929797
O O12 0.783832 0.505009 0.246976
O O13 0.500000 0.500000 0.000000
O O14 0.854531 0.028643 0.622714
O O15 0.500000 0.000000 0.500000
O O16 0.931843 0.919772 0.139840
O O17 0.974906 0.750000 0.134210
#
# Coordination Sequence:
#
# PCOD8072104 Si02
#       7
#     4   4   4   4   4   4   4
#     4  11  23  41  64  88 120 160 203 253 303 352
#     4  10  21  39  63  88 118 159 202 252 301 352
#     4  10  19  34  58  86 112 152 205 253 296 347
#     4  12  25  39  59  92 132 166 194 237 307 377
#     4  11  20  42  67  85 112 152 210 259 294 340
#     4  11  22  35  60  85 121 158 197 243 301 356
#     4   9  18  34  58  85 113 150 205 254 293 344
#
# _framework density 20.105212999999999
#
# number of rings (size 3 to 8) (size 9 to 14) (size 15 to 20)
#    0.000    1.429    2.857    3.429    0.000    2.857 
#    0.000    0.000    0.000    0.000    0.000    0.000 
#    0.000    0.000    0.000    0.000    0.000    0.000 
#
# Total GULP energy -347064.551422 kJ/mol
# GULP energy per Si atom -12395.162551 kJ/mol
# Density = 2.005945 g / cm^3
# Si number density = 20.105213 Si / 1000 Ang^3
#
#
#
# Elastic Constant Matrix: (Units=GPa)
#
#
# Indices 1 2 3 4 5 6 
#
# 1 80.0306 55.4638 15.8890 0.0000 3.4582 0.0000
# 2 55.4638 165.4435 34.4415 0.0000 -9.9497 0.0000
# 3 15.8890 34.4415 88.9421 0.0000 -2.8398 0.0000
# 4 0.0000 0.0000 0.0000 36.3258 0.0000 -30.4570
# 5 3.4582 -9.9497 -2.8398 0.0000 29.1608 0.0000
# 6 0.0000 0.0000 0.0000 -30.4570 0.0000 131.4631
#
#
#
# Elastic Compliance Matrix: (Units=1/GPa)
#
#
# Indices 1 2 3 4 5 6 
#
# 1 0.016787 -0.005676 -0.000929 0.000000 -0.004018 0.000000
# 2 -0.005676 0.008612 -0.002212 0.000000 0.003396 0.000000
# 3 -0.000929 -0.002212 0.012284 0.000000 0.000552 0.000000
# 4 0.000000 0.000000 0.000000 0.034165 0.000000 0.007915
# 5 -0.004018 0.003396 0.000552 0.000000 0.035982 0.000000
# 6 0.000000 0.000000 0.000000 0.007915 0.000000 0.009440
#
#
# Mechanical properties :
#
#
# Convention : Reuss Voigt Hill
#
# Bulk Modulus (GPa) = 49.88207 60.66721 55.27464
# Shear Modulus (GPa) = 35.31389 54.63140 44.97265
#
# Velocity S-wave (km/s) = 4.19555 5.21840 4.73468
# Velocity P-wave (km/s) = 6.95231 8.15778 7.57905
#
# Compressibility (1/GPa) = 0.02004728
#
# Stress axis : x y z
#
# Youngs Moduli (GPa) = 59.57025 116.11728 81.40910
#
# Poissons Ratio (x) = 0.65907 0.07565
# Poissons Ratio (y) = 0.33811 0.18012
# Poissons Ratio (z) = 0.05536 0.25691
#
# Static dielectric constant tensor:
#      x y z
#    x 3.434800 0.000000 0.266750 
#    y 0.000000 3.910990 0.000000 
#    z 0.266750 0.000000 3.795650 
# 
# 
# High freq. dielectric constant tensor:
#      x y z
#    x 1.761730 0.000000 0.022620 
#    y 0.000000 1.804840 0.000000 
#    z 0.022620 0.000000 1.786300 
# 
# From -- ./inp_files/17952.got.cif
#   From: 2010.06.25/outbox.cif.g09.slc.cpg/sg11_9_cif.got.tgz:17952.got - 2010.06.27 23:14:04.
