data_PCOD8072761
_publ_section_title
;
Structure prediction by ZEFSAII (Michael W. Deem and Ramdas Pophale) SiO2 
 PCOD8072761
Probable space group: P 21/M
;
_chemical_formula_sum "Si O2"
_cell_formula_units_Z 32
_cell_length_a 13.014988
_cell_length_b 9.559708
_cell_length_c 14.871689
_cell_angle_alpha 90.000000
_cell_angle_beta 72.784644
_cell_angle_gamma 90.000000
_cell_volume 1767.431483
_symmetry_space_group_name_H-M "P 21/M"
_symmetry_group_IT_number 11
_symmetry_cell_setting 'monoclinic'
loop_
_space_group_symop_operation_xyz
x,y,z
-x,1/2+y,-z
-x,-y,-z
x,1/2-y,z
loop_
_atom_site_type_symbol
_atom_site_label
_atom_site_fract_x
_atom_site_fract_y
_atom_site_fract_z
Si Si1 0.111741 0.418769 0.988949
Si Si2 0.208474 0.590515 0.815864
Si Si3 0.390955 0.912175 0.625657
Si Si4 0.191362 0.097480 0.162826
Si Si5 0.251571 0.904246 0.295152
Si Si6 0.044084 0.600476 0.713718
Si Si7 0.398661 0.586418 0.419739
Si Si8 0.993878 0.403420 0.586078
O O1 0.096067 0.250000 0.983535
O O2 0.203642 0.478079 0.897456
O O3 0.160511 0.461575 0.072896
O O4 0.000000 0.500000 0.000000
O O5 0.227386 0.750000 0.845937
O O6 0.295657 0.547553 0.718413
O O7 0.091637 0.576757 0.800030
O O8 0.422219 0.750000 0.626801
O O9 0.355302 0.946171 0.531950
O O10 0.492589 0.003209 0.627862
O O11 0.246948 0.250000 0.139058
O O12 0.083316 0.113281 0.247802
O O13 0.270589 0.997867 0.200440
O O14 0.296781 0.750000 0.260769
O O15 0.312309 0.964629 0.367609
O O16 0.126646 0.892625 0.348509
O O17 0.089910 0.750000 0.663911
O O18 0.072172 0.472719 0.640509
O O19 0.423274 0.750000 0.403235
O O20 0.039825 0.250000 0.551830
O O21 0.000000 0.500000 0.500000
#
# Coordination Sequence:
#
# PCOD8072761 Si02
#       8
#     4   4   4   4   4   4   4   4
#     4  11  21  34  53  77 107 143 179 215 260 307
#     4  10  20  34  53  77 105 140 174 212 264 312
#     4   9  19  34  55  79 105 136 171 213 262 315
#     4   9  18  33  50  72 102 135 170 207 250 299
#     4   9  19  33  52  74  97 132 172 211 256 306
#     4   9  17  31  48  66  98 136 168 203 248 298
#     4   9  18  35  56  77 103 135 172 215 263 311
#     4  10  20  31  44  67  98 133 172 207 249 301
#
# _framework density 18.105369
#
# number of rings (size 3 to 8) (size 9 to 14) (size 15 to 20)
#    0.000    2.500    1.250    0.750    1.750    3.000 
#    0.000    0.000    0.000    0.750    0.000    0.000 
#    0.000    0.000    0.000    0.000    0.000    0.000 
#
# Total GULP energy -396513.786590 kJ/mol
# GULP energy per Si atom -12391.055831 kJ/mol
# Density = 1.806416 g / cm^3
# Si number density = 18.105369 Si / 1000 Ang^3
#
#
#
# Elastic Constant Matrix: (Units=GPa)
#
#
# Indices 1 2 3 4 5 6 
#
# 1 45.0011 28.3418 32.1604 0.0000 11.6390 0.0000
# 2 28.3418 107.7329 67.9504 0.0000 14.7168 0.0000
# 3 32.1604 67.9504 112.7641 0.0000 17.7947 0.0000
# 4 0.0000 0.0000 0.0000 34.5912 0.0000 3.0821
# 5 11.6390 14.7168 17.7947 0.0000 29.1046 0.0000
# 6 0.0000 0.0000 0.0000 3.0821 0.0000 25.1986
#
#
#
# Elastic Compliance Matrix: (Units=1/GPa)
#
#
# Indices 1 2 3 4 5 6 
#
# 1 0.030092 -0.003622 -0.005301 0.000000 -0.006961 0.000000
# 2 -0.003622 0.015546 -0.008105 0.000000 -0.001457 0.000000
# 3 -0.005301 -0.008105 0.015808 0.000000 -0.003447 0.000000
# 4 0.000000 0.000000 0.000000 0.029228 0.000000 -0.003575
# 5 -0.006961 -0.001457 -0.003447 0.000000 0.039987 0.000000
# 6 0.000000 0.000000 0.000000 -0.003575 0.000000 0.040122
#
#
# Mechanical properties :
#
#
# Convention : Reuss Voigt Hill
#
# Bulk Modulus (GPa) = 36.51018 58.04481 47.27750
# Shear Modulus (GPa) = 23.36796 26.91526 25.14161
#
# Velocity S-wave (km/s) = 3.59648 3.85981 3.73047
# Velocity P-wave (km/s) = 6.12008 7.21064 6.68763
#
# Compressibility (1/GPa) = 0.02738962
#
# Stress axis : x y z
#
# Youngs Moduli (GPa) = 33.23172 64.32442 63.25941
#
# Poissons Ratio (x) = 0.23297 0.33535
# Poissons Ratio (y) = 0.12036 0.51272
# Poissons Ratio (z) = 0.17617 0.52135
#
# Static dielectric constant tensor:
#      x y z
#    x 3.062490 0.000000 0.196580 
#    y 0.000000 3.751840 0.000000 
#    z 0.196580 0.000000 3.396070 
# 
# 
# High freq. dielectric constant tensor:
#      x y z
#    x 1.663940 0.000000 0.018220 
#    y 0.000000 1.708500 0.000000 
#    z 0.018220 0.000000 1.697510 
# 
# From -- ./inp_files/51231.got.cif
#   From: 2010.06.25/outbox.cif.g09.slc.cpg/sg11_26_cif.got.tgz:51231.got - 2010.06.27 23:14:04.
