data_PCOD8072787
_publ_section_title
;
Structure prediction by ZEFSAII (Michael W. Deem and Ramdas Pophale) SiO2 
 PCOD8072787
Probable space group: P 21/M
;
_chemical_formula_sum "Si O2"
_cell_formula_units_Z 32
_cell_length_a 14.411803
_cell_length_b 8.989322
_cell_length_c 17.165473
_cell_angle_alpha 90.000000
_cell_angle_beta 116.643917
_cell_angle_gamma 90.000000
_cell_volume 1987.680659
_symmetry_space_group_name_H-M "P 21/M"
_symmetry_group_IT_number 11
_symmetry_cell_setting 'monoclinic'
loop_
_space_group_symop_operation_xyz
x,y,z
-x,1/2+y,-z
-x,-y,-z
x,1/2-y,z
loop_
_atom_site_type_symbol
_atom_site_label
_atom_site_fract_x
_atom_site_fract_y
_atom_site_fract_z
Si Si1 0.443569 0.426209 0.093294
Si Si2 0.682644 0.083403 0.365035
Si Si3 0.590460 0.574957 0.583991
Si Si4 0.441808 0.083133 0.259073
Si Si5 0.978033 0.422157 0.574218
Si Si6 0.640217 0.578436 0.098280
Si Si7 0.771679 0.922297 0.540044
Si Si8 0.196293 0.419228 0.718867
O O1 0.456137 0.250000 0.106388
O O2 0.401730 0.488983 0.161779
O O3 0.557204 0.488421 0.117224
O O4 0.363098 0.470999 0.994084
O O5 0.715392 0.250000 0.402609
O O6 0.564785 0.078100 0.295325
O O7 0.699246 0.970750 0.441805
O O8 0.753740 0.035421 0.320648
O O9 0.500000 0.500000 0.500000
O O10 0.563367 0.750000 0.576155
O O11 0.591880 0.504644 0.672453
O O12 0.704829 0.545571 0.592500
O O13 0.398678 0.250000 0.248629
O O14 0.959025 0.250000 0.548783
O O15 0.878509 0.487354 0.580888
O O16 0.000000 0.500000 0.500000
O O17 0.072770 0.445249 0.670488
O O18 0.607420 0.750000 0.091819
O O19 0.755715 0.551573 0.176799
O O20 0.799492 0.750000 0.541809
O O21 0.222016 0.250000 0.702129
#
# Coordination Sequence:
#
# PCOD8072787 Si02
#       8
#     4   4   4   4   4   4   4   4
#     4   9  16  28  45  66  92 121 150 182 223 274
#     4  11  19  28  47  68  93 126 158 189 224 270
#     4  10  20  33  48  67  92 122 156 194 230 272
#     4   9  17  29  45  68  93 121 156 188 222 269
#     4  11  22  34  49  67  92 123 159 196 232 277
#     4   9  17  28  44  66  93 120 148 184 227 273
#     4  11  22  34  47  66  94 124 158 197 234 271
#     4  10  20  32  45  66  94 123 155 191 230 272
#
# _framework density 16.099166
#
# number of rings (size 3 to 8) (size 9 to 14) (size 15 to 20)
#    0.000    2.000    3.750    1.125    0.000    1.000 
#    0.000    0.625    0.000    0.000    0.000    0.875 
#    0.000    0.000    0.000    0.000    0.000    0.000 
#
# Total GULP energy -396526.955333 kJ/mol
# GULP energy per Si atom -12391.467354 kJ/mol
# Density = 1.606252 g / cm^3
# Si number density = 16.099166 Si / 1000 Ang^3
#
#
#
# Elastic Constant Matrix: (Units=GPa)
#
#
# Indices 1 2 3 4 5 6 
#
# 1 77.5314 37.9922 51.6711 0.0000 -12.1482 0.0000
# 2 37.9922 53.9798 29.8639 0.0000 -1.1473 0.0000
# 3 51.6711 29.8639 141.0561 0.0000 -15.0088 0.0000
# 4 0.0000 0.0000 0.0000 15.3862 0.0000 1.5144
# 5 -12.1482 -1.1473 -15.0088 0.0000 27.2758 0.0000
# 6 0.0000 0.0000 0.0000 1.5144 0.0000 20.6395
#
#
#
# Elastic Compliance Matrix: (Units=1/GPa)
#
#
# Indices 1 2 3 4 5 6 
#
# 1 0.024469 -0.014208 -0.005162 0.000000 0.007460 0.000000
# 2 -0.014208 0.029304 -0.001638 0.000000 -0.005996 0.000000
# 3 -0.005162 -0.001638 0.009639 0.000000 0.002936 0.000000
# 4 0.000000 0.000000 0.000000 0.065466 0.000000 -0.004803
# 5 0.007460 -0.005996 0.002936 0.000000 0.041349 0.000000
# 6 0.000000 0.000000 0.000000 -0.004803 0.000000 0.048803
#
#
# Mechanical properties :
#
#
# Convention : Reuss Voigt Hill
#
# Bulk Modulus (GPa) = 46.73283 56.84685 51.78984
# Shear Modulus (GPa) = 18.64443 22.86297 20.75370
#
# Velocity S-wave (km/s) = 3.40678 3.77255 3.59432
# Velocity P-wave (km/s) = 6.67577 7.37315 7.03311
#
# Compressibility (1/GPa) = 0.02139823
#
# Stress axis : x y z
#
# Youngs Moduli (GPa) = 40.86803 34.12537 103.74205
#
# Poissons Ratio (x) = 0.48484 0.53547
# Poissons Ratio (y) = 0.58064 0.16989
# Poissons Ratio (z) = 0.21094 0.05588
#
# Static dielectric constant tensor:
#      x y z
#    x 2.935250 0.000000 -0.062140 
#    y 0.000000 3.095510 0.000000 
#    z -0.062140 0.000000 3.440950 
# 
# 
# High freq. dielectric constant tensor:
#      x y z
#    x 1.587920 0.000000 -0.002370 
#    y 0.000000 1.615290 0.000000 
#    z -0.002370 0.000000 1.621030 
# 
# From -- ./inp_files/59881.got.cif
#   From: 2010.06.25/outbox.cif.g09.slc.cpg/sg11_30_cif.got.tgz:59881.got - 2010.06.27 23:14:04.
