data_PCOD8072798
_publ_section_title
;
Structure prediction by ZEFSAII (Michael W. Deem and Ramdas Pophale) SiO2 
 PCOD8072798
Probable space group: P 21/M
;
_chemical_formula_sum "Si O2"
_cell_formula_units_Z 28
_cell_length_a 14.039694
_cell_length_b 9.282242
_cell_length_c 12.327850
_cell_angle_alpha 90.000000
_cell_angle_beta 76.557781
_cell_angle_gamma 90.000000
_cell_volume 1562.551358
_symmetry_space_group_name_H-M "P 21/M"
_symmetry_group_IT_number 11
_symmetry_cell_setting 'monoclinic'
loop_
_space_group_symop_operation_xyz
x,y,z
-x,1/2+y,-z
-x,-y,-z
x,1/2-y,z
loop_
_atom_site_type_symbol
_atom_site_label
_atom_site_fract_x
_atom_site_fract_y
_atom_site_fract_z
Si Si1 0.563849 0.915132 0.398464
Si Si2 0.094387 0.915463 0.593150
Si Si3 0.276979 0.917764 0.180802
Si Si4 0.679610 0.415742 0.067334
Si Si5 0.505126 0.086191 0.824766
Si Si6 0.745925 0.083691 0.281724
Si Si7 0.128423 0.419143 0.372815
O O1 0.574930 0.750000 0.431739
O O2 0.510159 0.930288 0.298678
O O3 0.500000 0.000000 0.500000
O O4 0.670596 0.985681 0.367400
O O5 0.106208 0.750000 0.553187
O O6 0.147451 0.944116 0.694365
O O7 0.980972 0.955069 0.639441
O O8 0.144315 0.012579 0.487232
O O9 0.263202 0.750000 0.215083
O O10 0.386608 0.971291 0.178094
O O11 0.201573 0.012545 0.267490
O O12 0.257773 0.945845 0.057787
O O13 0.649721 0.250000 0.081939
O O14 0.576649 0.498275 0.088589
O O15 0.745332 0.460616 0.154433
O O16 0.494798 0.250000 0.866420
O O17 0.714597 0.250000 0.303729
O O18 0.148629 0.250000 0.375204
#
# Coordination Sequence:
#
# PCOD8072798 Si02
#       7
#     4   4   4   4   4   4   4
#     4  10  20  32  46  71 104 135 170 210 248 297
#     4   9  19  37  57  74 101 134 165 208 265 313
#     4  10  20  34  52  75 105 138 169 206 253 301
#     4   9  18  33  53  77 102 132 173 210 244 297
#     4   9  19  33  49  70 101 139 171 202 251 299
#     4   9  18  34  55  74  97 134 169 205 257 306
#     4  10  21  35  53  79 102 128 170 215 254 303
#
# _framework density 17.919412000000001
#
# number of rings (size 3 to 8) (size 9 to 14) (size 15 to 20)
#    0.000    2.571    0.000    1.286    2.000    2.857 
#    0.000    0.714    0.000    0.000    0.000    0.000 
#    0.000    0.000    0.000    0.000    0.000    0.000 
#
# Total GULP energy -347201.029611 kJ/mol
# GULP energy per Si atom -12400.036772 kJ/mol
# Density = 1.787863 g / cm^3
# Si number density = 17.919412 Si / 1000 Ang^3
#
#
#
# Elastic Constant Matrix: (Units=GPa)
#
#
# Indices 1 2 3 4 5 6 
#
# 1 102.3424 42.3638 60.1591 0.0000 8.0152 0.0000
# 2 42.3638 78.6128 50.8570 0.0000 -7.9876 0.0000
# 3 60.1591 50.8570 100.6950 0.0000 -10.9286 0.0000
# 4 0.0000 0.0000 0.0000 24.4895 0.0000 -6.4623
# 5 8.0152 -7.9876 -10.9286 0.0000 22.5579 0.0000
# 6 0.0000 0.0000 0.0000 -6.4623 0.0000 27.9886
#
#
#
# Elastic Compliance Matrix: (Units=1/GPa)
#
#
# Indices 1 2 3 4 5 6 
#
# 1 0.018883 -0.004900 -0.010263 0.000000 -0.013416 0.000000
# 2 -0.004900 0.020268 -0.006693 0.000000 0.005675 0.000000
# 3 -0.010263 -0.006693 0.020668 0.000000 0.011290 0.000000
# 4 0.000000 0.000000 0.000000 0.043483 0.000000 0.010040
# 5 -0.013416 0.005675 0.011290 0.000000 0.056576 0.000000
# 6 0.000000 0.000000 0.000000 0.010040 0.000000 0.038047
#
#
# Mechanical properties :
#
#
# Convention : Reuss Voigt Hill
#
# Bulk Modulus (GPa) = 62.08403 65.37891 63.73147
# Shear Modulus (GPa) = 20.24250 23.55854 21.90052
#
# Velocity S-wave (km/s) = 3.36466 3.62980 3.49974
# Velocity P-wave (km/s) = 7.05805 7.35741 7.20928
#
# Compressibility (1/GPa) = 0.01610720
#
# Stress axis : x y z
#
# Youngs Moduli (GPa) = 52.95857 49.33983 48.38377
#
# Poissons Ratio (x) = 0.24175 0.49655
# Poissons Ratio (y) = 0.25948 0.32384
# Poissons Ratio (z) = 0.54350 0.33024
#
# Static dielectric constant tensor:
#      x y z
#    x 3.430560 0.000000 0.218950 
#    y 0.000000 3.418480 0.000000 
#    z 0.218950 0.000000 3.406100 
# 
# 
# High freq. dielectric constant tensor:
#      x y z
#    x 1.685870 0.000000 0.012640 
#    y 0.000000 1.695880 0.000000 
#    z 0.012640 0.000000 1.692520 
# 
# From -- ./inp_files/37398.got.cif
#   From: 2010.06.25/outbox.cif.g09.slc.cpg/sg11_19_cif.got.tgz:37398.got - 2010.06.27 23:14:04.
