data_PCOD8072775
_publ_section_title
;
Structure prediction by ZEFSAII (Michael W. Deem and Ramdas Pophale) SiO2 
 PCOD8072775
Probable space group: P 21/M
;
_chemical_formula_sum "Si O2"
_cell_formula_units_Z 32
_cell_length_a 10.964565
_cell_length_b 8.880200
_cell_length_c 20.165437
_cell_angle_alpha 90.000000
_cell_angle_beta 126.160085
_cell_angle_gamma 90.000000
_cell_volume 1585.240791
_symmetry_space_group_name_H-M "P 21/M"
_symmetry_group_IT_number 11
_symmetry_cell_setting 'monoclinic'
loop_
_space_group_symop_operation_xyz
x,y,z
-x,1/2+y,-z
-x,-y,-z
x,1/2-y,z
loop_
_atom_site_type_symbol
_atom_site_label
_atom_site_fract_x
_atom_site_fract_y
_atom_site_fract_z
Si Si1 0.923167 0.571223 0.873183
Si Si2 0.776400 0.071360 0.183933
Si Si3 0.166558 0.428104 0.544732
Si Si4 0.661649 0.570879 0.535048
Si Si5 0.736929 0.072269 0.027026
Si Si6 0.645675 0.075198 0.279862
Si Si7 0.339522 0.075128 0.123679
Si Si8 0.110874 0.071499 0.282668
O O1 0.921649 0.750000 0.874758
O O2 0.816170 0.506855 0.896831
O O3 0.850874 0.519959 0.779755
O O4 0.093685 0.513443 0.935792
O O5 0.784033 0.250000 0.181334
O O6 0.699747 0.014677 0.090053
O O7 0.686823 0.018388 0.219343
O O8 0.945287 0.007352 0.246737
O O9 0.142982 0.250000 0.535878
O O10 0.258013 0.481097 0.508152
O O11 0.271804 0.473890 0.639879
O O12 0.000000 0.500000 0.500000
O O13 0.500000 0.500000 0.500000
O O14 0.643596 0.750000 0.529984
O O15 0.768246 0.505868 0.627286
O O16 0.724854 0.250000 0.018480
O O17 0.625525 0.002478 0.936076
O O18 0.689670 0.250000 0.306002
O O19 0.465691 0.048706 0.221330
O O20 0.329259 0.250000 0.104108
O O21 0.110679 0.250000 0.289839
#
# Coordination Sequence:
#
# PCOD8072775 Si02
#       8
#     4   4   4   4   4   4   4   4
#     4   8  15  28  48  73  98 132 179 219 260 322
#     4   8  15  31  53  76 100 134 185 229 269 329
#     4  11  24  42  63  89 119 155 198 244 293 354
#     4  10  22  37  58  87 118 150 189 238 292 348
#     4   9  17  31  52  73  98 138 182 225 272 328
#     4  10  21  36  56  80 108 145 185 231 284 340
#     4  10  20  31  47  75 108 138 175 225 277 334
#     4   8  14  28  52  74  96 132 177 220 262 323
#
# _framework density 20.186209000000002
#
# number of rings (size 3 to 8) (size 9 to 14) (size 15 to 20)
#    0.000    2.750    0.000    3.000    1.750    4.000 
#    0.000    0.625    0.000    3.000    0.000    0.000 
#    0.000    0.000    0.000    0.000    0.000    0.000 
#
# Total GULP energy -396460.044359 kJ/mol
# GULP energy per Si atom -12389.376386 kJ/mol
# Density = 2.014026 g / cm^3
# Si number density = 20.186209 Si / 1000 Ang^3
#
#
#
# Elastic Constant Matrix: (Units=GPa)
#
#
# Indices 1 2 3 4 5 6 
#
# 1 89.4041 23.3256 23.2449 0.0000 -14.1147 0.0000
# 2 23.3256 33.2108 27.0063 0.0000 -3.6996 0.0000
# 3 23.2449 27.0063 120.2929 0.0000 -16.3931 0.0000
# 4 0.0000 0.0000 0.0000 30.6398 0.0000 -1.4662
# 5 -14.1147 -3.6996 -16.3931 0.0000 24.4922 0.0000
# 6 0.0000 0.0000 0.0000 -1.4662 0.0000 20.9392
#
#
#
# Elastic Compliance Matrix: (Units=1/GPa)
#
#
# Indices 1 2 3 4 5 6 
#
# 1 0.014823 -0.009881 0.000346 0.000000 0.007281 0.000000
# 2 -0.009881 0.043423 -0.008496 0.000000 -0.004822 0.000000
# 3 0.000346 -0.008496 0.011010 0.000000 0.006286 0.000000
# 4 0.000000 0.000000 0.000000 0.032747 0.000000 0.002293
# 5 0.007281 -0.004822 0.006286 0.000000 0.048504 0.000000
# 6 0.000000 0.000000 0.000000 0.002293 0.000000 0.047918
#
#
# Mechanical properties :
#
#
# Convention : Reuss Voigt Hill
#
# Bulk Modulus (GPa) = 30.12672 43.34015 36.73344
# Shear Modulus (GPa) = 20.36234 26.50298 23.43266
#
# Velocity S-wave (km/s) = 3.17949 3.62736 3.41078
# Velocity P-wave (km/s) = 5.33251 6.24984 5.80931
#
# Compressibility (1/GPa) = 0.03319312
#
# Stress axis : x y z
#
# Youngs Moduli (GPa) = 67.46406 23.02944 90.82538
#
# Poissons Ratio (x) = 0.22756 -0.03146
# Poissons Ratio (y) = 0.66663 0.77168
# Poissons Ratio (z) = -0.02337 0.19567
#
# Static dielectric constant tensor:
#      x y z
#    x 4.058190 0.000000 -0.134170 
#    y 0.000000 3.108830 0.000000 
#    z -0.134170 0.000000 3.938210 
# 
# 
# High freq. dielectric constant tensor:
#      x y z
#    x 1.796520 0.000000 -0.004970 
#    y 0.000000 1.733590 0.000000 
#    z -0.004970 0.000000 1.803940 
# 
# From -- ./inp_files/64422.got.cif
#   From: 2010.06.25/outbox.cif.g09.slc.cpg/sg11_33_cif.got.tgz:64422.got - 2010.06.27 23:14:04.
