data_PCOD8072846
_publ_section_title
;
Structure prediction by ZEFSAII (Michael W. Deem and Ramdas Pophale) SiO2 
 PCOD8072846
Probable space group: P 21/M
;
_chemical_formula_sum "Si O2"
_cell_formula_units_Z 24
_cell_length_a 21.218359
_cell_length_b 9.287456
_cell_length_c 10.090330
_cell_angle_alpha 90.000000
_cell_angle_beta 135.989003
_cell_angle_gamma 90.000000
_cell_volume 1381.565585
_symmetry_space_group_name_H-M "P 21/M"
_symmetry_group_IT_number 11
_symmetry_cell_setting 'monoclinic'
loop_
_space_group_symop_operation_xyz
x,y,z
-x,1/2+y,-z
-x,-y,-z
x,1/2-y,z
loop_
_atom_site_type_symbol
_atom_site_label
_atom_site_fract_x
_atom_site_fract_y
_atom_site_fract_z
Si Si1 0.268520 0.420492 0.514140
Si Si2 0.066035 0.420009 0.198541
Si Si3 0.399076 0.417854 0.481843
Si Si4 0.937278 0.584503 0.505000
Si Si5 0.272843 0.082479 0.816836
Si Si6 0.391326 0.582059 0.206110
O O1 0.266224 0.250000 0.515978
O O2 0.168248 0.473442 0.321252
O O3 0.342318 0.477086 0.521101
O O4 0.294481 0.472971 0.700787
O O5 0.056468 0.250000 0.163202
O O6 0.042139 0.463489 0.313204
O O7 0.000000 0.500000 0.000000
O O8 0.379955 0.250000 0.425953
O O9 0.365480 0.505906 0.304270
O O10 0.504046 0.446768 0.671473
O O11 0.961935 0.750000 0.525128
O O12 0.832592 0.557313 0.310714
O O13 0.000000 0.500000 0.500000
O O14 0.298853 0.250000 0.875061
O O15 0.331560 0.984113 0.000613
O O16 0.369960 0.750000 0.187694
#
# Coordination Sequence:
#
# PCOD8072846 Si02
#       6
#     4   4   4   4   4   4
#     4   8  16  33  54  71  91 125 166 200 232 282
#     4   9  18  33  51  72  97 124 158 199 240 283
#     4   9  18  34  53  71  95 129 165 198 237 287
#     4   9  19  34  51  72  98 128 162 199 239 286
#     4   9  18  34  53  71  95 129 164 197 239 289
#     4  10  20  32  48  74 103 127 157 200 243 283
#
# _framework density 17.371597999999999
#
# number of rings (size 3 to 8) (size 9 to 14) (size 15 to 20)
#    0.000    3.000    0.000    2.500    0.000    4.000 
#    0.000    9.167    0.000    0.000    0.000    0.000 
#    0.000    0.000    0.000    0.000    0.000    0.000 
#
# Total GULP energy -297560.142853 kJ/mol
# GULP energy per Si atom -12398.339286 kJ/mol
# Density = 1.733206 g / cm^3
# Si number density = 17.371598 Si / 1000 Ang^3
#
#
#
# Elastic Constant Matrix: (Units=GPa)
#
#
# Indices 1 2 3 4 5 6 
#
# 1 147.6332 52.3233 65.3213 0.0000 -18.6124 0.0000
# 2 52.3233 60.8226 59.8361 0.0000 -6.5194 0.0000
# 3 65.3213 59.8361 148.0474 0.0000 -10.1173 0.0000
# 4 0.0000 0.0000 0.0000 36.5816 0.0000 0.8671
# 5 -18.6124 -6.5194 -10.1173 0.0000 15.5915 0.0000
# 6 0.0000 0.0000 0.0000 0.8671 0.0000 24.7807
#
#
#
# Elastic Compliance Matrix: (Units=1/GPa)
#
#
# Indices 1 2 3 4 5 6 
#
# 1 0.011112 -0.007241 -0.001336 0.000000 0.009371 0.000000
# 2 -0.007241 0.032310 -0.009974 0.000000 -0.001605 0.000000
# 3 -0.001336 -0.009974 0.011491 0.000000 0.001691 0.000000
# 4 0.000000 0.000000 0.000000 0.027359 0.000000 -0.000957
# 5 0.009371 -0.001605 0.001691 0.000000 0.075750 0.000000
# 6 0.000000 0.000000 0.000000 -0.000957 0.000000 0.040387
#
#
# Mechanical properties :
#
#
# Convention : Reuss Voigt Hill
#
# Bulk Modulus (GPa) = 56.14156 79.05161 67.59658
# Shear Modulus (GPa) = 20.70847 27.32560 24.01704
#
# Velocity S-wave (km/s) = 3.45641 3.97041 3.72229
# Velocity P-wave (km/s) = 6.95106 8.16235 7.58093
#
# Compressibility (1/GPa) = 0.01781212
#
# Stress axis : x y z
#
# Youngs Moduli (GPa) = 89.99063 30.95038 87.02667
#
# Poissons Ratio (x) = 0.22410 0.11628
# Poissons Ratio (y) = 0.65158 0.86797
# Poissons Ratio (z) = 0.12024 0.30869
#
# Static dielectric constant tensor:
#      x y z
#    x 3.564530 0.000000 -0.079130 
#    y 0.000000 3.042280 0.000000 
#    z -0.079130 0.000000 3.207740 
# 
# 
# High freq. dielectric constant tensor:
#      x y z
#    x 1.676280 0.000000 -0.003520 
#    y 0.000000 1.653830 0.000000 
#    z -0.003520 0.000000 1.675060 
# 
# From -- ./inp_files/20376.got.cif
#   From: 2010.06.25/outbox.cif.g09.slc.cpg/sg11_11_cif.got.tgz:20376.got - 2010.06.27 23:14:04.
