data_PCOD8072056
_publ_section_title
;
Structure prediction by ZEFSAII (Michael W. Deem and Ramdas Pophale) SiO2 
 PCOD8072056
Probable space group: P 21/M
;
_chemical_formula_sum "Si O2"
_cell_formula_units_Z 32
_cell_length_a 33.570588
_cell_length_b 8.794237
_cell_length_c 12.773643
_cell_angle_alpha 90.000000
_cell_angle_beta 25.221885
_cell_angle_gamma 90.000000
_cell_volume 1606.973713
_symmetry_space_group_name_H-M "P 21/M"
_symmetry_group_IT_number 11
_symmetry_cell_setting 'monoclinic'
loop_
_space_group_symop_operation_xyz
x,y,z
-x,1/2+y,-z
-x,-y,-z
x,1/2-y,z
loop_
_atom_site_type_symbol
_atom_site_label
_atom_site_fract_x
_atom_site_fract_y
_atom_site_fract_z
Si Si1 0.621469 0.070268 0.884130
Si Si2 0.916289 0.573234 0.472102
Si Si3 0.874717 0.430366 0.005978
Si Si4 0.403316 0.429529 0.695231
Si Si5 0.736014 0.569441 0.792364
Si Si6 0.415638 0.429744 0.433499
Si Si7 0.899368 0.927390 0.741010
Si Si8 0.695981 0.569418 0.501175
O O1 0.626455 0.250000 0.856688
O O2 0.702922 0.017864 0.768569
O O3 0.633647 0.989191 0.744409
O O4 0.522419 0.014947 0.165568
O O5 0.934404 0.750000 0.415967
O O6 0.844069 0.517299 0.554837
O O7 0.861996 0.545485 0.712042
O O8 0.020978 0.501477 0.216283
O O9 0.872134 0.250000 0.017223
O O10 0.841642 0.486522 0.968657
O O11 0.800425 0.500217 0.263649
O O12 0.500000 0.500000 0.500000
O O13 0.415430 0.250000 0.667081
O O14 0.378515 0.484600 0.635627
O O15 0.323551 0.482518 0.965037
O O16 0.728379 0.750000 0.793182
O O17 0.412416 0.250000 0.433744
O O18 0.351232 0.494214 0.493348
O O19 0.901967 0.750000 0.763279
O O20 0.000000 0.000000 0.500000
O O21 0.701678 0.750000 0.490957
#
# Coordination Sequence:
#
# PCOD8072056 Si02
#       8
#     4   4   4   4   4   4   4   4
#     4  11  22  40  60  81 115 150 185 235 289 337
#     4   8  17  33  55  80 111 150 190 230 275 332
#     4  10  20  36  54  80 115 149 189 238 290 336
#     4  10  19  34  57  85 118 150 183 226 278 334
#     4  10  20  35  59  86 113 151 194 230 272 336
#     4   9  20  37  59  85 115 149 184 227 283 342
#     4   9  16  29  51  77 109 149 186 228 280 331
#     4  11  23  39  61  85 109 146 196 239 282 340
#
# _framework density 19.913207
#
# number of rings (size 3 to 8) (size 9 to 14) (size 15 to 20)
#    0.000    2.250    1.250    2.625    1.750    0.000 
#    0.000    7.500    0.000    0.000    0.000    0.000 
#    0.000    0.000    0.000    0.000    0.000    0.000 
#
# Total GULP energy -396593.069129 kJ/mol
# GULP energy per Si atom -12393.533410 kJ/mol
# Density = 1.986788 g / cm^3
# Si number density = 19.913207 Si / 1000 Ang^3
#
#
#
# Elastic Constant Matrix: (Units=GPa)
#
#
# Indices 1 2 3 4 5 6 
#
# 1 119.0626 22.9893 33.6473 0.0000 -3.2037 0.0000
# 2 22.9893 53.5725 16.2820 0.0000 -0.1315 0.0000
# 3 33.6473 16.2820 62.0245 0.0000 -3.0521 0.0000
# 4 0.0000 0.0000 0.0000 28.6156 0.0000 4.1040
# 5 -3.2037 -0.1315 -3.0521 0.0000 32.9476 0.0000
# 6 0.0000 0.0000 0.0000 4.1040 0.0000 26.9898
#
#
#
# Elastic Compliance Matrix: (Units=1/GPa)
#
#
# Indices 1 2 3 4 5 6 
#
# 1 0.010346 -0.002979 -0.004804 0.000000 0.000549 0.000000
# 2 -0.002979 0.021148 -0.003964 0.000000 -0.000572 0.000000
# 3 -0.004804 -0.003964 0.019836 0.000000 0.001355 0.000000
# 4 0.000000 0.000000 0.000000 0.035725 0.000000 -0.005432
# 5 0.000549 -0.000572 0.001355 0.000000 0.030528 0.000000
# 6 0.000000 0.000000 0.000000 -0.005432 0.000000 0.037877
#
#
# Mechanical properties :
#
#
# Convention : Reuss Voigt Hill
#
# Bulk Modulus (GPa) = 35.92264 42.27742 39.10003
# Shear Modulus (GPa) = 26.56302 28.49333 27.52818
#
# Velocity S-wave (km/s) = 3.65628 3.78680 3.72211
# Velocity P-wave (km/s) = 5.99193 6.35584 6.17657
#
# Compressibility (1/GPa) = 0.02783759
#
# Stress axis : x y z
#
# Youngs Moduli (GPa) = 96.65184 47.28634 50.41374
#
# Poissons Ratio (x) = 0.14085 0.24218
# Poissons Ratio (y) = 0.28788 0.19983
# Poissons Ratio (z) = 0.46430 0.18743
#
# Static dielectric constant tensor:
#      x y z
#    x 3.944620 0.000000 0.038740 
#    y 0.000000 3.389310 0.000000 
#    z 0.038740 0.000000 3.811290 
# 
# 
# High freq. dielectric constant tensor:
#      x y z
#    x 1.775510 0.000000 -0.003350 
#    y 0.000000 1.751850 0.000000 
#    z -0.003350 0.000000 1.778100 
# 
# From -- ./inp_files/45171.got.cif
#   From: 2010.06.25/outbox.cif.g09.slc.cpg/sg11_23_cif.got.tgz:45171.got - 2010.06.27 23:14:04.
