data_PCOD8072015
_publ_section_title
;
Structure prediction by ZEFSAII (Michael W. Deem and Ramdas Pophale) SiO2 
 PCOD8072015
Probable space group: P 21/M
;
_chemical_formula_sum "Si O2"
_cell_formula_units_Z 28
_cell_length_a 9.177285
_cell_length_b 8.957142
_cell_length_c 18.707092
_cell_angle_alpha 90.000000
_cell_angle_beta 104.275975
_cell_angle_gamma 90.000000
_cell_volume 1490.277572
_symmetry_space_group_name_H-M "P 21/M"
_symmetry_group_IT_number 11
_symmetry_cell_setting 'monoclinic'
loop_
_space_group_symop_operation_xyz
x,y,z
-x,1/2+y,-z
-x,-y,-z
x,1/2-y,z
loop_
_atom_site_type_symbol
_atom_site_label
_atom_site_fract_x
_atom_site_fract_y
_atom_site_fract_z
Si Si1 0.468890 0.419068 0.784612
Si Si2 0.887487 0.577645 0.932698
Si Si3 0.183996 0.582594 0.213937
Si Si4 0.841484 0.926901 0.496125
Si Si5 0.544246 0.576597 0.932251
Si Si6 0.264428 0.423298 0.360176
Si Si7 0.395744 0.574577 0.636184
O O1 0.406840 0.250000 0.781278
O O2 0.642534 0.420032 0.785529
O O3 0.446858 0.499520 0.857952
O O4 0.377729 0.512116 0.714301
O O5 0.929378 0.750000 0.932615
O O6 0.909216 0.508481 0.856474
O O7 0.720138 0.551653 0.940876
O O8 0.000000 0.500000 0.000000
O O9 0.119960 0.750000 0.208636
O O10 0.164630 0.509922 0.289605
O O11 0.851923 0.750000 0.489200
O O12 0.790573 0.974311 0.569045
O O13 0.721927 0.989379 0.426490
O O14 0.000000 0.000000 0.500000
O O15 0.501852 0.750000 0.929351
O O16 0.500000 0.500000 0.000000
O O17 0.237271 0.250000 0.342665
O O18 0.440068 0.462524 0.374971
O O19 0.361447 0.750000 0.632189
#
# Coordination Sequence:
#
# PCOD8072015 Si02
#       7
#     4   4   4   4   4   4   4
#     4   9  17  31  52  78 106 136 171 214 260 307
#     4  10  20  34  53  77 107 140 175 214 259 309
#     4   9  17  30  52  79 105 134 171 214 260 306
#     4  11  23  38  54  76 108 143 175 211 259 313
#     4  10  20  34  53  78 107 140 176 216 261 310
#     4   9  19  35  56  80 105 134 172 216 260 307
#     4  10  19  34  57  82 105 133 172 217 261 308
#
# _framework density 18.788446
#
# number of rings (size 3 to 8) (size 9 to 14) (size 15 to 20)
#    0.000    2.286    0.000    3.000    0.000    6.857 
#    0.000    1.429    0.000    6.857    0.000    0.000 
#    0.000    0.000    0.000    0.000    0.000    0.000 
#
# Total GULP energy -347259.831801 kJ/mol
# GULP energy per Si atom -12402.136850 kJ/mol
# Density = 1.874568 g / cm^3
# Si number density = 18.788446 Si / 1000 Ang^3
#
#
#
# Elastic Constant Matrix: (Units=GPa)
#
#
# Indices 1 2 3 4 5 6 
#
# 1 48.5372 46.0123 58.3964 0.0000 -0.0734 0.0000
# 2 46.0123 133.0369 96.6763 0.0000 3.6975 0.0000
# 3 58.3964 96.6763 207.0926 0.0000 2.4502 0.0000
# 4 0.0000 0.0000 0.0000 44.8449 0.0000 3.8040
# 5 -0.0734 3.6975 2.4502 0.0000 26.5217 0.0000
# 6 0.0000 0.0000 0.0000 3.8040 0.0000 26.4121
#
#
#
# Elastic Compliance Matrix: (Units=1/GPa)
#
#
# Indices 1 2 3 4 5 6 
#
# 1 0.035707 -0.007668 -0.006510 0.000000 0.001769 0.000000
# 2 -0.007668 0.013054 -0.003914 0.000000 -0.001480 0.000000
# 3 -0.006510 -0.003914 0.008495 0.000000 -0.000257 0.000000
# 4 0.000000 0.000000 0.000000 0.022575 0.000000 -0.003251
# 5 0.001769 -0.001480 -0.000257 0.000000 0.037940 0.000000
# 6 0.000000 0.000000 0.000000 -0.003251 0.000000 0.038330
#
#
# Mechanical properties :
#
#
# Convention : Reuss Voigt Hill
#
# Bulk Modulus (GPa) = 47.45792 87.87076 67.66434
# Shear Modulus (GPa) = 25.08659 32.06117 28.57388
#
# Velocity S-wave (km/s) = 3.65802 4.13538 3.90400
# Velocity P-wave (km/s) = 6.56928 8.34697 7.51090
#
# Compressibility (1/GPa) = 0.02107130
#
# Stress axis : x y z
#
# Youngs Moduli (GPa) = 28.00574 76.60200 117.71838
#
# Poissons Ratio (x) = 0.58739 0.76635
# Poissons Ratio (y) = 0.21475 0.46080
# Poissons Ratio (z) = 0.18232 0.29985
#
# Static dielectric constant tensor:
#      x y z
#    x 3.076960 0.000000 -0.033380 
#    y 0.000000 3.672840 0.000000 
#    z -0.033380 0.000000 3.715440 
# 
# 
# High freq. dielectric constant tensor:
#      x y z
#    x 1.690540 0.000000 0.002550 
#    y 0.000000 1.746580 0.000000 
#    z 0.002550 0.000000 1.749740 
# 
# From -- ./inp_files/57548.got.cif
#   From: 2010.06.25/outbox.cif.g09.slc.cpg/sg11_29_cif.got.tgz:57548.got - 2010.06.27 23:14:04.
