data_PCOD8072840
_publ_section_title
;
Structure prediction by ZEFSAII (Michael W. Deem and Ramdas Pophale) SiO2 
 PCOD8072840
Probable space group: P 21/M
;
_chemical_formula_sum "Si O2"
_cell_formula_units_Z 32
_cell_length_a 22.448115
_cell_length_b 9.783527
_cell_length_c 21.764409
_cell_angle_alpha 90.000000
_cell_angle_beta 159.148047
_cell_angle_gamma 90.000000
_cell_volume 1701.440070
_symmetry_space_group_name_H-M "P 21/M"
_symmetry_group_IT_number 11
_symmetry_cell_setting 'monoclinic'
loop_
_space_group_symop_operation_xyz
x,y,z
-x,1/2+y,-z
-x,-y,-z
x,1/2-y,z
loop_
_atom_site_type_symbol
_atom_site_label
_atom_site_fract_x
_atom_site_fract_y
_atom_site_fract_z
Si Si1 0.698397 0.902469 0.659231
Si Si2 0.949929 0.094771 0.839004
Si Si3 0.323554 0.398668 0.227701
Si Si4 0.526064 0.603132 0.365132
Si Si5 0.324203 0.090717 0.764820
Si Si6 0.881635 0.588938 0.660918
Si Si7 0.036854 0.089094 0.395655
Si Si8 0.298838 0.591204 0.859740
O O1 0.782088 0.750000 0.746134
O O2 0.610188 0.938409 0.639746
O O3 0.571263 0.894290 0.480494
O O4 0.829521 0.021612 0.771105
O O5 0.888056 0.250000 0.764544
O O6 0.125477 0.099003 0.042048
O O7 0.969492 0.005707 0.795873
O O8 0.393073 0.250000 0.277281
O O9 0.380540 0.491208 0.224511
O O10 0.454141 0.750000 0.274767
O O11 0.681848 0.564372 0.472344
O O12 0.291515 0.250000 0.748790
O O13 0.193866 0.036316 0.587832
O O14 0.287119 0.001696 0.788706
O O15 0.519227 0.070204 0.932103
O O16 0.921236 0.750000 0.711017
O O17 0.943432 0.534645 0.654559
O O18 0.049627 0.250000 0.406023
O O19 0.854160 0.043198 0.244107
O O20 0.276212 0.750000 0.819155
#
# Coordination Sequence:
#
# PCOD8072840 Si02
#       8
#     4   4   4   4   4   4   4   4
#     4   9  18  33  51  71  95 123 157 199 245 298
#     4  10  20  33  49  71  97 127 160 199 248 300
#     4  10  20  32  48  72  99 124 155 198 249 302
#     4   9  18  31  48  70  94 122 160 202 245 292
#     4   9  17  30  50  77 108 136 164 206 250 293
#     4   9  19  37  53  68  94 128 168 211 245 284
#     4   9  17  32  53  75 100 133 174 213 247 290
#     4   9  17  30  50  78 107 135 167 202 250 300
#
# _framework density 18.807597000000001
#
# number of rings (size 3 to 8) (size 9 to 14) (size 15 to 20)
#    0.000    2.750    0.000    2.250    0.000    3.500 
#    2.250    1.250    0.000    0.000    0.000    0.000 
#    0.000    0.000    0.000    0.000    0.000    0.000 
#
# Total GULP energy -396454.592452 kJ/mol
# GULP energy per Si atom -12389.206014 kJ/mol
# Density = 1.876479 g / cm^3
# Si number density = 18.807597 Si / 1000 Ang^3
#
#
#
# Elastic Constant Matrix: (Units=GPa)
#
#
# Indices 1 2 3 4 5 6 
#
# 1 98.4732 35.4044 20.3460 0.0000 17.1959 0.0000
# 2 35.4044 72.9010 14.9226 0.0000 9.7845 0.0000
# 3 20.3460 14.9226 46.1758 0.0000 12.7987 0.0000
# 4 0.0000 0.0000 0.0000 22.5997 0.0000 1.7616
# 5 17.1959 9.7845 12.7987 0.0000 22.0582 0.0000
# 6 0.0000 0.0000 0.0000 1.7616 0.0000 21.2711
#
#
#
# Elastic Compliance Matrix: (Units=1/GPa)
#
#
# Indices 1 2 3 4 5 6 
#
# 1 0.013766 -0.005249 -0.002431 0.000000 -0.006992 0.000000
# 2 -0.005249 0.017072 -0.002669 0.000000 -0.001932 0.000000
# 3 -0.002431 -0.002669 0.027094 0.000000 -0.012642 0.000000
# 4 0.000000 0.000000 0.000000 0.044536 0.000000 -0.003688
# 5 -0.006992 -0.001932 -0.012642 0.000000 0.058978 0.000000
# 6 0.000000 0.000000 0.000000 -0.003688 0.000000 0.047318
#
#
# Mechanical properties :
#
#
# Convention : Reuss Voigt Hill
#
# Bulk Modulus (GPa) = 26.85724 39.87735 33.36729
# Shear Modulus (GPa) = 20.67209 22.97759 21.82484
#
# Velocity S-wave (km/s) = 3.31892 3.49910 3.41020
# Velocity P-wave (km/s) = 5.38497 6.12974 5.76939
#
# Compressibility (1/GPa) = 0.03723391
#
# Stress axis : x y z
#
# Youngs Moduli (GPa) = 72.64476 58.57501 36.90873
#
# Poissons Ratio (x) = 0.30747 0.08972
# Poissons Ratio (y) = 0.38133 0.09850
# Poissons Ratio (z) = 0.17659 0.15632
#
# Static dielectric constant tensor:
#      x y z
#    x 3.414610 0.000000 0.095290 
#    y 0.000000 3.679350 0.000000 
#    z 0.095290 0.000000 3.405920 
# 
# 
# High freq. dielectric constant tensor:
#      x y z
#    x 1.714130 0.000000 0.012920 
#    y 0.000000 1.726510 0.000000 
#    z 0.012920 0.000000 1.721180 
# 
# From -- ./inp_files/70005.got.cif
#   From: 2010.06.25/outbox.cif.g09.slc.cpg/sg11_36_cif.got.tgz:70005.got - 2010.06.27 23:14:04.
