data_PCOD8072838
_publ_section_title
;
Structure prediction by ZEFSAII (Michael W. Deem and Ramdas Pophale) SiO2 
 PCOD8072838
Probable space group: P 21/M
;
_chemical_formula_sum "Si O2"
_cell_formula_units_Z 24
_cell_length_a 11.332765
_cell_length_b 17.551434
_cell_length_c 15.661831
_cell_angle_alpha 90.000000
_cell_angle_beta 152.647713
_cell_angle_gamma 90.000000
_cell_volume 1431.327488
_symmetry_space_group_name_H-M "P 21/M"
_symmetry_group_IT_number 11
_symmetry_cell_setting 'monoclinic'
loop_
_space_group_symop_operation_xyz
x,y,z
-x,1/2+y,-z
-x,-y,-z
x,1/2-y,z
loop_
_atom_site_type_symbol
_atom_site_label
_atom_site_fract_x
_atom_site_fract_y
_atom_site_fract_z
Si Si1 0.338331 0.956577 0.150212
Si Si2 0.478898 0.616617 0.530617
Si Si3 0.865956 0.883385 0.917672
Si Si4 0.273976 0.043421 0.462090
Si Si5 0.279314 0.491483 0.926443
Si Si6 0.075602 0.167275 0.858535
O O1 0.613881 0.939301 0.371298
O O2 0.374011 0.965124 0.072018
O O3 0.220277 0.032842 0.112014
O O4 0.140303 0.888649 0.045654
O O5 0.657875 0.653430 0.719295
O O6 0.643644 0.611354 0.548997
O O7 0.395527 0.532839 0.503775
O O8 0.227282 0.666819 0.355679
O O9 0.887540 0.833180 0.015931
O O10 0.968031 0.034875 0.270010
O O11 0.500000 0.500000 0.000000
O O12 0.224060 0.401887 0.908025
O O13 0.179842 0.250000 0.893285
#
# Coordination Sequence:
#
# PCOD8072838 Si02
#       6
#     4   4   4   4   4   4
#     4   9  15  26  47  73  97 120 154 205 248 284
#     4   9  15  26  47  73  97 121 150 193 256 303
#     4   9  15  26  47  73  97 121 150 193 256 303
#     4   9  15  26  47  73  97 120 154 205 248 284
#     4  10  20  32  48  72 100 135 178 207 235 290
#     4  10  20  32  48  72 101 127 158 209 262 304
#
# _framework density 16.767651000000001
#
# number of rings (size 3 to 8) (size 9 to 14) (size 15 to 20)
#    0.000    2.667    3.333    0.000    0.000    1.333 
#    0.000    0.000    0.000    2.000    0.000    0.000 
#    0.000    0.000    0.000    0.000    0.000    0.000 
#
# Total GULP energy -297416.483837 kJ/mol
# GULP energy per Si atom -12392.353493 kJ/mol
# Density = 1.672949 g / cm^3
# Si number density = 16.767651 Si / 1000 Ang^3
#
#
#
# Elastic Constant Matrix: (Units=GPa)
#
#
# Indices 1 2 3 4 5 6 
#
# 1 109.7122 23.2234 76.8923 0.0000 1.5288 0.0000
# 2 23.2234 49.3367 19.6736 0.0000 2.7832 0.0000
# 3 76.8923 19.6736 136.9539 0.0000 -22.8967 0.0000
# 4 0.0000 0.0000 0.0000 4.6997 0.0000 2.7872
# 5 1.5288 2.7832 -22.8967 0.0000 34.5461 0.0000
# 6 0.0000 0.0000 0.0000 2.7872 0.0000 8.2643
#
#
#
# Elastic Compliance Matrix: (Units=1/GPa)
#
#
# Indices 1 2 3 4 5 6 
#
# 1 0.017276 -0.003559 -0.010423 0.000000 -0.007386 0.000000
# 2 -0.003559 0.022803 -0.001752 0.000000 -0.002841 0.000000
# 3 -0.010423 -0.001752 0.015189 0.000000 0.010670 0.000000
# 4 0.000000 0.000000 0.000000 0.265983 0.000000 -0.089706
# 5 -0.007386 -0.002841 0.010670 0.000000 0.036574 0.000000
# 6 0.000000 0.000000 0.000000 -0.089706 0.000000 0.151257
#
#
# Mechanical properties :
#
#
# Convention : Reuss Voigt Hill
#
# Bulk Modulus (GPa) = 42.01812 59.50903 50.76358
# Shear Modulus (GPa) = 9.11601 21.24959 15.18280
#
# Velocity S-wave (km/s) = 2.33419 3.56377 3.01239
# Velocity P-wave (km/s) = 5.69017 7.24578 6.51458
#
# Compressibility (1/GPa) = 0.02379925
#
# Stress axis : x y z
#
# Youngs Moduli (GPa) = 57.88278 43.85336 65.83510
#
# Poissons Ratio (x) = 0.15608 0.68622
# Poissons Ratio (y) = 0.20601 0.11538
# Poissons Ratio (z) = 0.60333 0.07685
#
# Static dielectric constant tensor:
#      x y z
#    x 3.006010 0.000000 -0.428810 
#    y 0.000000 2.772110 0.000000 
#    z -0.428810 0.000000 3.553070 
# 
# 
# High freq. dielectric constant tensor:
#      x y z
#    x 1.621870 0.000000 -0.028300 
#    y 0.000000 1.603620 0.000000 
#    z -0.028300 0.000000 1.657980 
# 
# From -- ./inp_files/18537.got.cif
#   From: 2010.06.25/outbox.cif.g09.slc.cpg/sg11_10_cif.got.tgz:18537.got - 2010.06.27 23:14:04.
