data_PCOD8072799
_publ_section_title
;
Structure prediction by ZEFSAII (Michael W. Deem and Ramdas Pophale) SiO2 
 PCOD8072799
Probable space group: P 21/M
;
_chemical_formula_sum "Si O2"
_cell_formula_units_Z 24
_cell_length_a 5.143233
_cell_length_b 17.939386
_cell_length_c 18.451823
_cell_angle_alpha 90.000000
_cell_angle_beta 124.283664
_cell_angle_gamma 90.000000
_cell_volume 1406.692659
_symmetry_space_group_name_H-M "P 21/M"
_symmetry_group_IT_number 11
_symmetry_cell_setting 'monoclinic'
loop_
_space_group_symop_operation_xyz
x,y,z
-x,1/2+y,-z
-x,-y,-z
x,1/2-y,z
loop_
_atom_site_type_symbol
_atom_site_label
_atom_site_fract_x
_atom_site_fract_y
_atom_site_fract_z
Si Si1 0.252316 0.593470 0.514757
Si Si2 0.484391 0.750000 0.555131
Si Si3 0.918961 0.581002 0.958562
Si Si4 0.058411 0.464173 0.393759
Si Si5 0.386269 0.661468 0.939942
Si Si6 0.230388 0.750000 0.671621
Si Si7 0.658649 0.106630 0.217508
O O1 0.305364 0.677632 0.495069
O O2 0.045954 0.548491 0.423029
O O3 0.590791 0.555212 0.575903
O O4 0.073703 0.591817 0.564462
O O5 0.855930 0.750000 0.595627
O O6 0.445498 0.750000 0.634756
O O7 0.744693 0.630621 0.992726
O O8 0.692855 0.575173 0.852084
O O9 0.233189 0.625039 0.986712
O O10 0.000000 0.500000 0.000000
O O11 0.854572 0.458486 0.288311
O O12 0.379434 0.750000 0.944644
O O13 0.200172 0.633003 0.838285
O O14 0.341974 0.678232 0.732098
#
# Coordination Sequence:
#
# PCOD8072799 Si02
#       7
#     4   2   4   4   4   2   4
#     4  10  20  32  47  67 105 136 173 202 251 294
#     4  12  20  32  48  74 101 141 165 221 248 312
#     4  10  22  36  52  77 111 140 171 206 263 324
#     4  10  20  33  45  73 101 137 169 206 244 306
#     4  10  21  33  54  81 107 134 170 215 267 318
#     4  12  22  28  50  82 109 123 167 203 270 312
#     4  10  21  31  53  76 110 134 167 210 262 311
#
# _framework density 17.061295000000001
#
# number of rings (size 3 to 8) (size 9 to 14) (size 15 to 20)
#    1.000    0.667    4.167    1.000    5.833    0.000 
#    0.000    0.000    0.000    0.000    4.333    0.000 
#    0.000    0.000    0.000    0.000    0.000    0.000 
#
# Total GULP energy -297362.679870 kJ/mol
# GULP energy per Si atom -12390.111661 kJ/mol
# Density = 1.702246 g / cm^3
# Si number density = 17.061295 Si / 1000 Ang^3
#
#
#
# Elastic Constant Matrix: (Units=GPa)
#
#
# Indices 1 2 3 4 5 6 
#
# 1 105.8692 33.3103 19.5536 0.0000 -11.2173 0.0000
# 2 33.3103 131.6675 48.6610 0.0000 -1.0856 0.0000
# 3 19.5536 48.6610 35.7828 0.0000 4.4335 0.0000
# 4 0.0000 0.0000 0.0000 30.2890 0.0000 4.1441
# 5 -11.2173 -1.0856 4.4335 0.0000 14.2957 0.0000
# 6 0.0000 0.0000 0.0000 4.1441 0.0000 27.4990
#
#
#
# Elastic Compliance Matrix: (Units=1/GPa)
#
#
# Indices 1 2 3 4 5 6 
#
# 1 0.012248 0.000067 -0.008295 0.000000 0.012188 0.000000
# 2 0.000067 0.016179 -0.023084 0.000000 0.008441 0.000000
# 3 -0.008295 -0.023084 0.067488 0.000000 -0.029191 0.000000
# 4 0.000000 0.000000 0.000000 0.033710 0.000000 -0.005080
# 5 0.012188 0.008441 -0.029191 0.000000 0.089209 0.000000
# 6 0.000000 0.000000 0.000000 -0.005080 0.000000 0.037130
#
#
# Mechanical properties :
#
#
# Convention : Reuss Voigt Hill
#
# Bulk Modulus (GPa) = 30.03741 52.92993 41.48367
# Shear Modulus (GPa) = 15.16607 25.86973 20.51790
#
# Velocity S-wave (km/s) = 2.98471 3.89817 3.47161
# Velocity P-wave (km/s) = 5.43339 7.16601 6.35899
#
# Compressibility (1/GPa) = 0.03329182
#
# Stress axis : x y z
#
# Youngs Moduli (GPa) = 81.64777 61.80969 14.81749
#
# Poissons Ratio (x) = -0.00417 0.12291
# Poissons Ratio (y) = -0.00551 0.34205
# Poissons Ratio (z) = 0.67724 1.42682
#
# Static dielectric constant tensor:
#      x y z
#    x 3.381750 0.000000 -0.039730 
#    y 0.000000 3.294510 0.000000 
#    z -0.039730 0.000000 2.900910 
# 
# 
# High freq. dielectric constant tensor:
#      x y z
#    x 1.674610 0.000000 -0.006920 
#    y 0.000000 1.657170 0.000000 
#    z -0.006920 0.000000 1.609080 
# 
# From -- ./inp_files/57146.got.cif
#   From: 2010.06.25/outbox.cif.g09.slc.cpg/sg11_29_cif.got.tgz:57146.got - 2010.06.27 23:14:04.
