data_PCOD8072404
_publ_section_title
;
Structure prediction by ZEFSAII (Michael W. Deem and Ramdas Pophale) SiO2 
 PCOD8072404
Probable space group: P 21/M
;
_chemical_formula_sum "Si O2"
_cell_formula_units_Z 12
_cell_length_a 12.365275
_cell_length_b 5.322365
_cell_length_c 21.948823
_cell_angle_alpha 90.000000
_cell_angle_beta 161.546180
_cell_angle_gamma 90.000000
_cell_volume 457.244571
_symmetry_space_group_name_H-M "P 21/M"
_symmetry_group_IT_number 11
_symmetry_cell_setting 'monoclinic'
loop_
_space_group_symop_operation_xyz
x,y,z
-x,1/2+y,-z
-x,-y,-z
x,1/2-y,z
loop_
_atom_site_type_symbol
_atom_site_label
_atom_site_fract_x
_atom_site_fract_y
_atom_site_fract_z
Si Si1 0.434325 0.750000 0.002725
Si Si2 0.927753 0.750000 0.512828
Si Si3 0.130189 0.250000 0.146229
Si Si4 0.283065 0.250000 0.089664
Si Si5 0.036713 0.250000 0.606335
Si Si6 0.352745 0.250000 0.391174
O O1 0.052254 0.750000 0.821287
O O2 0.500000 0.500000 0.000000
O O3 0.682720 0.750000 0.192664
O O4 0.339548 0.750000 0.736703
O O5 0.801705 0.502632 0.482069
O O6 0.786098 0.750000 0.367759
O O7 0.311687 0.250000 0.177944
O O8 0.425799 0.250000 0.357255
O O9 0.906348 0.501503 0.035433
O O10 0.500000 0.500000 0.500000
#
# Coordination Sequence:
#
# PCOD8072404 Si02
#       6
#     2   2   2   2   2   2
#     4  12  26  45  68  95 132 177 223 270 322 384
#     4  10  19  35  61  89 118 153 198 257 319 381
#     4  10  22  38  59  88 121 160 204 255 320 381
#     4  10  19  35  61  89 118 153 198 257 319 381
#     4  10  22  38  59  88 121 160 204 255 320 381
#     4  12  26  45  68  95 132 177 223 270 322 384
#
# _framework density 26.244163
#
# number of rings (size 3 to 8) (size 9 to 14) (size 15 to 20)
#    0.000    1.333    0.000    6.000    0.000    2.667 
#    0.000    0.000    0.000    0.000    0.000    0.000 
#    0.000    0.000    0.000    0.000    0.000    0.000 
#
# Total GULP energy -148749.150604 kJ/mol
# GULP energy per Si atom -12395.762550 kJ/mol
# Density = 2.618443 g / cm^3
# Si number density = 26.244163 Si / 1000 Ang^3
#
#
#
# Elastic Constant Matrix: (Units=GPa)
#
#
# Indices 1 2 3 4 5 6 
#
# 1 83.3499 51.4145 32.8941 0.0000 -51.2350 0.0000
# 2 51.4145 303.2973 61.5933 0.0000 -49.6049 0.0000
# 3 32.8941 61.5933 112.4210 0.0000 -59.4435 0.0000
# 4 0.0000 0.0000 0.0000 28.6066 0.0000 21.2065
# 5 -51.2350 -49.6049 -59.4435 0.0000 60.0182 0.0000
# 6 0.0000 0.0000 0.0000 21.2065 0.0000 -13.5884
#
#
#
# Elastic Compliance Matrix: (Units=1/GPa)
#
#
# Indices 1 2 3 4 5 6 
#
# 1 0.030314 -0.001545 0.010465 0.000000 0.034965 0.000000
# 2 -0.001545 0.003934 -0.001431 0.000000 0.000515 0.000000
# 3 0.010465 -0.001431 0.022497 0.000000 0.030033 0.000000
# 4 0.000000 0.000000 0.000000 0.016207 0.000000 0.025293
# 5 0.034965 0.000515 0.030033 0.000000 0.076681 0.000000
# 6 0.000000 0.000000 0.000000 0.025293 0.000000 -0.034119
#
#
# Mechanical properties :
#
#
# Convention : Reuss Voigt Hill
#
# Bulk Modulus (GPa) = 13.94261 87.87465 50.90863
# Shear Modulus (GPa) = 40.17909 38.55169 39.36539
#
# Velocity S-wave (km/s) = 3.91701 3.83686 3.87714
# Velocity P-wave (km/s) = 5.07755 7.29280 6.28356
#
# Compressibility (1/GPa) = 0.07172256
#
# Stress axis : x y z
#
# Youngs Moduli (GPa) = 32.98816 254.20325 44.45052
#
# Poissons Ratio (x) = 0.39284 -0.46518
# Poissons Ratio (y) = 0.05098 0.06360
# Poissons Ratio (z) = -0.34522 0.36371
#
# Static dielectric constant tensor:
#      x y z
#    x 4.835190 0.000000 -0.343380 
#    y 0.000000 6.130190 0.000000 
#    z -0.343380 0.000000 4.805110 
# 
# 
# High freq. dielectric constant tensor:
#      x y z
#    x 2.035210 0.000000 -0.015850 
#    y 0.000000 2.101450 0.000000 
#    z -0.015850 0.000000 2.061650 
# 
# From -- ./inp_files/25407.got.cif
#   From: 2010.06.25/outbox.cif.g09.slc.cpg/sg11_13_cif.got.tgz:25407.got - 2010.06.27 23:14:04.
