data_PCOD8072540
_publ_section_title
;
Structure prediction by ZEFSAII (Michael W. Deem and Ramdas Pophale) SiO2 
 PCOD8072540
Probable space group: P 21/M
;
_chemical_formula_sum "Si O2"
_cell_formula_units_Z 28
_cell_length_a 22.041048
_cell_length_b 14.172430
_cell_length_c 5.004598
_cell_angle_alpha 90.000000
_cell_angle_beta 118.384811
_cell_angle_gamma 90.000000
_cell_volume 1375.362543
_symmetry_space_group_name_H-M "P 21/M"
_symmetry_group_IT_number 11
_symmetry_cell_setting 'monoclinic'
loop_
_space_group_symop_operation_xyz
x,y,z
-x,1/2+y,-z
-x,-y,-z
x,1/2-y,z
loop_
_atom_site_type_symbol
_atom_site_label
_atom_site_fract_x
_atom_site_fract_y
_atom_site_fract_z
Si Si1 0.863507 0.363099 0.698339
Si Si2 0.896605 0.640106 0.189885
Si Si3 0.334649 0.454405 0.112613
Si Si4 0.666519 0.750000 0.780941
Si Si5 0.194033 0.963126 0.928166
Si Si6 0.429179 0.449227 0.808971
Si Si7 0.416757 0.250000 0.893050
Si Si8 0.016011 0.142167 0.115286
O O1 0.857445 0.250000 0.706068
O O2 0.845061 0.396681 0.363404
O O3 0.811953 0.412624 0.798336
O O4 0.940375 0.402982 0.924328
O O5 0.870266 0.750000 0.126863
O O6 0.834538 0.570319 0.131715
O O7 0.958185 0.628473 0.530907
O O8 0.927522 0.602635 0.974375
O O9 0.298377 0.349908 0.064888
O O10 0.395901 0.470079 0.453010
O O11 0.274796 0.531258 0.024658
O O12 0.369105 0.470008 0.897317
O O13 0.653926 0.750000 0.435920
O O14 0.596773 0.750000 0.817490
O O15 0.457356 0.342539 0.891575
O O16 0.500000 0.500000 0.000000
O O17 0.007004 0.250000 0.014480
#
# Coordination Sequence:
#
# PCOD8072540 Si02
#       8
#     4   4   4   2   4   4   2   4
#     4  11  24  42  61  79 108 158 212 253 285 331
#     4  10  21  36  56  89 125 147 181 241 303 359
#     4  10  21  36  57  89 117 148 191 221 287 344
#     4   8  16  32  54  78 114 148 168 216 262 344
#     4  12  24  37  61  88 116 155 194 240 293 364
#     4  10  19  36  61  83 116 151 183 234 271 328
#     4   8  16  30  52  84 106 140 184 208 262 330
#     4   9  19  37  57  80 114 154 197 245 292 342
#
# _framework density 20.358267000000001
#
# number of rings (size 3 to 8) (size 9 to 14) (size 15 to 20)
#    0.000    2.000    0.000    3.429    1.000    5.714 
#    0.000    0.000    9.429    0.000    0.000    0.000 
#    0.000    0.000    0.000    0.000    0.000    0.000 
#
# Total GULP energy -347011.561786 kJ/mol
# GULP energy per Si atom -12393.270064 kJ/mol
# Density = 2.031193 g / cm^3
# Si number density = 20.358267 Si / 1000 Ang^3
#
#
#
# Elastic Constant Matrix: (Units=GPa)
#
#
# Indices 1 2 3 4 5 6 
#
# 1 69.6934 30.2085 9.2292 0.0000 -0.4431 0.0000
# 2 30.2085 88.2252 17.2519 0.0000 9.0769 0.0000
# 3 9.2292 17.2519 48.4083 0.0000 -11.5665 0.0000
# 4 0.0000 0.0000 0.0000 26.2885 0.0000 -1.7216
# 5 -0.4431 9.0769 -11.5665 0.0000 35.5824 0.0000
# 6 0.0000 0.0000 0.0000 -1.7216 0.0000 30.9202
#
#
#
# Elastic Compliance Matrix: (Units=1/GPa)
#
#
# Indices 1 2 3 4 5 6 
#
# 1 0.016981 -0.005798 -0.000832 0.000000 0.001420 0.000000
# 2 -0.005798 0.015006 -0.005610 0.000000 -0.005724 0.000000
# 3 -0.000832 -0.005610 0.025105 0.000000 0.009581 0.000000
# 4 0.000000 0.000000 0.000000 0.038179 0.000000 0.002126
# 5 0.001420 -0.005724 0.009581 0.000000 0.032696 0.000000
# 6 0.000000 0.000000 0.000000 0.002126 0.000000 0.032460
#
#
# Mechanical properties :
#
#
# Convention : Reuss Voigt Hill
#
# Bulk Modulus (GPa) = 30.66352 35.52289 33.09321
# Shear Modulus (GPa) = 25.53943 28.53404 27.03673
#
# Velocity S-wave (km/s) = 3.54573 3.74785 3.64819
# Velocity P-wave (km/s) = 5.64425 6.01791 5.83408
#
# Compressibility (1/GPa) = 0.03261204
#
# Stress axis : x y z
#
# Youngs Moduli (GPa) = 58.89028 66.64166 39.83281
#
# Poissons Ratio (x) = 0.38636 0.03314
# Poissons Ratio (y) = 0.34142 0.22346
# Poissons Ratio (z) = 0.04899 0.37386
#
# Static dielectric constant tensor:
#      x y z
#    x 3.498420 0.000000 -0.268420 
#    y 0.000000 3.807730 0.000000 
#    z -0.268420 0.000000 3.549640 
# 
# 
# High freq. dielectric constant tensor:
#      x y z
#    x 1.781360 0.000000 -0.026680 
#    y 0.000000 1.797230 0.000000 
#    z -0.026680 0.000000 1.791680 
# 
# From -- ./inp_files/8170.got.cif
#   From: 2010.06.25/outbox.cif.g09.slc.cpg/sg11_5_cif.got.tgz:8170.got - 2010.06.27 23:14:04.
