data_PCOD8072594
_publ_section_title
;
Structure prediction by ZEFSAII (Michael W. Deem and Ramdas Pophale) SiO2 
 PCOD8072594
Probable space group: P 21/M
;
_chemical_formula_sum "Si O2"
_cell_formula_units_Z 32
_cell_length_a 11.018698
_cell_length_b 19.275466
_cell_length_c 18.838872
_cell_angle_alpha 90.000000
_cell_angle_beta 154.558748
_cell_angle_gamma 90.000000
_cell_volume 1718.856351
_symmetry_space_group_name_H-M "P 21/M"
_symmetry_group_IT_number 11
_symmetry_cell_setting 'monoclinic'
loop_
_space_group_symop_operation_xyz
x,y,z
-x,1/2+y,-z
-x,-y,-z
x,1/2-y,z
loop_
_atom_site_type_symbol
_atom_site_label
_atom_site_fract_x
_atom_site_fract_y
_atom_site_fract_z
Si Si1 0.711478 0.577279 0.154415
Si Si2 0.877320 0.329555 0.958803
Si Si3 0.138035 0.926558 0.179242
Si Si4 0.622062 0.579532 0.719309
Si Si5 0.285581 0.327944 0.716534
Si Si6 0.683248 0.434868 0.577139
Si Si7 0.863592 0.425039 0.422098
Si Si8 0.477476 0.057449 0.093545
O O1 0.760257 0.644866 0.227685
O O2 0.526482 0.523471 0.101956
O O3 0.013017 0.542417 0.294470
O O4 0.551185 0.598332 0.996503
O O5 0.960976 0.250000 0.985629
O O6 0.793614 0.368551 0.842391
O O7 0.614419 0.332523 0.872594
O O8 0.131658 0.367619 0.132382
O O9 0.260643 0.895663 0.318487
O O10 0.273599 0.000109 0.229401
O O11 0.802125 0.937681 0.006387
O O12 0.492178 0.606520 0.575451
O O13 0.380813 0.584142 0.650064
O O14 0.172274 0.250000 0.655014
O O15 0.107580 0.369376 0.563929
O O16 0.500000 0.500000 0.500000
O O17 0.737515 0.412604 0.276671
O O18 0.000000 0.500000 0.500000
#
# Coordination Sequence:
#
# PCOD8072594 Si02
#       8
#     4   4   4   4   4   4   4   4
#     4  10  19  37  57  85 121 151 192 239 301 350
#     4  11  24  40  57  83 118 158 199 241 287 349
#     4  10  20  36  60  87 117 149 192 241 296 343
#     4  11  20  35  62  87 114 148 194 244 287 348
#     4  11  24  41  59  83 123 163 196 242 303 361
#     4   9  19  35  56  89 117 146 187 243 298 340
#     4  12  21  35  60  91 117 147 199 247 298 348
#     4  10  20  34  59  90 116 148 192 247 292 343
#
# _framework density 18.617028999999999
#
# number of rings (size 3 to 8) (size 9 to 14) (size 15 to 20)
#    0.000    1.500    3.750    1.875    0.000    2.500 
#    0.000    3.750    0.000    3.000    0.000    0.000 
#    0.000    0.000    0.000    0.000    0.000    0.000 
#
# Total GULP energy -396694.649146 kJ/mol
# GULP energy per Si atom -12396.707786 kJ/mol
# Density = 1.857466 g / cm^3
# Si number density = 18.617029 Si / 1000 Ang^3
#
#
#
# Elastic Constant Matrix: (Units=GPa)
#
#
# Indices 1 2 3 4 5 6 
#
# 1 85.6419 38.3978 47.8177 0.0000 -15.3618 0.0000
# 2 38.3978 106.2269 49.3190 0.0000 -8.8318 0.0000
# 3 47.8177 49.3190 126.6341 0.0000 -28.1687 0.0000
# 4 0.0000 0.0000 0.0000 21.3837 0.0000 3.8606
# 5 -15.3618 -8.8318 -28.1687 0.0000 44.2709 0.0000
# 6 0.0000 0.0000 0.0000 3.8606 0.0000 20.0809
#
#
#
# Elastic Compliance Matrix: (Units=1/GPa)
#
#
# Indices 1 2 3 4 5 6 
#
# 1 0.016032 -0.003697 -0.004124 0.000000 0.002201 0.000000
# 2 -0.003697 0.012360 -0.003675 0.000000 -0.001155 0.000000
# 3 -0.004124 -0.003675 0.012119 0.000000 0.005547 0.000000
# 4 0.000000 0.000000 0.000000 0.048446 0.000000 -0.009314
# 5 0.002201 -0.001155 0.005547 0.000000 0.026651 0.000000
# 6 0.000000 0.000000 0.000000 -0.009314 0.000000 0.051589
#
#
# Mechanical properties :
#
#
# Convention : Reuss Voigt Hill
#
# Bulk Modulus (GPa) = 57.08084 65.50798 61.29441
# Shear Modulus (GPa) = 25.50641 29.34500 27.42571
#
# Velocity S-wave (km/s) = 3.70545 3.97450 3.84233
# Velocity P-wave (km/s) = 7.00244 7.50505 7.25810
#
# Compressibility (1/GPa) = 0.01751901
#
# Stress axis : x y z
#
# Youngs Moduli (GPa) = 62.37644 80.90410 82.51442
#
# Poissons Ratio (x) = 0.29912 0.34029
# Poissons Ratio (y) = 0.23062 0.30322
# Poissons Ratio (z) = 0.25724 0.29730
#
# Static dielectric constant tensor:
#      x y z
#    x 3.687360 0.000000 -0.330160 
#    y 0.000000 3.062090 0.000000 
#    z -0.330160 0.000000 3.866740 
# 
# 
# High freq. dielectric constant tensor:
#      x y z
#    x 1.738830 0.000000 -0.005890 
#    y 0.000000 1.677950 0.000000 
#    z -0.005890 0.000000 1.745170 
# 
# From -- ./inp_files/64928.got.cif
#   From: 2010.06.25/outbox.cif.g09.slc.cpg/sg11_33_cif.got.tgz:64928.got - 2010.06.27 23:14:04.
