data_PCOD8072867
_publ_section_title
;
Structure prediction by ZEFSAII (Michael W. Deem and Ramdas Pophale) SiO2 
 PCOD8072867
Probable space group: P 21/M
;
_chemical_formula_sum "Si O2"
_cell_formula_units_Z 32
_cell_length_a 15.123619
_cell_length_b 14.511160
_cell_length_c 11.113810
_cell_angle_alpha 90.000000
_cell_angle_beta 47.125092
_cell_angle_gamma 90.000000
_cell_volume 1787.436206
_symmetry_space_group_name_H-M "P 21/M"
_symmetry_group_IT_number 11
_symmetry_cell_setting 'monoclinic'
loop_
_space_group_symop_operation_xyz
x,y,z
-x,1/2+y,-z
-x,-y,-z
x,1/2-y,z
loop_
_atom_site_type_symbol
_atom_site_label
_atom_site_fract_x
_atom_site_fract_y
_atom_site_fract_z
Si Si1 0.783917 0.354655 0.631049
Si Si2 0.648682 0.523623 0.181829
Si Si3 0.859919 0.644387 0.080638
Si Si4 0.305716 0.853113 0.723115
Si Si5 0.830511 0.476377 0.818171
Si Si6 0.414966 0.854655 0.368952
Si Si7 0.059443 0.855613 0.080639
Si Si8 0.028831 0.146887 0.276886
O O1 0.780964 0.250000 0.681762
O O2 0.801350 0.420638 0.726750
O O3 0.658762 0.380338 0.682476
O O4 0.888824 0.366952 0.435532
O O5 0.742299 0.580755 0.178169
O O6 0.613990 0.428059 0.280024
O O7 0.528100 0.579362 0.273251
O O8 0.705641 0.500000 0.000000
O O9 0.816612 0.750000 0.129036
O O10 0.934681 0.616228 0.130638
O O11 0.948865 0.630148 0.885102
O O12 0.346173 0.750000 0.725277
O O13 0.324356 0.866953 0.564468
O O14 0.166032 0.869852 0.885103
O O15 0.920468 0.419246 0.821831
O O16 0.894014 0.571941 0.719976
O O17 0.462726 0.750000 0.318239
O O18 0.054353 0.750000 0.129037
O O19 0.071451 0.250000 0.274721
#
# Coordination Sequence:
#
# PCOD8072867 Si02
#       8
#     4   4   4   4   4   4   4   4
#     4  10  20  34  52  72  95 126 164 202 236 276
#     4  10  20  32  50  73  99 128 158 196 241 288
#     4   9  17  30  49  74 102 128 155 192 240 290
#     4   9  18  32  50  72  97 126 160 198 239 281
#     4  10  20  32  50  73  99 128 158 196 241 288
#     4  10  20  34  52  72  95 126 164 202 236 276
#     4   9  17  30  49  74 102 128 155 192 240 290
#     4   9  18  32  50  72  97 126 160 198 239 281
#
# _framework density 17.902736000000001
#
# number of rings (size 3 to 8) (size 9 to 14) (size 15 to 20)
#    0.000    2.500    0.000    2.250    0.000   10.000 
#    0.000    0.000    0.000    0.750    0.000    0.000 
#    0.000    0.000    0.000    0.000    0.000    0.000 
#
# Total GULP energy -396743.294812 kJ/mol
# GULP energy per Si atom -12398.227963 kJ/mol
# Density = 1.786199 g / cm^3
# Si number density = 17.902736 Si / 1000 Ang^3
#
#
#
# Elastic Constant Matrix: (Units=GPa)
#
#
# Indices 1 2 3 4 5 6 
#
# 1 112.6896 77.4137 42.1069 0.0000 -4.5986 0.0000
# 2 77.4137 127.9363 40.8169 0.0000 -3.9676 0.0000
# 3 42.1069 40.8169 43.9660 0.0000 -2.8520 0.0000
# 4 0.0000 0.0000 0.0000 22.6245 0.0000 -0.1751
# 5 -4.5986 -3.9676 -2.8520 0.0000 14.2721 0.0000
# 6 0.0000 0.0000 0.0000 -0.1751 0.0000 24.2391
#
#
#
# Elastic Compliance Matrix: (Units=1/GPa)
#
#
# Indices 1 2 3 4 5 6 
#
# 1 0.017879 -0.007585 -0.009974 0.000000 0.001659 0.000000
# 2 -0.007585 0.014339 -0.006026 0.000000 0.000338 0.000000
# 3 -0.009974 -0.006026 0.038067 0.000000 0.002718 0.000000
# 4 0.000000 0.000000 0.000000 0.044202 0.000000 0.000319
# 5 0.001659 0.000338 0.002718 0.000000 0.071238 0.000000
# 6 0.000000 0.000000 0.000000 0.000319 0.000000 0.041258
#
#
# Mechanical properties :
#
#
# Convention : Reuss Voigt Hill
#
# Bulk Modulus (GPa) = 43.25925 67.25189 55.25557
# Shear Modulus (GPa) = 17.73943 20.51076 19.12510
#
# Velocity S-wave (km/s) = 3.15124 3.38846 3.27200
# Velocity P-wave (km/s) = 6.12016 7.27706 6.72354
#
# Compressibility (1/GPa) = 0.02311645
#
# Stress axis : x y z
#
# Youngs Moduli (GPa) = 55.93164 69.73988 26.26935
#
# Poissons Ratio (x) = 0.52898 0.26200
# Poissons Ratio (y) = 0.42424 0.15829
# Poissons Ratio (z) = 0.55784 0.42023
#
# Static dielectric constant tensor:
#      x y z
#    x 3.070360 0.000000 0.007940 
#    y 0.000000 3.668360 0.000000 
#    z 0.007940 0.000000 3.143560 
# 
# 
# High freq. dielectric constant tensor:
#      x y z
#    x 1.669400 0.000000 0.000740 
#    y 0.000000 1.712370 0.000000 
#    z 0.000740 0.000000 1.676230 
# 
# From -- ./inp_files/39637.got.cif
#   From: 2010.06.25/outbox.cif.g09.slc.cpg/sg11_20_cif.got.tgz:39637.got - 2010.06.27 23:14:04.
