data_PCOD8072307
_publ_section_title
;
Structure prediction by ZEFSAII (Michael W. Deem and Ramdas Pophale) SiO2 
 PCOD8072307
Probable space group: P 21/M
;
_chemical_formula_sum "Si O2"
_cell_formula_units_Z 24
_cell_length_a 19.345334
_cell_length_b 8.770750
_cell_length_c 10.321467
_cell_angle_alpha 90.000000
_cell_angle_beta 45.254158
_cell_angle_gamma 90.000000
_cell_volume 1243.819493
_symmetry_space_group_name_H-M "P 21/M"
_symmetry_group_IT_number 11
_symmetry_cell_setting 'monoclinic'
loop_
_space_group_symop_operation_xyz
x,y,z
-x,1/2+y,-z
-x,-y,-z
x,1/2-y,z
loop_
_atom_site_type_symbol
_atom_site_label
_atom_site_fract_x
_atom_site_fract_y
_atom_site_fract_z
Si Si1 0.039059 0.430773 0.316175
Si Si2 0.694650 0.428761 0.530639
Si Si3 0.696784 0.580479 0.781664
Si Si4 0.257792 0.068741 0.002486
Si Si5 0.398490 0.068977 0.592549
Si Si6 0.124908 0.419757 0.614514
O O1 0.033220 0.250000 0.332214
O O2 0.147452 0.491916 0.142574
O O3 0.000000 0.500000 0.500000
O O4 0.973489 0.487740 0.282189
O O5 0.692241 0.250000 0.511296
O O6 0.650351 0.471246 0.731947
O O7 0.627290 0.510545 0.515372
O O8 0.805939 0.491882 0.372621
O O9 0.649785 0.750000 0.833540
O O10 0.687055 0.510977 0.939072
O O11 0.813485 0.592991 0.600735
O O12 0.256529 0.250000 0.009972
O O13 0.316576 0.009017 0.800853
O O14 0.405060 0.250000 0.584009
O O15 0.500000 0.000000 0.500000
O O16 0.100623 0.250000 0.699549
#
# Coordination Sequence:
#
# PCOD8072307 Si02
#       6
#     4   4   4   4   4   4
#     4  11  18  29  51  83 118 153 186 224 274 331
#     4  10  19  35  58  84 112 148 187 228 278 336
#     4   8  15  32  56  81 111 146 183 224 274 326
#     4   9  19  35  57  84 115 148 188 232 279 330
#     4  11  23  42  63  82 108 146 187 236 288 336
#     4   9  17  30  51  79 113 148 182 219 269 323
#
# _framework density 19.295404000000001
#
# number of rings (size 3 to 8) (size 9 to 14) (size 15 to 20)
#    1.000    1.333    1.667    2.500    0.000    0.000 
#    0.000    6.667    0.000    0.000    0.000    0.000 
#    0.000    0.000    0.000    0.000    0.000    0.000 
#
# Total GULP energy -297389.987871 kJ/mol
# GULP energy per Si atom -12391.249495 kJ/mol
# Density = 1.925149 g / cm^3
# Si number density = 19.295404 Si / 1000 Ang^3
#
#
#
# Elastic Constant Matrix: (Units=GPa)
#
#
# Indices 1 2 3 4 5 6 
#
# 1 137.1322 41.6295 23.8769 0.0000 -4.4644 0.0000
# 2 41.6295 98.8042 23.9488 0.0000 -5.3293 0.0000
# 3 23.8769 23.9488 33.9167 0.0000 -9.0708 0.0000
# 4 0.0000 0.0000 0.0000 14.3792 0.0000 -4.2294
# 5 -4.4644 -5.3293 -9.0708 0.0000 23.4485 0.0000
# 6 0.0000 0.0000 0.0000 -4.2294 0.0000 34.1553
#
#
#
# Elastic Compliance Matrix: (Units=1/GPa)
#
#
# Indices 1 2 3 4 5 6 
#
# 1 0.008872 -0.002675 -0.004538 0.000000 -0.000674 0.000000
# 2 -0.002675 0.013025 -0.007427 0.000000 -0.000422 0.000000
# 3 -0.004538 -0.007427 0.041538 0.000000 0.013516 0.000000
# 4 0.000000 0.000000 0.000000 0.072174 0.000000 0.008937
# 5 -0.000674 -0.000422 0.013516 0.000000 0.047651 0.000000
# 6 0.000000 0.000000 0.000000 0.008937 0.000000 0.030385
#
#
# Mechanical properties :
#
#
# Convention : Reuss Voigt Hill
#
# Bulk Modulus (GPa) = 29.27717 49.86262 39.56990
# Shear Modulus (GPa) = 19.66107 26.42313 23.04210
#
# Velocity S-wave (km/s) = 3.19556 3.70456 3.45943
# Velocity P-wave (km/s) = 5.36857 6.64802 6.04226
#
# Compressibility (1/GPa) = 0.03415630
#
# Stress axis : x y z
#
# Youngs Moduli (GPa) = 112.71000 76.77257 24.07449
#
# Poissons Ratio (x) = 0.20534 0.10924
# Poissons Ratio (y) = 0.30147 0.17881
# Poissons Ratio (z) = 0.51144 0.57021
#
# Static dielectric constant tensor:
#      x y z
#    x 3.459110 0.000000 0.054030 
#    y 0.000000 3.341880 0.000000 
#    z 0.054030 0.000000 3.337990 
# 
# 
# High freq. dielectric constant tensor:
#      x y z
#    x 1.755420 0.000000 0.002350 
#    y 0.000000 1.740860 0.000000 
#    z 0.002350 0.000000 1.713430 
# 
# From -- ./inp_files/42251.got.cif
#   From: 2010.06.25/outbox.cif.g09.slc.cpg/sg11_22_cif.got.tgz:42251.got - 2010.06.27 23:14:04.
