data_PCOD8072097
_publ_section_title
;
Structure prediction by ZEFSAII (Michael W. Deem and Ramdas Pophale) SiO2 
 PCOD8072097
Probable space group: P 21/M
;
_chemical_formula_sum "Si O2"
_cell_formula_units_Z 32
_cell_length_a 21.673291
_cell_length_b 8.801959
_cell_length_c 28.171852
_cell_angle_alpha 90.000000
_cell_angle_beta 18.749981
_cell_angle_gamma 90.000000
_cell_volume 1727.501266
_symmetry_space_group_name_H-M "P 21/M"
_symmetry_group_IT_number 11
_symmetry_cell_setting 'monoclinic'
loop_
_space_group_symop_operation_xyz
x,y,z
-x,1/2+y,-z
-x,-y,-z
x,1/2-y,z
loop_
_atom_site_type_symbol
_atom_site_label
_atom_site_fract_x
_atom_site_fract_y
_atom_site_fract_z
Si Si1 0.457354 0.571219 0.081537
Si Si2 0.906337 0.076441 0.921171
Si Si3 0.393377 0.927421 0.937185
Si Si4 0.201509 0.928932 0.838714
Si Si5 0.963780 0.429193 0.577387
Si Si6 0.684982 0.926190 0.342522
Si Si7 0.643292 0.924994 0.186922
Si Si8 0.669770 0.072930 0.660350
O O1 0.483513 0.750000 0.059310
O O2 0.607805 0.506703 0.010609
O O3 0.243671 0.523302 0.252370
O O4 0.500000 0.500000 0.000000
O O5 0.857615 0.250000 0.971237
O O6 0.135213 0.050853 0.752515
O O7 0.811443 0.039414 0.939172
O O8 0.820494 0.967662 0.023874
O O9 0.429997 0.750000 0.917309
O O10 0.564721 0.994606 0.780988
O O11 0.180080 0.750000 0.850802
O O12 0.273120 0.992978 0.737176
O O13 0.356663 0.973559 0.765820
O O14 0.000000 0.000000 0.000000
O O15 0.987284 0.250000 0.557375
O O16 0.000000 0.500000 0.500000
O O17 0.121233 0.498883 0.498638
O O18 0.645899 0.750000 0.361370
O O19 0.500000 0.000000 0.500000
O O20 0.667488 0.750000 0.183531
O O21 0.443333 0.955919 0.306008
O O22 0.686456 0.250000 0.660471
#
# Coordination Sequence:
#
# PCOD8072097 Si02
#       8
#     4   4   4   4   4   4   4   4
#     4  11  24  40  58  84 116 152 194 238 288 345
#     4   9  19  35  57  84 114 150 192 236 286 346
#     4  10  19  34  58  85 113 149 191 236 287 344
#     4  12  23  37  59  87 117 152 194 242 293 348
#     4  11  22  36  58  85 115 150 190 236 287 343
#     4  11  23  40  60  86 120 157 198 243 290 349
#     4  10  20  34  56  86 118 151 191 241 292 344
#     4  10  20  34  55  86 119 150 191 240 289 344
#
# _framework density 18.523865000000001
#
# number of rings (size 3 to 8) (size 9 to 14) (size 15 to 20)
#    0.000    1.500    2.500    3.375    0.000    4.000 
#    0.000    1.250    0.000    1.500    0.000    0.000 
#    0.000    0.000    0.000    0.000    0.000    0.000 
#
# Total GULP energy -396893.790886 kJ/mol
# GULP energy per Si atom -12402.930965 kJ/mol
# Density = 1.848170 g / cm^3
# Si number density = 18.523865 Si / 1000 Ang^3
#
#
#
# Elastic Constant Matrix: (Units=GPa)
#
#
# Indices 1 2 3 4 5 6 
#
# 1 148.4854 69.5779 71.7620 0.0000 -1.3474 0.0000
# 2 69.5779 123.6381 63.8070 0.0000 0.9941 0.0000
# 3 71.7620 63.8070 113.4997 0.0000 -3.1506 0.0000
# 4 0.0000 0.0000 0.0000 31.2285 0.0000 0.4799
# 5 -1.3474 0.9941 -3.1506 0.0000 30.4146 0.0000
# 6 0.0000 0.0000 0.0000 0.4799 0.0000 35.7766
#
#
#
# Elastic Compliance Matrix: (Units=1/GPa)
#
#
# Indices 1 2 3 4 5 6 
#
# 1 0.010710 -0.003570 -0.004761 0.000000 0.000098 0.000000
# 2 -0.003570 0.012617 -0.004865 0.000000 -0.001075 0.000000
# 3 -0.004761 -0.004865 0.014597 0.000000 0.001460 0.000000
# 4 0.000000 0.000000 0.000000 0.032029 0.000000 -0.000430
# 5 0.000098 -0.001075 0.001460 0.000000 0.033070 0.000000
# 6 0.000000 0.000000 0.000000 -0.000430 0.000000 0.027957
#
#
# Mechanical properties :
#
#
# Convention : Reuss Voigt Hill
#
# Bulk Modulus (GPa) = 86.73748 88.43521 87.58635
# Shear Modulus (GPa) = 31.01420 31.51569 31.26495
#
# Velocity S-wave (km/s) = 4.09624 4.12922 4.11277
# Velocity P-wave (km/s) = 8.32458 8.40112 8.36294
#
# Compressibility (1/GPa) = 0.01152904
#
# Stress axis : x y z
#
# Youngs Moduli (GPa) = 93.37218 79.25849 68.50814
#
# Poissons Ratio (x) = 0.28299 0.32620
# Poissons Ratio (y) = 0.33338 0.33331
# Poissons Ratio (z) = 0.44459 0.38562
#
# Static dielectric constant tensor:
#      x y z
#    x 3.770960 0.000000 -0.221160 
#    y 0.000000 3.586500 0.000000 
#    z -0.221160 0.000000 3.509680 
# 
# 
# High freq. dielectric constant tensor:
#      x y z
#    x 1.728600 0.000000 -0.021760 
#    y 0.000000 1.737010 0.000000 
#    z -0.021760 0.000000 1.694130 
# 
# From -- ./inp_files/72051.got.cif
#   From: 2010.06.25/outbox.cif.g09.slc.cpg/sg11_37_cif.got.tgz:72051.got - 2010.06.27 23:14:04.
