data_PCOD8072320
_publ_section_title
;
Structure prediction by ZEFSAII (Michael W. Deem and Ramdas Pophale) SiO2 
 PCOD8072320
Probable space group: P 21/M
;
_chemical_formula_sum "Si O2"
_cell_formula_units_Z 20
_cell_length_a 26.365570
_cell_length_b 8.520868
_cell_length_c 9.183943
_cell_angle_alpha 90.000000
_cell_angle_beta 150.317394
_cell_angle_gamma 90.000000
_cell_volume 1021.707036
_symmetry_space_group_name_H-M "P 21/M"
_symmetry_group_IT_number 11
_symmetry_cell_setting 'monoclinic'
loop_
_space_group_symop_operation_xyz
x,y,z
-x,1/2+y,-z
-x,-y,-z
x,1/2-y,z
loop_
_atom_site_type_symbol
_atom_site_label
_atom_site_fract_x
_atom_site_fract_y
_atom_site_fract_z
Si Si1 0.593055 0.933835 0.824320
Si Si2 0.990090 0.565197 0.635698
Si Si3 0.787010 0.065303 0.806818
Si Si4 0.781824 0.065452 0.126046
Si Si5 0.595771 0.064315 0.152364
O O1 0.578700 0.750000 0.807686
O O2 0.500000 0.000000 0.500000
O O3 0.699449 0.971125 0.012494
O O4 0.590918 0.012860 0.975188
O O5 0.968719 0.750000 0.581737
O O6 0.894516 0.476648 0.473213
O O7 0.000000 0.500000 0.500000
O O8 0.101167 0.525459 0.984805
O O9 0.774485 0.250000 0.786731
O O10 0.698800 0.993992 0.484063
O O11 0.775365 0.002767 0.943513
O O12 0.761433 0.250000 0.090144
O O13 0.595626 0.250000 0.160592
O O14 0.500000 0.000000 0.000000
#
# Coordination Sequence:
#
# PCOD8072320 Si02
#       5
#     4   4   4   4   4
#     4  12  25  41  59  83 112 147 188 234 285 342
#     4   9  16  30  52  81 113 149 189 231 275 328
#     4   8  17  33  56  82 112 146 185 229 276 327
#     4  10  19  35  58  86 115 147 186 233 282 335
#     4  11  22  39  60  84 113 149 189 235 285 338
#
# _framework density 19.575084
#
# number of rings (size 3 to 8) (size 9 to 14) (size 15 to 20)
#    0.000    2.000    0.000    6.000    0.000    1.600 
#    0.000   12.000    0.000    0.000    0.000    0.000 
#    0.000    0.000    0.000    0.000    0.000    0.000 
#
# Total GULP energy -247905.349243 kJ/mol
# GULP energy per Si atom -12395.267462 kJ/mol
# Density = 1.953053 g / cm^3
# Si number density = 19.575084 Si / 1000 Ang^3
#
#
#
# Elastic Constant Matrix: (Units=GPa)
#
#
# Indices 1 2 3 4 5 6 
#
# 1 101.7949 4.8402 71.1518 0.0000 10.0342 0.0000
# 2 4.8402 53.6849 27.9998 0.0000 0.5340 0.0000
# 3 71.1518 27.9998 176.4074 0.0000 14.9152 0.0000
# 4 0.0000 0.0000 0.0000 29.7953 0.0000 6.4684
# 5 10.0342 0.5340 14.9152 0.0000 35.4658 0.0000
# 6 0.0000 0.0000 0.0000 6.4684 0.0000 32.9951
#
#
#
# Elastic Compliance Matrix: (Units=1/GPa)
#
#
# Indices 1 2 3 4 5 6 
#
# 1 0.013921 0.001767 -0.005765 0.000000 -0.001541 0.000000
# 2 0.001767 0.020573 -0.004054 0.000000 0.000895 0.000000
# 3 -0.005765 -0.004054 0.008808 0.000000 -0.002012 0.000000
# 4 0.000000 0.000000 0.000000 0.035054 0.000000 -0.006872
# 5 -0.001541 0.000895 -0.002012 0.000000 0.029465 0.000000
# 6 0.000000 0.000000 0.000000 -0.006872 0.000000 0.031655
#
#
# Mechanical properties :
#
#
# Convention : Reuss Voigt Hill
#
# Bulk Modulus (GPa) = 36.76720 59.98565 48.37642
# Shear Modulus (GPa) = 30.36824 34.84426 32.60625
#
# Velocity S-wave (km/s) = 3.94302 4.22362 4.08573
# Velocity P-wave (km/s) = 6.28914 7.38212 6.85744
#
# Compressibility (1/GPa) = 0.02719816
#
# Stress axis : x y z
#
# Youngs Moduli (GPa) = 71.83285 48.60668 113.53905
#
# Poissons Ratio (x) = -0.08589 0.65457
# Poissons Ratio (y) = -0.12693 0.46027
# Poissons Ratio (z) = 0.41413 0.19704
#
# Static dielectric constant tensor:
#      x y z
#    x 3.586370 0.000000 0.257290 
#    y 0.000000 3.421470 0.000000 
#    z 0.257290 0.000000 4.397820 
# 
# 
# High freq. dielectric constant tensor:
#      x y z
#    x 1.745220 0.000000 0.023380 
#    y 0.000000 1.758390 0.000000 
#    z 0.023380 0.000000 1.780920 
# 
# From -- ./inp_files/24184.got.cif
#   From: 2010.06.25/outbox.cif.g09.slc.cpg/sg11_13_cif.got.tgz:24184.got - 2010.06.27 23:14:04.
