data_PCOD8072617
_publ_section_title
;
Structure prediction by ZEFSAII (Michael W. Deem and Ramdas Pophale) SiO2 
 PCOD8072617
Probable space group: P 21/M
;
_chemical_formula_sum "Si O2"
_cell_formula_units_Z 20
_cell_length_a 18.651971
_cell_length_b 11.446449
_cell_length_c 9.867548
_cell_angle_alpha 90.000000
_cell_angle_beta 27.456932
_cell_angle_gamma 90.000000
_cell_volume 971.365504
_symmetry_space_group_name_H-M "P 21/M"
_symmetry_group_IT_number 11
_symmetry_cell_setting 'monoclinic'
loop_
_space_group_symop_operation_xyz
x,y,z
-x,1/2+y,-z
-x,-y,-z
x,1/2-y,z
loop_
_atom_site_type_symbol
_atom_site_label
_atom_site_fract_x
_atom_site_fract_y
_atom_site_fract_z
Si Si1 0.012155 0.884956 0.074253
Si Si2 0.485515 0.121708 0.154733
Si Si3 0.722910 0.565009 0.735307
Si Si4 0.340996 0.376232 0.859051
Si Si5 0.671996 0.462494 0.358223
O O1 0.977169 0.750000 0.076520
O O2 0.894532 0.916690 0.391277
O O3 0.187807 0.879098 0.833294
O O4 0.000000 0.000000 0.000000
O O5 0.506865 0.250000 0.181111
O O6 0.403245 0.132277 0.146169
O O7 0.375665 0.047912 0.438775
O O8 0.659184 0.068506 0.847641
O O9 0.733852 0.612920 0.868015
O O10 0.299194 0.250000 0.870424
O O11 0.527099 0.384455 0.558207
O O12 0.270748 0.467053 0.870126
#
# Coordination Sequence:
#
# PCOD8072617 Si02
#       5
#     4   4   4   4   4
#     4  12  25  42  63  94 130 166 207 260 317 371
#     4  10  19  37  60  87 123 163 212 258 302 366
#     4  10  22  37  58  90 122 164 204 255 311 364
#     4  10  20  38  61  86 120 163 208 253 305 367
#     4  10  22  37  61  92 120 163 207 255 306 369
#
# _framework density 20.589572
#
# number of rings (size 3 to 8) (size 9 to 14) (size 15 to 20)
#    0.000    1.600    2.000    3.000    0.000    2.400 
#    0.000    1.000    0.000    0.000    0.000    0.000 
#    0.000    0.000    0.000    0.000    0.000    0.000 
#
# Total GULP energy -247778.188511 kJ/mol
# GULP energy per Si atom -12388.909426 kJ/mol
# Density = 2.054271 g / cm^3
# Si number density = 20.589572 Si / 1000 Ang^3
#
#
#
# Elastic Constant Matrix: (Units=GPa)
#
#
# Indices 1 2 3 4 5 6 
#
# 1 56.2560 19.0407 13.3778 0.0000 15.9800 0.0000
# 2 19.0407 130.3934 48.4566 0.0000 8.1446 0.0000
# 3 13.3778 48.4566 99.8289 0.0000 7.2400 0.0000
# 4 0.0000 0.0000 0.0000 13.0166 0.0000 -5.5156
# 5 15.9800 8.1446 7.2400 0.0000 40.3974 0.0000
# 6 0.0000 0.0000 0.0000 -5.5156 0.0000 -5.8283
#
#
#
# Elastic Compliance Matrix: (Units=1/GPa)
#
#
# Indices 1 2 3 4 5 6 
#
# 1 0.020958 -0.002129 -0.001221 0.000000 -0.007642 0.000000
# 2 -0.002129 0.009621 -0.004362 0.000000 -0.000316 0.000000
# 3 -0.001221 -0.004362 0.012360 0.000000 -0.000853 0.000000
# 4 0.000000 0.000000 0.000000 0.054836 0.000000 -0.051894
# 5 -0.007642 -0.000316 -0.000853 0.000000 0.027994 0.000000
# 6 0.000000 0.000000 0.000000 -0.051894 0.000000 -0.122468
#
#
# Mechanical properties :
#
#
# Convention : Reuss Voigt Hill
#
# Bulk Modulus (GPa) = 36.34413 49.80317 43.07365
# Shear Modulus (GPa) = 179.24905 23.22404 101.23654
#
# Velocity S-wave (km/s) = 9.34062 3.36214 7.01966
# Velocity P-wave (km/s) = 11.57668 6.27001 9.30948
#
# Compressibility (1/GPa) = 0.02751476
#
# Stress axis : x y z
#
# Youngs Moduli (GPa) = 47.71517 103.94361 80.90837
#
# Poissons Ratio (x) = 0.22134 0.09876
# Poissons Ratio (y) = 0.10160 0.35289
# Poissons Ratio (z) = 0.05824 0.45336
#
# Static dielectric constant tensor:
#      x y z
#    x 3.631770 0.000000 0.101450 
#    y 0.000000 3.979530 0.000000 
#    z 0.101450 0.000000 3.724700 
# 
# 
# High freq. dielectric constant tensor:
#      x y z
#    x 1.788730 0.000000 0.012930 
#    y 0.000000 1.812060 0.000000 
#    z 0.012930 0.000000 1.802540 
# 
# From -- ./inp_files/11729.got.cif
#   From: 2010.06.25/outbox.cif.g09.slc.cpg/sg11_6_cif.got.tgz:11729.got - 2010.06.27 23:14:04.
