data_PCOD8072241
_publ_section_title
;
Structure prediction by ZEFSAII (Michael W. Deem and Ramdas Pophale) SiO2 
 PCOD8072241
Probable space group: P 21/M
;
_chemical_formula_sum "Si O2"
_cell_formula_units_Z 28
_cell_length_a 12.375452
_cell_length_b 9.656448
_cell_length_c 14.997496
_cell_angle_alpha 90.000000
_cell_angle_beta 126.145858
_cell_angle_gamma 90.000000
_cell_volume 1447.269696
_symmetry_space_group_name_H-M "P 21/M"
_symmetry_group_IT_number 11
_symmetry_cell_setting 'monoclinic'
loop_
_space_group_symop_operation_xyz
x,y,z
-x,1/2+y,-z
-x,-y,-z
x,1/2-y,z
loop_
_atom_site_type_symbol
_atom_site_label
_atom_site_fract_x
_atom_site_fract_y
_atom_site_fract_z
Si Si1 0.736619 0.593483 0.459520
Si Si2 0.361602 0.094798 0.773447
Si Si3 0.235442 0.587507 0.860670
Si Si4 0.064865 0.087261 0.290772
Si Si5 0.520217 0.402927 0.427335
Si Si6 0.233381 0.403815 0.205760
Si Si7 0.665888 0.409356 0.895102
O O1 0.691327 0.750000 0.467135
O O2 0.752931 0.590934 0.360028
O O3 0.866640 0.550474 0.580561
O O4 0.627484 0.476126 0.418244
O O5 0.367557 0.250000 0.817192
O O6 0.508453 0.057956 0.804807
O O7 0.327139 0.987283 0.833142
O O8 0.239014 0.750000 0.841106
O O9 0.084740 0.526873 0.781318
O O10 0.295132 0.552468 0.985522
O O11 0.059476 0.250000 0.274941
O O12 0.147096 0.028912 0.245221
O O13 0.500000 0.500000 0.500000
O O14 0.571059 0.250000 0.480859
O O15 0.384196 0.387575 0.309138
O O16 0.178725 0.250000 0.153195
O O17 0.235349 0.503322 0.120933
O O18 0.696846 0.250000 0.888677
#
# Coordination Sequence:
#
# PCOD8072241 Si02
#       7
#     4   4   4   4   4   4   4
#     4  10  19  35  57  80 111 147 178 221 278 328
#     4  10  21  36  57  82 109 140 181 234 284 318
#     4  10  22  39  58  77 107 149 190 226 267 327
#     4   9  19  37  56  79 112 150 182 214 270 334
#     4  11  20  31  52  83 114 145 180 223 274 326
#     4  10  20  34  56  83 111 145 181 220 272 330
#     4  10  21  37  57  83 110 141 181 232 282 318
#
# _framework density 19.346775999999998
#
# number of rings (size 3 to 8) (size 9 to 14) (size 15 to 20)
#    0.000    2.000    2.857    0.857    0.000    3.429 
#    0.000    1.429    0.000    0.000    0.000    0.000 
#    0.000    0.000    0.000    0.000    0.000    0.000 
#
# Total GULP energy -347014.409331 kJ/mol
# GULP energy per Si atom -12393.371762 kJ/mol
# Density = 1.930274 g / cm^3
# Si number density = 19.346776 Si / 1000 Ang^3
#
#
#
# Elastic Constant Matrix: (Units=GPa)
#
#
# Indices 1 2 3 4 5 6 
#
# 1 43.4423 22.9894 32.2548 0.0000 0.0043 0.0000
# 2 22.9894 77.8834 33.9105 0.0000 -11.9286 0.0000
# 3 32.2548 33.9105 106.0151 0.0000 -11.0398 0.0000
# 4 0.0000 0.0000 0.0000 21.9083 0.0000 -5.6223
# 5 0.0043 -11.9286 -11.0398 0.0000 27.1010 0.0000
# 6 0.0000 0.0000 0.0000 -5.6223 0.0000 21.0252
#
#
#
# Elastic Compliance Matrix: (Units=1/GPa)
#
#
# Indices 1 2 3 4 5 6 
#
# 1 0.033059 -0.007073 -0.008480 0.000000 -0.006573 0.000000
# 2 -0.007073 0.017061 -0.002635 0.000000 0.006437 0.000000
# 3 -0.008480 -0.002635 0.013299 0.000000 0.004259 0.000000
# 4 0.000000 0.000000 0.000000 0.049008 0.000000 0.013105
# 5 -0.006573 0.006437 0.004259 0.000000 0.041468 0.000000
# 6 0.000000 0.000000 0.000000 0.013105 0.000000 0.051066
#
#
# Mechanical properties :
#
#
# Convention : Reuss Voigt Hill
#
# Bulk Modulus (GPa) = 36.97833 45.07225 41.02529
# Shear Modulus (GPa) = 19.97196 23.21929 21.59563
#
# Velocity S-wave (km/s) = 3.21645 3.46810 3.34464
# Velocity P-wave (km/s) = 5.74012 6.27571 6.01388
#
# Compressibility (1/GPa) = 0.02704286
#
# Stress axis : x y z
#
# Youngs Moduli (GPa) = 30.24910 58.61487 75.19341
#
# Poissons Ratio (x) = 0.41456 0.63766
# Poissons Ratio (y) = 0.21394 0.19813
# Poissons Ratio (z) = 0.25652 0.15445
#
# Static dielectric constant tensor:
#      x y z
#    x 3.622420 0.000000 0.109690 
#    y 0.000000 3.449340 0.000000 
#    z 0.109690 0.000000 3.642350 
# 
# 
# High freq. dielectric constant tensor:
#      x y z
#    x 1.735260 0.000000 -0.005110 
#    y 0.000000 1.739540 0.000000 
#    z -0.005110 0.000000 1.758730 
# 
# From -- ./inp_files/37885.got.cif
#   From: 2010.06.25/outbox.cif.g09.slc.cpg/sg11_19_cif.got.tgz:37885.got - 2010.06.27 23:14:04.
