data_PCOD8072114
_publ_section_title
;
Structure prediction by ZEFSAII (Michael W. Deem and Ramdas Pophale) SiO2 
 PCOD8072114
Probable space group: P 21/M
;
_chemical_formula_sum "Si O2"
_cell_formula_units_Z 28
_cell_length_a 11.851799
_cell_length_b 9.009382
_cell_length_c 14.131315
_cell_angle_alpha 90.000000
_cell_angle_beta 96.703306
_cell_angle_gamma 90.000000
_cell_volume 1498.589856
_symmetry_space_group_name_H-M "P 21/M"
_symmetry_group_IT_number 11
_symmetry_cell_setting 'monoclinic'
loop_
_space_group_symop_operation_xyz
x,y,z
-x,1/2+y,-z
-x,-y,-z
x,1/2-y,z
loop_
_atom_site_type_symbol
_atom_site_label
_atom_site_fract_x
_atom_site_fract_y
_atom_site_fract_z
Si Si1 0.830975 0.422325 0.221993
Si Si2 0.076754 0.079923 0.316374
Si Si3 0.881354 0.425281 0.012586
Si Si4 0.245519 0.922868 0.460393
Si Si5 0.672605 0.924721 0.345412
Si Si6 0.412436 0.923251 0.309002
Si Si7 0.242549 0.422437 0.162126
O O1 0.800145 0.250000 0.228430
O O2 0.845956 0.468036 0.114949
O O3 0.728824 0.518677 0.254181
O O4 0.945168 0.459293 0.291282
O O5 0.095412 0.250000 0.348501
O O6 0.138127 0.049393 0.222764
O O7 0.127277 0.975964 0.402985
O O8 0.894945 0.250000 0.001088
O O9 0.782512 0.487386 0.935639
O O10 0.000000 0.500000 0.000000
O O11 0.236523 0.750000 0.480646
O O12 0.349098 0.962233 0.400563
O O13 0.262889 0.004759 0.560221
O O14 0.684262 0.750000 0.353644
O O15 0.541693 0.974356 0.333205
O O16 0.400437 0.750000 0.283582
O O17 0.358879 0.016501 0.218154
O O18 0.257560 0.250000 0.139294
#
# Coordination Sequence:
#
# PCOD8072114 Si02
#       7
#     4   4   4   4   4   4   4
#     4  10  22  39  56  79 114 150 185 226 275 331
#     4   9  18  35  55  80 113 144 180 228 276 326
#     4  11  21  36  59  86 115 146 183 228 277 330
#     4  10  20  35  58  84 109 143 186 229 279 332
#     4  11  23  38  56  80 112 149 188 231 278 328
#     4   9  20  38  58  83 112 144 187 234 276 324
#     4  10  19  34  58  88 114 142 183 230 281 328
#
# _framework density 18.684232000000002
#
# number of rings (size 3 to 8) (size 9 to 14) (size 15 to 20)
#    0.000    2.000    1.429    2.143    0.000    4.571 
#    0.000    0.714    0.000    0.000    0.000    0.000 
#    0.000    0.000    0.000    0.000    0.000    0.000 
#
# Total GULP energy -347342.688411 kJ/mol
# GULP energy per Si atom -12405.096015 kJ/mol
# Density = 1.864171 g / cm^3
# Si number density = 18.684232 Si / 1000 Ang^3
#
#
#
# Elastic Constant Matrix: (Units=GPa)
#
#
# Indices 1 2 3 4 5 6 
#
# 1 52.7647 27.2058 33.1248 0.0000 -6.7148 0.0000
# 2 27.2058 76.4502 54.2432 0.0000 -3.9959 0.0000
# 3 33.1248 54.2432 116.8683 0.0000 -2.6841 0.0000
# 4 0.0000 0.0000 0.0000 35.7778 0.0000 1.2124
# 5 -6.7148 -3.9959 -2.6841 0.0000 18.0070 0.0000
# 6 0.0000 0.0000 0.0000 1.2124 0.0000 30.6608
#
#
#
# Elastic Compliance Matrix: (Units=1/GPa)
#
#
# Indices 1 2 3 4 5 6 
#
# 1 0.025604 -0.005498 -0.004530 0.000000 0.007653 0.000000
# 2 -0.005498 0.020845 -0.008085 0.000000 0.001370 0.000000
# 3 -0.004530 -0.008085 0.013560 0.000000 -0.001462 0.000000
# 4 0.000000 0.000000 0.000000 0.027988 0.000000 -0.001107
# 5 0.007653 0.001370 -0.001462 0.000000 0.058474 0.000000
# 6 0.000000 0.000000 0.000000 -0.001107 0.000000 0.032659
#
#
# Mechanical properties :
#
#
# Convention : Reuss Voigt Hill
#
# Bulk Modulus (GPa) = 42.04578 52.80343 47.42460
# Shear Modulus (GPa) = 22.39311 25.65641 24.02476
#
# Velocity S-wave (km/s) = 3.46570 3.70964 3.58974
# Velocity P-wave (km/s) = 6.21023 6.83161 6.52831
#
# Compressibility (1/GPa) = 0.02378360
#
# Stress axis : x y z
#
# Youngs Moduli (GPa) = 39.05606 47.97261 73.74785
#
# Poissons Ratio (x) = 0.26374 0.33406
# Poissons Ratio (y) = 0.21472 0.59628
# Poissons Ratio (z) = 0.17691 0.38788
#
# Static dielectric constant tensor:
#      x y z
#    x 3.375880 0.000000 0.078790 
#    y 0.000000 3.450250 0.000000 
#    z 0.078790 0.000000 3.481870 
# 
# 
# High freq. dielectric constant tensor:
#      x y z
#    x 1.715050 0.000000 0.008150 
#    y 0.000000 1.731540 0.000000 
#    z 0.008150 0.000000 1.729250 
# 
# From -- ./inp_files/44602.got.cif
#   From: 2010.06.25/outbox.cif.g09.slc.cpg/sg11_23_cif.got.tgz:44602.got - 2010.06.27 23:14:04.
