data_PCOD8072492
_publ_section_title
;
Structure prediction by ZEFSAII (Michael W. Deem and Ramdas Pophale) SiO2 
 PCOD8072492
Probable space group: P 21/M
;
_chemical_formula_sum "Si O2"
_cell_formula_units_Z 32
_cell_length_a 14.184271
_cell_length_b 9.092835
_cell_length_c 19.799530
_cell_angle_alpha 90.000000
_cell_angle_beta 139.191650
_cell_angle_gamma 90.000000
_cell_volume 1668.888607
_symmetry_space_group_name_H-M "P 21/M"
_symmetry_group_IT_number 11
_symmetry_cell_setting 'monoclinic'
loop_
_space_group_symop_operation_xyz
x,y,z
-x,1/2+y,-z
-x,-y,-z
x,1/2-y,z
loop_
_atom_site_type_symbol
_atom_site_label
_atom_site_fract_x
_atom_site_fract_y
_atom_site_fract_z
Si Si1 0.900145 0.575433 0.804086
Si Si2 0.152759 0.076812 0.373223
Si Si3 0.220010 0.574984 0.014585
Si Si4 0.326583 0.424714 0.207533
Si Si5 0.862306 0.418705 0.279385
Si Si6 0.622820 0.921559 0.395979
Si Si7 0.632771 0.083149 0.040870
Si Si8 0.849803 0.577442 0.403348
O O1 0.901099 0.750000 0.800640
O O2 0.853822 0.508821 0.705861
O O3 0.785401 0.519844 0.796652
O O4 0.058104 0.519047 0.911443
O O5 0.130677 0.250000 0.355239
O O6 0.302726 0.038974 0.491765
O O7 0.021401 0.019024 0.348395
O O8 0.223128 0.750000 0.026569
O O9 0.323555 0.525060 0.009391
O O10 0.280622 0.495813 0.112682
O O11 0.326720 0.250000 0.200241
O O12 0.483498 0.477978 0.314568
O O13 0.867815 0.250000 0.307437
O O14 0.771630 0.435249 0.162601
O O15 0.792351 0.517600 0.300354
O O16 0.580035 0.750000 0.369260
O O17 0.731645 0.962894 0.395031
O O18 0.583191 0.250000 0.008547
O O19 0.500000 0.000000 0.000000
O O20 0.876050 0.750000 0.414513
O O21 0.000000 0.500000 0.500000
#
# Coordination Sequence:
#
# PCOD8072492 Si02
#       8
#     4   4   4   4   4   4   4   4
#     4   9  18  36  63  88 109 143 192 243 290 339
#     4   9  16  34  62  85 109 146 193 234 278 343
#     4  10  20  39  64  85 112 153 195 231 280 352
#     4  11  24  38  56  86 119 149 188 243 294 330
#     4  10  19  36  59  84 111 149 193 233 283 340
#     4  10  22  39  58  82 115 156 193 228 280 350
#     4  10  22  37  58  86 116 150 189 232 284 341
#     4  11  22  36  57  84 113 149 190 231 275 333
#
# _framework density 19.174437999999999
#
# number of rings (size 3 to 8) (size 9 to 14) (size 15 to 20)
#    0.000    2.000    2.500    1.125    1.750    2.500 
#    0.000    0.625    0.000    3.000    0.000    0.000 
#    0.000    0.000    0.000    0.000    0.000    0.000 
#
# Total GULP energy -396805.198075 kJ/mol
# GULP energy per Si atom -12400.162440 kJ/mol
# Density = 1.913080 g / cm^3
# Si number density = 19.174438 Si / 1000 Ang^3
#
#
#
# Elastic Constant Matrix: (Units=GPa)
#
#
# Indices 1 2 3 4 5 6 
#
# 1 141.6069 44.6078 73.0835 0.0000 4.6864 0.0000
# 2 44.6078 44.5675 33.2896 0.0000 5.6739 0.0000
# 3 73.0835 33.2896 118.1162 0.0000 -1.9405 0.0000
# 4 0.0000 0.0000 0.0000 26.4405 0.0000 0.9517
# 5 4.6864 5.6739 -1.9405 0.0000 33.5476 0.0000
# 6 0.0000 0.0000 0.0000 0.9517 0.0000 26.1833
#
#
#
# Elastic Compliance Matrix: (Units=1/GPa)
#
#
# Indices 1 2 3 4 5 6 
#
# 1 0.012513 -0.008426 -0.005378 0.000000 -0.000634 0.000000
# 2 -0.008426 0.035060 -0.004750 0.000000 -0.005027 0.000000
# 3 -0.005378 -0.004750 0.013170 0.000000 0.002316 0.000000
# 4 0.000000 0.000000 0.000000 0.037870 0.000000 -0.001376
# 5 -0.000634 -0.005027 0.002316 0.000000 0.030881 0.000000
# 6 0.000000 0.000000 0.000000 -0.001376 0.000000 0.038242
#
#
# Mechanical properties :
#
#
# Convention : Reuss Voigt Hill
#
# Bulk Modulus (GPa) = 42.31047 67.36138 54.83593
# Shear Modulus (GPa) = 23.50476 27.45494 25.47985
#
# Velocity S-wave (km/s) = 3.50500 3.78809 3.64929
# Velocity P-wave (km/s) = 6.20435 7.37156 6.81300
#
# Compressibility (1/GPa) = 0.02363481
#
# Stress axis : x y z
#
# Youngs Moduli (GPa) = 79.91957 28.52262 75.92788
#
# Poissons Ratio (x) = 0.24034 0.40831
# Poissons Ratio (y) = 0.67343 0.36066
# Poissons Ratio (z) = 0.42978 0.13548
#
# Static dielectric constant tensor:
#      x y z
#    x 4.156680 0.000000 0.591680 
#    y 0.000000 3.602450 0.000000 
#    z 0.591680 0.000000 4.988910 
# 
# 
# High freq. dielectric constant tensor:
#      x y z
#    x 1.756420 0.000000 -0.007970 
#    y 0.000000 1.713520 0.000000 
#    z -0.007970 0.000000 1.759500 
# 
# From -- ./inp_files/65233.got.cif
#   From: 2010.06.25/outbox.cif.g09.slc.cpg/sg11_33_cif.got.tgz:65233.got - 2010.06.27 23:14:04.
