data_PCOD8072498
_publ_section_title
;
Structure prediction by ZEFSAII (Michael W. Deem and Ramdas Pophale) SiO2 
 PCOD8072498
Probable space group: P 21/M
;
_chemical_formula_sum "Si O2"
_cell_formula_units_Z 28
_cell_length_a 8.948858
_cell_length_b 13.195541
_cell_length_c 13.800104
_cell_angle_alpha 90.000000
_cell_angle_beta 120.076591
_cell_angle_gamma 90.000000
_cell_volume 1410.172074
_symmetry_space_group_name_H-M "P 21/M"
_symmetry_group_IT_number 11
_symmetry_cell_setting 'monoclinic'
loop_
_space_group_symop_operation_xyz
x,y,z
-x,1/2+y,-z
-x,-y,-z
x,1/2-y,z
loop_
_atom_site_type_symbol
_atom_site_label
_atom_site_fract_x
_atom_site_fract_y
_atom_site_fract_z
Si Si1 0.887343 0.993202 0.702242
Si Si2 0.955017 0.632467 0.539121
Si Si3 0.573406 0.943351 0.719398
Si Si4 0.370691 0.365207 0.698385
Si Si5 0.257128 0.869152 0.499093
Si Si6 0.257806 0.046552 0.860095
Si Si7 0.504874 0.634301 0.903468
O O1 0.958258 0.915325 0.645781
O O2 0.766756 0.936851 0.740884
O O3 0.774051 0.081638 0.615856
O O4 0.053287 0.037743 0.811498
O O5 0.993506 0.750000 0.564861
O O6 0.772499 0.612683 0.429131
O O7 0.111439 0.586261 0.525361
O O8 0.445811 0.898332 0.597256
O O9 0.562400 0.874514 0.810876
O O10 0.530195 0.059995 0.731512
O O11 0.438224 0.250000 0.713813
O O12 0.289597 0.383403 0.777241
O O13 0.238687 0.750000 0.480257
O O14 0.339494 0.935140 0.872361
O O15 0.334421 0.101270 0.978648
O O16 0.452361 0.750000 0.908073
#
# Coordination Sequence:
#
# PCOD8072498 Si02
#       7
#     4   4   4   4   4   4   4
#     4  12  23  38  57  89 125 154 194 238 296 355
#     4  10  20  34  58  86 116 154 198 243 287 340
#     4  11  24  38  56  85 126 163 193 236 291 358
#     4  10  19  36  59  86 118 154 198 244 292 343
#     4  11  22  37  57  84 118 160 200 242 291 346
#     4  10  22  39  68  90 113 151 201 254 294 340
#     4  10  22  43  65  88 115 153 199 248 296 345
#
# _framework density 19.855733000000001
#
# number of rings (size 3 to 8) (size 9 to 14) (size 15 to 20)
#    0.000    1.429    2.857    3.429    0.000    4.571 
#    0.000    0.000    0.000    0.000    0.000    0.000 
#    0.000    0.000    0.000    0.000    0.000    0.000 
#
# Total GULP energy -347373.775509 kJ/mol
# GULP energy per Si atom -12406.206268 kJ/mol
# Density = 1.981054 g / cm^3
# Si number density = 19.855733 Si / 1000 Ang^3
#
#
#
# Elastic Constant Matrix: (Units=GPa)
#
#
# Indices 1 2 3 4 5 6 
#
# 1 74.2413 5.0355 15.0474 0.0000 2.1823 0.0000
# 2 5.0355 83.0172 21.7887 0.0000 -4.9700 0.0000
# 3 15.0474 21.7887 86.4382 0.0000 18.4156 0.0000
# 4 0.0000 0.0000 0.0000 19.3337 0.0000 0.7658
# 5 2.1823 -4.9700 18.4156 0.0000 16.7266 0.0000
# 6 0.0000 0.0000 0.0000 0.7658 0.0000 18.5290
#
#
#
# Elastic Compliance Matrix: (Units=1/GPa)
#
#
# Indices 1 2 3 4 5 6 
#
# 1 0.013979 -0.000094 -0.002633 0.000000 0.001047 0.000000
# 2 -0.000094 0.014224 -0.005842 0.000000 0.010671 0.000000
# 3 -0.002633 -0.005842 0.018025 0.000000 -0.021237 0.000000
# 4 0.000000 0.000000 0.000000 0.051808 0.000000 -0.002141
# 5 0.001047 0.010671 -0.021237 0.000000 0.086201 0.000000
# 6 0.000000 0.000000 0.000000 -0.002141 0.000000 0.054058
#
#
# Mechanical properties :
#
#
# Convention : Reuss Voigt Hill
#
# Bulk Modulus (GPa) = 34.37818 36.38218 35.38018
# Shear Modulus (GPa) = 18.85877 24.37286 21.61581
#
# Velocity S-wave (km/s) = 3.08521 3.50737 3.30304
# Velocity P-wave (km/s) = 5.48114 5.89620 5.69246
#
# Compressibility (1/GPa) = 0.02908822
#
# Stress axis : x y z
#
# Youngs Moduli (GPa) = 71.53683 70.30546 55.47994
#
# Poissons Ratio (x) = 0.00663 0.14606
# Poissons Ratio (y) = 0.00674 0.32414
# Poissons Ratio (z) = 0.18834 0.41075
#
# Static dielectric constant tensor:
#      x y z
#    x 3.390930 0.000000 0.038920 
#    y 0.000000 3.681070 0.000000 
#    z 0.038920 0.000000 3.623460 
# 
# 
# High freq. dielectric constant tensor:
#      x y z
#    x 1.755220 0.000000 0.003980 
#    y 0.000000 1.787140 0.000000 
#    z 0.003980 0.000000 1.771400 
# 
# From -- ./inp_files/18141.got.cif
#   From: 2010.06.25/outbox.cif.g09.slc.cpg/sg11_10_cif.got.tgz:18141.got - 2010.06.27 23:14:04.
