data_PCOD8072389
_publ_section_title
;
Structure prediction by ZEFSAII (Michael W. Deem and Ramdas Pophale) SiO2 
 PCOD8072389
Probable space group: P 21/M
;
_chemical_formula_sum "Si O2"
_cell_formula_units_Z 32
_cell_length_a 14.452675
_cell_length_b 15.294916
_cell_length_c 11.915119
_cell_angle_alpha 90.000000
_cell_angle_beta 147.605404
_cell_angle_gamma 90.000000
_cell_volume 1411.086356
_symmetry_space_group_name_H-M "P 21/M"
_symmetry_group_IT_number 11
_symmetry_cell_setting 'monoclinic'
loop_
_space_group_symop_operation_xyz
x,y,z
-x,1/2+y,-z
-x,-y,-z
x,1/2-y,z
loop_
_atom_site_type_symbol
_atom_site_label
_atom_site_fract_x
_atom_site_fract_y
_atom_site_fract_z
Si Si1 0.557882 0.095272 0.601779
Si Si2 0.261575 0.601432 0.426473
Si Si3 0.193080 0.090693 0.271913
Si Si4 0.109818 0.347718 0.950859
Si Si5 0.864982 0.149402 0.063712
Si Si6 0.897105 0.353859 0.347582
Si Si7 0.593564 0.352674 0.197123
Si Si8 0.790061 0.647065 0.186732
O O1 0.623578 0.144489 0.556185
O O2 0.384085 0.136191 0.479813
O O3 0.500000 0.000000 0.500000
O O4 0.714264 0.093513 0.850579
O O5 0.193344 0.506422 0.320401
O O6 0.372332 0.595432 0.653045
O O7 0.095575 0.661056 0.278330
O O8 0.047354 0.145989 0.185922
O O9 0.151947 0.087913 0.096798
O O10 0.181370 0.250000 0.048853
O O11 0.192227 0.389023 0.922243
O O12 0.804176 0.250000 0.004630
O O13 0.889954 0.109767 0.213779
O O14 0.911325 0.250000 0.358114
O O15 0.723883 0.384362 0.234007
O O16 0.065175 0.394180 0.582638
O O17 0.614948 0.250000 0.243550
O O18 0.399085 0.375048 0.957970
O O19 0.823392 0.750000 0.213595
#
# Coordination Sequence:
#
# PCOD8072389 Si02
#       8
#     4   4   4   4   4   4   4   4
#     4  10  24  41  63  89 125 170 206 250 306 372
#     4  11  21  37  61  88 122 166 204 251 311 375
#     4  11  24  40  59  89 126 165 202 251 315 373
#     4  11  20  34  60  90 119 155 203 254 305 365
#     4  11  24  42  66  93 124 163 208 254 308 375
#     4   9  19  37  60  89 121 156 202 258 311 359
#     4  10  19  35  60  89 121 159 207 263 310 357
#     4   9  18  33  58  90 118 149 197 257 314 357
#
# _framework density 22.677562000000002
#
# number of rings (size 3 to 8) (size 9 to 14) (size 15 to 20)
#    0.000    1.750    2.500    1.875    1.750    2.500 
#    0.000    3.125    0.000    3.750    0.000    0.000 
#    0.000    0.000    0.000    0.000    0.000    0.000 
#
# Total GULP energy -396703.199711 kJ/mol
# GULP energy per Si atom -12396.974991 kJ/mol
# Density = 2.262595 g / cm^3
# Si number density = 22.677562 Si / 1000 Ang^3
#
#
#
# Elastic Constant Matrix: (Units=GPa)
#
#
# Indices 1 2 3 4 5 6 
#
# 1 157.9061 3.6284 114.3400 0.0000 0.3551 0.0000
# 2 3.6284 42.5143 23.9710 0.0000 -5.6854 0.0000
# 3 114.3400 23.9710 170.6542 0.0000 7.7035 0.0000
# 4 0.0000 0.0000 0.0000 25.4487 0.0000 0.3321
# 5 0.3551 -5.6854 7.7035 0.0000 52.3747 0.0000
# 6 0.0000 0.0000 0.0000 0.3321 0.0000 10.9401
#
#
#
# Elastic Compliance Matrix: (Units=1/GPa)
#
#
# Indices 1 2 3 4 5 6 
#
# 1 0.013089 0.004466 -0.009478 0.000000 0.001790 0.000000
# 2 0.004466 0.027656 -0.007058 0.000000 0.004010 0.000000
# 3 -0.009478 -0.007058 0.013322 0.000000 -0.002661 0.000000
# 4 0.000000 0.000000 0.000000 0.039310 0.000000 -0.001193
# 5 0.001790 0.004010 -0.002661 0.000000 0.019908 0.000000
# 6 0.000000 0.000000 0.000000 -0.001193 0.000000 0.091443
#
#
# Mechanical properties :
#
#
# Convention : Reuss Voigt Hill
#
# Bulk Modulus (GPa) = 33.41425 72.77259 53.09342
# Shear Modulus (GPa) = 20.93409 33.02837 26.98123
#
# Velocity S-wave (km/s) = 3.04158 3.82047 3.45306
# Velocity P-wave (km/s) = 5.20591 7.18478 6.27386
#
# Compressibility (1/GPa) = 0.02992735
#
# Stress axis : x y z
#
# Youngs Moduli (GPa) = 76.39763 36.15818 75.06442
#
# Poissons Ratio (x) = -0.16150 0.71148
# Poissons Ratio (y) = -0.34122 0.52983
# Poissons Ratio (z) = 0.72411 0.25522
#
# Static dielectric constant tensor:
#      x y z
#    x 4.491920 0.000000 0.268870 
#    y 0.000000 3.491430 0.000000 
#    z 0.268870 0.000000 4.318020 
# 
# 
# High freq. dielectric constant tensor:
#      x y z
#    x 1.903820 0.000000 0.012030 
#    y 0.000000 1.854690 0.000000 
#    z 0.012030 0.000000 1.902510 
# 
# From -- ./inp_files/40051.got.cif
#   From: 2010.06.25/outbox.cif.g09.slc.cpg/sg11_21_cif.got.tgz:40051.got - 2010.06.27 23:14:04.
