data_PCOD8072060
_publ_section_title
;
Structure prediction by ZEFSAII (Michael W. Deem and Ramdas Pophale) SiO2 
 PCOD8072060
Probable space group: P 21/M
;
_chemical_formula_sum "Si O2"
_cell_formula_units_Z 28
_cell_length_a 26.440252
_cell_length_b 8.694506
_cell_length_c 9.059089
_cell_angle_alpha 90.000000
_cell_angle_beta 42.206882
_cell_angle_gamma 90.000000
_cell_volume 1399.075691
_symmetry_space_group_name_H-M "P 21/M"
_symmetry_group_IT_number 11
_symmetry_cell_setting 'monoclinic'
loop_
_space_group_symop_operation_xyz
x,y,z
-x,1/2+y,-z
-x,-y,-z
x,1/2-y,z
loop_
_atom_site_type_symbol
_atom_site_label
_atom_site_fract_x
_atom_site_fract_y
_atom_site_fract_z
Si Si1 0.326807 0.930011 0.459721
Si Si2 0.912950 0.072484 0.325313
Si Si3 0.514050 0.072261 0.814412
Si Si4 0.935251 0.071507 0.941419
Si Si5 0.802374 0.571160 0.070757
Si Si6 0.643415 0.930860 0.921563
Si Si7 0.228801 0.571516 0.171612
O O1 0.323408 0.750000 0.426145
O O2 0.398705 0.965427 0.414879
O O3 0.252202 0.974547 0.706569
O O4 0.332710 0.025073 0.296106
O O5 0.935557 0.250000 0.294612
O O6 0.906612 0.028490 0.167196
O O7 0.833324 0.034284 0.570411
O O8 0.977220 0.972137 0.265627
O O9 0.502962 0.250000 0.862970
O O10 0.445083 0.021570 0.855866
O O11 0.500000 0.000000 0.000000
O O12 0.924545 0.250000 0.928368
O O13 0.887647 0.973296 0.927438
O O14 0.787948 0.750000 0.127740
O O15 0.788402 0.531323 0.931903
O O16 0.658093 0.750000 0.912933
O O17 0.690320 0.026609 0.938827
O O18 0.228764 0.750000 0.126459
#
# Coordination Sequence:
#
# PCOD8072060 Si02
#       7
#     4   4   4   4   4   4   4
#     4  10  19  35  58  83 111 146 187 228 274 328
#     4   9  20  38  60  85 111 140 179 224 269 322
#     4   8  16  30  52  81 111 141 178 226 274 323
#     4  10  20  37  62  88 112 140 177 222 274 332
#     4  12  25  39  55  79 112 148 187 232 280 329
#     4  10  19  34  57  86 115 144 182 228 277 326
#     4  11  23  39  57  79 111 151 190 228 274 328
#
# _framework density 20.013213
#
# number of rings (size 3 to 8) (size 9 to 14) (size 15 to 20)
#    0.000    2.000    0.000    3.857    0.000    4.571 
#    0.000    0.714    0.000    0.000    0.000    0.000 
#    0.000    0.000    0.000    0.000    0.000    0.000 
#
# Total GULP energy -347094.917106 kJ/mol
# GULP energy per Si atom -12396.247039 kJ/mol
# Density = 1.996766 g / cm^3
# Si number density = 20.013213 Si / 1000 Ang^3
#
#
#
# Elastic Constant Matrix: (Units=GPa)
#
#
# Indices 1 2 3 4 5 6 
#
# 1 131.9687 29.6081 24.0046 0.0000 -18.0613 0.0000
# 2 29.6081 49.4465 16.0099 0.0000 -10.5579 0.0000
# 3 24.0046 16.0099 16.3688 0.0000 -8.5050 0.0000
# 4 0.0000 0.0000 0.0000 26.2101 0.0000 -1.9814
# 5 -18.0613 -10.5579 -8.5050 0.0000 26.5494 0.0000
# 6 0.0000 0.0000 0.0000 -1.9814 0.0000 35.8886
#
#
#
# Elastic Compliance Matrix: (Units=1/GPa)
#
#
# Indices 1 2 3 4 5 6 
#
# 1 0.010590 -0.001756 -0.012515 0.000000 0.002497 0.000000
# 2 -0.001756 0.030088 -0.025502 0.000000 0.002601 0.000000
# 3 -0.012515 -0.025502 0.113604 0.000000 0.017738 0.000000
# 4 0.000000 0.000000 0.000000 0.038313 0.000000 0.002115
# 5 0.002497 0.002601 0.017738 0.000000 0.046081 0.000000
# 6 0.000000 0.000000 0.000000 0.002115 0.000000 0.027981
#
#
# Mechanical properties :
#
#
# Convention : Reuss Voigt Hill
#
# Bulk Modulus (GPa) = 13.38037 37.44768 25.41402
# Shear Modulus (GPa) = 13.47298 26.27371 19.87335
#
# Velocity S-wave (km/s) = 2.59743 3.62721 3.15463
# Velocity P-wave (km/s) = 3.96180 6.02448 5.09854
#
# Compressibility (1/GPa) = 0.07473636
#
# Stress axis : x y z
#
# Youngs Moduli (GPa) = 94.43242 33.23632 8.80249
#
# Poissons Ratio (x) = 0.05835 0.11016
# Poissons Ratio (y) = 0.16579 0.22448
# Poissons Ratio (z) = 1.18183 0.84758
#
# Static dielectric constant tensor:
#      x y z
#    x 3.890000 0.000000 -0.432510 
#    y 0.000000 3.611320 0.000000 
#    z -0.432510 0.000000 3.618680 
# 
# 
# High freq. dielectric constant tensor:
#      x y z
#    x 1.789490 0.000000 -0.027900 
#    y 0.000000 1.787100 0.000000 
#    z -0.027900 0.000000 1.761300 
# 
# From -- ./inp_files/24060.got.cif
#   From: 2010.06.25/outbox.cif.g09.slc.cpg/sg11_13_cif.got.tgz:24060.got - 2010.06.27 23:14:04.
