data_PCOD8072451
_publ_section_title
;
Structure prediction by ZEFSAII (Michael W. Deem and Ramdas Pophale) SiO2 
 PCOD8072451
Probable space group: P 21/M
;
_chemical_formula_sum "Si O2"
_cell_formula_units_Z 28
_cell_length_a 14.874258
_cell_length_b 17.240815
_cell_length_c 8.739211
_cell_angle_alpha 90.000000
_cell_angle_beta 40.866466
_cell_angle_gamma 90.000000
_cell_volume 1466.361772
_symmetry_space_group_name_H-M "P 21/M"
_symmetry_group_IT_number 11
_symmetry_cell_setting 'monoclinic'
loop_
_space_group_symop_operation_xyz
x,y,z
-x,1/2+y,-z
-x,-y,-z
x,1/2-y,z
loop_
_atom_site_type_symbol
_atom_site_label
_atom_site_fract_x
_atom_site_fract_y
_atom_site_fract_z
Si Si1 0.510395 0.483273 0.161380
Si Si2 0.810598 0.335610 0.047750
Si Si3 0.926975 0.612717 0.127080
Si Si4 0.449360 0.918465 0.498561
Si Si5 0.035910 0.971595 0.704190
Si Si6 0.622138 0.662315 0.509144
Si Si7 0.182555 0.556894 0.217729
O O1 0.452838 0.562966 0.313401
O O2 0.433114 0.402697 0.302130
O O3 0.500000 0.500000 0.000000
O O4 0.666877 0.474404 0.009029
O O5 0.746666 0.250000 0.137439
O O6 0.707515 0.396886 0.259313
O O7 0.832082 0.358355 0.841737
O O8 0.956195 0.334970 0.946104
O O9 0.786500 0.659544 0.290720
O O10 0.900186 0.537969 0.269315
O O11 0.976221 0.593779 0.892029
O O12 0.554064 0.853463 0.428993
O O13 0.500000 0.000000 0.500000
O O14 0.152380 0.938523 0.438758
O O15 0.915339 0.999248 0.748658
O O16 0.581092 0.750000 0.613146
#
# Coordination Sequence:
#
# PCOD8072451 Si02
#       7
#     4   4   4   4   4   4   4
#     4  11  23  36  62  89 119 153 201 249 296 352
#     4  11  22  38  58  84 120 160 195 243 301 353
#     4  10  21  35  62  86 121 147 206 242 297 347
#     4  10  21  37  60  85 112 154 202 237 288 358
#     4   9  20  34  61  90 113 155 194 255 285 347
#     4  11  22  39  61  87 122 159 197 246 304 355
#     4  10  19  36  57  85 119 148 197 237 299 348
#
# _framework density 19.094878999999999
#
# number of rings (size 3 to 8) (size 9 to 14) (size 15 to 20)
#    0.000    1.714    2.857    2.571   12.000    0.000 
#    0.000    2.857    0.000    0.000    0.000    0.000 
#    0.000    0.000    0.000    0.000    0.000    0.000 
#
# Total GULP energy -346975.396081 kJ/mol
# GULP energy per Si atom -12391.978431 kJ/mol
# Density = 1.905142 g / cm^3
# Si number density = 19.094879 Si / 1000 Ang^3
#
#
#
# Elastic Constant Matrix: (Units=GPa)
#
#
# Indices 1 2 3 4 5 6 
#
# 1 79.6223 29.6734 39.7468 0.0000 6.0104 0.0000
# 2 29.6734 105.8884 52.9930 0.0000 9.8766 0.0000
# 3 39.7468 52.9930 117.2847 0.0000 10.7079 0.0000
# 4 0.0000 0.0000 0.0000 20.2800 0.0000 -1.8528
# 5 6.0104 9.8766 10.7079 0.0000 48.5740 0.0000
# 6 0.0000 0.0000 0.0000 -1.8528 0.0000 5.8525
#
#
#
# Elastic Compliance Matrix: (Units=1/GPa)
#
#
# Indices 1 2 3 4 5 6 
#
# 1 0.015523 -0.002186 -0.004223 0.000000 -0.000545 0.000000
# 2 -0.002186 0.012591 -0.004837 0.000000 -0.001223 0.000000
# 3 -0.004223 -0.004837 0.012252 0.000000 -0.001195 0.000000
# 4 0.000000 0.000000 0.000000 0.050778 0.000000 0.016075
# 5 -0.000545 -0.001223 -0.001195 0.000000 0.021167 0.000000
# 6 0.000000 0.000000 0.000000 0.016075 0.000000 0.175956
#
#
# Mechanical properties :
#
#
# Convention : Reuss Voigt Hill
#
# Bulk Modulus (GPa) = 55.94408 60.84688 58.39548
# Shear Modulus (GPa) = 15.78697 26.96678 21.37688
#
# Velocity S-wave (km/s) = 2.87847 3.76207 3.34954
# Velocity P-wave (km/s) = 6.35681 7.12781 6.75332
#
# Compressibility (1/GPa) = 0.01787499
#
# Stress axis : x y z
#
# Youngs Moduli (GPa) = 64.41938 79.42134 81.61944
#
# Poissons Ratio (x) = 0.17359 0.34471
# Poissons Ratio (y) = 0.14080 0.39477
# Poissons Ratio (z) = 0.27207 0.38413
#
# Static dielectric constant tensor:
#      x y z
#    x 3.736420 0.000000 0.265090 
#    y 0.000000 3.469050 0.000000 
#    z 0.265090 0.000000 4.048940 
# 
# 
# High freq. dielectric constant tensor:
#      x y z
#    x 1.756490 0.000000 -0.010620 
#    y 0.000000 1.716540 0.000000 
#    z -0.010620 0.000000 1.744260 
# 
# From -- ./inp_files/22709.got.cif
#   From: 2010.06.25/outbox.cif.g09.slc.cpg/sg11_12_cif.got.tgz:22709.got - 2010.06.27 23:14:04.
