data_PCOD8072036
_publ_section_title
;
Structure prediction by ZEFSAII (Michael W. Deem and Ramdas Pophale) SiO2 
 PCOD8072036
Probable space group: P 21/M
;
_chemical_formula_sum "Si O2"
_cell_formula_units_Z 24
_cell_length_a 19.419184
_cell_length_b 8.554463
_cell_length_c 10.249282
_cell_angle_alpha 90.000000
_cell_angle_beta 49.144705
_cell_angle_gamma 90.000000
_cell_volume 1287.798987
_symmetry_space_group_name_H-M "P 21/M"
_symmetry_group_IT_number 11
_symmetry_cell_setting 'monoclinic'
loop_
_space_group_symop_operation_xyz
x,y,z
-x,1/2+y,-z
-x,-y,-z
x,1/2-y,z
loop_
_atom_site_type_symbol
_atom_site_label
_atom_site_fract_x
_atom_site_fract_y
_atom_site_fract_z
Si Si1 0.233398 0.565449 0.222817
Si Si2 0.569837 0.935240 0.308373
Si Si3 0.233548 0.935167 0.929641
Si Si4 0.434514 0.564224 0.971070
Si Si5 0.949063 0.435263 0.439611
Si Si6 0.947715 0.564574 0.941966
O O1 0.236377 0.750000 0.218919
O O2 0.333463 0.503753 0.136868
O O3 0.156432 0.506020 0.419565
O O4 0.208110 0.510174 0.107759
O O5 0.565953 0.750000 0.310068
O O6 0.500000 0.000000 0.500000
O O7 0.669861 0.990937 0.228627
O O8 0.540988 0.999278 0.201966
O O9 0.241628 0.750000 0.905691
O O10 0.154870 0.998556 0.932021
O O11 0.440435 0.750000 0.957599
O O12 0.500000 0.500000 0.000000
O O13 0.953641 0.250000 0.436844
O O14 0.000000 0.500000 0.500000
O O15 0.995458 0.500637 0.251963
O O16 0.944336 0.750000 0.949306
O O17 0.000000 0.500000 0.000000
#
# Coordination Sequence:
#
# PCOD8072036 Si02
#       6
#     4   4   4   4   4   4
#     4   8  16  32  56  82 109 142 184 230 281 337
#     4  11  22  39  62  88 116 150 194 239 286 347
#     4  10  19  36  61  84 112 150 188 234 290 346
#     4  10  20  37  59  85 118 154 190 237 294 345
#     4  10  19  34  57  84 108 142 188 234 278 332
#     4  11  23  37  55  81 117 155 192 236 288 342
#
# _framework density 18.636447
#
# number of rings (size 3 to 8) (size 9 to 14) (size 15 to 20)
#    0.000    2.000    1.667    4.000    0.000    0.667 
#    3.000    0.833    0.000    0.000    0.000    0.000 
#    0.000    0.000    0.000    0.000    0.000    0.000 
#
# Total GULP energy -297533.633025 kJ/mol
# GULP energy per Si atom -12397.234709 kJ/mol
# Density = 1.859403 g / cm^3
# Si number density = 18.636447 Si / 1000 Ang^3
#
#
#
# Elastic Constant Matrix: (Units=GPa)
#
#
# Indices 1 2 3 4 5 6 
#
# 1 174.7804 47.6959 83.2619 0.0000 -1.1745 0.0000
# 2 47.6959 92.4381 44.9091 0.0000 -1.8527 0.0000
# 3 83.2619 44.9091 146.7181 0.0000 -11.0761 0.0000
# 4 0.0000 0.0000 0.0000 24.6855 0.0000 0.9388
# 5 -1.1745 -1.8527 -11.0761 0.0000 27.0442 0.0000
# 6 0.0000 0.0000 0.0000 0.9388 0.0000 34.3112
#
#
#
# Elastic Compliance Matrix: (Units=1/GPa)
#
#
# Indices 1 2 3 4 5 6 
#
# 1 0.008304 -0.002315 -0.004116 0.000000 -0.001484 0.000000
# 2 -0.002315 0.013368 -0.002803 0.000000 -0.000333 0.000000
# 3 -0.004116 -0.002803 0.010300 0.000000 0.003848 0.000000
# 4 0.000000 0.000000 0.000000 0.040552 0.000000 -0.001110
# 5 -0.001484 -0.000333 0.003848 0.000000 0.038465 0.000000
# 6 0.000000 0.000000 0.000000 -0.001110 0.000000 0.029175
#
#
# Mechanical properties :
#
#
# Convention : Reuss Voigt Hill
#
# Bulk Modulus (GPa) = 74.05307 85.07450 79.56378
# Shear Modulus (GPa) = 30.64986 33.07949 31.86467
#
# Velocity S-wave (km/s) = 4.05979 4.21763 4.13946
# Velocity P-wave (km/s) = 7.86115 8.33466 8.10137
#
# Compressibility (1/GPa) = 0.01350383
#
# Stress axis : x y z
#
# Youngs Moduli (GPa) = 120.42530 74.80765 97.08665
#
# Poissons Ratio (x) = 0.17316 0.39960
# Poissons Ratio (y) = 0.27875 0.27216
# Poissons Ratio (z) = 0.49566 0.20970
#
# Static dielectric constant tensor:
#      x y z
#    x 3.549550 0.000000 -0.443280 
#    y 0.000000 3.371260 0.000000 
#    z -0.443280 0.000000 3.962530 
# 
# 
# High freq. dielectric constant tensor:
#      x y z
#    x 1.725740 0.000000 -0.016440 
#    y 0.000000 1.721210 0.000000 
#    z -0.016440 0.000000 1.722880 
# 
# From -- ./inp_files/25717.got.cif
#   From: 2010.06.25/outbox.cif.g09.slc.cpg/sg11_13_cif.got.tgz:25717.got - 2010.06.27 23:14:04.
