data_PCOD8072685
_publ_section_title
;
Structure prediction by ZEFSAII (Michael W. Deem and Ramdas Pophale) SiO2 
 PCOD8072685
Probable space group: P 21/M
;
_chemical_formula_sum "Si O2"
_cell_formula_units_Z 32
_cell_length_a 9.560783
_cell_length_b 18.893427
_cell_length_c 14.361251
_cell_angle_alpha 90.000000
_cell_angle_beta 142.986295
_cell_angle_gamma 90.000000
_cell_volume 1561.698958
_symmetry_space_group_name_H-M "P 21/M"
_symmetry_group_IT_number 11
_symmetry_cell_setting 'monoclinic'
loop_
_space_group_symop_operation_xyz
x,y,z
-x,1/2+y,-z
-x,-y,-z
x,1/2-y,z
loop_
_atom_site_type_symbol
_atom_site_label
_atom_site_fract_x
_atom_site_fract_y
_atom_site_fract_z
Si Si1 0.157728 0.567865 0.573948
Si Si2 0.543800 0.666817 0.067352
Si Si3 0.153859 0.330032 0.239768
Si Si4 0.900583 0.095406 0.258068
Si Si5 0.972032 0.571452 0.281476
Si Si6 0.125758 0.931234 0.166567
Si Si7 0.686409 0.172242 0.872567
Si Si8 0.317123 0.429641 0.184399
O O1 0.089444 0.616580 0.626490
O O2 0.432937 0.549602 0.724317
O O3 0.000000 0.500000 0.500000
O O4 0.100547 0.600304 0.442478
O O5 0.559382 0.750000 0.049959
O O6 0.764168 0.624495 0.148706
O O7 0.526404 0.656263 0.170388
O O8 0.326169 0.632535 0.901186
O O9 0.227768 0.250000 0.302922
O O10 0.343795 0.363714 0.270375
O O11 0.123654 0.373600 0.320818
O O12 0.913358 0.333653 0.056659
O O13 0.885896 0.010036 0.241371
O O14 0.149627 0.579930 0.289718
O O15 0.309628 0.881563 0.211034
O O16 0.196837 0.010740 0.182874
O O17 0.859168 0.914516 0.994711
O O18 0.664096 0.250000 0.816799
#
# Coordination Sequence:
#
# PCOD8072685 Si02
#       8
#     4   4   4   4   4   4   4   4
#     4  10  24  39  56  86 125 164 198 242 298 359
#     4  10  21  37  61  88 118 155 198 254 305 354
#     4   9  17  35  60  86 116 147 195 253 300 350
#     4  10  19  38  60  88 115 156 208 245 296 353
#     4  11  22  37  55  90 120 159 196 248 299 357
#     4  10  20  33  61  90 114 151 196 260 298 344
#     4   8  17  32  54  85 116 148 189 241 303 356
#     4  10  20  37  57  91 119 149 204 247 300 356
#
# _framework density 20.490506
#
# number of rings (size 3 to 8) (size 9 to 14) (size 15 to 20)
#    0.000    2.250    1.250    2.250    5.250    1.000 
#    0.000    5.625    0.000    1.500    0.000    0.000 
#    0.000    0.000    0.000    0.000    0.000    0.000 
#
# Total GULP energy -396569.655385 kJ/mol
# GULP energy per Si atom -12392.801731 kJ/mol
# Density = 2.044387 g / cm^3
# Si number density = 20.490506 Si / 1000 Ang^3
#
#
#
# Elastic Constant Matrix: (Units=GPa)
#
#
# Indices 1 2 3 4 5 6 
#
# 1 124.1314 39.8994 29.7610 0.0000 -27.6248 0.0000
# 2 39.8994 108.9234 21.8124 0.0000 -11.6210 0.0000
# 3 29.7610 21.8124 35.9103 0.0000 -13.7968 0.0000
# 4 0.0000 0.0000 0.0000 8.3867 0.0000 -3.7494
# 5 -27.6248 -11.6210 -13.7968 0.0000 40.3192 0.0000
# 6 0.0000 0.0000 0.0000 -3.7494 0.0000 35.3263
#
#
#
# Elastic Compliance Matrix: (Units=1/GPa)
#
#
# Indices 1 2 3 4 5 6 
#
# 1 0.011409 -0.002431 -0.006038 0.000000 0.005050 0.000000
# 2 -0.002431 0.011003 -0.004709 0.000000 -0.000106 0.000000
# 3 -0.006038 -0.004709 0.038687 0.000000 0.007744 0.000000
# 4 0.000000 0.000000 0.000000 0.125176 0.000000 0.013286
# 5 0.005050 -0.000106 0.007744 0.000000 0.030881 0.000000
# 6 0.000000 0.000000 0.000000 0.013286 0.000000 0.029718
#
#
# Mechanical properties :
#
#
# Convention : Reuss Voigt Hill
#
# Bulk Modulus (GPa) = 28.78393 50.21230 39.49811
# Shear Modulus (GPa) = 17.55545 28.63928 23.09736
#
# Velocity S-wave (km/s) = 2.93022 3.74262 3.36106
# Velocity P-wave (km/s) = 5.05235 6.57530 5.86348
#
# Compressibility (1/GPa) = 0.03474161
#
# Stress axis : x y z
#
# Youngs Moduli (GPa) = 87.65014 90.88371 25.84842
#
# Poissons Ratio (x) = 0.22096 0.15608
# Poissons Ratio (y) = 0.21310 0.12172
# Poissons Ratio (z) = 0.52927 0.42799
#
# Static dielectric constant tensor:
#      x y z
#    x 4.207430 0.000000 -0.305910 
#    y 0.000000 3.706280 0.000000 
#    z -0.305910 0.000000 3.561220 
# 
# 
# High freq. dielectric constant tensor:
#      x y z
#    x 1.819040 0.000000 -0.011150 
#    y 0.000000 1.787080 0.000000 
#    z -0.011150 0.000000 1.764100 
# 
# From -- ./inp_files/48268.got.cif
#   From: 2010.06.25/outbox.cif.g09.slc.cpg/sg11_25_cif.got.tgz:48268.got - 2010.06.27 23:14:04.
