data_PCOD8072793
_publ_section_title
;
Structure prediction by ZEFSAII (Michael W. Deem and Ramdas Pophale) SiO2 
 PCOD8072793
Probable space group: P 21/M
;
_chemical_formula_sum "Si O2"
_cell_formula_units_Z 28
_cell_length_a 21.303856
_cell_length_b 9.317862
_cell_length_c 11.234332
_cell_angle_alpha 90.000000
_cell_angle_beta 49.193606
_cell_angle_gamma 90.000000
_cell_volume 1688.001973
_symmetry_space_group_name_H-M "P 21/M"
_symmetry_group_IT_number 11
_symmetry_cell_setting 'monoclinic'
loop_
_space_group_symop_operation_xyz
x,y,z
-x,1/2+y,-z
-x,-y,-z
x,1/2-y,z
loop_
_atom_site_type_symbol
_atom_site_label
_atom_site_fract_x
_atom_site_fract_y
_atom_site_fract_z
Si Si1 0.782236 0.415256 0.962889
Si Si2 0.060629 0.087744 0.266221
Si Si3 0.094177 0.087498 0.504071
Si Si4 0.573195 0.082408 0.845372
Si Si5 0.615146 0.082946 0.288233
Si Si6 0.469039 0.916158 0.366460
Si Si7 0.748140 0.083832 0.732110
O O1 0.808989 0.250000 0.945039
O O2 0.861446 0.512935 0.894706
O O3 0.748299 0.443035 0.872660
O O4 0.709931 0.460027 0.144108
O O5 0.051305 0.250000 0.230070
O O6 0.074714 0.086911 0.389108
O O7 0.977796 0.998808 0.337408
O O8 0.098099 0.250000 0.548034
O O9 0.181198 0.009037 0.420453
O O10 0.559608 0.250000 0.885612
O O11 0.573968 0.045227 0.704566
O O12 0.660343 0.030452 0.790855
O O13 0.500000 0.000000 0.000000
O O14 0.601774 0.250000 0.279409
O O15 0.594968 0.040775 0.449419
O O16 0.554604 0.001673 0.272736
O O17 0.492493 0.750000 0.345339
O O18 0.764576 0.250000 0.681053
#
# Coordination Sequence:
#
# PCOD8072793 Si02
#       7
#     4   4   4   4   4   4   4
#     4   9  16  26  41  61  85 113 144 176 212 257
#     4   9  16  25  39  60  86 113 139 171 212 256
#     4   9  16  26  40  59  84 113 143 173 208 254
#     4  10  20  32  46  65  90 119 150 184 220 260
#     4   9  17  30  47  65  87 116 148 183 223 263
#     4   9  18  31  46  65  88 115 149 186 222 260
#     4   9  17  28  41  59  85 116 146 175 212 257
#
# _framework density 16.587657
#
# number of rings (size 3 to 8) (size 9 to 14) (size 15 to 20)
#    0.000    2.857    0.000    1.714    0.000    6.286 
#    0.000    2.857    0.000    0.000    0.000    1.000 
#    0.000    0.000    0.000    0.000    0.000    0.000 
#
# Total GULP energy -347204.051868 kJ/mol
# GULP energy per Si atom -12400.144710 kJ/mol
# Density = 1.654990 g / cm^3
# Si number density = 16.587657 Si / 1000 Ang^3
#
#
#
# Elastic Constant Matrix: (Units=GPa)
#
#
# Indices 1 2 3 4 5 6 
#
# 1 77.8716 45.5149 51.8572 0.0000 -25.0314 0.0000
# 2 45.5149 88.8182 58.4701 0.0000 -24.7741 0.0000
# 3 51.8572 58.4701 106.5735 0.0000 -32.5690 0.0000
# 4 0.0000 0.0000 0.0000 27.1933 0.0000 -10.4135
# 5 -25.0314 -24.7741 -32.5690 0.0000 30.0875 0.0000
# 6 0.0000 0.0000 0.0000 -10.4135 0.0000 23.3558
#
#
#
# Elastic Compliance Matrix: (Units=1/GPa)
#
#
# Indices 1 2 3 4 5 6 
#
# 1 0.022277 -0.005701 -0.005204 0.000000 0.008206 0.000000
# 2 -0.005701 0.019851 -0.006831 0.000000 0.004208 0.000000
# 3 -0.005204 -0.006831 0.018860 0.000000 0.010461 0.000000
# 4 0.000000 0.000000 0.000000 0.044345 0.000000 0.019772
# 5 0.008206 0.004208 0.010461 0.000000 0.054852 0.000000
# 6 0.000000 0.000000 0.000000 0.019772 0.000000 0.051631
#
#
# Mechanical properties :
#
#
# Convention : Reuss Voigt Hill
#
# Bulk Modulus (GPa) = 39.19114 64.99418 52.09266
# Shear Modulus (GPa) = 19.54682 23.95539 21.75111
#
# Velocity S-wave (km/s) = 3.43650 3.80435 3.62509
# Velocity P-wave (km/s) = 6.27886 7.65276 6.99960
#
# Compressibility (1/GPa) = 0.02551597
#
# Stress axis : x y z
#
# Youngs Moduli (GPa) = 44.88873 50.37486 53.02143
#
# Poissons Ratio (x) = 0.28719 0.27594
# Poissons Ratio (y) = 0.25592 0.36219
# Poissons Ratio (z) = 0.23361 0.34411
#
# Static dielectric constant tensor:
#      x y z
#    x 2.939400 0.000000 -0.193030 
#    y 0.000000 3.209390 0.000000 
#    z -0.193030 0.000000 3.147800 
# 
# 
# High freq. dielectric constant tensor:
#      x y z
#    x 1.606970 0.000000 -0.027710 
#    y 0.000000 1.643220 0.000000 
#    z -0.027710 0.000000 1.630050 
# 
# From -- ./inp_files/37693.got.cif
#   From: 2010.06.25/outbox.cif.g09.slc.cpg/sg11_19_cif.got.tgz:37693.got - 2010.06.27 23:14:04.
