data_PCOD8072634
_publ_section_title
;
Structure prediction by ZEFSAII (Michael W. Deem and Ramdas Pophale) SiO2 
 PCOD8072634
Probable space group: P 21/M
;
_chemical_formula_sum "Si O2"
_cell_formula_units_Z 28
_cell_length_a 14.649764
_cell_length_b 8.849776
_cell_length_c 12.545117
_cell_angle_alpha 90.000000
_cell_angle_beta 60.088178
_cell_angle_gamma 90.000000
_cell_volume 1409.786856
_symmetry_space_group_name_H-M "P 21/M"
_symmetry_group_IT_number 11
_symmetry_cell_setting 'monoclinic'
loop_
_space_group_symop_operation_xyz
x,y,z
-x,1/2+y,-z
-x,-y,-z
x,1/2-y,z
loop_
_atom_site_type_symbol
_atom_site_label
_atom_site_fract_x
_atom_site_fract_y
_atom_site_fract_z
Si Si1 0.687821 0.926507 0.653555
Si Si2 0.213310 0.427576 0.790206
Si Si3 0.996985 0.573443 0.188925
Si Si4 0.392182 0.426130 0.530787
Si Si5 0.779185 0.927388 0.972976
Si Si6 0.612182 0.428713 0.910859
Si Si7 0.080148 0.424921 0.531324
O O1 0.684815 0.750000 0.687338
O O2 0.621671 0.957436 0.585865
O O3 0.804527 0.986532 0.562375
O O4 0.641483 0.027188 0.774228
O O5 0.207920 0.250000 0.773152
O O6 0.296807 0.496988 0.657219
O O7 0.093327 0.485388 0.840535
O O8 0.250402 0.468157 0.887895
O O9 0.025154 0.750000 0.157343
O O10 0.101135 0.475204 0.116362
O O11 0.948341 0.538622 0.331765
O O12 0.500000 0.500000 0.500000
O O13 0.398170 0.250000 0.552285
O O14 0.768424 0.750000 0.956790
O O15 0.700133 0.014385 0.941923
O O16 0.604048 0.250000 0.925978
O O17 0.500000 0.500000 0.000000
O O18 0.077120 0.250000 0.509838
O O19 0.000000 0.500000 0.500000
#
# Coordination Sequence:
#
# PCOD8072634 Si02
#       7
#     4   4   4   4   4   4   4
#     4  10  21  41  65  90 123 159 201 252 308 364
#     4   9  19  38  63  89 124 164 202 247 306 363
#     4  10  19  37  61  88 122 164 206 248 303 361
#     4  10  21  39  63  92 123 160 203 254 309 365
#     4  11  23  39  61  92 127 164 205 252 303 362
#     4  12  27  46  66  89 120 160 206 255 308 368
#     4  10  20  34  57  85 118 158 198 244 296 354
#
# _framework density 19.861158
#
# number of rings (size 3 to 8) (size 9 to 14) (size 15 to 20)
#    0.000    1.714    1.429    3.000    2.000    4.000 
#    0.000    2.143    0.000    0.000    0.000    0.000 
#    0.000    0.000    0.000    0.000    0.000    0.000 
#
# Total GULP energy -347213.113506 kJ/mol
# GULP energy per Si atom -12400.468340 kJ/mol
# Density = 1.981595 g / cm^3
# Si number density = 19.861158 Si / 1000 Ang^3
#
#
#
# Elastic Constant Matrix: (Units=GPa)
#
#
# Indices 1 2 3 4 5 6 
#
# 1 163.0343 53.0247 61.8387 0.0000 -3.3704 0.0000
# 2 53.0247 75.2915 60.0162 0.0000 5.1845 0.0000
# 3 61.8387 60.0162 109.5654 0.0000 -1.3918 0.0000
# 4 0.0000 0.0000 0.0000 26.7112 0.0000 -5.8048
# 5 -3.3704 5.1845 -1.3918 0.0000 29.9286 0.0000
# 6 0.0000 0.0000 0.0000 -5.8048 0.0000 33.4662
#
#
#
# Elastic Compliance Matrix: (Units=1/GPa)
#
#
# Indices 1 2 3 4 5 6 
#
# 1 0.008437 -0.004024 -0.002538 0.000000 0.001529 0.000000
# 2 -0.004024 0.026171 -0.012135 0.000000 -0.005551 0.000000
# 3 -0.002538 -0.012135 0.017240 0.000000 0.002618 0.000000
# 4 0.000000 0.000000 0.000000 0.038904 0.000000 0.006748
# 5 0.001529 -0.005551 0.002618 0.000000 0.034668 0.000000
# 6 0.000000 0.000000 0.000000 0.006748 0.000000 0.031051
#
#
# Mechanical properties :
#
#
# Convention : Reuss Voigt Hill
#
# Bulk Modulus (GPa) = 69.18699 77.51672 73.35186
# Shear Modulus (GPa) = 25.16578 29.55528 27.36053
#
# Velocity S-wave (km/s) = 3.56348 3.86177 3.71562
# Velocity P-wave (km/s) = 7.20015 7.68104 7.44448
#
# Compressibility (1/GPa) = 0.01445358
#
# Stress axis : x y z
#
# Youngs Moduli (GPa) = 118.53029 38.21081 58.00489
#
# Poissons Ratio (x) = 0.15375 0.14723
# Poissons Ratio (y) = 0.47692 0.70389
# Poissons Ratio (z) = 0.30086 0.46369
#
# Static dielectric constant tensor:
#      x y z
#    x 3.797380 0.000000 0.012330 
#    y 0.000000 3.428780 0.000000 
#    z 0.012330 0.000000 3.606030 
# 
# 
# High freq. dielectric constant tensor:
#      x y z
#    x 1.792510 0.000000 0.001980 
#    y 0.000000 1.752980 0.000000 
#    z 0.001980 0.000000 1.790650 
# 
# From -- ./inp_files/37944.got.cif
#   From: 2010.06.25/outbox.cif.g09.slc.cpg/sg11_19_cif.got.tgz:37944.got - 2010.06.27 23:14:04.
