data_PCOD8072939
_publ_section_title
;
Structure prediction by ZEFSAII (Michael W. Deem and Ramdas Pophale) SiO2 
 PCOD8072939
Probable space group: P 21/M
;
_chemical_formula_sum "Si O2"
_cell_formula_units_Z 32
_cell_length_a 14.605217
_cell_length_b 8.922197
_cell_length_c 22.399770
_cell_angle_alpha 90.000000
_cell_angle_beta 142.931705
_cell_angle_gamma 90.000000
_cell_volume 1759.432146
_symmetry_space_group_name_H-M "P 21/M"
_symmetry_group_IT_number 11
_symmetry_cell_setting 'monoclinic'
loop_
_space_group_symop_operation_xyz
x,y,z
-x,1/2+y,-z
-x,-y,-z
x,1/2-y,z
loop_
_atom_site_type_symbol
_atom_site_label
_atom_site_fract_x
_atom_site_fract_y
_atom_site_fract_z
Si Si1 0.149285 0.591503 0.074646
Si Si2 0.477027 0.923906 0.826887
Si Si3 0.075505 0.426670 0.804447
Si Si4 0.508345 0.574635 0.598425
Si Si5 0.640421 0.425564 0.109423
Si Si6 0.522978 0.070558 0.729275
Si Si7 0.270904 0.923962 0.372889
Si Si8 0.773305 0.412892 0.017191
O O1 0.127743 0.750000 0.097796
O O2 0.301865 0.511836 0.177997
O O3 0.165811 0.627453 0.014762
O O4 0.000000 0.500000 0.000000
O O5 0.496575 0.750000 0.821034
O O6 0.355582 0.951658 0.816521
O O7 0.436476 0.009167 0.743602
O O8 0.625850 0.985413 0.936471
O O9 0.102934 0.250000 0.814947
O O10 0.197278 0.508534 0.825721
O O11 0.100511 0.489100 0.883740
O O12 0.900906 0.468870 0.698675
O O13 0.527361 0.750000 0.620187
O O14 0.457903 0.494657 0.633926
O O15 0.665861 0.512976 0.652135
O O16 0.371558 0.536668 0.482639
O O17 0.629746 0.250000 0.090329
O O18 0.500000 0.500000 0.000000
O O19 0.512923 0.250000 0.725663
O O20 0.281392 0.750000 0.361216
O O21 0.739934 0.250000 0.031437
#
# Coordination Sequence:
#
# PCOD8072939 Si02
#       8
#     4   4   4   4   4   4   4   4
#     4   9  20  33  45  67 100 138 175 215 260 313
#     4  10  20  35  54  78 106 142 184 222 265 320
#     4  11  22  35  54  79 109 147 183 224 275 325
#     4  10  20  37  61  84 108 143 184 229 279 331
#     4  11  22  35  55  81 112 147 185 227 272 325
#     4  10  21  36  54  78 107 141 179 224 273 326
#     4   9  21  39  57  82 113 143 183 231 277 328
#     4  10  20  33  48  71 105 142 181 222 264 315
#
# _framework density 18.187687
#
# number of rings (size 3 to 8) (size 9 to 14) (size 15 to 20)
#    0.000    2.000    1.250    3.000    1.750    6.000 
#    0.000    0.000    0.000    0.750    0.000    0.000 
#    0.000    0.000    0.000    0.000    0.000    0.000 
#
# Total GULP energy -396459.144659 kJ/mol
# GULP energy per Si atom -12389.348271 kJ/mol
# Density = 1.814629 g / cm^3
# Si number density = 18.187687 Si / 1000 Ang^3
#
#
#
# Elastic Constant Matrix: (Units=GPa)
#
#
# Indices 1 2 3 4 5 6 
#
# 1 69.1579 43.0518 51.7221 0.0000 0.1634 0.0000
# 2 43.0518 100.1070 40.5044 0.0000 -3.5267 0.0000
# 3 51.7221 40.5044 76.5585 0.0000 -5.5638 0.0000
# 4 0.0000 0.0000 0.0000 48.3551 0.0000 11.5954
# 5 0.1634 -3.5267 -5.5638 0.0000 30.0292 0.0000
# 6 0.0000 0.0000 0.0000 11.5954 0.0000 39.8763
#
#
#
# Elastic Compliance Matrix: (Units=1/GPa)
#
#
# Indices 1 2 3 4 5 6 
#
# 1 0.032748 -0.006563 -0.018976 0.000000 -0.004465 0.000000
# 2 -0.006563 0.014027 -0.002904 0.000000 0.001145 0.000000
# 3 -0.018976 -0.002904 0.027775 0.000000 0.004908 0.000000
# 4 0.000000 0.000000 0.000000 0.022230 0.000000 -0.006464
# 5 -0.004465 0.001145 0.004908 0.000000 0.034369 0.000000
# 6 0.000000 0.000000 0.000000 -0.006464 0.000000 0.026957
#
#
# Mechanical properties :
#
#
# Convention : Reuss Voigt Hill
#
# Bulk Modulus (GPa) = 56.61418 57.37555 56.99486
# Shear Modulus (GPa) = 22.63654 31.02179 26.82917
#
# Velocity S-wave (km/s) = 3.53173 4.13443 3.84491
# Velocity P-wave (km/s) = 6.91564 7.37606 7.14956
#
# Compressibility (1/GPa) = 0.01766342
#
# Stress axis : x y z
#
# Youngs Moduli (GPa) = 30.53650 71.29045 36.00297
#
# Poissons Ratio (x) = 0.46785 0.68321
# Poissons Ratio (y) = 0.20040 0.10457
# Poissons Ratio (z) = 0.57947 0.20706
#
# Static dielectric constant tensor:
#      x y z
#    x 3.442160 0.000000 -0.078200 
#    y 0.000000 3.411690 0.000000 
#    z -0.078200 0.000000 3.283860 
# 
# 
# High freq. dielectric constant tensor:
#      x y z
#    x 1.703820 0.000000 -0.015780 
#    y 0.000000 1.721840 0.000000 
#    z -0.015780 0.000000 1.680390 
# 
# From -- ./inp_files/65245.got.cif
#   From: 2010.06.25/outbox.cif.g09.slc.cpg/sg11_33_cif.got.tgz:65245.got - 2010.06.27 23:14:04.
