data_PCOD8072403
_publ_section_title
;
Structure prediction by ZEFSAII (Michael W. Deem and Ramdas Pophale) SiO2 
 PCOD8072403
Probable space group: P 21/M
;
_chemical_formula_sum "Si O2"
_cell_formula_units_Z 24
_cell_length_a 18.660660
_cell_length_b 14.344767
_cell_length_c 10.203231
_cell_angle_alpha 90.000000
_cell_angle_beta 152.355196
_cell_angle_gamma 90.000000
_cell_volume 1267.260196
_symmetry_space_group_name_H-M "P 21/M"
_symmetry_group_IT_number 11
_symmetry_cell_setting 'monoclinic'
loop_
_space_group_symop_operation_xyz
x,y,z
-x,1/2+y,-z
-x,-y,-z
x,1/2-y,z
loop_
_atom_site_type_symbol
_atom_site_label
_atom_site_fract_x
_atom_site_fract_y
_atom_site_fract_z
Si Si1 0.809429 0.250000 0.290492
Si Si2 0.005506 0.429382 0.891181
Si Si3 0.517471 0.250000 0.309751
Si Si4 0.344207 0.427362 0.355223
Si Si5 0.798593 0.250000 0.565727
Si Si6 0.452704 0.750000 0.342460
Si Si7 0.108929 0.955162 0.569783
Si Si8 0.604842 0.947366 0.857562
O O1 0.729915 0.250000 0.306083
O O2 0.911165 0.343522 0.445704
O O3 0.699742 0.250000 0.989114
O O4 0.904206 0.339741 0.762568
O O5 0.943582 0.482120 0.661419
O O6 0.183084 0.400754 0.159215
O O7 0.000000 0.500000 0.000000
O O8 0.654850 0.250000 0.429339
O O9 0.590435 0.250000 0.573823
O O10 0.408740 0.340804 0.114270
O O11 0.453175 0.339583 0.544889
O O12 0.318404 0.454254 0.161843
O O13 0.430591 0.511335 0.571774
O O14 0.000000 0.000000 0.500000
O O15 0.284732 0.992188 0.869099
#
# Coordination Sequence:
#
# PCOD8072403 Si02
#       8
#     2   4   2   4   2   2   4   4
#     4  10  22  39  58  90 119 156 194 250 308 352
#     4  11  23  40  61  88 124 164 197 247 310 365
#     4  10  22  37  59  87 121 157 206 250 299 359
#     4  10  19  35  61  89 116 148 203 247 297 360
#     4  10  23  42  58  86 128 161 193 254 311 361
#     4  10  19  36  65  89 108 154 205 252 296 348
#     4  11  22  40  63  88 125 158 205 250 304 360
#     4  10  20  36  61  88 117 155 200 256 293 348
#
# _framework density 18.938493999999999
#
# number of rings (size 3 to 8) (size 9 to 14) (size 15 to 20)
#    0.000    1.667    3.333    1.500    0.000    2.000 
#    3.000    3.333    0.000    0.000    0.000    0.000 
#    0.000    0.000    0.000    0.000    0.000    0.000 
#
# Total GULP energy -297605.583805 kJ/mol
# GULP energy per Si atom -12400.232659 kJ/mol
# Density = 1.889539 g / cm^3
# Si number density = 18.938494 Si / 1000 Ang^3
#
#
#
# Elastic Constant Matrix: (Units=GPa)
#
#
# Indices 1 2 3 4 5 6 
#
# 1 111.3120 43.5521 45.1663 0.0000 -0.9150 0.0000
# 2 43.5521 124.2143 35.8633 0.0000 -10.8599 0.0000
# 3 45.1663 35.8633 79.7673 0.0000 -11.5044 0.0000
# 4 0.0000 0.0000 0.0000 33.3356 0.0000 11.4912
# 5 -0.9150 -10.8599 -11.5044 0.0000 30.1921 0.0000
# 6 0.0000 0.0000 0.0000 11.4912 0.0000 62.3995
#
#
#
# Elastic Compliance Matrix: (Units=1/GPa)
#
#
# Indices 1 2 3 4 5 6 
#
# 1 0.012644 -0.002880 -0.006305 0.000000 -0.003055 0.000000
# 2 -0.002880 0.010006 -0.002499 0.000000 0.002560 0.000000
# 3 -0.006305 -0.002499 0.018066 0.000000 0.005794 0.000000
# 4 0.000000 0.000000 0.000000 0.032031 0.000000 -0.005899
# 5 -0.003055 0.002560 0.005794 0.000000 0.036157 0.000000
# 6 0.000000 0.000000 0.000000 -0.005899 0.000000 0.017112
#
#
# Mechanical properties :
#
#
# Convention : Reuss Voigt Hill
#
# Bulk Modulus (GPa) = 57.64464 62.71744 60.18104
# Shear Modulus (GPa) = 32.22371 37.89956 35.06164
#
# Velocity S-wave (km/s) = 4.12939 4.47832 4.30739
# Velocity P-wave (km/s) = 7.29656 7.74137 7.52225
#
# Compressibility (1/GPa) = 0.01734767
#
# Stress axis : x y z
#
# Youngs Moduli (GPa) = 79.09012 99.94460 55.35383
#
# Poissons Ratio (x) = 0.28783 0.34901
# Poissons Ratio (y) = 0.22777 0.13831
# Poissons Ratio (z) = 0.49867 0.24973
#
# Static dielectric constant tensor:
#      x y z
#    x 3.331820 0.000000 -0.102740 
#    y 0.000000 3.915020 0.000000 
#    z -0.102740 0.000000 3.599150 
# 
# 
# High freq. dielectric constant tensor:
#      x y z
#    x 1.721430 0.000000 -0.001720 
#    y 0.000000 1.750740 0.000000 
#    z -0.001720 0.000000 1.736800 
# 
# From -- ./inp_files/25013.got.cif
#   From: 2010.06.25/outbox.cif.g09.slc.cpg/sg11_13_cif.got.tgz:25013.got - 2010.06.27 23:14:04.
