data_PCOD8072472
_publ_section_title
;
Structure prediction by ZEFSAII (Michael W. Deem and Ramdas Pophale) SiO2 
 PCOD8072472
Probable space group: P 21/M
;
_chemical_formula_sum "Si O2"
_cell_formula_units_Z 32
_cell_length_a 11.804257
_cell_length_b 18.394617
_cell_length_c 10.240649
_cell_angle_alpha 90.000000
_cell_angle_beta 127.853026
_cell_angle_gamma 90.000000
_cell_volume 1755.727531
_symmetry_space_group_name_H-M "P 21/M"
_symmetry_group_IT_number 11
_symmetry_cell_setting 'monoclinic'
loop_
_space_group_symop_operation_xyz
x,y,z
-x,1/2+y,-z
-x,-y,-z
x,1/2-y,z
loop_
_atom_site_type_symbol
_atom_site_label
_atom_site_fract_x
_atom_site_fract_y
_atom_site_fract_z
Si Si1 0.193783 0.090374 0.944607
Si Si2 0.885293 0.071503 0.123417
Si Si3 0.260654 0.910103 0.249807
Si Si4 0.199201 0.072969 0.244973
Si Si5 0.789439 0.165433 0.296395
Si Si6 0.073928 0.835191 0.337854
Si Si7 0.464934 0.165544 0.467723
Si Si8 0.520425 0.833025 0.824991
O O1 0.092814 0.144200 0.791256
O O2 0.173547 0.008088 0.882894
O O3 0.153422 0.098913 0.068355
O O4 0.357263 0.113745 0.034567
O O5 0.850027 0.124097 0.215964
O O6 0.056978 0.067925 0.230907
O O7 0.811448 0.102789 0.941492
O O8 0.161212 0.875187 0.288001
O O9 0.416859 0.873184 0.358354
O O10 0.277802 0.995403 0.291339
O O11 0.309759 0.130101 0.386756
O O12 0.817600 0.250000 0.293303
O O13 0.872135 0.138200 0.483307
O O14 0.621221 0.148911 0.193776
O O15 0.099096 0.750000 0.337805
O O16 0.456436 0.250000 0.499130
O O17 0.510274 0.153399 0.349586
O O18 0.569994 0.750000 0.880308
#
# Coordination Sequence:
#
# PCOD8072472 Si02
#       8
#     4   4   4   4   4   4   4   4
#     4  10  19  36  58  85 113 142 193 237 271 333
#     4  11  22  38  57  84 120 150 180 227 290 344
#     4  11  19  37  59  86 113 147 190 236 274 330
#     4  10  20  37  56  85 122 148 177 237 293 327
#     4  10  23  39  54  79 115 150 184 230 285 335
#     4  11  20  35  59  84 109 144 193 235 270 327
#     4  10  20  34  57  86 110 146 197 234 272 333
#     4   9  18  35  56  80 112 146 186 238 283 320
#
# _framework density 18.226063
#
# number of rings (size 3 to 8) (size 9 to 14) (size 15 to 20)
#    0.000    1.750    3.750    1.875    0.000    3.000 
#    0.000    1.250    0.000    0.000    0.000    0.000 
#    0.000    0.000    0.000    0.000    0.000    0.000 
#
# Total GULP energy -396924.313970 kJ/mol
# GULP energy per Si atom -12403.884812 kJ/mol
# Density = 1.818458 g / cm^3
# Si number density = 18.226063 Si / 1000 Ang^3
#
#
#
# Elastic Constant Matrix: (Units=GPa)
#
#
# Indices 1 2 3 4 5 6 
#
# 1 73.9022 50.0023 52.8772 0.0000 7.6331 0.0000
# 2 50.0023 93.2349 59.5320 0.0000 9.2595 0.0000
# 3 52.8772 59.5320 99.4796 0.0000 10.9172 0.0000
# 4 0.0000 0.0000 0.0000 29.9162 0.0000 9.1674
# 5 7.6331 9.2595 10.9172 0.0000 28.9012 0.0000
# 6 0.0000 0.0000 0.0000 9.1674 0.0000 27.5657
#
#
#
# Elastic Compliance Matrix: (Units=1/GPa)
#
#
# Indices 1 2 3 4 5 6 
#
# 1 0.025055 -0.007943 -0.008468 0.000000 -0.000874 0.000000
# 2 -0.007943 0.019958 -0.007563 0.000000 -0.001439 0.000000
# 3 -0.008468 -0.007563 0.019371 0.000000 -0.002658 0.000000
# 4 0.000000 0.000000 0.000000 0.037220 0.000000 -0.012378
# 5 -0.000874 -0.001439 -0.002658 0.000000 0.036296 0.000000
# 6 0.000000 0.000000 0.000000 -0.012378 0.000000 0.040394
#
#
# Mechanical properties :
#
#
# Convention : Reuss Voigt Hill
#
# Bulk Modulus (GPa) = 60.84788 65.71553 63.28170
# Shear Modulus (GPa) = 21.57754 24.22363 22.90059
#
# Velocity S-wave (km/s) = 3.44449 3.64959 3.54852
# Velocity P-wave (km/s) = 7.01975 7.34121 7.18228
#
# Compressibility (1/GPa) = 0.01643443
#
# Stress axis : x y z
#
# Youngs Moduli (GPa) = 39.91188 50.10557 51.62239
#
# Poissons Ratio (x) = 0.39800 0.43716
# Poissons Ratio (y) = 0.31703 0.39044
# Poissons Ratio (z) = 0.33799 0.37897
#
# Static dielectric constant tensor:
#      x y z
#    x 3.196680 0.000000 0.232290 
#    y 0.000000 3.430340 0.000000 
#    z 0.232290 0.000000 3.485140 
# 
# 
# High freq. dielectric constant tensor:
#      x y z
#    x 1.692630 0.000000 0.021600 
#    y 0.000000 1.712960 0.000000 
#    z 0.021600 0.000000 1.704240 
# 
# From -- ./inp_files/19437.got.cif
#   From: 2010.06.25/outbox.cif.g09.slc.cpg/sg11_10_cif.got.tgz:19437.got - 2010.06.27 23:14:04.
