data_PCOD8072920
_publ_section_title
;
Structure prediction by ZEFSAII (Michael W. Deem and Ramdas Pophale) SiO2 
 PCOD8072920
Probable space group: P 21/M
;
_chemical_formula_sum "Si O2"
_cell_formula_units_Z 32
_cell_length_a 16.301627
_cell_length_b 9.014024
_cell_length_c 20.190462
_cell_angle_alpha 90.000000
_cell_angle_beta 136.781387
_cell_angle_gamma 90.000000
_cell_volume 2031.652597
_symmetry_space_group_name_H-M "P 21/M"
_symmetry_group_IT_number 11
_symmetry_cell_setting 'monoclinic'
loop_
_space_group_symop_operation_xyz
x,y,z
-x,1/2+y,-z
-x,-y,-z
x,1/2-y,z
loop_
_atom_site_type_symbol
_atom_site_label
_atom_site_fract_x
_atom_site_fract_y
_atom_site_fract_z
Si Si1 0.275645 0.423607 0.009936
Si Si2 0.822149 0.913927 0.913101
Si Si3 0.887169 0.421864 0.465133
Si Si4 0.520070 0.075389 0.081772
Si Si5 0.927965 0.085608 0.864734
Si Si6 0.020015 0.082340 0.669995
Si Si7 0.047547 0.924723 0.819263
Si Si8 0.254216 0.422910 0.719905
O O1 0.243158 0.250000 0.984902
O O2 0.179606 0.510472 0.909251
O O3 0.268172 0.473309 0.082899
O O4 0.407081 0.459980 0.061631
O O5 0.783676 0.750000 0.866966
O O6 0.822129 0.018264 0.848418
O O7 0.952491 0.908217 0.022202
O O8 0.883912 0.250000 0.442036
O O9 0.902958 0.436838 0.553891
O O10 0.770192 0.505082 0.367167
O O11 0.000000 0.500000 0.500000
O O12 0.538417 0.250000 0.082459
O O13 0.634288 0.005564 0.183213
O O14 0.500000 0.000000 0.000000
O O15 0.888495 0.250000 0.819384
O O16 0.948831 0.986493 0.812191
O O17 0.025174 0.250000 0.701091
O O18 0.140958 0.049470 0.700535
O O19 0.006491 0.967225 0.721499
O O20 0.052896 0.750000 0.830371
O O21 0.282854 0.250000 0.728049
#
# Coordination Sequence:
#
# PCOD8072920 Si02
#       8
#     4   4   4   4   4   4   4   4
#     4   9  19  33  45  58  83 118 150 183 221 257
#     4   8  14  26  42  58  77 105 143 180 212 251
#     4   9  17  30  48  67  86 111 143 180 222 266
#     4  11  22  34  47  64  88 119 154 188 223 259
#     4   9  16  26  40  58  83 112 138 170 214 259
#     4   9  18  31  45  62  87 116 143 175 219 264
#     4  11  20  27  41  64  88 115 147 180 213 256
#     4  10  20  33  48  65  87 116 149 186 224 260
#
# _framework density 15.750724999999999
#
# number of rings (size 3 to 8) (size 9 to 14) (size 15 to 20)
#    0.000    2.500    0.000    4.875    0.000   10.000 
#    0.000    0.000    0.000    0.000    0.000    0.000 
#    0.000    1.000    0.000    3.000    0.000    4.250 
#
# Total GULP energy -396670.663471 kJ/mol
# GULP energy per Si atom -12395.958233 kJ/mol
# Density = 1.571488 g / cm^3
# Si number density = 15.750725 Si / 1000 Ang^3
#
#
#
# Elastic Constant Matrix: (Units=GPa)
#
#
# Indices 1 2 3 4 5 6 
#
# 1 91.9261 51.5796 42.2350 0.0000 -7.6949 0.0000
# 2 51.5796 108.7098 49.8473 0.0000 -8.8566 0.0000
# 3 42.2350 49.8473 92.0178 0.0000 -8.2773 0.0000
# 4 0.0000 0.0000 0.0000 25.3100 0.0000 -4.9472
# 5 -7.6949 -8.8566 -8.2773 0.0000 13.5472 0.0000
# 6 0.0000 0.0000 0.0000 -4.9472 0.0000 26.1066
#
#
#
# Elastic Compliance Matrix: (Units=1/GPa)
#
#
# Indices 1 2 3 4 5 6 
#
# 1 0.016125 -0.005502 -0.004148 0.000000 0.003028 0.000000
# 2 -0.005502 0.014344 -0.004955 0.000000 0.003225 0.000000
# 3 -0.004148 -0.004955 0.015822 0.000000 0.004072 0.000000
# 4 0.000000 0.000000 0.000000 0.041030 0.000000 0.007775
# 5 0.003028 0.003225 0.004072 0.000000 0.080132 0.000000
# 6 0.000000 0.000000 0.000000 0.007775 0.000000 0.039778
#
#
# Mechanical properties :
#
#
# Convention : Reuss Voigt Hill
#
# Bulk Modulus (GPa) = 58.54664 64.44195 61.49430
# Shear Modulus (GPa) = 20.64971 22.92553 21.78762
#
# Velocity S-wave (km/s) = 3.62475 3.81927 3.72328
# Velocity P-wave (km/s) = 7.40066 7.77506 7.59017
#
# Compressibility (1/GPa) = 0.01708040
#
# Stress axis : x y z
#
# Youngs Moduli (GPa) = 62.01647 69.71512 63.20359
#
# Poissons Ratio (x) = 0.38357 0.26218
# Poissons Ratio (y) = 0.34121 0.31317
# Poissons Ratio (z) = 0.25726 0.34544
#
# Static dielectric constant tensor:
#      x y z
#    x 3.130780 0.000000 -0.188080 
#    y 0.000000 3.261720 0.000000 
#    z -0.188080 0.000000 2.896060 
# 
# 
# High freq. dielectric constant tensor:
#      x y z
#    x 1.590860 0.000000 -0.021500 
#    y 0.000000 1.619520 0.000000 
#    z -0.021500 0.000000 1.568140 
# 
# From -- ./inp_files/65220.got.cif
#   From: 2010.06.25/outbox.cif.g09.slc.cpg/sg11_33_cif.got.tgz:65220.got - 2010.06.27 23:14:04.
