data_PCOD8072147
_publ_section_title
;
Structure prediction by ZEFSAII (Michael W. Deem and Ramdas Pophale) SiO2 
 PCOD8072147
Probable space group: P 21/M
;
_chemical_formula_sum "Si O2"
_cell_formula_units_Z 32
_cell_length_a 15.295534
_cell_length_b 17.224235
_cell_length_c 15.264287
_cell_angle_alpha 90.000000
_cell_angle_beta 153.212173
_cell_angle_gamma 90.000000
_cell_volume 1812.412298
_symmetry_space_group_name_H-M "P 21/M"
_symmetry_group_IT_number 11
_symmetry_cell_setting 'monoclinic'
loop_
_space_group_symop_operation_xyz
x,y,z
-x,1/2+y,-z
-x,-y,-z
x,1/2-y,z
loop_
_atom_site_type_symbol
_atom_site_label
_atom_site_fract_x
_atom_site_fract_y
_atom_site_fract_z
Si Si1 0.860616 0.541716 0.133275
Si Si2 0.920427 0.532628 0.519087
Si Si3 0.077126 0.606143 0.918136
Si Si4 0.061346 0.159225 0.933321
Si Si5 0.286189 0.909744 0.277877
Si Si6 0.718606 0.906827 0.710843
Si Si7 0.517124 0.467357 0.918395
Si Si8 0.177486 0.661671 0.823571
O O1 0.900790 0.483004 0.089810
O O2 0.879278 0.627183 0.109648
O O3 0.018522 0.527935 0.350858
O O4 0.644568 0.528471 0.977285
O O5 0.689873 0.541205 0.312625
O O6 0.000000 0.500000 0.500000
O O7 0.011846 0.617274 0.620024
O O8 0.121096 0.662235 0.875825
O O9 0.859222 0.620112 0.757959
O O10 0.228000 0.624210 0.131039
O O11 0.045202 0.250000 0.908977
O O12 0.852384 0.125281 0.772143
O O13 0.225673 0.137326 0.150574
O O14 0.502909 0.882397 0.491805
O O15 0.261955 0.001933 0.255437
O O16 0.500000 0.500000 0.000000
O O17 0.619317 0.382935 0.009823
O O18 0.195980 0.750000 0.806721
#
# Coordination Sequence:
#
# PCOD8072147 Si02
#       8
#     4   4   4   4   4   4   4   4
#     4  10  20  34  58  84 114 142 196 237 282 337
#     4  10  19  38  65  84 106 148 194 233 282 349
#     4   9  17  34  55  83 114 150 189 228 284 334
#     4  11  22  38  52  80 124 156 184 234 292 334
#     4  10  19  34  60  82 109 153 202 237 270 327
#     4  10  19  34  60  82 109 153 202 237 270 327
#     4  10  19  38  65  84 106 148 194 233 282 349
#     4  10  23  37  57  91 126 145 184 246 296 340
#
# _framework density 17.656027999999999
#
# number of rings (size 3 to 8) (size 9 to 14) (size 15 to 20)
#    0.000    2.250    5.000    0.750    0.000    8.000 
#    0.000    1.250    0.000    0.000    0.000    0.000 
#    0.000    0.000    0.000    0.000    0.000    0.000 
#
# Total GULP energy -396774.036287 kJ/mol
# GULP energy per Si atom -12399.188634 kJ/mol
# Density = 1.761584 g / cm^3
# Si number density = 17.656028 Si / 1000 Ang^3
#
#
#
# Elastic Constant Matrix: (Units=GPa)
#
#
# Indices 1 2 3 4 5 6 
#
# 1 113.3679 40.9293 60.5720 0.0000 0.5893 0.0000
# 2 40.9293 69.9670 23.3600 0.0000 7.8806 0.0000
# 3 60.5720 23.3600 153.4854 0.0000 26.7900 0.0000
# 4 0.0000 0.0000 0.0000 10.6300 0.0000 -2.8024
# 5 0.5893 7.8806 26.7900 0.0000 22.9384 0.0000
# 6 0.0000 0.0000 0.0000 -2.8024 0.0000 16.0935
#
#
#
# Elastic Compliance Matrix: (Units=1/GPa)
#
#
# Indices 1 2 3 4 5 6 
#
# 1 0.015013 -0.007731 -0.006462 0.000000 0.009817 0.000000
# 2 -0.007731 0.019220 0.001562 0.000000 -0.008229 0.000000
# 3 -0.006462 0.001562 0.011169 0.000000 -0.013415 0.000000
# 4 0.000000 0.000000 0.000000 0.098600 0.000000 0.017169
# 5 0.009817 -0.008229 -0.013415 0.000000 0.061838 0.000000
# 6 0.000000 0.000000 0.000000 0.017169 0.000000 0.065127
#
#
# Mechanical properties :
#
#
# Convention : Reuss Voigt Hill
#
# Bulk Modulus (GPa) = 49.64906 65.17144 57.41025
# Shear Modulus (GPa) = 16.50477 24.06297 20.28387
#
# Velocity S-wave (km/s) = 3.06076 3.69572 3.39312
# Velocity P-wave (km/s) = 6.37748 7.42987 6.92370
#
# Compressibility (1/GPa) = 0.02014137
#
# Stress axis : x y z
#
# Youngs Moduli (GPa) = 66.60698 52.02859 89.53153
#
# Poissons Ratio (x) = 0.40223 0.57854
# Poissons Ratio (y) = 0.51493 -0.13985
# Poissons Ratio (z) = 0.43041 -0.08127
#
# Static dielectric constant tensor:
#      x y z
#    x 3.292760 0.000000 -0.190660 
#    y 0.000000 3.075520 0.000000 
#    z -0.190660 0.000000 2.681690 
# 
# 
# High freq. dielectric constant tensor:
#      x y z
#    x 1.688340 0.000000 0.001020 
#    y 0.000000 1.658370 0.000000 
#    z 0.001020 0.000000 1.688490 
# 
# From -- ./inp_files/52591.got.cif
#   From: 2010.06.25/outbox.cif.g09.slc.cpg/sg11_27_cif.got.tgz:52591.got - 2010.06.27 23:14:04.
