data_PCOD8072522
_publ_section_title
;
Structure prediction by ZEFSAII (Michael W. Deem and Ramdas Pophale) SiO2 
 PCOD8072522
Probable space group: P 21/M
;
_chemical_formula_sum "Si O2"
_cell_formula_units_Z 28
_cell_length_a 20.385798
_cell_length_b 8.844375
_cell_length_c 13.812168
_cell_angle_alpha 90.000000
_cell_angle_beta 145.848718
_cell_angle_gamma 90.000000
_cell_volume 1398.020658
_symmetry_space_group_name_H-M "P 21/M"
_symmetry_group_IT_number 11
_symmetry_cell_setting 'monoclinic'
loop_
_space_group_symop_operation_xyz
x,y,z
-x,1/2+y,-z
-x,-y,-z
x,1/2-y,z
loop_
_atom_site_type_symbol
_atom_site_label
_atom_site_fract_x
_atom_site_fract_y
_atom_site_fract_z
Si Si1 0.452671 0.575184 0.300981
Si Si2 0.179238 0.429493 0.473514
Si Si3 0.628388 0.070105 0.163251
Si Si4 0.330937 0.577237 0.354757
Si Si5 0.023390 0.571480 0.630889
Si Si6 0.117512 0.427519 0.181805
Si Si7 0.719216 0.428525 0.068293
O O1 0.488709 0.750000 0.331178
O O2 0.371768 0.554726 0.295373
O O3 0.569164 0.476950 0.449626
O O4 0.381989 0.506021 0.124131
O O5 0.195431 0.250000 0.499244
O O6 0.299257 0.506094 0.656962
O O7 0.152628 0.484286 0.332127
O O8 0.069044 0.486386 0.402757
O O9 0.618008 0.250000 0.158943
O O10 0.699078 0.017798 0.153720
O O11 0.500000 0.000000 0.000000
O O12 0.299620 0.750000 0.339529
O O13 0.217747 0.474574 0.229654
O O14 0.015318 0.750000 0.610348
O O15 0.154901 0.519791 0.819440
O O16 0.000000 0.500000 0.500000
O O17 0.099857 0.250000 0.160720
O O18 0.000000 0.500000 0.000000
O O19 0.710108 0.250000 0.051302
#
# Coordination Sequence:
#
# PCOD8072522 Si02
#       7
#     4   4   4   4   4   4   4
#     4   9  19  37  62  86 116 156 197 242 293 353
#     4  10  23  41  63  87 117 159 201 242 297 359
#     4  11  23  39  60  88 124 159 200 244 293 353
#     4  10  21  38  61  88 119 153 196 246 299 353
#     4  10  19  36  60  85 114 147 189 236 285 343
#     4  11  25  43  63  87 118 157 203 249 300 362
#     4   9  19  35  59  86 113 152 193 235 290 348
#
# _framework density 20.028316
#
# number of rings (size 3 to 8) (size 9 to 14) (size 15 to 20)
#    0.000    2.000    1.429    1.286    4.000    1.714 
#    0.000    1.429    0.000    0.000    0.000    0.000 
#    0.000    0.000    0.000    0.000    0.000    0.000 
#
# Total GULP energy -347217.631042 kJ/mol
# GULP energy per Si atom -12400.629680 kJ/mol
# Density = 1.998273 g / cm^3
# Si number density = 20.028316 Si / 1000 Ang^3
#
#
#
# Elastic Constant Matrix: (Units=GPa)
#
#
# Indices 1 2 3 4 5 6 
#
# 1 61.9682 33.6358 47.6421 0.0000 8.9638 0.0000
# 2 33.6358 51.3686 42.6229 0.0000 -2.4114 0.0000
# 3 47.6421 42.6229 160.8316 0.0000 -3.3808 0.0000
# 4 0.0000 0.0000 0.0000 36.4508 0.0000 2.2362
# 5 8.9638 -2.4114 -3.3808 0.0000 38.2696 0.0000
# 6 0.0000 0.0000 0.0000 2.2362 0.0000 28.3247
#
#
#
# Elastic Compliance Matrix: (Units=1/GPa)
#
#
# Indices 1 2 3 4 5 6 
#
# 1 0.029582 -0.015825 -0.004744 0.000000 -0.008345 0.000000
# 2 -0.015825 0.033458 -0.004064 0.000000 0.005456 0.000000
# 3 -0.004744 -0.004064 0.008734 0.000000 0.001627 0.000000
# 4 0.000000 0.000000 0.000000 0.027568 0.000000 -0.002176
# 5 -0.008345 0.005456 0.001627 0.000000 0.028573 0.000000
# 6 0.000000 0.000000 0.000000 -0.002176 0.000000 0.035477
#
#
# Mechanical properties :
#
#
# Convention : Reuss Voigt Hill
#
# Bulk Modulus (GPa) = 44.43198 57.99667 51.21433
# Shear Modulus (GPa) = 22.71072 30.62688 26.66880
#
# Velocity S-wave (km/s) = 3.37104 3.91471 3.65301
# Velocity P-wave (km/s) = 6.11430 7.03232 6.58932
#
# Compressibility (1/GPa) = 0.02250631
#
# Stress axis : x y z
#
# Youngs Moduli (GPa) = 33.80474 29.88840 114.49006
#
# Poissons Ratio (x) = 0.47299 0.54318
# Poissons Ratio (y) = 0.53496 0.46533
# Poissons Ratio (z) = 0.16038 0.12148
#
# Static dielectric constant tensor:
#      x y z
#    x 3.932560 0.000000 0.141260 
#    y 0.000000 3.497270 0.000000 
#    z 0.141260 0.000000 3.943630 
# 
# 
# High freq. dielectric constant tensor:
#      x y z
#    x 1.785100 0.000000 0.004670 
#    y 0.000000 1.763890 0.000000 
#    z 0.004670 0.000000 1.797440 
# 
# From -- ./inp_files/37703.got.cif
#   From: 2010.06.25/outbox.cif.g09.slc.cpg/sg11_19_cif.got.tgz:37703.got - 2010.06.27 23:14:04.
