data_PCOD8072749
_publ_section_title
;
Structure prediction by ZEFSAII (Michael W. Deem and Ramdas Pophale) SiO2 
 PCOD8072749
Probable space group: P 21/M
;
_chemical_formula_sum "Si O2"
_cell_formula_units_Z 14
_cell_length_a 9.681796
_cell_length_b 5.687795
_cell_length_c 9.961639
_cell_angle_alpha 90.000000
_cell_angle_beta 114.002191
_cell_angle_gamma 90.000000
_cell_volume 501.133494
_symmetry_space_group_name_H-M "P 21/M"
_symmetry_group_IT_number 11
_symmetry_cell_setting 'monoclinic'
loop_
_space_group_symop_operation_xyz
x,y,z
-x,1/2+y,-z
-x,-y,-z
x,1/2-y,z
loop_
_atom_site_type_symbol
_atom_site_label
_atom_site_fract_x
_atom_site_fract_y
_atom_site_fract_z
Si Si1 0.627791 0.750000 0.791889
Si Si2 0.270162 0.250000 0.698276
Si Si3 0.673607 0.250000 0.199794
Si Si4 0.160707 0.250000 0.357514
Si Si5 0.923371 0.998028 0.113752
Si Si6 0.392025 0.750000 0.109590
O O1 0.444088 0.750000 0.721800
O O2 0.679162 0.750000 0.657541
O O3 0.692813 0.503255 0.885732
O O4 0.225424 0.503482 0.753267
O O5 0.185448 0.250000 0.524530
O O6 0.450353 0.250000 0.746986
O O7 0.558877 0.250000 0.027743
O O8 0.061659 0.023286 0.273394
O O9 0.818668 0.250000 0.083007
O O10 0.838354 0.750000 0.107229
O O11 0.000000 0.000000 0.000000
#
# Coordination Sequence:
#
# PCOD8072749 Si02
#       6
#     2   2   2   2   4   2
#     4  10  20  30  50  69  95 127 153 204 234 270
#     4  10  20  30  50  69  95 127 153 204 234 270
#     4  10  20  36  49  63  92 134 173 193 226 265
#     4  10  22  28  48  78 106 112 158 186 246 296
#     4   8  16  30  46  61  95 133 145 178 224 294
#     4  10  20  36  49  63  92 134 173 193 226 265
#
# _framework density 27.936665000000001
#
# number of rings (size 3 to 8) (size 9 to 14) (size 15 to 20)
#    0.857    1.714    0.000    4.286    4.000    4.571 
#    0.000    0.000    0.000    0.000    0.000    0.000 
#    0.000   38.857    0.000    0.000    0.000    0.000 
#
# Total GULP energy -173508.868742 kJ/mol
# GULP energy per Si atom -12393.490624 kJ/mol
# Density = 2.787308 g / cm^3
# Si number density = 27.936665 Si / 1000 Ang^3
#
#
#
# Elastic Constant Matrix: (Units=GPa)
#
#
# Indices 1 2 3 4 5 6 
#
# 1 135.9968 73.1515 20.2524 0.0000 -4.8752 0.0000
# 2 73.1515 352.0218 102.6038 0.0000 -8.4443 0.0000
# 3 20.2524 102.6038 164.7522 0.0000 8.9894 0.0000
# 4 0.0000 0.0000 0.0000 38.5897 0.0000 1.0754
# 5 -4.8752 -8.4443 8.9894 0.0000 30.7842 0.0000
# 6 0.0000 0.0000 0.0000 1.0754 0.0000 51.4066
#
#
#
# Elastic Compliance Matrix: (Units=1/GPa)
#
#
# Indices 1 2 3 4 5 6 
#
# 1 0.008300 -0.001703 -0.000006 0.000000 0.000849 0.000000
# 2 -0.001703 0.003900 -0.002300 0.000000 0.001472 0.000000
# 3 -0.000006 -0.002300 0.007659 0.000000 -0.002869 0.000000
# 4 0.000000 0.000000 0.000000 0.025929 0.000000 -0.000542
# 5 0.000849 0.001472 -0.002869 0.000000 0.033860 0.000000
# 6 0.000000 0.000000 0.000000 -0.000542 0.000000 0.019464
#
#
# Mechanical properties :
#
#
# Convention : Reuss Voigt Hill
#
# Bulk Modulus (GPa) = 84.44449 116.08734 100.26592
# Shear Modulus (GPa) = 45.01335 54.60697 49.81016
#
# Velocity S-wave (km/s) = 4.01841 4.42596 4.22710
# Velocity P-wave (km/s) = 7.19881 8.23182 7.73258
#
# Compressibility (1/GPa) = 0.01184210
#
# Stress axis : x y z
#
# Youngs Moduli (GPa) = 120.47721 256.39535 130.55871
#
# Poissons Ratio (x) = 0.43655 0.00082
# Poissons Ratio (y) = 0.20513 0.30028
# Poissons Ratio (z) = 0.00076 0.58970
#
# Static dielectric constant tensor:
#      x y z
#    x 5.162380 0.000000 -0.144250 
#    y 0.000000 6.334890 0.000000 
#    z -0.144250 0.000000 4.471140 
# 
# 
# High freq. dielectric constant tensor:
#      x y z
#    x 2.162900 0.000000 -0.020520 
#    y 0.000000 2.183290 0.000000 
#    z -0.020520 0.000000 2.102440 
# 
# From -- ./inp_files/20004.got.cif
#   From: 2010.06.25/outbox.cif.g09.slc.cpg/sg11_11_cif.got.tgz:20004.got - 2010.06.27 23:14:04.
