data_PCOD8072189
_publ_section_title
;
Structure prediction by ZEFSAII (Michael W. Deem and Ramdas Pophale) SiO2 
 PCOD8072189
Probable space group: P 21/M
;
_chemical_formula_sum "Si O2"
_cell_formula_units_Z 32
_cell_length_a 17.104069
_cell_length_b 18.111065
_cell_length_c 5.059975
_cell_angle_alpha 90.000000
_cell_angle_beta 99.255710
_cell_angle_gamma 90.000000
_cell_volume 1547.035584
_symmetry_space_group_name_H-M "P 21/M"
_symmetry_group_IT_number 11
_symmetry_cell_setting 'monoclinic'
loop_
_space_group_symop_operation_xyz
x,y,z
-x,1/2+y,-z
-x,-y,-z
x,1/2-y,z
loop_
_atom_site_type_symbol
_atom_site_label
_atom_site_fract_x
_atom_site_fract_y
_atom_site_fract_z
Si Si1 0.072519 0.055695 0.756509
Si Si2 0.813250 0.832074 0.929858
Si Si3 0.519497 0.434954 0.201228
Si Si4 0.341474 0.662284 0.822636
Si Si5 0.623948 0.541822 0.574928
Si Si6 0.712860 0.665971 0.376820
Si Si7 0.899843 0.033514 0.721984
Si Si8 0.730527 0.087404 0.720147
O O1 0.113067 0.124367 0.917543
O O2 0.979431 0.075546 0.664836
O O3 0.111935 0.034003 0.495289
O O4 0.084519 0.988954 0.967383
O O5 0.846091 0.750000 0.935178
O O6 0.740019 0.840158 0.090778
O O7 0.782115 0.855576 0.623930
O O8 0.567724 0.367682 0.090976
O O9 0.575364 0.470564 0.453207
O O10 0.432953 0.410494 0.261609
O O11 0.500000 0.500000 0.000000
O O12 0.342659 0.750000 0.849703
O O13 0.312008 0.637767 0.520088
O O14 0.283052 0.627032 0.007299
O O15 0.646157 0.602921 0.367857
O O16 0.700892 0.498761 0.735066
O O17 0.682916 0.750000 0.420760
O O18 0.822932 0.085609 0.688328
#
# Coordination Sequence:
#
# PCOD8072189 Si02
#       8
#     4   4   4   4   4   4   4   4
#     4  10  19  35  55  85 116 145 187 231 286 324
#     4  10  20  35  53  77 113 151 183 218 272 341
#     4  10  21  39  57  85 110 145 191 231 281 348
#     4  11  24  41  60  82 115 152 191 238 288 340
#     4  10  21  35  60  83 113 146 186 235 281 339
#     4  10  22  36  55  86 116 146 186 228 279 335
#     4  10  21  34  58  87 113 143 187 242 275 329
#     4  11  21  38  61  86 112 151 194 233 286 336
#
# _framework density 20.684722000000001
#
# number of rings (size 3 to 8) (size 9 to 14) (size 15 to 20)
#    0.000    1.750    1.250    3.375    1.750    1.500 
#    0.000    1.875    0.000    1.500    0.000    0.000 
#    0.000    0.000    0.000    0.000    0.000    0.000 
#
# Total GULP energy -396470.107632 kJ/mol
# GULP energy per Si atom -12389.690863 kJ/mol
# Density = 2.063764 g / cm^3
# Si number density = 20.684722 Si / 1000 Ang^3
#
#
#
# Elastic Constant Matrix: (Units=GPa)
#
#
# Indices 1 2 3 4 5 6 
#
# 1 92.8397 36.5917 1.1065 0.0000 -17.8025 0.0000
# 2 36.5917 83.8997 -8.6952 0.0000 -13.1266 0.0000
# 3 1.1065 -8.6952 53.5884 0.0000 -9.5746 0.0000
# 4 0.0000 0.0000 0.0000 27.2627 0.0000 -0.7212
# 5 -17.8025 -13.1266 -9.5746 0.0000 23.2003 0.0000
# 6 0.0000 0.0000 0.0000 -0.7212 0.0000 28.5049
#
#
#
# Elastic Compliance Matrix: (Units=1/GPa)
#
#
# Indices 1 2 3 4 5 6 
#
# 1 0.014297 -0.004882 0.000409 0.000000 0.008377 0.000000
# 2 -0.004882 0.015468 0.003784 0.000000 0.006567 0.000000
# 3 0.000409 0.003784 0.021274 0.000000 0.011234 0.000000
# 4 0.000000 0.000000 0.000000 0.036705 0.000000 0.000929
# 5 0.008377 0.006567 0.011234 0.000000 0.057883 0.000000
# 6 0.000000 0.000000 0.000000 0.000929 0.000000 0.035105
#
#
# Mechanical properties :
#
#
# Convention : Reuss Voigt Hill
#
# Bulk Modulus (GPa) = 20.13680 32.03708 26.08694
# Shear Modulus (GPa) = 25.16824 29.21524 27.19174
#
# Velocity S-wave (km/s) = 3.49199 3.76228 3.62965
# Velocity P-wave (km/s) = 5.10048 5.86471 5.49590
#
# Compressibility (1/GPa) = 0.04966032
#
# Stress axis : x y z
#
# Youngs Moduli (GPa) = 69.94439 64.64982 47.00673
#
# Poissons Ratio (x) = 0.31565 -0.01924
# Poissons Ratio (y) = 0.34150 -0.17787
# Poissons Ratio (z) = -0.02863 -0.24463
#
# Static dielectric constant tensor:
#      x y z
#    x 3.407890 0.000000 -0.105180 
#    y 0.000000 3.412140 0.000000 
#    z -0.105180 0.000000 3.749480 
# 
# 
# High freq. dielectric constant tensor:
#      x y z
#    x 1.809570 0.000000 -0.007150 
#    y 0.000000 1.783720 0.000000 
#    z -0.007150 0.000000 1.820110 
# 
# From -- ./inp_files/6847.got.cif
#   From: 2010.06.25/outbox.cif.g09.slc.cpg/sg11_4_cif.got.tgz:6847.got - 2010.06.27 23:14:04.
