data_PCOD8072812
_publ_section_title
;
Structure prediction by ZEFSAII (Michael W. Deem and Ramdas Pophale) SiO2 
 PCOD8072812
Probable space group: P 21/M
;
_chemical_formula_sum "Si O2"
_cell_formula_units_Z 32
_cell_length_a 17.798619
_cell_length_b 18.014103
_cell_length_c 12.086602
_cell_angle_alpha 90.000000
_cell_angle_beta 151.336789
_cell_angle_gamma 90.000000
_cell_volume 1858.817904
_symmetry_space_group_name_H-M "P 21/M"
_symmetry_group_IT_number 11
_symmetry_cell_setting 'monoclinic'
loop_
_space_group_symop_operation_xyz
x,y,z
-x,1/2+y,-z
-x,-y,-z
x,1/2-y,z
loop_
_atom_site_type_symbol
_atom_site_label
_atom_site_fract_x
_atom_site_fract_y
_atom_site_fract_z
Si Si1 0.492310 0.046692 0.155648
Si Si2 0.574961 0.108556 0.043576
Si Si3 0.779929 0.166582 0.001375
Si Si4 0.558482 0.666582 0.337036
Si Si5 0.100532 0.971660 0.967071
Si Si6 0.106346 0.608555 0.637730
Si Si7 0.828974 0.546692 0.165637
Si Si8 0.766004 0.528340 0.632543
O O1 0.525804 0.111425 0.108803
O O2 0.645729 0.031192 0.426743
O O3 0.350762 0.073138 0.052285
O O4 0.442099 0.973865 0.025567
O O5 0.755915 0.133930 0.267747
O O6 0.465148 0.161484 0.826617
O O7 0.786711 0.250000 0.962204
O O8 0.832520 0.109836 0.974507
O O9 0.896322 0.161483 0.257793
O O10 0.605037 0.144948 0.815109
O O11 0.611216 0.750000 0.435722
O O12 0.690531 0.609836 0.548545
O O13 0.914311 0.965740 0.742935
O O14 0.135283 0.031191 0.916296
O O15 0.186352 0.000001 0.186351
O O16 0.141370 0.526134 0.724836
O O17 0.942807 0.611426 0.359807
#
# Coordination Sequence:
#
# PCOD8072812 Si02
#       8
#     4   4   4   4   4   4   4   4
#     4   9  16  26  43  66  90 117 149 186 227 270
#     4   8  14  25  42  65  92 117 142 178 226 277
#     4   9  18  32  50  72  96 123 156 195 242 293
#     4   9  18  32  50  72  96 123 156 195 242 293
#     4  10  20  32  47  69  96 127 165 204 240 282
#     4   8  14  25  42  65  92 117 142 178 226 277
#     4   9  16  26  43  66  90 117 149 186 227 270
#     4  10  20  32  47  69  96 127 165 204 240 282
#
# _framework density 17.215242
#
# number of rings (size 3 to 8) (size 9 to 14) (size 15 to 20)
#    0.000    3.000    0.000    3.000    0.000    8.500 
#    0.000    0.000    0.000    1.500    0.000    3.500 
#    0.000    0.000    0.000    0.000    0.000    0.000 
#
# Total GULP energy -396636.132167 kJ/mol
# GULP energy per Si atom -12394.879130 kJ/mol
# Density = 1.717606 g / cm^3
# Si number density = 17.215242 Si / 1000 Ang^3
#
#
#
# Elastic Constant Matrix: (Units=GPa)
#
#
# Indices 1 2 3 4 5 6 
#
# 1 120.5226 38.1380 58.4050 0.0000 9.2890 0.0000
# 2 38.1380 54.5176 35.8495 0.0000 4.1328 0.0000
# 3 58.4050 35.8495 107.8854 0.0000 13.5256 0.0000
# 4 0.0000 0.0000 0.0000 16.4913 0.0000 1.9274
# 5 9.2890 4.1328 13.5256 0.0000 20.8379 0.0000
# 6 0.0000 0.0000 0.0000 1.9274 0.0000 17.5564
#
#
#
# Elastic Compliance Matrix: (Units=1/GPa)
#
#
# Indices 1 2 3 4 5 6 
#
# 1 0.012433 -0.005477 -0.004737 0.000000 -0.001381 0.000000
# 2 -0.005477 0.025888 -0.005769 0.000000 0.001052 0.000000
# 3 -0.004737 -0.005769 0.014524 0.000000 -0.006172 0.000000
# 4 0.000000 0.000000 0.000000 0.061426 0.000000 -0.006744
# 5 -0.001381 0.001052 -0.006172 0.000000 0.052402 0.000000
# 6 0.000000 0.000000 0.000000 -0.006744 0.000000 0.057700
#
#
# Mechanical properties :
#
#
# Convention : Reuss Voigt Hill
#
# Bulk Modulus (GPa) = 47.89796 60.85673 54.37734
# Shear Modulus (GPa) = 18.98972 21.01266 20.00119
#
# Velocity S-wave (km/s) = 3.32486 3.49748 3.41226
# Velocity P-wave (km/s) = 6.52863 7.19285 6.86877
#
# Compressibility (1/GPa) = 0.02087772
#
# Stress axis : x y z
#
# Youngs Moduli (GPa) = 80.43375 38.62737 68.84948
#
# Poissons Ratio (x) = 0.21158 0.32616
# Poissons Ratio (y) = 0.44057 0.39720
# Poissons Ratio (z) = 0.38104 0.22284
#
# Static dielectric constant tensor:
#      x y z
#    x 3.360210 0.000000 0.212630 
#    y 0.000000 2.982590 0.000000 
#    z 0.212630 0.000000 3.242400 
# 
# 
# High freq. dielectric constant tensor:
#      x y z
#    x 1.664760 0.000000 0.013340 
#    y 0.000000 1.622400 0.000000 
#    z 0.013340 0.000000 1.657370 
# 
# From -- ./inp_files/41964.got.cif
#   From: 2010.06.25/outbox.cif.g09.slc.cpg/sg11_21_cif.got.tgz:41964.got - 2010.06.27 23:14:04.
