data_PCOD8072045
_publ_section_title
;
Structure prediction by ZEFSAII (Michael W. Deem and Ramdas Pophale) SiO2 
 PCOD8072045
Probable space group: P 21/M
;
_chemical_formula_sum "Si O2"
_cell_formula_units_Z 24
_cell_length_a 15.436889
_cell_length_b 13.078603
_cell_length_c 9.629502
_cell_angle_alpha 90.000000
_cell_angle_beta 38.654609
_cell_angle_gamma 90.000000
_cell_volume 1214.349679
_symmetry_space_group_name_H-M "P 21/M"
_symmetry_group_IT_number 11
_symmetry_cell_setting 'monoclinic'
loop_
_space_group_symop_operation_xyz
x,y,z
-x,1/2+y,-z
-x,-y,-z
x,1/2-y,z
loop_
_atom_site_type_symbol
_atom_site_label
_atom_site_fract_x
_atom_site_fract_y
_atom_site_fract_z
Si Si1 0.612126 0.517717 0.553353
Si Si2 0.442260 0.367883 0.103415
Si Si3 0.091000 0.636932 0.381426
Si Si4 0.269836 0.636431 0.414690
Si Si5 0.621231 0.632515 0.268658
Si Si6 0.208220 0.431067 0.190611
O O1 0.548603 0.589622 0.752038
O O2 0.739367 0.449004 0.452941
O O3 0.666862 0.589537 0.361373
O O4 0.499358 0.436594 0.642994
O O5 0.399810 0.250000 0.160786
O O6 0.327400 0.427860 0.157793
O O7 0.590611 0.385345 0.847897
O O8 0.132224 0.750000 0.273029
O O9 0.134997 0.625970 0.487516
O O10 0.172998 0.549239 0.194355
O O11 0.926601 0.622857 0.575781
O O12 0.276662 0.750000 0.471530
O O13 0.572228 0.750000 0.343655
O O14 0.750525 0.626998 0.001801
#
# Coordination Sequence:
#
# PCOD8072045 Si02
#       6
#     4   4   4   4   4   4
#     4  11  21  35  55  84 115 145 189 238 282 330
#     4  11  20  34  60  87 112 146 192 238 280 333
#     4  10  21  36  59  88 117 148 188 236 285 333
#     4  10  19  34  57  84 114 147 187 236 287 333
#     4  11  23  38  56  82 118 155 189 230 288 347
#     4  11  21  38  61  85 114 154 191 232 279 341
#
# _framework density 19.763665
#
# number of rings (size 3 to 8) (size 9 to 14) (size 15 to 20)
#    0.000    1.333    3.333    4.000    0.000    0.000 
#    0.000    5.000    0.000    0.000    0.000    0.000 
#    0.000    0.000    0.000    0.000    0.000    0.000 
#
# Total GULP energy -297550.434646 kJ/mol
# GULP energy per Si atom -12397.934777 kJ/mol
# Density = 1.971868 g / cm^3
# Si number density = 19.763665 Si / 1000 Ang^3
#
#
#
# Elastic Constant Matrix: (Units=GPa)
#
#
# Indices 1 2 3 4 5 6 
#
# 1 63.2179 34.7376 21.2885 0.0000 11.7988 0.0000
# 2 34.7376 128.8610 34.5093 0.0000 6.1804 0.0000
# 3 21.2885 34.5093 38.3061 0.0000 14.9384 0.0000
# 4 0.0000 0.0000 0.0000 24.6740 0.0000 6.0717
# 5 11.7988 6.1804 14.9384 0.0000 31.5444 0.0000
# 6 0.0000 0.0000 0.0000 6.0717 0.0000 34.1525
#
#
#
# Elastic Compliance Matrix: (Units=1/GPa)
#
#
# Indices 1 2 3 4 5 6 
#
# 1 0.020812 -0.003598 -0.006824 0.000000 -0.003848 0.000000
# 2 -0.003598 0.011070 -0.009385 0.000000 0.003622 0.000000
# 3 -0.006824 -0.009385 0.044940 0.000000 -0.016891 0.000000
# 4 0.000000 0.000000 0.000000 0.042383 0.000000 -0.007535
# 5 -0.003848 0.003622 -0.016891 0.000000 0.040430 0.000000
# 6 0.000000 0.000000 0.000000 -0.007535 0.000000 0.030620
#
#
# Mechanical properties :
#
#
# Convention : Reuss Voigt Hill
#
# Bulk Modulus (GPa) = 26.87696 45.71733 36.29714
# Shear Modulus (GPa) = 20.63801 27.39748 24.01775
#
# Velocity S-wave (km/s) = 3.23498 3.72728 3.48982
# Velocity P-wave (km/s) = 5.25187 6.45800 5.88591
#
# Compressibility (1/GPa) = 0.03720659
#
# Stress axis : x y z
#
# Youngs Moduli (GPa) = 48.05019 90.33392 22.25192
#
# Poissons Ratio (x) = 0.32505 0.15184
# Poissons Ratio (y) = 0.17290 0.20884
# Poissons Ratio (z) = 0.32788 0.84782
#
# Static dielectric constant tensor:
#      x y z
#    x 3.697070 0.000000 0.088630 
#    y 0.000000 4.115150 0.000000 
#    z 0.088630 0.000000 3.292770 
# 
# 
# High freq. dielectric constant tensor:
#      x y z
#    x 1.768430 0.000000 -0.005170 
#    y 0.000000 1.804940 0.000000 
#    z -0.005170 0.000000 1.721100 
# 
# From -- ./inp_files/22020.got.cif
#   From: 2010.06.25/outbox.cif.g09.slc.cpg/sg11_12_cif.got.tgz:22020.got - 2010.06.27 23:14:04.
