data_PCOD8072323
_publ_section_title
;
Structure prediction by ZEFSAII (Michael W. Deem and Ramdas Pophale) SiO2 
 PCOD8072323
Probable space group: P 21/M
;
_chemical_formula_sum "Si O2"
_cell_formula_units_Z 28
_cell_length_a 7.905472
_cell_length_b 12.730279
_cell_length_c 17.071766
_cell_angle_alpha 90.000000
_cell_angle_beta 135.583013
_cell_angle_gamma 90.000000
_cell_volume 1202.443671
_symmetry_space_group_name_H-M "P 21/M"
_symmetry_group_IT_number 11
_symmetry_cell_setting 'monoclinic'
loop_
_space_group_symop_operation_xyz
x,y,z
-x,1/2+y,-z
-x,-y,-z
x,1/2-y,z
loop_
_atom_site_type_symbol
_atom_site_label
_atom_site_fract_x
_atom_site_fract_y
_atom_site_fract_z
Si Si1 0.276559 0.126921 0.577864
Si Si2 0.240504 0.866417 0.184059
Si Si3 0.379283 0.873455 0.956212
Si Si4 0.140915 0.367806 0.807471
Si Si5 0.010573 0.374715 0.051442
Si Si6 0.448203 0.627252 0.798822
Si Si7 0.022128 0.010737 0.618386
O O1 0.292221 0.250000 0.560731
O O2 0.524198 0.082350 0.698341
O O3 0.218657 0.057767 0.480525
O O4 0.059776 0.104529 0.567829
O O5 0.323977 0.750000 0.186121
O O6 0.022517 0.860582 0.171294
O O7 0.137118 0.925210 0.071833
O O8 0.412579 0.750000 0.976491
O O9 0.124185 0.908547 0.912119
O O10 0.606301 0.922456 0.080489
O O11 0.396181 0.903886 0.871554
O O12 0.184499 0.250000 0.787853
O O13 0.006730 0.439079 0.699118
O O14 0.008820 0.250000 0.038634
O O15 0.288908 0.411499 0.144191
O O16 0.413898 0.750000 0.773284
O O17 0.249460 0.566989 0.682934
#
# Coordination Sequence:
#
# PCOD8072323 Si02
#       7
#     4   4   4   4   4   4   4
#     4  10  22  42  62  81 110 150 197 244 294 353
#     4   9  17  34  60  84 112 154 197 239 289 339
#     4   9  17  32  57  85 120 163 196 231 286 344
#     4  10  19  35  58  86 119 152 193 244 288 342
#     4   9  16  31  57  86 117 158 198 234 283 343
#     4  10  20  37  57  86 125 157 193 238 288 349
#     4  11  23  37  59  88 112 150 196 241 298 345
#
# _framework density 23.285912
#
# number of rings (size 3 to 8) (size 9 to 14) (size 15 to 20)
#    0.000    2.286    1.429    1.714    0.000    3.429 
#    2.571    1.429    0.000    0.000    0.000    0.000 
#    0.000    1.143    0.000    0.000    0.000    0.000 
#
# Total GULP energy -347081.483232 kJ/mol
# GULP energy per Si atom -12395.767258 kJ/mol
# Density = 2.323291 g / cm^3
# Si number density = 23.285912 Si / 1000 Ang^3
#
#
#
# Elastic Constant Matrix: (Units=GPa)
#
#
# Indices 1 2 3 4 5 6 
#
# 1 105.4928 -12.6128 11.4641 0.0000 10.7655 0.0000
# 2 -12.6128 48.4609 11.8990 0.0000 11.6796 0.0000
# 3 11.4641 11.8990 128.7929 0.0000 20.0197 0.0000
# 4 0.0000 0.0000 0.0000 24.4328 0.0000 8.7820
# 5 10.7655 11.6796 20.0197 0.0000 30.8941 0.0000
# 6 0.0000 0.0000 0.0000 8.7820 0.0000 7.4989
#
#
#
# Elastic Compliance Matrix: (Units=1/GPa)
#
#
# Indices 1 2 3 4 5 6 
#
# 1 0.010516 0.004038 -0.000558 0.000000 -0.004829 0.000000
# 2 0.004038 0.024338 -0.001066 0.000000 -0.009917 0.000000
# 3 -0.000558 -0.001066 0.008696 0.000000 -0.005037 0.000000
# 4 0.000000 0.000000 0.000000 0.070681 0.000000 -0.082774
# 5 -0.004829 -0.009917 -0.005037 0.000000 0.041065 0.000000
# 6 0.000000 0.000000 0.000000 -0.082774 0.000000 0.230289
#
#
# Mechanical properties :
#
#
# Convention : Reuss Voigt Hill
#
# Bulk Modulus (GPa) = 20.67183 33.80525 27.23854
# Shear Modulus (GPa) = 12.59817 30.69827 21.64822
#
# Velocity S-wave (km/s) = 2.32851 3.63481 3.05236
# Velocity P-wave (km/s) = 4.01571 5.67140 4.91379
#
# Compressibility (1/GPa) = 0.04837501
#
# Stress axis : x y z
#
# Youngs Moduli (GPa) = 95.09713 41.08792 115.00061
#
# Poissons Ratio (x) = -0.16590 0.06422
# Poissons Ratio (y) = -0.38398 0.12264
# Poissons Ratio (z) = 0.05311 0.04382
#
# Static dielectric constant tensor:
#      x y z
#    x 3.948590 0.000000 0.098940 
#    y 0.000000 4.528730 0.000000 
#    z 0.098940 0.000000 4.196750 
# 
# 
# High freq. dielectric constant tensor:
#      x y z
#    x 1.899150 0.000000 0.002190 
#    y 0.000000 1.952310 0.000000 
#    z 0.002190 0.000000 1.911470 
# 
# From -- ./inp_files/58129.got.cif
#   From: 2010.06.25/outbox.cif.g09.slc.cpg/sg11_30_cif.got.tgz:58129.got - 2010.06.27 23:14:04.
