data_PCOD8072914
_publ_section_title
;
Structure prediction by ZEFSAII (Michael W. Deem and Ramdas Pophale) SiO2 
 PCOD8072914
Probable space group: P 21/M
;
_chemical_formula_sum "Si O2"
_cell_formula_units_Z 32
_cell_length_a 23.118574
_cell_length_b 9.252931
_cell_length_c 16.586139
_cell_angle_alpha 90.000000
_cell_angle_beta 31.823179
_cell_angle_gamma 90.000000
_cell_volume 1870.867752
_symmetry_space_group_name_H-M "P 21/M"
_symmetry_group_IT_number 11
_symmetry_cell_setting 'monoclinic'
loop_
_space_group_symop_operation_xyz
x,y,z
-x,1/2+y,-z
-x,-y,-z
x,1/2-y,z
loop_
_atom_site_type_symbol
_atom_site_label
_atom_site_fract_x
_atom_site_fract_y
_atom_site_fract_z
Si Si1 0.154230 0.081451 0.679049
Si Si2 0.387019 0.417805 0.637061
Si Si3 0.359803 0.418896 0.330075
Si Si4 0.803689 0.419754 0.213120
Si Si5 0.410926 0.080122 0.921689
Si Si6 0.390869 0.414765 0.119785
Si Si7 0.265742 0.084436 0.947922
Si Si8 0.082669 0.585641 0.087804
O O1 0.161781 0.250000 0.695008
O O2 0.260858 0.028891 0.503796
O O3 0.047067 0.055991 0.750269
O O4 0.139043 0.983008 0.775524
O O5 0.500000 0.500000 0.500000
O O6 0.401418 0.250000 0.596844
O O7 0.309944 0.494512 0.662913
O O8 0.339366 0.437581 0.782308
O O9 0.383583 0.250000 0.315049
O O10 0.470585 0.503671 0.221190
O O11 0.318996 0.448783 0.285127
O O12 0.780221 0.250000 0.251133
O O13 0.882655 0.452989 0.044520
O O14 0.432418 0.250000 0.882717
O O15 0.333156 0.017990 0.943303
O O16 0.344600 0.049235 0.084880
O O17 0.426465 0.250000 0.078788
O O18 0.500000 0.500000 0.000000
O O19 0.238126 0.250000 0.997503
O O20 0.148814 0.006853 0.075269
O O21 0.112606 0.750000 0.071447
#
# Coordination Sequence:
#
# PCOD8072914 Si02
#       8
#     4   4   4   4   4   4   4   4
#     4  10  20  33  49  71  97 123 156 200 242 280
#     4  10  20  33  47  66  96 129 157 193 237 282
#     4   9  18  30  46  72  99 124 152 186 233 287
#     4  10  20  33  49  69  90 122 165 200 236 281
#     4   9  17  30  49  72  97 124 153 191 231 276
#     4   8  14  27  46  67  94 124 152 182 226 279
#     4   9  19  33  49  69  92 121 159 197 232 275
#     4   9  19  35  51  67  91 124 162 200 237 278
#
# _framework density 17.104362999999999
#
# number of rings (size 3 to 8) (size 9 to 14) (size 15 to 20)
#    0.000    2.750    0.000    1.125    1.750    2.500 
#    0.000    0.000    0.000    0.750    0.000    0.000 
#    0.000    0.000    0.000    0.000    0.000    0.000 
#
# Total GULP energy -396557.657550 kJ/mol
# GULP energy per Si atom -12392.426798 kJ/mol
# Density = 1.706543 g / cm^3
# Si number density = 17.104363 Si / 1000 Ang^3
#
#
#
# Elastic Constant Matrix: (Units=GPa)
#
#
# Indices 1 2 3 4 5 6 
#
# 1 118.9398 44.9841 50.3858 0.0000 -6.8100 0.0000
# 2 44.9841 60.4281 29.6498 0.0000 -4.6056 0.0000
# 3 50.3858 29.6498 60.7789 0.0000 -8.2372 0.0000
# 4 0.0000 0.0000 0.0000 20.6053 0.0000 -4.7959
# 5 -6.8100 -4.6056 -8.2372 0.0000 21.2815 0.0000
# 6 0.0000 0.0000 0.0000 -4.7959 0.0000 26.9424
#
#
#
# Elastic Compliance Matrix: (Units=1/GPa)
#
#
# Indices 1 2 3 4 5 6 
#
# 1 0.014683 -0.006520 -0.009019 0.000000 -0.000203 0.000000
# 2 -0.006520 0.024660 -0.006526 0.000000 0.000724 0.000000
# 3 -0.009019 -0.006526 0.027999 0.000000 0.006539 0.000000
# 4 0.000000 0.000000 0.000000 0.050629 0.000000 0.009012
# 5 -0.000203 0.000724 0.006539 0.000000 0.049612 0.000000
# 6 0.000000 0.000000 0.000000 0.009012 0.000000 0.038720
#
#
# Mechanical properties :
#
#
# Convention : Reuss Voigt Hill
#
# Bulk Modulus (GPa) = 43.08234 54.46513 48.77373
# Shear Modulus (GPa) = 19.36703 21.44097 20.40400
#
# Velocity S-wave (km/s) = 3.36860 3.54438 3.45760
# Velocity P-wave (km/s) = 6.35394 6.97582 6.67213
#
# Compressibility (1/GPa) = 0.02321137
#
# Stress axis : x y z
#
# Youngs Moduli (GPa) = 68.10803 40.55155 35.71508
#
# Poissons Ratio (x) = 0.26442 0.32210
# Poissons Ratio (y) = 0.44410 0.23309
# Poissons Ratio (z) = 0.61424 0.26465
#
# Static dielectric constant tensor:
#      x y z
#    x 3.687130 0.000000 0.365280 
#    y 0.000000 3.211640 0.000000 
#    z 0.365280 0.000000 3.295540 
# 
# 
# High freq. dielectric constant tensor:
#      x y z
#    x 1.659670 0.000000 0.004880 
#    y 0.000000 1.662260 0.000000 
#    z 0.004880 0.000000 1.637700 
# 
# From -- ./inp_files/42766.got.cif
#   From: 2010.06.25/outbox.cif.g09.slc.cpg/sg11_22_cif.got.tgz:42766.got - 2010.06.27 23:14:04.
