data_PCOD8072854
_publ_section_title
;
Structure prediction by ZEFSAII (Michael W. Deem and Ramdas Pophale) SiO2 
 PCOD8072854
Probable space group: P 21/M
;
_chemical_formula_sum "Si O2"
_cell_formula_units_Z 28
_cell_length_a 18.087155
_cell_length_b 8.917892
_cell_length_c 20.787377
_cell_angle_alpha 90.000000
_cell_angle_beta 29.857270
_cell_angle_gamma 90.000000
_cell_volume 1669.255816
_symmetry_space_group_name_H-M "P 21/M"
_symmetry_group_IT_number 11
_symmetry_cell_setting 'monoclinic'
loop_
_space_group_symop_operation_xyz
x,y,z
-x,1/2+y,-z
-x,-y,-z
x,1/2-y,z
loop_
_atom_site_type_symbol
_atom_site_label
_atom_site_fract_x
_atom_site_fract_y
_atom_site_fract_z
Si Si1 0.336299 0.423528 0.867117
Si Si2 0.615142 0.422748 0.729625
Si Si3 0.898982 0.078393 0.882998
Si Si4 0.100471 0.920005 0.975935
Si Si5 0.081750 0.427132 0.254738
Si Si6 0.576969 0.925453 0.001863
Si Si7 0.926083 0.572443 0.493629
O O1 0.292674 0.250000 0.897865
O O2 0.513751 0.444111 0.741591
O O3 0.260664 0.496110 0.987895
O O4 0.265400 0.503465 0.857134
O O5 0.669182 0.250000 0.693981
O O6 0.752729 0.533714 0.621771
O O7 0.515516 0.469470 0.865349
O O8 0.875714 0.250000 0.879529
O O9 0.978915 0.069759 0.893348
O O10 0.988551 0.990150 0.759391
O O11 0.124136 0.750000 0.936086
O O12 0.000000 0.000000 0.000000
O O13 0.057235 0.250000 0.278348
O O14 0.252695 0.479395 0.124455
O O15 0.002736 0.506974 0.373092
O O16 0.575203 0.750000 0.992440
O O17 0.500000 0.000000 0.000000
O O18 0.947143 0.750000 0.480573
O O19 0.000000 0.500000 0.500000
#
# Coordination Sequence:
#
# PCOD8072854 Si02
#       7
#     4   4   4   4   4   4   4
#     4   9  16  30  51  74 103 136 172 212 257 307
#     4  10  20  37  55  74 101 136 175 218 265 319
#     4   9  18  30  48  76 106 136 171 211 254 306
#     4   9  17  27  45  76 114 146 175 213 260 310
#     4  11  21  37  56  75 100 136 175 218 267 318
#     4  10  20  32  49  73  96 123 163 208 260 313
#     4  12  26  41  55  75 103 139 180 226 275 323
#
# _framework density 16.773942000000002
#
# number of rings (size 3 to 8) (size 9 to 14) (size 15 to 20)
#    0.857    1.143    1.429    3.429    0.000    5.143 
#    0.000    0.000    0.000    0.000    0.000    1.000 
#    0.000    0.000    0.000    0.000    0.000    0.000 
#
# Total GULP energy -346912.844469 kJ/mol
# GULP energy per Si atom -12389.744445 kJ/mol
# Density = 1.673576 g / cm^3
# Si number density = 16.773942 Si / 1000 Ang^3
#
#
#
# Elastic Constant Matrix: (Units=GPa)
#
#
# Indices 1 2 3 4 5 6 
#
# 1 111.6430 58.9812 41.9366 0.0000 -5.8018 0.0000
# 2 58.9812 126.2974 47.9805 0.0000 -1.7061 0.0000
# 3 41.9366 47.9805 85.3964 0.0000 1.4724 0.0000
# 4 0.0000 0.0000 0.0000 25.6531 0.0000 0.8183
# 5 -5.8018 -1.7061 1.4724 0.0000 20.7776 0.0000
# 6 0.0000 0.0000 0.0000 0.8183 0.0000 32.8648
#
#
#
# Elastic Compliance Matrix: (Units=1/GPa)
#
#
# Indices 1 2 3 4 5 6 
#
# 1 0.013005 -0.004547 -0.003893 0.000000 0.003534 0.000000
# 2 -0.004547 0.011688 -0.004334 0.000000 -0.000003 0.000000
# 3 -0.003893 -0.004334 0.016101 0.000000 -0.002584 0.000000
# 4 0.000000 0.000000 0.000000 0.039013 0.000000 -0.000971
# 5 0.003534 -0.000003 -0.002584 0.000000 0.049298 0.000000
# 6 0.000000 0.000000 0.000000 -0.000971 0.000000 0.030452
#
#
# Mechanical properties :
#
#
# Convention : Reuss Voigt Hill
#
# Bulk Modulus (GPa) = 65.58643 69.01485 67.30064
# Shear Modulus (GPa) = 26.29000 27.48833 26.88916
#
# Velocity S-wave (km/s) = 3.96322 4.05254 4.00813
# Velocity P-wave (km/s) = 7.75422 7.94549 7.85044
#
# Compressibility (1/GPa) = 0.01524706
#
# Stress axis : x y z
#
# Youngs Moduli (GPa) = 76.89268 85.56094 62.10647
#
# Poissons Ratio (x) = 0.38903 0.24177
# Poissons Ratio (y) = 0.34961 0.26916
# Poissons Ratio (z) = 0.29933 0.37081
#
# Static dielectric constant tensor:
#      x y z
#    x 3.148160 0.000000 0.006310 
#    y 0.000000 3.287510 0.000000 
#    z 0.006310 0.000000 2.973240 
# 
# 
# High freq. dielectric constant tensor:
#      x y z
#    x 1.644380 0.000000 0.001500 
#    y 0.000000 1.662500 0.000000 
#    z 0.001500 0.000000 1.610380 
# 
# From -- ./inp_files/65994.got.cif
#   From: 2010.06.25/outbox.cif.g09.slc.cpg/sg11_33_cif.got.tgz:65994.got - 2010.06.27 23:14:04.
