data_PCOD8072209
_publ_section_title
;
Structure prediction by ZEFSAII (Michael W. Deem and Ramdas Pophale) SiO2 
 PCOD8072209
Probable space group: P 21/M
;
_chemical_formula_sum "Si O2"
_cell_formula_units_Z 32
_cell_length_a 12.034608
_cell_length_b 8.740007
_cell_length_c 19.769390
_cell_angle_alpha 90.000000
_cell_angle_beta 130.962795
_cell_angle_gamma 90.000000
_cell_volume 1570.224854
_symmetry_space_group_name_H-M "P 21/M"
_symmetry_group_IT_number 11
_symmetry_cell_setting 'monoclinic'
loop_
_space_group_symop_operation_xyz
x,y,z
-x,1/2+y,-z
-x,-y,-z
x,1/2-y,z
loop_
_atom_site_type_symbol
_atom_site_label
_atom_site_fract_x
_atom_site_fract_y
_atom_site_fract_z
Si Si1 0.261622 0.931750 0.281695
Si Si2 0.922292 0.073589 0.666003
Si Si3 0.437313 0.432269 0.657546
Si Si4 0.113947 0.069471 0.491982
Si Si5 0.749359 0.925208 0.159482
Si Si6 0.737248 0.429091 0.020581
Si Si7 0.978140 0.070940 0.918170
Si Si8 0.523055 0.930294 0.177786
O O1 0.247750 0.750000 0.276565
O O2 0.430876 0.986686 0.339889
O O3 0.165206 0.992498 0.179340
O O4 0.200184 0.990101 0.329789
O O5 0.893418 0.250000 0.634640
O O6 0.077053 0.054300 0.764817
O O7 0.926320 0.973134 0.600357
O O8 0.434029 0.250000 0.658806
O O9 0.279168 0.494666 0.570469
O O10 0.470778 0.502269 0.745029
O O11 0.108371 0.250000 0.499296
O O12 0.000000 0.000000 0.500000
O O13 0.706666 0.750000 0.125749
O O14 0.672159 0.976297 0.198422
O O15 0.683136 0.034479 0.074828
O O16 0.769614 0.250000 0.024085
O O17 0.882401 0.529855 0.071143
O O18 0.618774 0.490311 0.919330
O O19 0.962917 0.250000 0.922247
O O20 0.000000 0.000000 0.000000
O O21 0.509759 0.750000 0.179212
#
# Coordination Sequence:
#
# PCOD8072209 Si02
#       8
#     4   4   4   4   4   4   4   4
#     4   9  18  35  59  84 112 150 194 233 280 343
#     4  10  20  37  61  86 114 153 193 236 285 342
#     4   9  18  35  58  83 111 145 190 235 281 341
#     4  11  23  39  62  90 116 148 187 236 290 345
#     4  10  19  35  56  79 111 154 199 236 283 342
#     4  11  21  33  52  82 114 147 189 240 291 338
#     4  11  21  36  57  82 112 153 197 238 283 338
#     4   9  18  32  53  79 110 151 195 239 284 338
#
# _framework density 20.379245999999998
#
# number of rings (size 3 to 8) (size 9 to 14) (size 15 to 20)
#    0.000    2.000    1.250    3.000    0.000    5.000 
#    0.000    0.625    0.000   11.250    0.000    0.000 
#    0.000    0.000    0.000    0.000    0.000    0.000 
#
# Total GULP energy -396725.306223 kJ/mol
# GULP energy per Si atom -12397.665819 kJ/mol
# Density = 2.033286 g / cm^3
# Si number density = 20.379246 Si / 1000 Ang^3
#
#
#
# Elastic Constant Matrix: (Units=GPa)
#
#
# Indices 1 2 3 4 5 6 
#
# 1 140.6357 22.1227 42.9556 0.0000 -0.1631 0.0000
# 2 22.1227 36.0557 25.4821 0.0000 -1.3333 0.0000
# 3 42.9556 25.4821 94.0954 0.0000 -6.0986 0.0000
# 4 0.0000 0.0000 0.0000 23.4760 0.0000 -7.3553
# 5 -0.1631 -1.3333 -6.0986 0.0000 41.6532 0.0000
# 6 0.0000 0.0000 0.0000 -7.3553 0.0000 26.1771
#
#
#
# Elastic Compliance Matrix: (Units=1/GPa)
#
#
# Indices 1 2 3 4 5 6 
#
# 1 0.008540 -0.003067 -0.003102 0.000000 -0.000519 0.000000
# 2 -0.003067 0.035404 -0.008193 0.000000 -0.000078 0.000000
# 3 -0.003102 -0.008193 0.014381 0.000000 0.001831 0.000000
# 4 0.000000 0.000000 0.000000 0.046709 0.000000 0.013124
# 5 -0.000519 -0.000078 0.001831 0.000000 0.024271 0.000000
# 6 0.000000 0.000000 0.000000 0.013124 0.000000 0.041889
#
#
# Mechanical properties :
#
#
# Convention : Reuss Voigt Hill
#
# Bulk Modulus (GPa) = 33.78159 50.21197 41.99678
# Shear Modulus (GPa) = 23.83411 30.27636 27.05524
#
# Velocity S-wave (km/s) = 3.42355 3.85859 3.64756
# Velocity P-wave (km/s) = 5.67803 6.67412 6.19612
#
# Compressibility (1/GPa) = 0.02960192
#
# Stress axis : x y z
#
# Youngs Moduli (GPa) = 117.09954 28.24547 69.53716
#
# Poissons Ratio (x) = 0.08663 0.21567
# Poissons Ratio (y) = 0.35913 0.56970
# Poissons Ratio (z) = 0.36319 0.23141
#
# Static dielectric constant tensor:
#      x y z
#    x 4.028710 0.000000 0.018110 
#    y 0.000000 3.260320 0.000000 
#    z 0.018110 0.000000 3.831650 
# 
# 
# High freq. dielectric constant tensor:
#      x y z
#    x 1.815960 0.000000 -0.002040 
#    y 0.000000 1.749760 0.000000 
#    z -0.002040 0.000000 1.800520 
# 
# From -- ./inp_files/64453.got.cif
#   From: 2010.06.25/outbox.cif.g09.slc.cpg/sg11_33_cif.got.tgz:64453.got - 2010.06.27 23:14:04.
