data_PCOD8072054
_publ_section_title
;
Structure prediction by ZEFSAII (Michael W. Deem and Ramdas Pophale) SiO2 
 PCOD8072054
Probable space group: P 21/M
;
_chemical_formula_sum "Si O2"
_cell_formula_units_Z 32
_cell_length_a 25.821328
_cell_length_b 9.225295
_cell_length_c 19.968729
_cell_angle_alpha 90.000000
_cell_angle_beta 158.736082
_cell_angle_gamma 90.000000
_cell_volume 1725.099772
_symmetry_space_group_name_H-M "P 21/M"
_symmetry_group_IT_number 11
_symmetry_cell_setting 'monoclinic'
loop_
_space_group_symop_operation_xyz
x,y,z
-x,1/2+y,-z
-x,-y,-z
x,1/2-y,z
loop_
_atom_site_type_symbol
_atom_site_label
_atom_site_fract_x
_atom_site_fract_y
_atom_site_fract_z
Si Si1 0.789778 0.918890 0.489323
Si Si2 0.112006 0.918234 0.897411
Si Si3 0.714846 0.581595 0.002736
Si Si4 0.893000 0.084739 0.955843
Si Si5 0.352760 0.082503 0.823476
Si Si6 0.208859 0.082105 0.289647
Si Si7 0.383639 0.920438 0.606562
Si Si8 0.854179 0.578823 0.308958
O O1 0.778340 0.750000 0.496459
O O2 0.737565 0.948295 0.351691
O O3 0.952524 0.973686 0.689560
O O4 0.694373 0.012596 0.423776
O O5 0.122583 0.750000 0.892741
O O6 0.227465 0.000100 0.992442
O O7 0.151493 0.949225 0.022043
O O8 0.738129 0.750000 0.017903
O O9 0.800080 0.529939 0.170981
O O10 0.549827 0.544718 0.814778
O O11 0.857642 0.250000 0.893116
O O12 0.804081 0.978037 0.801261
O O13 0.062047 0.057370 0.152801
O O14 0.390079 0.250000 0.876382
O O15 0.261770 0.026706 0.776711
O O16 0.500000 0.000000 0.000000
O O17 0.251749 0.250000 0.337821
O O18 0.331334 0.994001 0.475069
O O19 0.351961 0.750000 0.565432
O O20 0.878483 0.750000 0.343213
O O21 0.000000 0.500000 0.500000
#
# Coordination Sequence:
#
# PCOD8072054 Si02
#       8
#     4   4   4   4   4   4   4   4
#     4  10  20  36  57  83 110 140 184 235 281 331
#     4  10  20  37  59  83 111 144 184 230 277 326
#     4  10  23  39  55  80 115 149 186 231 276 331
#     4   9  18  34  56  84 115 144 180 228 276 326
#     4  10  21  36  56  80 111 145 181 229 283 335
#     4  10  19  34  57  85 116 146 182 228 274 327
#     4  11  22  37  57  82 114 152 188 227 278 332
#     4  10  21  39  59  80 109 146 187 232 281 332
#
# _framework density 18.549651999999998
#
# number of rings (size 3 to 8) (size 9 to 14) (size 15 to 20)
#    0.000    2.000    1.250    2.250    0.000    6.000 
#    0.000    0.625    0.000    0.000    0.000    0.000 
#    0.000    0.000    0.000    0.000    0.000    0.000 
#
# Total GULP energy -396948.843791 kJ/mol
# GULP energy per Si atom -12404.651368 kJ/mol
# Density = 1.850743 g / cm^3
# Si number density = 18.549652 Si / 1000 Ang^3
#
#
#
# Elastic Constant Matrix: (Units=GPa)
#
#
# Indices 1 2 3 4 5 6 
#
# 1 120.4899 51.9711 42.8080 0.0000 1.8004 0.0000
# 2 51.9711 73.0051 45.7549 0.0000 -0.6844 0.0000
# 3 42.8080 45.7549 70.2204 0.0000 -4.8210 0.0000
# 4 0.0000 0.0000 0.0000 34.7685 0.0000 0.5449
# 5 1.8004 -0.6844 -4.8210 0.0000 27.4979 0.0000
# 6 0.0000 0.0000 0.0000 0.5449 0.0000 32.7359
#
#
#
# Elastic Compliance Matrix: (Units=1/GPa)
#
#
# Indices 1 2 3 4 5 6 
#
# 1 0.012415 -0.006833 -0.003222 0.000000 -0.001548 0.000000
# 2 -0.006833 0.027033 -0.013535 0.000000 -0.001253 0.000000
# 3 -0.003222 -0.013535 0.025321 0.000000 0.004313 0.000000
# 4 0.000000 0.000000 0.000000 0.028769 0.000000 -0.000479
# 5 -0.001548 -0.001253 0.004313 0.000000 0.037193 0.000000
# 6 0.000000 0.000000 0.000000 -0.000479 0.000000 0.030556
#
#
# Mechanical properties :
#
#
# Convention : Reuss Voigt Hill
#
# Bulk Modulus (GPa) = 56.85674 60.53150 58.69412
# Shear Modulus (GPa) = 23.32870 27.21255 25.27062
#
# Velocity S-wave (km/s) = 3.55016 3.83431 3.69497
# Velocity P-wave (km/s) = 6.89366 7.23226 7.06499
#
# Compressibility (1/GPa) = 0.01758806
#
# Stress axis : x y z
#
# Youngs Moduli (GPa) = 80.55049 36.99213 39.49337
#
# Poissons Ratio (x) = 0.25275 0.12726
# Poissons Ratio (y) = 0.55037 0.53454
# Poissons Ratio (z) = 0.25957 0.50069
#
# Static dielectric constant tensor:
#      x y z
#    x 3.434950 0.000000 -0.122300 
#    y 0.000000 3.384610 0.000000 
#    z -0.122300 0.000000 3.441450 
# 
# 
# High freq. dielectric constant tensor:
#      x y z
#    x 1.727050 0.000000 -0.011980 
#    y 0.000000 1.717500 0.000000 
#    z -0.011980 0.000000 1.721430 
# 
# From -- ./inp_files/67219.got.cif
#   From: 2010.06.25/outbox.cif.g09.slc.cpg/sg11_34_cif.got.tgz:67219.got - 2010.06.27 23:14:04.
