data_PCOD8072141
_publ_section_title
;
Structure prediction by ZEFSAII (Michael W. Deem and Ramdas Pophale) SiO2 
 PCOD8072141
Probable space group: P 21/M
;
_chemical_formula_sum "Si O2"
_cell_formula_units_Z 28
_cell_length_a 14.996499
_cell_length_b 8.940451
_cell_length_c 11.486694
_cell_angle_alpha 90.000000
_cell_angle_beta 64.239789
_cell_angle_gamma 90.000000
_cell_volume 1387.031534
_symmetry_space_group_name_H-M "P 21/M"
_symmetry_group_IT_number 11
_symmetry_cell_setting 'monoclinic'
loop_
_space_group_symop_operation_xyz
x,y,z
-x,1/2+y,-z
-x,-y,-z
x,1/2-y,z
loop_
_atom_site_type_symbol
_atom_site_label
_atom_site_fract_x
_atom_site_fract_y
_atom_site_fract_z
Si Si1 0.353314 0.918626 0.828460
Si Si2 0.039436 0.925202 0.795694
Si Si3 0.397239 0.919001 0.545966
Si Si4 0.866372 0.423983 0.013242
Si Si5 0.520832 0.423523 0.867239
Si Si6 0.287432 0.926020 0.382710
Si Si7 0.085983 0.071968 0.527302
O O1 0.383309 0.750000 0.846850
O O2 0.336548 0.930285 0.699732
O O3 0.248557 0.961575 0.945710
O O4 0.440637 0.027047 0.817527
O O5 0.040638 0.750000 0.765376
O O6 0.106611 0.965072 0.869106
O O7 0.081495 0.014752 0.662227
O O8 0.927497 0.976940 0.887117
O O9 0.422706 0.750000 0.496449
O O10 0.329911 0.986269 0.481761
O O11 0.500000 0.000000 0.500000
O O12 0.889663 0.250000 0.977254
O O13 0.507917 0.250000 0.893169
O O14 0.631452 0.462233 0.762192
O O15 0.500000 0.500000 0.000000
O O16 0.261670 0.750000 0.401982
O O17 0.189192 0.019787 0.410829
O O18 0.077156 0.250000 0.528747
O O19 0.000000 0.000000 0.500000
#
# Coordination Sequence:
#
# PCOD8072141 Si02
#       7
#     4   4   4   4   4   4   4
#     4  10  20  35  58  87 121 158 196 241 293 352
#     4  10  20  38  62  89 123 158 198 249 302 358
#     4  10  19  34  59  90 124 158 195 242 297 353
#     4   9  19  36  60  89 123 162 199 242 299 356
#     4  11  24  41  61  84 117 158 199 244 293 351
#     4  10  22  42  64  89 123 160 197 248 307 357
#     4  12  26  43  65  90 118 157 205 255 307 366
#
# _framework density 20.186997000000002
#
# number of rings (size 3 to 8) (size 9 to 14) (size 15 to 20)
#    0.000    1.714    1.429    3.000    0.000    6.286 
#    0.000    2.857    0.000    0.000    0.000    0.000 
#    0.000    0.000    0.000    0.000    0.000    0.000 
#
# Total GULP energy -347272.653785 kJ/mol
# GULP energy per Si atom -12402.594778 kJ/mol
# Density = 2.014105 g / cm^3
# Si number density = 20.186997 Si / 1000 Ang^3
#
#
#
# Elastic Constant Matrix: (Units=GPa)
#
#
# Indices 1 2 3 4 5 6 
#
# 1 111.3475 55.0887 44.8830 0.0000 -19.4618 0.0000
# 2 55.0887 107.4936 59.3721 0.0000 -12.7808 0.0000
# 3 44.8830 59.3721 107.4944 0.0000 -12.2579 0.0000
# 4 0.0000 0.0000 0.0000 36.8597 0.0000 -2.4909
# 5 -19.4618 -12.7808 -12.2579 0.0000 34.2809 0.0000
# 6 0.0000 0.0000 0.0000 -2.4909 0.0000 34.6120
#
#
#
# Elastic Compliance Matrix: (Units=1/GPa)
#
#
# Indices 1 2 3 4 5 6 
#
# 1 0.013168 -0.004952 -0.002211 0.000000 0.004839 0.000000
# 2 -0.004952 0.015448 -0.006389 0.000000 0.000664 0.000000
# 3 -0.002211 -0.006389 0.013908 0.000000 0.001335 0.000000
# 4 0.000000 0.000000 0.000000 0.027262 0.000000 0.001962
# 5 0.004839 0.000664 0.001335 0.000000 0.032643 0.000000
# 6 0.000000 0.000000 0.000000 0.001962 0.000000 0.029033
#
#
# Mechanical properties :
#
#
# Convention : Reuss Voigt Hill
#
# Bulk Modulus (GPa) = 64.85517 71.66922 68.26219
# Shear Modulus (GPa) = 30.54249 32.28331 31.41290
#
# Velocity S-wave (km/s) = 3.89392 4.00335 3.94902
# Velocity P-wave (km/s) = 7.23974 7.54645 7.39468
#
# Compressibility (1/GPa) = 0.01541897
#
# Stress axis : x y z
#
# Youngs Moduli (GPa) = 75.94306 64.73130 71.90357
#
# Poissons Ratio (x) = 0.32052 0.15901
# Poissons Ratio (y) = 0.37603 0.45943
# Poissons Ratio (z) = 0.16794 0.41360
#
# Static dielectric constant tensor:
#      x y z
#    x 3.896840 0.000000 -0.146290 
#    y 0.000000 3.636010 0.000000 
#    z -0.146290 0.000000 3.883300 
# 
# 
# High freq. dielectric constant tensor:
#      x y z
#    x 1.788540 0.000000 -0.008900 
#    y 0.000000 1.782660 0.000000 
#    z -0.008900 0.000000 1.796180 
# 
# From -- ./inp_files/37927.got.cif
#   From: 2010.06.25/outbox.cif.g09.slc.cpg/sg11_19_cif.got.tgz:37927.got - 2010.06.27 23:14:04.
