data_PCOD8072802
_publ_section_title
;
Structure prediction by ZEFSAII (Michael W. Deem and Ramdas Pophale) SiO2 
 PCOD8072802
Probable space group: P 21/M
;
_chemical_formula_sum "Si O2"
_cell_formula_units_Z 32
_cell_length_a 19.437595
_cell_length_b 9.513397
_cell_length_c 11.581161
_cell_angle_alpha 90.000000
_cell_angle_beta 58.282617
_cell_angle_gamma 90.000000
_cell_volume 1821.721550
_symmetry_space_group_name_H-M "P 21/M"
_symmetry_group_IT_number 11
_symmetry_cell_setting 'monoclinic'
loop_
_space_group_symop_operation_xyz
x,y,z
-x,1/2+y,-z
-x,-y,-z
x,1/2-y,z
loop_
_atom_site_type_symbol
_atom_site_label
_atom_site_fract_x
_atom_site_fract_y
_atom_site_fract_z
Si Si1 0.105775 0.086562 0.818697
Si Si2 0.664397 0.590636 0.112452
Si Si3 0.423806 0.408587 0.041682
Si Si4 0.039922 0.413249 0.126276
Si Si5 0.183363 0.417234 0.154808
Si Si6 0.735585 0.917036 0.692152
Si Si7 0.416039 0.081785 0.585635
Si Si8 0.268800 0.083728 0.560262
O O1 0.094247 0.250000 0.800208
O O2 0.195650 0.033113 0.707486
O O3 0.091264 0.054260 0.965755
O O4 0.041545 0.003082 0.796946
O O5 0.685894 0.750000 0.126554
O O6 0.595557 0.582101 0.076357
O O7 0.628421 0.522337 0.260179
O O8 0.746883 0.518554 0.991319
O O9 0.443341 0.250000 0.061279
O O10 0.500000 0.500000 0.000000
O O11 0.350103 0.467640 0.182664
O O12 0.016458 0.250000 0.153559
O O13 0.095133 0.460180 0.186266
O O14 0.195273 0.250000 0.141568
O O15 0.195660 0.469770 0.276781
O O16 0.738366 0.750000 0.683491
O O17 0.745972 0.981609 0.554776
O O18 0.432011 0.250000 0.575892
O O19 0.356120 0.038749 0.533393
O O20 0.500000 0.000000 0.500000
O O21 0.266528 0.250000 0.554488
#
# Coordination Sequence:
#
# PCOD8072802 Si02
#       8
#     4   4   4   4   4   4   4   4
#     4   9  17  29  46  69  93 120 148 180 224 269
#     4   8  15  28  44  64  88 115 149 184 220 265
#     4   9  17  28  45  65  86 113 147 188 228 263
#     4   9  16  27  47  72  93 113 147 189 224 262
#     4   8  13  25  46  67  87 115 152 189 220 258
#     4   8  15  27  44  67  88 113 152 192 223 257
#     4  10  20  32  47  67  91 119 152 189 227 270
#     4   9  17  30  47  65  90 122 154 185 221 270
#
# _framework density 17.565801
#
# number of rings (size 3 to 8) (size 9 to 14) (size 15 to 20)
#    0.000    3.250    0.000    2.250    1.750    3.000 
#    0.000    1.250    0.000    6.000    0.000    0.000 
#    0.000    0.000    0.000    0.000    0.000    0.000 
#
# Total GULP energy -396524.368972 kJ/mol
# GULP energy per Si atom -12391.386530 kJ/mol
# Density = 1.752582 g / cm^3
# Si number density = 17.565801 Si / 1000 Ang^3
#
#
#
# Elastic Constant Matrix: (Units=GPa)
#
#
# Indices 1 2 3 4 5 6 
#
# 1 138.0536 32.2399 51.0628 0.0000 -5.6177 0.0000
# 2 32.2399 24.9090 12.7552 0.0000 -4.6140 0.0000
# 3 51.0628 12.7552 82.3329 0.0000 6.6676 0.0000
# 4 0.0000 0.0000 0.0000 13.7465 0.0000 -5.7783
# 5 -5.6177 -4.6140 6.6676 0.0000 25.1750 0.0000
# 6 0.0000 0.0000 0.0000 -5.7783 0.0000 25.0685
#
#
#
# Elastic Compliance Matrix: (Units=1/GPa)
#
#
# Indices 1 2 3 4 5 6 
#
# 1 0.012505 -0.012768 -0.005942 0.000000 0.002024 0.000000
# 2 -0.012768 0.059251 -0.001951 0.000000 0.008527 0.000000
# 3 -0.005942 -0.001951 0.016626 0.000000 -0.006087 0.000000
# 4 0.000000 0.000000 0.000000 0.080551 0.000000 0.018567
# 5 0.002024 0.008527 -0.006087 0.000000 0.043349 0.000000
# 6 0.000000 0.000000 0.000000 0.018567 0.000000 0.044170
#
#
# Mechanical properties :
#
#
# Convention : Reuss Voigt Hill
#
# Bulk Modulus (GPa) = 21.24931 48.60126 34.92528
# Shear Modulus (GPa) = 15.95099 22.74716 19.34908
#
# Velocity S-wave (km/s) = 3.01669 3.60247 3.32252
# Velocity P-wave (km/s) = 4.92515 6.71058 5.88596
#
# Compressibility (1/GPa) = 0.04706035
#
# Stress axis : x y z
#
# Youngs Moduli (GPa) = 79.96526 16.87744 60.14676
#
# Poissons Ratio (x) = 0.21550 0.35737
# Poissons Ratio (y) = 1.02103 0.11734
# Poissons Ratio (z) = 0.47513 0.03293
#
# Static dielectric constant tensor:
#      x y z
#    x 3.513990 0.000000 0.239330 
#    y 0.000000 2.719770 0.000000 
#    z 0.239330 0.000000 3.552440 
# 
# 
# High freq. dielectric constant tensor:
#      x y z
#    x 1.691090 0.000000 0.006930 
#    y 0.000000 1.615140 0.000000 
#    z 0.006930 0.000000 1.674480 
# 
# From -- ./inp_files/42754.got.cif
#   From: 2010.06.25/outbox.cif.g09.slc.cpg/sg11_22_cif.got.tgz:42754.got - 2010.06.27 23:14:04.
