data_PCOD8072791
_publ_section_title
;
Structure prediction by ZEFSAII (Michael W. Deem and Ramdas Pophale) SiO2 
 PCOD8072791
Probable space group: P 21/M
;
_chemical_formula_sum "Si O2"
_cell_formula_units_Z 32
_cell_length_a 21.419260
_cell_length_b 9.622900
_cell_length_c 30.342334
_cell_angle_alpha 90.000000
_cell_angle_beta 161.824407
_cell_angle_gamma 90.000000
_cell_volume 1950.818519
_symmetry_space_group_name_H-M "P 21/M"
_symmetry_group_IT_number 11
_symmetry_cell_setting 'monoclinic'
loop_
_space_group_symop_operation_xyz
x,y,z
-x,1/2+y,-z
-x,-y,-z
x,1/2-y,z
loop_
_atom_site_type_symbol
_atom_site_label
_atom_site_fract_x
_atom_site_fract_y
_atom_site_fract_z
Si Si1 0.106708 0.588714 0.878015
Si Si2 0.802050 0.091603 0.527530
Si Si3 0.690923 0.410200 0.734872
Si Si4 0.230329 0.091862 0.799670
Si Si5 0.362984 0.087988 0.216218
Si Si6 0.755167 0.590742 0.579338
Si Si7 0.628167 0.089279 0.025189
Si Si8 0.913223 0.588014 0.049510
O O1 0.124226 0.750000 0.902610
O O2 0.141502 0.498085 0.944290
O O3 0.887141 0.555006 0.710734
O O4 0.281518 0.544142 0.961130
O O5 0.787302 0.250000 0.533918
O O6 0.597758 0.052472 0.364912
O O7 0.999159 0.069199 0.628867
O O8 0.833154 0.000349 0.591559
O O9 0.710524 0.250000 0.762864
O O10 0.717227 0.503143 0.795829
O O11 0.479200 0.439454 0.568657
O O12 0.862723 0.449668 0.815533
O O13 0.260844 0.250000 0.836299
O O14 0.387338 0.060586 0.865347
O O15 0.267844 0.994866 0.866359
O O16 0.327400 0.250000 0.202473
O O17 0.241889 0.041286 0.092177
O O18 0.789725 0.750000 0.588803
O O19 0.679847 0.250000 0.068101
O O20 0.891397 0.750000 0.045941
#
# Coordination Sequence:
#
# PCOD8072791 Si02
#       8
#     4   4   4   4   4   4   4   4
#     4  10  20  32  46  64  92 126 154 181 220 273
#     4   9  16  27  46  71  94 116 146 184 226 271
#     4   9  18  32  50  70  90 114 149 193 234 270
#     4   9  16  26  45  71  94 116 146 181 221 268
#     4   9  18  32  49  69  92 117 149 191 232 266
#     4   9  17  30  46  66  93 121 147 182 229 271
#     4   9  17  29  44  66  95 122 146 179 221 266
#     4  10  21  34  47  65  90 122 157 191 226 265
#
# _framework density 16.403371
#
# number of rings (size 3 to 8) (size 9 to 14) (size 15 to 20)
#    0.000    2.750    1.250    0.375    0.000    2.500 
#    0.000    0.000    0.000    0.750    0.000    0.000 
#    0.000    0.000    0.000    0.000    0.000    0.000 
#
# Total GULP energy -396639.511210 kJ/mol
# GULP energy per Si atom -12394.984725 kJ/mol
# Density = 1.636604 g / cm^3
# Si number density = 16.403371 Si / 1000 Ang^3
#
#
#
# Elastic Constant Matrix: (Units=GPa)
#
#
# Indices 1 2 3 4 5 6 
#
# 1 109.7560 44.5628 54.5759 0.0000 10.7616 0.0000
# 2 44.5628 46.8798 25.7818 0.0000 0.6216 0.0000
# 3 54.5759 25.7818 69.3425 0.0000 17.8697 0.0000
# 4 0.0000 0.0000 0.0000 18.7034 0.0000 -2.7321
# 5 10.7616 0.6216 17.8697 0.0000 26.2061 0.0000
# 6 0.0000 0.0000 0.0000 -2.7321 0.0000 28.6462
#
#
#
# Elastic Compliance Matrix: (Units=1/GPa)
#
#
# Indices 1 2 3 4 5 6 
#
# 1 0.019613 -0.012859 -0.010504 0.000000 -0.000586 0.000000
# 2 -0.012859 0.036509 -0.005570 0.000000 0.008213 0.000000
# 3 -0.010504 -0.005570 0.028648 0.000000 -0.015089 0.000000
# 4 0.000000 0.000000 0.000000 0.054222 0.000000 0.005171
# 5 -0.000586 0.008213 -0.015089 0.000000 0.048494 0.000000
# 6 0.000000 0.000000 0.000000 0.005171 0.000000 0.035402
#
#
# Mechanical properties :
#
#
# Convention : Reuss Voigt Hill
#
# Bulk Modulus (GPa) = 37.16993 52.86880 45.01937
# Shear Modulus (GPa) = 17.25804 21.44833 19.35319
#
# Velocity S-wave (km/s) = 3.24713 3.61994 3.43859
# Velocity P-wave (km/s) = 6.06363 7.05495 6.57799
#
# Compressibility (1/GPa) = 0.02690347
#
# Stress axis : x y z
#
# Youngs Moduli (GPa) = 50.98772 27.39075 34.90674
#
# Poissons Ratio (x) = 0.35221 0.36666
# Poissons Ratio (y) = 0.65564 0.19443
# Poissons Ratio (z) = 0.53558 0.15257
#
# Static dielectric constant tensor:
#      x y z
#    x 2.880930 0.000000 0.317430 
#    y 0.000000 3.092830 0.000000 
#    z 0.317430 0.000000 3.421270 
# 
# 
# High freq. dielectric constant tensor:
#      x y z
#    x 1.599850 0.000000 0.025220 
#    y 0.000000 1.635350 0.000000 
#    z 0.025220 0.000000 1.640560 
# 
# From -- ./inp_files/40621.got.cif
#   From: 2010.06.25/outbox.cif.g09.slc.cpg/sg11_21_cif.got.tgz:40621.got - 2010.06.27 23:14:04.
