data_PCOD8072804
_publ_section_title
;
Structure prediction by ZEFSAII (Michael W. Deem and Ramdas Pophale) SiO2 
 PCOD8072804
Probable space group: P 21/M
;
_chemical_formula_sum "Si O2"
_cell_formula_units_Z 32
_cell_length_a 27.846593
_cell_length_b 8.661780
_cell_length_c 21.352774
_cell_angle_alpha 90.000000
_cell_angle_beta 19.404935
_cell_angle_gamma 90.000000
_cell_volume 1711.151801
_symmetry_space_group_name_H-M "P 21/M"
_symmetry_group_IT_number 11
_symmetry_cell_setting 'monoclinic'
loop_
_space_group_symop_operation_xyz
x,y,z
-x,1/2+y,-z
-x,-y,-z
x,1/2-y,z
loop_
_atom_site_type_symbol
_atom_site_label
_atom_site_fract_x
_atom_site_fract_y
_atom_site_fract_z
Si Si1 0.908515 0.564686 0.423564
Si Si2 0.089484 0.066452 0.833013
Si Si3 0.051614 0.566156 0.121461
Si Si4 0.337934 0.579745 0.827130
Si Si5 0.536286 0.064810 0.144178
Si Si6 0.587419 0.567108 0.835238
Si Si7 0.820592 0.418544 0.846510
Si Si8 0.600516 0.068542 0.565121
O O1 0.914898 0.750000 0.416215
O O2 0.751093 0.503872 0.636441
O O3 0.950381 0.504378 0.302766
O O4 0.024354 0.497919 0.332743
O O5 0.088136 0.250000 0.836123
O O6 0.015166 0.002633 0.860778
O O7 0.252213 0.007616 0.639103
O O8 0.000000 0.000000 0.000000
O O9 0.051356 0.750000 0.122667
O O10 0.219766 0.510909 0.923002
O O11 0.392308 0.750000 0.738910
O O12 0.476320 0.469898 0.666575
O O13 0.252683 0.598616 0.996213
O O14 0.533010 0.250000 0.155235
O O15 0.481539 0.007733 0.144550
O O16 0.434754 0.996595 0.322783
O O17 0.701793 0.998976 0.947945
O O18 0.583522 0.750000 0.843167
O O19 0.500000 0.500000 0.000000
O O20 0.851550 0.250000 0.779511
O O21 0.619600 0.250000 0.545619
#
# Coordination Sequence:
#
# PCOD8072804 Si02
#       8
#     4   4   4   4   4   4   4   4
#     4   8  13  25  47  73  93 117 155 199 243 292
#     4  11  22  37  54  75 105 140 176 214 254 301
#     4   8  15  30  56  81  98 123 168 216 256 300
#     4   8  14  29  53  79 101 125 160 207 256 302
#     4   9  17  32  53  73  93 126 167 207 248 296
#     4  10  20  32  47  67  96 131 167 204 248 297
#     4   7  11  22  45  72  92 111 149 198 241 287
#     4  11  21  33  52  80 108 135 166 205 253 307
#
# _framework density 18.700855000000001
#
# number of rings (size 3 to 8) (size 9 to 14) (size 15 to 20)
#    0.000    3.000    0.000    4.500    0.000    2.500 
#    0.000    2.500    0.000    6.750    0.000    0.000 
#    0.000    0.000    0.000    0.000    0.000    0.000 
#
# Total GULP energy -396449.214033 kJ/mol
# GULP energy per Si atom -12389.037939 kJ/mol
# Density = 1.865829 g / cm^3
# Si number density = 18.700855 Si / 1000 Ang^3
#
#
#
# Elastic Constant Matrix: (Units=GPa)
#
#
# Indices 1 2 3 4 5 6 
#
# 1 80.5585 21.3032 97.9893 0.0000 -19.8935 0.0000
# 2 21.3032 42.4096 28.1271 0.0000 -2.7113 0.0000
# 3 97.9893 28.1271 159.7255 0.0000 -21.9196 0.0000
# 4 0.0000 0.0000 0.0000 22.7209 0.0000 4.9131
# 5 -19.8935 -2.7113 -21.9196 0.0000 32.7118 0.0000
# 6 0.0000 0.0000 0.0000 4.9131 0.0000 14.9766
#
#
#
# Elastic Compliance Matrix: (Units=1/GPa)
#
#
# Indices 1 2 3 4 5 6 
#
# 1 0.053905 -0.006191 -0.030342 0.000000 0.011938 0.000000
# 2 -0.006191 0.027440 -0.001364 0.000000 -0.002405 0.000000
# 3 -0.030342 -0.001364 0.024853 0.000000 -0.001912 0.000000
# 4 0.000000 0.000000 0.000000 0.047373 0.000000 -0.015541
# 5 0.011938 -0.002405 -0.001912 0.000000 0.036349 0.000000
# 6 0.000000 0.000000 0.000000 -0.015541 0.000000 0.071869
#
#
# Mechanical properties :
#
#
# Convention : Reuss Voigt Hill
#
# Bulk Modulus (GPa) = 32.88949 64.17030 48.52989
# Shear Modulus (GPa) = 14.37946 23.10012 18.73979
#
# Velocity S-wave (km/s) = 2.77595 3.51842 3.16900
# Velocity P-wave (km/s) = 5.28203 7.13402 6.27671
#
# Compressibility (1/GPa) = 0.03040485
#
# Stress axis : x y z
#
# Youngs Moduli (GPa) = 18.55108 36.44266 40.23709
#
# Poissons Ratio (x) = 0.22562 1.22086
# Poissons Ratio (y) = 0.11485 0.05488
# Poissons Ratio (z) = 0.56287 0.04971
#
# Static dielectric constant tensor:
#      x y z
#    x 3.776710 0.000000 -0.515950 
#    y 0.000000 2.988730 0.000000 
#    z -0.515950 0.000000 3.631060 
# 
# 
# High freq. dielectric constant tensor:
#      x y z
#    x 1.722190 0.000000 -0.034150 
#    y 0.000000 1.680000 0.000000 
#    z -0.034150 0.000000 1.723960 
# 
# From -- ./inp_files/67062.got.cif
#   From: 2010.06.25/outbox.cif.g09.slc.cpg/sg11_34_cif.got.tgz:67062.got - 2010.06.27 23:14:04.
