data_PCOD8072123
_publ_section_title
;
Structure prediction by ZEFSAII (Michael W. Deem and Ramdas Pophale) SiO2 
 PCOD8072123
Probable space group: P 21/M
;
_chemical_formula_sum "Si O2"
_cell_formula_units_Z 28
_cell_length_a 29.645868
_cell_length_b 8.624311
_cell_length_c 10.014795
_cell_angle_alpha 90.000000
_cell_angle_beta 146.335387
_cell_angle_gamma 90.000000
_cell_volume 1419.382384
_symmetry_space_group_name_H-M "P 21/M"
_symmetry_group_IT_number 11
_symmetry_cell_setting 'monoclinic'
loop_
_space_group_symop_operation_xyz
x,y,z
-x,1/2+y,-z
-x,-y,-z
x,1/2-y,z
loop_
_atom_site_type_symbol
_atom_site_label
_atom_site_fract_x
_atom_site_fract_y
_atom_site_fract_z
Si Si1 0.901319 0.071114 0.399082
Si Si2 0.328392 0.569143 0.832933
Si Si3 0.082800 0.071532 0.842649
Si Si4 0.258586 0.428970 0.917880
Si Si5 0.510656 0.929026 0.881170
Si Si6 0.756668 0.928991 0.618158
Si Si7 0.668158 0.072895 0.644301
O O1 0.880625 0.250000 0.372039
O O2 0.992575 0.028975 0.673403
O O3 0.892740 0.035901 0.220856
O O4 0.837142 0.970653 0.325111
O O5 0.319725 0.750000 0.785258
O O6 0.309457 0.530675 0.939375
O O7 0.262776 0.480469 0.579741
O O8 0.419829 0.517960 0.027491
O O9 0.084208 0.250000 0.796745
O O10 0.147401 0.042161 0.119599
O O11 0.270369 0.250000 0.911927
O O12 0.291983 0.462220 0.147894
O O13 0.535194 0.750000 0.957482
O O14 0.428784 0.948649 0.593821
O O15 0.500000 0.000000 0.000000
O O16 0.733993 0.750000 0.582669
O O17 0.701221 0.028854 0.580343
O O18 0.692080 0.250000 0.734701
#
# Coordination Sequence:
#
# PCOD8072123 Si02
#       7
#     4   4   4   4   4   4   4
#     4  10  19  34  58  88 123 158 199 249 300 356
#     4  12  26  43  63  88 122 162 204 251 307 364
#     4   9  19  34  57  90 122 157 200 248 298 353
#     4  12  25  42  62  88 123 163 204 249 308 366
#     4  11  23  40  64  92 123 157 201 250 302 358
#     4  11  21  37  62  92 124 159 203 249 299 359
#     4  11  23  39  63  93 122 158 202 249 300 358
#
# _framework density 19.726890000000001
#
# number of rings (size 3 to 8) (size 9 to 14) (size 15 to 20)
#    0.000    1.143    2.857    4.286    0.000    3.429 
#    0.000    0.714    0.000    0.000    0.000    0.000 
#    0.000    0.000    0.000    0.000    0.000    0.000 
#
# Total GULP energy -347356.744274 kJ/mol
# GULP energy per Si atom -12405.598010 kJ/mol
# Density = 1.968199 g / cm^3
# Si number density = 19.726890 Si / 1000 Ang^3
#
#
#
# Elastic Constant Matrix: (Units=GPa)
#
#
# Indices 1 2 3 4 5 6 
#
# 1 88.2915 25.0667 21.8421 0.0000 13.9148 0.0000
# 2 25.0667 88.6190 35.7211 0.0000 14.7972 0.0000
# 3 21.8421 35.7211 86.2462 0.0000 15.7126 0.0000
# 4 0.0000 0.0000 0.0000 30.6833 0.0000 -0.4902
# 5 13.9148 14.7972 15.7126 0.0000 28.8356 0.0000
# 6 0.0000 0.0000 0.0000 -0.4902 0.0000 34.8424
#
#
#
# Elastic Compliance Matrix: (Units=1/GPa)
#
#
# Indices 1 2 3 4 5 6 
#
# 1 0.013048 -0.002355 -0.001557 0.000000 -0.004240 0.000000
# 2 -0.002355 0.014474 -0.004721 0.000000 -0.003719 0.000000
# 3 -0.001557 -0.004721 0.014839 0.000000 -0.004912 0.000000
# 4 0.000000 0.000000 0.000000 0.032598 0.000000 0.000459
# 5 -0.004240 -0.003719 -0.004912 0.000000 0.041310 0.000000
# 6 0.000000 0.000000 0.000000 0.000459 0.000000 0.028707
#
#
# Mechanical properties :
#
#
# Convention : Reuss Voigt Hill
#
# Bulk Modulus (GPa) = 39.84739 47.60183 43.72461
# Shear Modulus (GPa) = 29.30691 30.90738 30.10714
#
# Velocity S-wave (km/s) = 3.85857 3.96253 3.91090
# Velocity P-wave (km/s) = 6.33205 6.71702 6.52737
#
# Compressibility (1/GPa) = 0.02509575
#
# Stress axis : x y z
#
# Youngs Moduli (GPa) = 76.63960 69.08760 67.38939
#
# Poissons Ratio (x) = 0.16273 0.10489
# Poissons Ratio (y) = 0.18052 0.31814
# Poissons Ratio (z) = 0.11929 0.32616
#
# Static dielectric constant tensor:
#      x y z
#    x 3.432730 0.000000 0.306710 
#    y 0.000000 3.612950 0.000000 
#    z 0.306710 0.000000 3.729740 
# 
# 
# High freq. dielectric constant tensor:
#      x y z
#    x 1.752590 0.000000 0.019800 
#    y 0.000000 1.781890 0.000000 
#    z 0.019800 0.000000 1.775870 
# 
# From -- ./inp_files/28614.got.cif
#   From: 2010.06.25/outbox.cif.g09.slc.cpg/sg11_15_cif.got.tgz:28614.got - 2010.06.27 23:14:04.
