data_PCOD8072257
_publ_section_title
;
Structure prediction by ZEFSAII (Michael W. Deem and Ramdas Pophale) SiO2 
 PCOD8072257
Probable space group: P 21/M
;
_chemical_formula_sum "Si O2"
_cell_formula_units_Z 32
_cell_length_a 21.113421
_cell_length_b 8.878848
_cell_length_c 26.454986
_cell_angle_alpha 90.000000
_cell_angle_beta 20.693126
_cell_angle_gamma 90.000000
_cell_volume 1752.440824
_symmetry_space_group_name_H-M "P 21/M"
_symmetry_group_IT_number 11
_symmetry_cell_setting 'monoclinic'
loop_
_space_group_symop_operation_xyz
x,y,z
-x,1/2+y,-z
-x,-y,-z
x,1/2-y,z
loop_
_atom_site_type_symbol
_atom_site_label
_atom_site_fract_x
_atom_site_fract_y
_atom_site_fract_z
Si Si1 0.067466 0.927420 0.604948
Si Si2 0.958756 0.572885 0.222972
Si Si3 0.715081 0.424115 0.209598
Si Si4 0.036995 0.423656 0.897749
Si Si5 0.776093 0.571286 0.902047
Si Si6 0.945119 0.922415 0.591771
Si Si7 0.666313 0.072067 0.510316
Si Si8 0.531969 0.576292 0.922705
O O1 0.050714 0.750000 0.612333
O O2 0.249779 0.973947 0.497703
O O3 0.899000 0.982595 0.763610
O O4 0.052547 0.995812 0.559538
O O5 0.964764 0.750000 0.228681
O O6 0.960421 0.534156 0.162696
O O7 0.777239 0.506646 0.382681
O O8 0.137576 0.496481 0.111678
O O9 0.661205 0.250000 0.254001
O O10 0.817211 0.471628 0.184182
O O11 0.537723 0.522349 0.336785
O O12 0.839940 0.455930 0.067749
O O13 0.089597 0.250000 0.867871
O O14 0.764722 0.750000 0.916213
O O15 0.580346 0.503595 0.038072
O O16 0.999217 0.750000 0.546031
O O17 0.736198 0.944493 0.755656
O O18 0.000000 0.000000 0.500000
O O19 0.681543 0.250000 0.490253
O O20 0.476475 0.750000 0.968030
O O21 0.500000 0.500000 0.000000
#
# Coordination Sequence:
#
# PCOD8072257 Si02
#       8
#     4   4   4   4   4   4   4   4
#     4   8  16  34  55  74 105 142 176 220 269 317
#     4  10  20  36  57  83 114 144 178 226 277 321
#     4  10  20  36  58  82 109 144 186 225 266 326
#     4   9  20  38  58  80 111 146 179 224 275 323
#     4  10  19  35  57  82 111 143 182 226 273 328
#     4  10  21  38  55  77 110 144 181 228 277 323
#     4  10  20  35  57  82 110 145 184 225 272 325
#     4  11  21  35  58  83 109 143 185 231 275 325
#
# _framework density 18.260245000000001
#
# number of rings (size 3 to 8) (size 9 to 14) (size 15 to 20)
#    0.000    2.250    1.250    2.625    0.000    3.000 
#    2.250    1.250    0.000    0.000    0.000    0.000 
#    0.000    0.000    0.000    0.000    0.000    0.000 
#
# Total GULP energy -396777.297630 kJ/mol
# GULP energy per Si atom -12399.290551 kJ/mol
# Density = 1.821868 g / cm^3
# Si number density = 18.260245 Si / 1000 Ang^3
#
#
#
# Elastic Constant Matrix: (Units=GPa)
#
#
# Indices 1 2 3 4 5 6 
#
# 1 148.7133 56.8857 64.2360 0.0000 6.7253 0.0000
# 2 56.8857 89.4304 49.9165 0.0000 -0.2372 0.0000
# 3 64.2360 49.9165 67.0053 0.0000 -6.0342 0.0000
# 4 0.0000 0.0000 0.0000 28.3411 0.0000 -3.5179
# 5 6.7253 -0.2372 -6.0342 0.0000 27.8520 0.0000
# 6 0.0000 0.0000 0.0000 -3.5179 0.0000 31.9926
#
#
#
# Elastic Compliance Matrix: (Units=1/GPa)
#
#
# Indices 1 2 3 4 5 6 
#
# 1 0.012433 -0.001707 -0.011137 0.000000 -0.005430 0.000000
# 2 -0.001707 0.019622 -0.013186 0.000000 -0.002277 0.000000
# 3 -0.011137 -0.013186 0.036365 0.000000 0.010456 0.000000
# 4 0.000000 0.000000 0.000000 0.035773 0.000000 0.003934
# 5 -0.005430 -0.002277 0.010456 0.000000 0.039461 0.000000
# 6 0.000000 0.000000 0.000000 0.003934 0.000000 0.031690
#
#
# Mechanical properties :
#
#
# Convention : Reuss Voigt Hill
#
# Bulk Modulus (GPa) = 61.12212 71.91396 66.51804
# Shear Modulus (GPa) = 21.47244 26.57786 24.02515
#
# Velocity S-wave (km/s) = 3.43288 3.81925 3.63120
# Velocity P-wave (km/s) = 7.01843 7.67575 7.35444
#
# Compressibility (1/GPa) = 0.01636069
#
# Stress axis : x y z
#
# Youngs Moduli (GPa) = 80.42910 50.96442 27.49875
#
# Poissons Ratio (x) = 0.08700 0.30625
# Poissons Ratio (y) = 0.13729 0.36260
# Poissons Ratio (z) = 0.89572 0.67202
#
# Static dielectric constant tensor:
#      x y z
#    x 3.574690 0.000000 -0.147600 
#    y 0.000000 3.382840 0.000000 
#    z -0.147600 0.000000 3.126850 
# 
# 
# High freq. dielectric constant tensor:
#      x y z
#    x 1.716470 0.000000 -0.009980 
#    y 0.000000 1.708160 0.000000 
#    z -0.009980 0.000000 1.698140 
# 
# From -- ./inp_files/67213.got.cif
#   From: 2010.06.25/outbox.cif.g09.slc.cpg/sg11_34_cif.got.tgz:67213.got - 2010.06.27 23:14:04.
