data_PCOD8072213
_publ_section_title
;
Structure prediction by ZEFSAII (Michael W. Deem and Ramdas Pophale) SiO2 
 PCOD8072213
Probable space group: P 21/M
;
_chemical_formula_sum "Si O2"
_cell_formula_units_Z 28
_cell_length_a 13.965454
_cell_length_b 22.381598
_cell_length_c 8.460848
_cell_angle_alpha 90.000000
_cell_angle_beta 146.432890
_cell_angle_gamma 90.000000
_cell_volume 1462.234755
_symmetry_space_group_name_H-M "P 21/M"
_symmetry_group_IT_number 11
_symmetry_cell_setting 'monoclinic'
loop_
_space_group_symop_operation_xyz
x,y,z
-x,1/2+y,-z
-x,-y,-z
x,1/2-y,z
loop_
_atom_site_type_symbol
_atom_site_label
_atom_site_fract_x
_atom_site_fract_y
_atom_site_fract_z
Si Si1 0.304072 0.183288 0.297944
Si Si2 0.749289 0.077988 0.822818
Si Si3 0.329659 0.682511 0.063664
Si Si4 0.676790 0.319936 0.306042
Si Si5 0.429246 0.386623 0.185352
Si Si6 0.125928 0.027959 0.802080
Si Si7 0.978750 0.391082 0.864236
O O1 0.228851 0.250000 0.193305
O O2 0.463965 0.177192 0.636624
O O3 0.360745 0.167865 0.197621
O O4 0.160252 0.137924 0.162881
O O5 0.767866 0.138719 0.950337
O O6 0.568872 0.075584 0.479223
O O7 0.908716 0.074178 0.920527
O O8 0.760973 0.021937 0.954144
O O9 0.267670 0.750000 0.017082
O O10 0.286309 0.664613 0.825115
O O11 0.638687 0.250000 0.278753
O O12 0.513715 0.358553 0.144309
O O13 0.846498 0.338392 0.636297
O O14 0.267654 0.428658 0.914786
O O15 0.003153 0.062956 0.754678
O O16 0.000000 0.000000 0.500000
#
# Coordination Sequence:
#
# PCOD8072213 Si02
#       7
#     4   4   4   4   4   4   4
#     4   9  17  32  52  77 105 134 168 214 262 312
#     4  10  20  37  55  74 104 142 179 217 258 316
#     4   9  19  34  54  78 106 137 174 216 263 313
#     4  10  19  35  56  81 109 137 171 215 262 314
#     4   9  20  35  55  77 101 139 180 211 258 317
#     4  11  22  37  54  77 108 138 176 225 268 309
#     4  10  21  34  54  80 105 139 179 216 263 315
#
# _framework density 19.148772000000001
#
# number of rings (size 3 to 8) (size 9 to 14) (size 15 to 20)
#    0.000    2.286    0.000    2.571    0.000    5.143 
#    0.000    7.857    0.000    7.714    0.000    0.000 
#    0.000    0.000    0.000    0.000    0.000    0.000 
#
# Total GULP energy -347239.467233 kJ/mol
# GULP energy per Si atom -12401.409544 kJ/mol
# Density = 1.910519 g / cm^3
# Si number density = 19.148772 Si / 1000 Ang^3
#
#
#
# Elastic Constant Matrix: (Units=GPa)
#
#
# Indices 1 2 3 4 5 6 
#
# 1 86.8404 35.2785 19.9853 0.0000 8.2667 0.0000
# 2 35.2785 88.5441 27.4273 0.0000 0.2644 0.0000
# 3 19.9853 27.4273 53.9184 0.0000 -1.8334 0.0000
# 4 0.0000 0.0000 0.0000 32.9764 0.0000 -0.5239
# 5 8.2667 0.2644 -1.8334 0.0000 24.6252 0.0000
# 6 0.0000 0.0000 0.0000 -0.5239 0.0000 28.3575
#
#
#
# Elastic Compliance Matrix: (Units=1/GPa)
#
#
# Indices 1 2 3 4 5 6 
#
# 1 0.014705 -0.004868 -0.003148 0.000000 -0.005119 0.000000
# 2 -0.004868 0.015029 -0.005805 0.000000 0.001041 0.000000
# 3 -0.003148 -0.005805 0.022762 0.000000 0.002814 0.000000
# 4 0.000000 0.000000 0.000000 0.030334 0.000000 0.000560
# 5 -0.005119 0.001041 0.002814 0.000000 0.042525 0.000000
# 6 0.000000 0.000000 0.000000 0.000560 0.000000 0.035274
#
#
# Mechanical properties :
#
#
# Convention : Reuss Voigt Hill
#
# Bulk Modulus (GPa) = 40.23711 43.85391 42.04551
# Shear Modulus (GPa) = 25.43808 26.96593 26.20201
#
# Velocity S-wave (km/s) = 3.64874 3.75671 3.70312
# Velocity P-wave (km/s) = 6.22973 6.46286 6.34737
#
# Compressibility (1/GPa) = 0.02485268
#
# Stress axis : x y z
#
# Youngs Moduli (GPa) = 68.00457 66.54019 43.93304
#
# Poissons Ratio (x) = 0.32395 0.13830
# Poissons Ratio (y) = 0.33107 0.25502
# Poissons Ratio (z) = 0.21408 0.38625
#
# Static dielectric constant tensor:
#      x y z
#    x 3.476120 0.000000 0.073970 
#    y 0.000000 3.539180 0.000000 
#    z 0.073970 0.000000 3.406690 
# 
# 
# High freq. dielectric constant tensor:
#      x y z
#    x 1.741050 0.000000 0.004210 
#    y 0.000000 1.750670 0.000000 
#    z 0.004210 0.000000 1.736970 
# 
# From -- ./inp_files/23166.got.cif
#   From: 2010.06.25/outbox.cif.g09.slc.cpg/sg11_12_cif.got.tgz:23166.got - 2010.06.27 23:14:04.
