data_PCOD8072519
_publ_section_title
;
Structure prediction by ZEFSAII (Michael W. Deem and Ramdas Pophale) SiO2 
 PCOD8072519
Probable space group: P 21/M
;
_chemical_formula_sum "Si O2"
_cell_formula_units_Z 28
_cell_length_a 15.380079
_cell_length_b 9.287782
_cell_length_c 17.298410
_cell_angle_alpha 90.000000
_cell_angle_beta 144.016022
_cell_angle_gamma 90.000000
_cell_volume 1451.871726
_symmetry_space_group_name_H-M "P 21/M"
_symmetry_group_IT_number 11
_symmetry_cell_setting 'monoclinic'
loop_
_space_group_symop_operation_xyz
x,y,z
-x,1/2+y,-z
-x,-y,-z
x,1/2-y,z
loop_
_atom_site_type_symbol
_atom_site_label
_atom_site_fract_x
_atom_site_fract_y
_atom_site_fract_z
Si Si1 0.149186 0.417379 0.086376
Si Si2 0.377896 0.913228 0.958394
Si Si3 0.814950 0.919840 0.066294
Si Si4 0.834570 0.092024 0.333668
Si Si5 0.837852 0.915613 0.470199
Si Si6 0.647266 0.582967 0.629210
Si Si7 0.889782 0.918401 0.676477
O O1 0.114494 0.250000 0.075358
O O2 0.286759 0.465142 0.240063
O O3 0.196970 0.450023 0.033468
O O4 0.000000 0.500000 0.000000
O O5 0.429315 0.750000 0.017343
O O6 0.241432 0.906189 0.803114
O O7 0.326262 0.000664 0.997242
O O8 0.500000 0.000000 0.000000
O O9 0.809460 0.750000 0.081071
O O10 0.966622 0.984507 0.208257
O O11 0.844022 0.250000 0.376608
O O12 0.995604 0.034126 0.427452
O O13 0.747918 0.999274 0.337778
O O14 0.804367 0.750000 0.432933
O O15 0.805931 0.959150 0.535859
O O16 0.500000 0.500000 0.500000
O O17 0.605824 0.750000 0.598718
O O18 0.774905 0.545987 0.660409
O O19 0.937808 0.750000 0.709789
#
# Coordination Sequence:
#
# PCOD8072519 Si02
#       7
#     4   4   4   4   4   4   4
#     4  10  21  38  63  93 123 157 201 252 302 361
#     4  11  23  41  60  81 115 156 197 245 300 354
#     4  11  22  36  60  92 119 150 199 249 297 359
#     4   9  18  33  53  77 106 141 179 226 282 335
#     4   9  17  31  53  80 108 138 181 230 278 334
#     4  10  22  40  61  85 121 160 197 246 304 359
#     4  10  19  36  60  84 114 153 195 242 295 352
#
# _framework density 19.285450000000001
#
# number of rings (size 3 to 8) (size 9 to 14) (size 15 to 20)
#    0.000    2.000    2.857    0.857    0.000    3.429 
#    2.571    0.000    0.000    0.000    0.000    0.000 
#    0.000    0.000    0.000    0.000    0.000    0.000 
#
# Total GULP energy -347017.178672 kJ/mol
# GULP energy per Si atom -12393.470667 kJ/mol
# Density = 1.924156 g / cm^3
# Si number density = 19.285450 Si / 1000 Ang^3
#
#
#
# Elastic Constant Matrix: (Units=GPa)
#
#
# Indices 1 2 3 4 5 6 
#
# 1 127.2455 67.7840 40.1512 0.0000 -15.4382 0.0000
# 2 67.7840 96.8599 36.1181 0.0000 -0.6493 0.0000
# 3 40.1512 36.1181 63.1846 0.0000 -7.6170 0.0000
# 4 0.0000 0.0000 0.0000 32.1423 0.0000 -0.4079
# 5 -15.4382 -0.6493 -7.6170 0.0000 36.0110 0.0000
# 6 0.0000 0.0000 0.0000 -0.4079 0.0000 33.3916
#
#
#
# Elastic Compliance Matrix: (Units=1/GPa)
#
#
# Indices 1 2 3 4 5 6 
#
# 1 0.014148 -0.008574 -0.003465 0.000000 0.005178 0.000000
# 2 -0.008574 0.018385 -0.005607 0.000000 -0.004530 0.000000
# 3 -0.003465 -0.005607 0.021593 0.000000 0.002981 0.000000
# 4 0.000000 0.000000 0.000000 0.031116 0.000000 0.000380
# 5 0.005178 -0.004530 0.002981 0.000000 0.030538 0.000000
# 6 0.000000 0.000000 0.000000 0.000380 0.000000 0.029952
#
#
# Mechanical properties :
#
#
# Convention : Reuss Voigt Hill
#
# Bulk Modulus (GPa) = 53.09672 63.93296 58.51484
# Shear Modulus (GPa) = 26.69486 29.85810 28.27648
#
# Velocity S-wave (km/s) = 3.72452 3.93901 3.83326
# Velocity P-wave (km/s) = 6.78880 7.34238 7.07101
#
# Compressibility (1/GPa) = 0.01883356
#
# Stress axis : x y z
#
# Youngs Moduli (GPa) = 70.68244 54.39262 46.31150
#
# Poissons Ratio (x) = 0.46637 0.16047
# Poissons Ratio (y) = 0.60604 0.25967
# Poissons Ratio (z) = 0.24491 0.30498
#
# Static dielectric constant tensor:
#      x y z
#    x 3.822790 0.000000 -0.634540 
#    y 0.000000 3.725040 0.000000 
#    z -0.634540 0.000000 4.297240 
# 
# 
# High freq. dielectric constant tensor:
#      x y z
#    x 1.754830 0.000000 -0.023420 
#    y 0.000000 1.751000 0.000000 
#    z -0.023420 0.000000 1.739840 
# 
# From -- ./inp_files/60144.got.cif
#   From: 2010.06.25/outbox.cif.g09.slc.cpg/sg11_31_cif.got.tgz:60144.got - 2010.06.27 23:14:04.
