data_PCOD8072763
_publ_section_title
;
Structure prediction by ZEFSAII (Michael W. Deem and Ramdas Pophale) SiO2 
 PCOD8072763
Probable space group: P 21/M
;
_chemical_formula_sum "Si O2"
_cell_formula_units_Z 28
_cell_length_a 18.799414
_cell_length_b 9.281422
_cell_length_c 14.706608
_cell_angle_alpha 90.000000
_cell_angle_beta 141.129057
_cell_angle_gamma 90.000000
_cell_volume 1610.394746
_symmetry_space_group_name_H-M "P 21/M"
_symmetry_group_IT_number 11
_symmetry_cell_setting 'monoclinic'
loop_
_space_group_symop_operation_xyz
x,y,z
-x,1/2+y,-z
-x,-y,-z
x,1/2-y,z
loop_
_atom_site_type_symbol
_atom_site_label
_atom_site_fract_x
_atom_site_fract_y
_atom_site_fract_z
Si Si1 0.283356 0.088092 0.802613
Si Si2 0.886910 0.414937 0.640717
Si Si3 0.979325 0.081025 0.072457
Si Si4 0.230277 0.915657 0.021469
Si Si5 0.415446 0.416483 0.120712
Si Si6 0.662879 0.079662 0.322077
Si Si7 0.900975 0.911399 0.252627
O O1 0.307233 0.250000 0.792135
O O2 0.148882 0.068889 0.694825
O O3 0.318936 0.980234 0.760208
O O4 0.356546 0.053611 0.965333
O O5 0.883133 0.250000 0.672475
O O6 0.762316 0.470684 0.489258
O O7 0.936563 0.515085 0.768709
O O8 0.963399 0.424407 0.624203
O O9 0.007104 0.250000 0.091044
O O10 0.846249 0.057428 0.964888
O O11 0.000000 0.000000 0.000000
O O12 0.261727 0.750000 0.041288
O O13 0.152875 0.964432 0.861287
O O14 0.348613 0.003199 0.136174
O O15 0.415246 0.250000 0.146080
O O16 0.543941 0.475808 0.244388
O O17 0.662875 0.250000 0.310815
O O18 0.862240 0.750000 0.180503
#
# Coordination Sequence:
#
# PCOD8072763 Si02
#       7
#     4   4   4   4   4   4   4
#     4   9  17  28  43  64  91 127 170 210 242 273
#     4   9  18  33  50  69  97 129 158 192 238 288
#     4  10  20  34  55  81 102 119 145 185 233 287
#     4   9  17  29  48  74  96 117 152 194 232 273
#     4   9  18  32  47  65  94 131 168 202 237 276
#     4  10  20  31  45  67  95 130 168 202 237 278
#     4   8  15  29  46  64  91 126 159 194 240 286
#
# _framework density 17.387041
#
# number of rings (size 3 to 8) (size 9 to 14) (size 15 to 20)
#    0.000    2.857    0.000    2.143    0.000    5.714 
#    0.000    0.000    0.000    0.857    0.000    0.000 
#    0.000    0.000    0.000    0.000    0.000    0.000 
#
# Total GULP energy -346931.708587 kJ/mol
# GULP energy per Si atom -12390.418164 kJ/mol
# Density = 1.734747 g / cm^3
# Si number density = 17.387041 Si / 1000 Ang^3
#
#
#
# Elastic Constant Matrix: (Units=GPa)
#
#
# Indices 1 2 3 4 5 6 
#
# 1 127.0731 64.4497 58.0626 0.0000 18.0816 0.0000
# 2 64.4497 73.8932 37.4386 0.0000 6.8420 0.0000
# 3 58.0626 37.4386 75.1542 0.0000 20.3143 0.0000
# 4 0.0000 0.0000 0.0000 16.4857 0.0000 0.0408
# 5 18.0816 6.8420 20.3143 0.0000 17.4451 0.0000
# 6 0.0000 0.0000 0.0000 0.0408 0.0000 31.6453
#
#
#
# Elastic Compliance Matrix: (Units=1/GPa)
#
#
# Indices 1 2 3 4 5 6 
#
# 1 0.017346 -0.011548 -0.005856 0.000000 -0.006630 0.000000
# 2 -0.011548 0.026089 -0.006632 0.000000 0.009459 0.000000
# 3 -0.005856 -0.006632 0.027421 0.000000 -0.023261 0.000000
# 4 0.000000 0.000000 0.000000 0.060659 0.000000 -0.000078
# 5 -0.006630 0.009459 -0.023261 0.000000 0.087571 0.000000
# 6 0.000000 0.000000 0.000000 -0.000078 0.000000 0.031600
#
#
# Mechanical properties :
#
#
# Convention : Reuss Voigt Hill
#
# Bulk Modulus (GPa) = 43.88918 66.22469 55.05693
# Shear Modulus (GPa) = 16.32104 20.85984 18.59044
#
# Velocity S-wave (km/s) = 3.06713 3.46748 3.27343
# Velocity P-wave (km/s) = 6.15145 7.36223 6.78390
#
# Compressibility (1/GPa) = 0.02278466
#
# Stress axis : x y z
#
# Youngs Moduli (GPa) = 57.65143 38.32982 36.46805
#
# Poissons Ratio (x) = 0.44263 0.21356
# Poissons Ratio (y) = 0.66576 0.24185
# Poissons Ratio (z) = 0.33761 0.25420
#
# Static dielectric constant tensor:
#      x y z
#    x 3.510200 0.000000 0.444940 
#    y 0.000000 3.253530 0.000000 
#    z 0.444940 0.000000 3.039880 
# 
# 
# High freq. dielectric constant tensor:
#      x y z
#    x 1.673140 0.000000 0.031090 
#    y 0.000000 1.674890 0.000000 
#    z 0.031090 0.000000 1.632530 
# 
# From -- ./inp_files/42364.got.cif
#   From: 2010.06.25/outbox.cif.g09.slc.cpg/sg11_22_cif.got.tgz:42364.got - 2010.06.27 23:14:04.
