data_PCOD8072290
_publ_section_title
;
Structure prediction by ZEFSAII (Michael W. Deem and Ramdas Pophale) SiO2 
 PCOD8072290
Probable space group: P 21/M
;
_chemical_formula_sum "Si O2"
_cell_formula_units_Z 32
_cell_length_a 31.215744
_cell_length_b 8.585416
_cell_length_c 12.366594
_cell_angle_alpha 90.000000
_cell_angle_beta 150.939481
_cell_angle_gamma 90.000000
_cell_volume 1609.840690
_symmetry_space_group_name_H-M "P 21/M"
_symmetry_group_IT_number 11
_symmetry_cell_setting 'monoclinic'
loop_
_space_group_symop_operation_xyz
x,y,z
-x,1/2+y,-z
-x,-y,-z
x,1/2-y,z
loop_
_atom_site_type_symbol
_atom_site_label
_atom_site_fract_x
_atom_site_fract_y
_atom_site_fract_z
Si Si1 0.236125 0.932520 0.343834
Si Si2 0.524384 0.067545 0.384560
Si Si3 0.053840 0.934328 0.020354
Si Si4 0.430669 0.565501 0.761630
Si Si5 0.368034 0.930222 0.167438
Si Si6 0.157014 0.932329 0.944879
Si Si7 0.009397 0.569414 0.339301
Si Si8 0.810361 0.571309 0.200559
O O1 0.247659 0.750000 0.358208
O O2 0.159707 0.972184 0.263775
O O3 0.333631 0.000636 0.583498
O O4 0.201193 0.994255 0.152023
O O5 0.502095 0.250000 0.337459
O O6 0.551248 0.012878 0.322717
O O7 0.600315 0.029782 0.640265
O O8 0.438944 0.972145 0.232482
O O9 0.039955 0.750000 0.974844
O O10 0.000000 0.000000 0.000000
O O11 0.012728 0.025369 0.830872
O O12 0.434546 0.750000 0.777253
O O13 0.500000 0.500000 0.000000
O O14 0.344544 0.750000 0.106295
O O15 0.281502 0.028434 0.945076
O O16 0.172423 0.750000 0.957678
O O17 0.203557 0.032982 0.955875
O O18 0.052095 0.967897 0.715993
O O19 0.990899 0.750000 0.320085
O O20 0.111639 0.535309 0.582815
O O21 0.833694 0.750000 0.273088
#
# Coordination Sequence:
#
# PCOD8072290 Si02
#       8
#     4   4   4   4   4   4   4   4
#     4   8  17  35  59  82 108 145 189 230 280 338
#     4   9  19  37  59  81 112 148 187 236 292 347
#     4  10  20  38  61  84 110 149 193 240 288 339
#     4  10  20  37  58  83 114 150 189 237 290 341
#     4  10  20  36  59  84 109 147 193 235 287 350
#     4  10  19  35  58  82 110 147 188 231 281 339
#     4  11  22  37  55  80 113 148 187 232 281 338
#     4  12  23  35  52  81 117 150 185 228 281 340
#
# _framework density 19.877745000000001
#
# number of rings (size 3 to 8) (size 9 to 14) (size 15 to 20)
#    0.000    2.000    0.000    5.250    0.000    3.000 
#    2.250    5.000    0.000    0.000    0.000    0.000 
#    0.000    0.000    0.000    0.000    0.000    0.000 
#
# Total GULP energy -396671.451020 kJ/mol
# GULP energy per Si atom -12395.982844 kJ/mol
# Density = 1.983250 g / cm^3
# Si number density = 19.877745 Si / 1000 Ang^3
#
#
#
# Elastic Constant Matrix: (Units=GPa)
#
#
# Indices 1 2 3 4 5 6 
#
# 1 102.0022 21.2828 47.7691 0.0000 17.2096 0.0000
# 2 21.2828 57.9205 21.2063 0.0000 5.9333 0.0000
# 3 47.7691 21.2063 121.3386 0.0000 24.3259 0.0000
# 4 0.0000 0.0000 0.0000 30.6348 0.0000 0.7747
# 5 17.2096 5.9333 24.3259 0.0000 25.6365 0.0000
# 6 0.0000 0.0000 0.0000 0.7747 0.0000 32.7596
#
#
#
# Elastic Compliance Matrix: (Units=1/GPa)
#
#
# Indices 1 2 3 4 5 6 
#
# 1 0.012889 -0.002935 -0.003659 0.000000 -0.004501 0.000000
# 2 -0.002935 0.019160 -0.002098 0.000000 -0.000473 0.000000
# 3 -0.003659 -0.002098 0.011681 0.000000 -0.008142 0.000000
# 4 0.000000 0.000000 0.000000 0.032662 0.000000 -0.000772
# 5 -0.004501 -0.000473 -0.008142 0.000000 0.049864 0.000000
# 6 0.000000 0.000000 0.000000 -0.000772 0.000000 0.030544
#
#
# Mechanical properties :
#
#
# Convention : Reuss Voigt Hill
#
# Bulk Modulus (GPa) = 37.95729 51.30864 44.63296
# Shear Modulus (GPa) = 27.32744 30.53972 28.93358
#
# Velocity S-wave (km/s) = 3.71182 3.92392 3.81934
# Velocity P-wave (km/s) = 6.12429 6.81158 6.47706
#
# Compressibility (1/GPa) = 0.02634540
#
# Stress axis : x y z
#
# Youngs Moduli (GPa) = 77.58499 52.19128 85.61054
#
# Poissons Ratio (x) = 0.15320 0.31323
# Poissons Ratio (y) = 0.22774 0.17963
# Poissons Ratio (z) = 0.28387 0.10951
#
# Static dielectric constant tensor:
#      x y z
#    x 3.737710 0.000000 0.231390 
#    y 0.000000 3.554580 0.000000 
#    z 0.231390 0.000000 3.761980 
# 
# 
# High freq. dielectric constant tensor:
#      x y z
#    x 1.772620 0.000000 0.019030 
#    y 0.000000 1.765060 0.000000 
#    z 0.019030 0.000000 1.774560 
# 
# From -- ./inp_files/45280.got.cif
#   From: 2010.06.25/outbox.cif.g09.slc.cpg/sg11_23_cif.got.tgz:45280.got - 2010.06.27 23:14:04.
