data_PCOD8072535
_publ_section_title
;
Structure prediction by ZEFSAII (Michael W. Deem and Ramdas Pophale) SiO2 
 PCOD8072535
Probable space group: P 21/M
;
_chemical_formula_sum "Si O2"
_cell_formula_units_Z 32
_cell_length_a 14.738645
_cell_length_b 8.849183
_cell_length_c 12.399591
_cell_angle_alpha 90.000000
_cell_angle_beta 89.720754
_cell_angle_gamma 90.000000
_cell_volume 1617.197037
_symmetry_space_group_name_H-M "P 21/M"
_symmetry_group_IT_number 11
_symmetry_cell_setting 'monoclinic'
loop_
_space_group_symop_operation_xyz
x,y,z
-x,1/2+y,-z
-x,-y,-z
x,1/2-y,z
loop_
_atom_site_type_symbol
_atom_site_label
_atom_site_fract_x
_atom_site_fract_y
_atom_site_fract_z
Si Si1 0.549156 0.078726 0.097063
Si Si2 0.716216 0.580459 0.032369
Si Si3 0.844517 0.920033 0.220447
Si Si4 0.220233 0.928062 0.176370
Si Si5 0.979522 0.430674 0.883869
Si Si6 0.319863 0.570419 0.392839
Si Si7 0.301910 0.069085 0.611885
Si Si8 0.494687 0.575827 0.666074
O O1 0.568771 0.250000 0.065330
O O2 0.490431 0.065519 0.205579
O O3 0.644389 0.994976 0.113797
O O4 0.500000 0.000000 0.000000
O O5 0.685252 0.750000 0.006316
O O6 0.809423 0.574620 0.097240
O O7 0.719367 0.493838 0.919837
O O8 0.852972 0.750000 0.262553
O O9 0.775949 0.997823 0.306391
O O10 0.945820 0.988779 0.205571
O O11 0.225090 0.750000 0.167801
O O12 0.116995 0.985765 0.162673
O O13 0.262911 0.983013 0.288834
O O14 0.983623 0.250000 0.895261
O O15 0.000000 0.500000 0.000000
O O16 0.316517 0.750000 0.408071
O O17 0.272420 0.485672 0.493255
O O18 0.424696 0.518396 0.388520
O O19 0.310779 0.250000 0.620161
O O20 0.398413 0.994706 0.636736
O O21 0.497852 0.750000 0.626751
#
# Coordination Sequence:
#
# PCOD8072535 Si02
#       8
#     4   4   4   4   4   4   4   4
#     4  11  23  36  53  81 118 156 194 236 287 347
#     4  11  20  34  57  84 117 153 190 234 288 346
#     4   9  19  35  58  87 116 147 184 232 289 341
#     4  10  22  38  59  86 120 157 193 238 294 348
#     4  10  19  36  60  89 119 151 190 234 288 349
#     4  11  24  41  58  82 116 155 196 241 289 341
#     4  11  22  40  63  85 113 153 197 241 288 342
#     4  11  23  39  59  85 113 150 196 242 287 341
#
# _framework density 19.787323000000001
#
# number of rings (size 3 to 8) (size 9 to 14) (size 15 to 20)
#    0.000    1.500    2.500    3.000    0.000    4.500 
#    0.000    1.875    0.000    0.000    0.000    0.000 
#    0.000    0.000    0.000    0.000    0.000    0.000 
#
# Total GULP energy -396701.238069 kJ/mol
# GULP energy per Si atom -12396.913690 kJ/mol
# Density = 1.974229 g / cm^3
# Si number density = 19.787323 Si / 1000 Ang^3
#
#
#
# Elastic Constant Matrix: (Units=GPa)
#
#
# Indices 1 2 3 4 5 6 
#
# 1 98.4874 17.3608 36.8001 0.0000 -16.0857 0.0000
# 2 17.3608 39.3748 20.3488 0.0000 -0.0794 0.0000
# 3 36.8001 20.3488 111.1356 0.0000 -12.4541 0.0000
# 4 0.0000 0.0000 0.0000 31.4731 0.0000 1.8716
# 5 -16.0857 -0.0794 -12.4541 0.0000 26.6250 0.0000
# 6 0.0000 0.0000 0.0000 1.8716 0.0000 19.0744
#
#
#
# Elastic Compliance Matrix: (Units=1/GPa)
#
#
# Indices 1 2 3 4 5 6 
#
# 1 0.013022 -0.004285 -0.002794 0.000000 0.006548 0.000000
# 2 -0.004285 0.029613 -0.004520 0.000000 -0.004615 0.000000
# 3 -0.002794 -0.004520 0.011144 0.000000 0.003512 0.000000
# 4 0.000000 0.000000 0.000000 0.031960 0.000000 -0.003136
# 5 0.006548 -0.004615 0.003512 0.000000 0.043143 0.000000
# 6 0.000000 0.000000 0.000000 -0.003136 0.000000 0.052734
#
#
# Mechanical properties :
#
#
# Convention : Reuss Voigt Hill
#
# Bulk Modulus (GPa) = 32.69918 44.22414 38.46166
# Shear Modulus (GPa) = 23.25494 27.06706 25.16100
#
# Velocity S-wave (km/s) = 3.43190 3.70252 3.56978
# Velocity P-wave (km/s) = 5.68024 6.37781 6.03911
#
# Compressibility (1/GPa) = 0.03058180
#
# Stress axis : x y z
#
# Youngs Moduli (GPa) = 76.79202 33.76896 89.73196
#
# Poissons Ratio (x) = 0.14469 0.25069
# Poissons Ratio (y) = 0.32902 0.40563
# Poissons Ratio (z) = 0.21454 0.15265
#
# Static dielectric constant tensor:
#      x y z
#    x 3.907190 0.000000 -0.125180 
#    y 0.000000 3.597470 0.000000 
#    z -0.125180 0.000000 3.746890 
# 
# 
# High freq. dielectric constant tensor:
#      x y z
#    x 1.772810 0.000000 -0.008150 
#    y 0.000000 1.762680 0.000000 
#    z -0.008150 0.000000 1.773670 
# 
# From -- ./inp_files/38141.got.cif
#   From: 2010.06.25/outbox.cif.g09.slc.cpg/sg11_20_cif.got.tgz:38141.got - 2010.06.27 23:14:04.
