data_PCOD8072894
_publ_section_title
;
Structure prediction by ZEFSAII (Michael W. Deem and Ramdas Pophale) SiO2 
 PCOD8072894
Probable space group: P 21/M
;
_chemical_formula_sum "Si O2"
_cell_formula_units_Z 32
_cell_length_a 13.704915
_cell_length_b 9.577559
_cell_length_c 21.771274
_cell_angle_alpha 90.000000
_cell_angle_beta 32.933307
_cell_angle_gamma 90.000000
_cell_volume 1553.618409
_symmetry_space_group_name_H-M "P 21/M"
_symmetry_group_IT_number 11
_symmetry_cell_setting 'monoclinic'
loop_
_space_group_symop_operation_xyz
x,y,z
-x,1/2+y,-z
-x,-y,-z
x,1/2-y,z
loop_
_atom_site_type_symbol
_atom_site_label
_atom_site_fract_x
_atom_site_fract_y
_atom_site_fract_z
Si Si1 0.220339 0.407792 0.269604
Si Si2 0.574952 0.595160 0.407363
Si Si3 0.169610 0.911138 0.934139
Si Si4 0.888444 0.591988 0.447592
Si Si5 0.390762 0.912168 0.933380
Si Si6 0.506235 0.410525 0.328265
Si Si7 0.071243 0.098663 0.713107
Si Si8 0.755745 0.588704 0.886081
O O1 0.154473 0.250000 0.313686
O O2 0.411469 0.435912 0.202444
O O3 0.268672 0.438465 0.173044
O O4 0.057216 0.500678 0.381776
O O5 0.500000 0.500000 0.500000
O O6 0.483666 0.750000 0.453714
O O7 0.558172 0.520351 0.351977
O O8 0.782852 0.613910 0.311513
O O9 0.110590 0.750000 0.961550
O O10 0.229586 0.952348 0.971710
O O11 0.352291 0.936701 0.800162
O O12 0.000000 0.000000 0.000000
O O13 0.947663 0.750000 0.428341
O O14 0.701647 0.559145 0.582188
O O15 0.847352 0.562114 0.397170
O O16 0.375344 0.750000 0.960790
O O17 0.386617 0.005275 0.997234
O O18 0.516537 0.250000 0.346969
O O19 0.970431 0.250000 0.761434
O O20 0.947741 0.974785 0.802575
O O21 0.747128 0.750000 0.908693
#
# Coordination Sequence:
#
# PCOD8072894 Si02
#       8
#     4   4   4   4   4   4   4   4
#     4   9  19  35  56  85 119 149 184 227 282 346
#     4  11  21  33  53  82 115 150 189 232 282 343
#     4  10  24  44  64  82 109 150 196 243 289 338
#     4   9  17  33  55  79 111 145 178 220 278 340
#     4  10  21  39  59  80 112 154 192 234 289 345
#     4  10  21  39  58  80 111 149 192 238 289 341
#     4   9  18  32  48  74 112 151 183 219 276 345
#     4  10  20  32  53  85 115 147 188 234 280 334
#
# _framework density 20.597078
#
# number of rings (size 3 to 8) (size 9 to 14) (size 15 to 20)
#    0.000    2.250    1.250    1.125    1.750    3.500 
#    0.000    0.625    0.000    0.000    0.000    0.000 
#    0.000    0.000    0.000    0.000    0.000    0.000 
#
# Total GULP energy -396510.833037 kJ/mol
# GULP energy per Si atom -12390.963532 kJ/mol
# Density = 2.055020 g / cm^3
# Si number density = 20.597078 Si / 1000 Ang^3
#
#
#
# Elastic Constant Matrix: (Units=GPa)
#
#
# Indices 1 2 3 4 5 6 
#
# 1 44.9801 30.0663 19.9461 0.0000 -22.0144 0.0000
# 2 30.0663 104.8544 50.2358 0.0000 -11.8249 0.0000
# 3 19.9461 50.2358 110.7945 0.0000 -23.1956 0.0000
# 4 0.0000 0.0000 0.0000 34.0258 0.0000 -7.1427
# 5 -22.0144 -11.8249 -23.1956 0.0000 30.4105 0.0000
# 6 0.0000 0.0000 0.0000 -7.1427 0.0000 22.6334
#
#
#
# Elastic Compliance Matrix: (Units=1/GPa)
#
#
# Indices 1 2 3 4 5 6 
#
# 1 0.041657 -0.010215 0.003111 0.000000 0.028556 0.000000
# 2 -0.010215 0.014698 -0.006161 0.000000 -0.006378 0.000000
# 3 0.003111 -0.006161 0.013363 0.000000 0.010049 0.000000
# 4 0.000000 0.000000 0.000000 0.031475 0.000000 0.009933
# 5 0.028556 -0.006378 0.010049 0.000000 0.058740 0.000000
# 6 0.000000 0.000000 0.000000 0.009933 0.000000 0.047317
#
#
# Mechanical properties :
#
#
# Convention : Reuss Voigt Hill
#
# Bulk Modulus (GPa) = 23.15454 51.23615 37.19534
# Shear Modulus (GPa) = 20.14703 28.10600 24.12652
#
# Velocity S-wave (km/s) = 3.13093 3.69801 3.42622
# Velocity P-wave (km/s) = 4.93319 6.56986 5.80945
#
# Compressibility (1/GPa) = 0.04318807
#
# Stress axis : x y z
#
# Youngs Moduli (GPa) = 24.00575 68.03466 74.83380
#
# Poissons Ratio (x) = 0.69495 -0.23278
# Poissons Ratio (y) = 0.24521 0.46104
# Poissons Ratio (z) = -0.07467 0.41915
#
# Static dielectric constant tensor:
#      x y z
#    x 5.233970 0.000000 -0.124740 
#    y 0.000000 4.055430 0.000000 
#    z -0.124740 0.000000 3.736620 
# 
# 
# High freq. dielectric constant tensor:
#      x y z
#    x 1.786520 0.000000 -0.014580 
#    y 0.000000 1.804450 0.000000 
#    z -0.014580 0.000000 1.805200 
# 
# From -- ./inp_files/69033.got.cif
#   From: 2010.06.25/outbox.cif.g09.slc.cpg/sg11_35_cif.got.tgz:69033.got - 2010.06.27 23:14:04.
