data_PCOD8072591
_publ_section_title
;
Structure prediction by ZEFSAII (Michael W. Deem and Ramdas Pophale) SiO2 
 PCOD8072591
Probable space group: P 21/M
;
_chemical_formula_sum "Si O2"
_cell_formula_units_Z 24
_cell_length_a 9.959808
_cell_length_b 17.755232
_cell_length_c 10.197804
_cell_angle_alpha 90.000000
_cell_angle_beta 136.975288
_cell_angle_gamma 90.000000
_cell_volume 1230.461675
_symmetry_space_group_name_H-M "P 21/M"
_symmetry_group_IT_number 11
_symmetry_cell_setting 'monoclinic'
loop_
_space_group_symop_operation_xyz
x,y,z
-x,1/2+y,-z
-x,-y,-z
x,1/2-y,z
loop_
_atom_site_type_symbol
_atom_site_label
_atom_site_fract_x
_atom_site_fract_y
_atom_site_fract_z
Si Si1 0.098978 0.664712 0.870865
Si Si2 0.653237 0.397150 0.173371
Si Si3 0.190456 0.595481 0.442120
Si Si4 0.760843 0.932645 0.229125
Si Si5 0.734023 0.576819 0.511539
Si Si6 0.346463 0.837233 0.297505
O O1 0.023048 0.750000 0.829582
O O2 0.253341 0.661145 0.861527
O O3 0.916007 0.610377 0.720259
O O4 0.205889 0.637280 0.078875
O O5 0.693925 0.370216 0.350304
O O6 0.762461 0.477001 0.230214
O O7 0.420174 0.401782 0.985083
O O8 0.271502 0.512309 0.470046
O O9 0.230589 0.650001 0.349611
O O10 0.957786 0.596369 0.302069
O O11 0.749036 0.901830 0.368815
O O12 0.538749 0.611515 0.433418
O O13 0.406076 0.750000 0.325791
#
# Coordination Sequence:
#
# PCOD8072591 Si02
#       6
#     4   4   4   4   4   4
#     4  11  22  38  60  85 118 161 201 239 293 359
#     4  10  19  37  62  90 117 151 194 243 295 355
#     4  11  22  38  63  94 119 152 197 255 300 343
#     4  10  19  36  65  91 120 144 193 255 295 343
#     4  11  20  40  65  88 115 160 202 242 296 360
#     4  11  26  42  55  85 127 159 196 247 299 354
#
# _framework density 19.504874999999998
#
# number of rings (size 3 to 8) (size 9 to 14) (size 15 to 20)
#    0.000    1.333    5.000    2.000    0.000    2.667 
#    0.000    0.833    0.000    0.000    0.000    0.000 
#    0.000    0.000    0.000    0.000    0.000    0.000 
#
# Total GULP energy -297749.899654 kJ/mol
# GULP energy per Si atom -12406.245819 kJ/mol
# Density = 1.946048 g / cm^3
# Si number density = 19.504875 Si / 1000 Ang^3
#
#
#
# Elastic Constant Matrix: (Units=GPa)
#
#
# Indices 1 2 3 4 5 6 
#
# 1 103.5454 15.0389 48.8401 0.0000 -3.0275 0.0000
# 2 15.0389 31.2345 25.9069 0.0000 -5.7172 0.0000
# 3 48.8401 25.9069 140.4385 0.0000 -8.2813 0.0000
# 4 0.0000 0.0000 0.0000 16.6037 0.0000 -5.9224
# 5 -3.0275 -5.7172 -8.2813 0.0000 29.7076 0.0000
# 6 0.0000 0.0000 0.0000 -5.9224 0.0000 15.1036
#
#
#
# Elastic Compliance Matrix: (Units=1/GPa)
#
#
# Indices 1 2 3 4 5 6 
#
# 1 0.011742 -0.002729 -0.003600 0.000000 -0.000332 0.000000
# 2 -0.002729 0.039312 -0.005971 0.000000 0.005623 0.000000
# 3 -0.003600 -0.005971 0.009541 0.000000 0.001144 0.000000
# 4 0.000000 0.000000 0.000000 0.070021 0.000000 0.027456
# 5 -0.000332 0.005623 0.001144 0.000000 0.035028 0.000000
# 6 0.000000 0.000000 0.000000 0.027456 0.000000 0.076976
#
#
# Mechanical properties :
#
#
# Convention : Reuss Voigt Hill
#
# Bulk Modulus (GPa) = 27.78113 50.53226 39.15670
# Shear Modulus (GPa) = 17.90713 24.64515 21.27614
#
# Velocity S-wave (km/s) = 3.03328 3.55848 3.30633
# Velocity P-wave (km/s) = 5.15187 6.54580 5.89022
#
# Compressibility (1/GPa) = 0.03599566
#
# Stress axis : x y z
#
# Youngs Moduli (GPa) = 85.16336 25.43773 104.80605
#
# Poissons Ratio (x) = 0.06941 0.37728
# Poissons Ratio (y) = 0.23238 0.62584
# Poissons Ratio (z) = 0.30657 0.15190
#
# Static dielectric constant tensor:
#      x y z
#    x 3.420260 0.000000 -0.034860 
#    y 0.000000 3.307200 0.000000 
#    z -0.034860 0.000000 3.737930 
# 
# 
# High freq. dielectric constant tensor:
#      x y z
#    x 1.755490 0.000000 0.003550 
#    y 0.000000 1.740800 0.000000 
#    z 0.003550 0.000000 1.777110 
# 
# From -- ./inp_files/14207.got.cif
#   From: 2010.06.25/outbox.cif.g09.slc.cpg/sg11_8_cif.got.tgz:14207.got - 2010.06.27 23:14:04.
