data_PCOD8072298
_publ_section_title
;
Structure prediction by ZEFSAII (Michael W. Deem and Ramdas Pophale) SiO2 
 PCOD8072298
Probable space group: P 21/M
;
_chemical_formula_sum "Si O2"
_cell_formula_units_Z 28
_cell_length_a 29.089334
_cell_length_b 8.654696
_cell_length_c 9.083164
_cell_angle_alpha 90.000000
_cell_angle_beta 141.305903
_cell_angle_gamma 90.000000
_cell_volume 1429.603147
_symmetry_space_group_name_H-M "P 21/M"
_symmetry_group_IT_number 11
_symmetry_cell_setting 'monoclinic'
loop_
_space_group_symop_operation_xyz
x,y,z
-x,1/2+y,-z
-x,-y,-z
x,1/2-y,z
loop_
_atom_site_type_symbol
_atom_site_label
_atom_site_fract_x
_atom_site_fract_y
_atom_site_fract_z
Si Si1 0.006721 0.431318 0.356345
Si Si2 0.567833 0.431164 0.255424
Si Si3 0.154584 0.567229 0.710875
Si Si4 0.289417 0.567125 0.570965
Si Si5 0.154093 0.930598 0.045004
Si Si6 0.292812 0.068737 0.898473
Si Si7 0.569714 0.067207 0.591956
O O1 0.023539 0.250000 0.404195
O O2 0.074141 0.518932 0.444740
O O3 0.000000 0.500000 0.500000
O O4 0.926300 0.464110 0.083097
O O5 0.557334 0.250000 0.232735
O O6 0.643144 0.477297 0.364830
O O7 0.569731 0.497191 0.425621
O O8 0.500000 0.500000 0.000000
O O9 0.164724 0.750000 0.722970
O O10 0.213947 0.482756 0.759945
O O11 0.161316 0.504826 0.895997
O O12 0.284891 0.750000 0.591588
O O13 0.216270 0.501529 0.307702
O O14 0.300016 0.475379 0.746948
O O15 0.167695 0.750000 0.063459
O O16 0.303501 0.250000 0.944254
O O17 0.355237 0.982303 0.144837
O O18 0.564672 0.250000 0.582782
O O19 0.500000 0.000000 0.500000
#
# Coordination Sequence:
#
# PCOD8072298 Si02
#       7
#     4   4   4   4   4   4   4
#     4   9  16  29  51  82 114 145 183 232 283 339
#     4  10  22  38  60  86 114 146 185 227 272 325
#     4  10  19  35  58  83 110 146 188 234 284 338
#     4  10  20  38  59  79 106 147 189 230 279 331
#     4   8  16  32  57  83 108 140 185 233 281 334
#     4  12  25  39  55  82 115 149 188 233 279 332
#     4  11  23  41  63  89 117 149 186 227 273 329
#
# _framework density 19.585857000000001
#
# number of rings (size 3 to 8) (size 9 to 14) (size 15 to 20)
#    0.000    2.000    0.000    5.143    0.000    6.286 
#    0.000    6.429    0.000    0.000    0.000    0.000 
#    0.000    0.000    0.000    0.000    0.000    0.000 
#
# Total GULP energy -347144.456056 kJ/mol
# GULP energy per Si atom -12398.016288 kJ/mol
# Density = 1.954128 g / cm^3
# Si number density = 19.585857 Si / 1000 Ang^3
#
#
#
# Elastic Constant Matrix: (Units=GPa)
#
#
# Indices 1 2 3 4 5 6 
#
# 1 135.7022 30.4303 70.0597 0.0000 6.2925 0.0000
# 2 30.4303 45.4387 26.4487 0.0000 -0.9289 0.0000
# 3 70.0597 26.4487 148.4165 0.0000 9.1169 0.0000
# 4 0.0000 0.0000 0.0000 29.3668 0.0000 5.8330
# 5 6.2925 -0.9289 9.1169 0.0000 37.3158 0.0000
# 6 0.0000 0.0000 0.0000 5.8330 0.0000 31.2602
#
#
#
# Elastic Compliance Matrix: (Units=1/GPa)
#
#
# Indices 1 2 3 4 5 6 
#
# 1 0.010587 -0.004721 -0.004101 0.000000 -0.000901 0.000000
# 2 -0.004721 0.026768 -0.002671 0.000000 0.002115 0.000000
# 3 -0.004101 -0.002671 0.009250 0.000000 -0.001635 0.000000
# 4 0.000000 0.000000 0.000000 0.035363 0.000000 -0.006599
# 5 -0.000901 0.002115 -0.001635 0.000000 0.027402 0.000000
# 6 0.000000 0.000000 0.000000 -0.006599 0.000000 0.033221
#
#
# Mechanical properties :
#
#
# Convention : Reuss Voigt Hill
#
# Bulk Modulus (GPa) = 42.34149 64.82611 53.58380
# Shear Modulus (GPa) = 28.82679 33.09648 30.96164
#
# Velocity S-wave (km/s) = 3.84059 4.11520 3.98026
# Velocity P-wave (km/s) = 6.42901 7.46660 6.96715
#
# Compressibility (1/GPa) = 0.02361750
#
# Stress axis : x y z
#
# Youngs Moduli (GPa) = 94.45822 37.35834 108.10795
#
# Poissons Ratio (x) = 0.17638 0.44332
# Poissons Ratio (y) = 0.44598 0.28880
# Poissons Ratio (z) = 0.38735 0.09980
#
# Static dielectric constant tensor:
#      x y z
#    x 3.791510 0.000000 0.314360 
#    y 0.000000 3.567210 0.000000 
#    z 0.314360 0.000000 3.950130 
# 
# 
# High freq. dielectric constant tensor:
#      x y z
#    x 1.764820 0.000000 0.019650 
#    y 0.000000 1.751980 0.000000 
#    z 0.019650 0.000000 1.772760 
# 
# From -- ./inp_files/28550.got.cif
#   From: 2010.06.25/outbox.cif.g09.slc.cpg/sg11_15_cif.got.tgz:28550.got - 2010.06.27 23:14:04.
