data_PCOD8072064
_publ_section_title
;
Structure prediction by ZEFSAII (Michael W. Deem and Ramdas Pophale) SiO2 
 PCOD8072064
Probable space group: P 21/M
;
_chemical_formula_sum "Si O2"
_cell_formula_units_Z 28
_cell_length_a 14.574591
_cell_length_b 8.861560
_cell_length_c 12.556535
_cell_angle_alpha 90.000000
_cell_angle_beta 59.846410
_cell_angle_gamma 90.000000
_cell_volume 1402.273647
_symmetry_space_group_name_H-M "P 21/M"
_symmetry_group_IT_number 11
_symmetry_cell_setting 'monoclinic'
loop_
_space_group_symop_operation_xyz
x,y,z
-x,1/2+y,-z
-x,-y,-z
x,1/2-y,z
loop_
_atom_site_type_symbol
_atom_site_label
_atom_site_fract_x
_atom_site_fract_y
_atom_site_fract_z
Si Si1 0.694566 0.927722 0.645624
Si Si2 0.216599 0.575380 0.773526
Si Si3 0.986856 0.572226 0.187102
Si Si4 0.392254 0.427593 0.525187
Si Si5 0.772740 0.075715 0.990570
Si Si6 0.614296 0.570598 0.918095
Si Si7 0.075350 0.428144 0.540847
O O1 0.704766 0.750000 0.650552
O O2 0.616187 0.970026 0.594645
O O3 0.654703 0.993795 0.780957
O O4 0.808764 0.995845 0.549844
O O5 0.216333 0.750000 0.741539
O O6 0.291081 0.486481 0.648746
O O7 0.096238 0.513139 0.840706
O O8 0.261247 0.554011 0.866928
O O9 0.973298 0.750000 0.176457
O O10 0.106356 0.519195 0.093124
O O11 0.960953 0.521712 0.321699
O O12 0.500000 0.500000 0.500000
O O13 0.396517 0.250000 0.540106
O O14 0.763109 0.250000 0.961223
O O15 0.694794 0.977740 0.963644
O O16 0.604542 0.750000 0.923918
O O17 0.500000 0.500000 0.000000
O O18 0.072520 0.250000 0.530915
O O19 0.000000 0.500000 0.500000
#
# Coordination Sequence:
#
# PCOD8072064 Si02
#       7
#     4   4   4   4   4   4   4
#     4   9  20  40  62  84 119 157 191 244 306 355
#     4  11  23  39  61  92 127 163 203 250 303 360
#     4  10  20  38  62  88 122 162 202 249 303 362
#     4  11  23  42  65  91 122 159 202 250 307 365
#     4  10  23  41  61  89 126 164 203 251 306 358
#     4  11  24  42  64  89 119 159 205 252 307 366
#     4  10  19  34  57  86 117 154 194 238 295 352
#
# _framework density 19.967572000000001
#
# number of rings (size 3 to 8) (size 9 to 14) (size 15 to 20)
#    0.000    1.714    1.429    2.571    2.000    2.286 
#    0.000    2.857    0.000    0.000    0.000    0.000 
#    0.000    0.000    0.000    0.000    0.000    0.000 
#
# Total GULP energy -347255.268826 kJ/mol
# GULP energy per Si atom -12401.973887 kJ/mol
# Density = 1.992212 g / cm^3
# Si number density = 19.967572 Si / 1000 Ang^3
#
#
#
# Elastic Constant Matrix: (Units=GPa)
#
#
# Indices 1 2 3 4 5 6 
#
# 1 138.5343 49.7614 40.3874 0.0000 5.2152 0.0000
# 2 49.7614 71.8882 35.4953 0.0000 5.2688 0.0000
# 3 40.3874 35.4953 103.8756 0.0000 7.2996 0.0000
# 4 0.0000 0.0000 0.0000 26.7769 0.0000 0.0816
# 5 5.2152 5.2688 7.2996 0.0000 35.7499 0.0000
# 6 0.0000 0.0000 0.0000 0.0816 0.0000 42.0616
#
#
#
# Elastic Compliance Matrix: (Units=1/GPa)
#
#
# Indices 1 2 3 4 5 6 
#
# 1 0.009884 -0.005938 -0.001800 0.000000 -0.000199 0.000000
# 2 -0.005938 0.020363 -0.004565 0.000000 -0.001203 0.000000
# 3 -0.001800 -0.004565 0.011993 0.000000 -0.001513 0.000000
# 4 0.000000 0.000000 0.000000 0.037346 0.000000 -0.000072
# 5 -0.000199 -0.001203 -0.001513 0.000000 0.028487 0.000000
# 6 0.000000 0.000000 0.000000 -0.000072 0.000000 0.023775
#
#
# Mechanical properties :
#
#
# Convention : Reuss Voigt Hill
#
# Bulk Modulus (GPa) = 56.70903 62.84292 59.77598
# Shear Modulus (GPa) = 30.80120 33.49462 32.14791
#
# Velocity S-wave (km/s) = 3.93181 4.10011 4.01684
# Velocity P-wave (km/s) = 7.00531 7.34543 7.17739
#
# Compressibility (1/GPa) = 0.01763388
#
# Stress axis : x y z
#
# Youngs Moduli (GPa) = 101.17756 49.10833 83.38312
#
# Poissons Ratio (x) = 0.29162 0.15006
# Poissons Ratio (y) = 0.60082 0.38064
# Poissons Ratio (z) = 0.18208 0.22418
#
# Static dielectric constant tensor:
#      x y z
#    x 3.735060 0.000000 -0.018500 
#    y 0.000000 3.088450 0.000000 
#    z -0.018500 0.000000 3.880080 
# 
# 
# High freq. dielectric constant tensor:
#      x y z
#    x 1.791910 0.000000 0.002640 
#    y 0.000000 1.764220 0.000000 
#    z 0.002640 0.000000 1.794300 
# 
# From -- ./inp_files/37929.got.cif
#   From: 2010.06.25/outbox.cif.g09.slc.cpg/sg11_19_cif.got.tgz:37929.got - 2010.06.27 23:14:04.
