data_PCOD8072491
_publ_section_title
;
Structure prediction by ZEFSAII (Michael W. Deem and Ramdas Pophale) SiO2 
 PCOD8072491
Probable space group: P 21/M
;
_chemical_formula_sum "Si O2"
_cell_formula_units_Z 32
_cell_length_a 21.666398
_cell_length_b 9.283400
_cell_length_c 27.959439
_cell_angle_alpha 90.000000
_cell_angle_beta 162.112258
_cell_angle_gamma 90.000000
_cell_volume 1727.336815
_symmetry_space_group_name_H-M "P 21/M"
_symmetry_group_IT_number 11
_symmetry_cell_setting 'monoclinic'
loop_
_space_group_symop_operation_xyz
x,y,z
-x,1/2+y,-z
-x,-y,-z
x,1/2-y,z
loop_
_atom_site_type_symbol
_atom_site_label
_atom_site_fract_x
_atom_site_fract_y
_atom_site_fract_z
Si Si1 0.306378 0.417201 0.224572
Si Si2 0.206210 0.083531 0.653985
Si Si3 0.437004 0.079902 0.729363
Si Si4 0.299508 0.581963 0.538615
Si Si5 0.836709 0.915265 0.038752
Si Si6 0.523419 0.419673 0.967480
Si Si7 0.878822 0.915716 0.179446
Si Si8 0.936631 0.085622 0.885135
O O1 0.312922 0.250000 0.240805
O O2 0.522183 0.470788 0.364834
O O3 0.250903 0.493930 0.233685
O O4 0.142452 0.457908 0.063748
O O5 0.151824 0.250000 0.609932
O O6 0.345455 0.035265 0.712797
O O7 0.323265 0.049161 0.789285
O O8 0.000000 0.000000 0.500000
O O9 0.442728 0.250000 0.725958
O O10 0.300044 0.008571 0.587695
O O11 0.660539 0.019119 0.891707
O O12 0.326334 0.750000 0.570929
O O13 0.090403 0.549172 0.359162
O O14 0.763072 0.750000 0.978568
O O15 0.903645 0.949172 0.141791
O O16 0.027963 0.943236 0.145185
O O17 0.553261 0.250000 0.998009
O O18 0.714812 0.479030 0.080555
O O19 0.500000 0.500000 0.000000
O O20 0.814659 0.750000 0.141065
O O21 0.882265 0.250000 0.855379
#
# Coordination Sequence:
#
# PCOD8072491 Si02
#       8
#     4   4   4   4   4   4   4   4
#     4   9  17  31  50  76 111 147 183 230 282 329
#     4  10  24  42  60  86 117 148 185 233 281 331
#     4  11  22  37  58  86 114 145 189 237 283 328
#     4  10  21  38  57  83 116 150 190 234 281 338
#     4  10  19  36  59  84 111 148 191 232 280 336
#     4  11  24  43  62  85 118 152 189 231 279 337
#     4  10  22  39  62  86 112 151 192 230 282 339
#     4   9  17  30  51  78 109 145 186 230 279 332
#
# _framework density 18.525628000000001
#
# number of rings (size 3 to 8) (size 9 to 14) (size 15 to 20)
#    0.000    2.000    2.500    0.750    1.750    3.500 
#    0.000    0.625    0.000    0.000    0.000    0.000 
#    0.000    0.000    0.000    0.000    0.000    0.000 
#
# Total GULP energy -396877.666809 kJ/mol
# GULP energy per Si atom -12402.427088 kJ/mol
# Density = 1.848346 g / cm^3
# Si number density = 18.525628 Si / 1000 Ang^3
#
#
#
# Elastic Constant Matrix: (Units=GPa)
#
#
# Indices 1 2 3 4 5 6 
#
# 1 141.0284 63.4588 43.5988 0.0000 -7.9543 0.0000
# 2 63.4588 77.0606 47.8574 0.0000 -2.0115 0.0000
# 3 43.5988 47.8574 83.0858 0.0000 -7.8167 0.0000
# 4 0.0000 0.0000 0.0000 24.8172 0.0000 4.3662
# 5 -7.9543 -2.0115 -7.8167 0.0000 27.4032 0.0000
# 6 0.0000 0.0000 0.0000 4.3662 0.0000 36.2878
#
#
#
# Elastic Compliance Matrix: (Units=1/GPa)
#
#
# Indices 1 2 3 4 5 6 
#
# 1 0.011470 -0.009012 -0.000593 0.000000 0.002499 0.000000
# 2 -0.009012 0.027381 -0.011405 0.000000 -0.003859 0.000000
# 3 -0.000593 -0.011405 0.019340 0.000000 0.004508 0.000000
# 4 0.000000 0.000000 0.000000 0.041166 0.000000 -0.004953
# 5 0.002499 -0.003859 0.004508 0.000000 0.038220 0.000000
# 6 0.000000 0.000000 0.000000 -0.004953 0.000000 0.028153
#
#
# Mechanical properties :
#
#
# Convention : Reuss Voigt Hill
#
# Bulk Modulus (GPa) = 61.84052 67.88943 64.86498
# Shear Modulus (GPa) = 23.45863 27.45230 25.45546
#
# Velocity S-wave (km/s) = 3.56234 3.85366 3.71086
# Velocity P-wave (km/s) = 7.09746 7.51843 7.31097
#
# Compressibility (1/GPa) = 0.01617063
#
# Stress axis : x y z
#
# Youngs Moduli (GPa) = 87.18208 36.52213 51.70561
#
# Poissons Ratio (x) = 0.32915 0.03065
# Poissons Ratio (y) = 0.78571 0.58971
# Poissons Ratio (z) = 0.05168 0.41654
#
# Static dielectric constant tensor:
#      x y z
#    x 3.657910 0.000000 -0.003620 
#    y 0.000000 3.400760 0.000000 
#    z -0.003620 0.000000 3.285880 
# 
# 
# High freq. dielectric constant tensor:
#      x y z
#    x 1.733500 0.000000 0.002860 
#    y 0.000000 1.716640 0.000000 
#    z 0.002860 0.000000 1.703990 
# 
# From -- ./inp_files/72137.got.cif
#   From: 2010.06.25/outbox.cif.g09.slc.cpg/sg11_37_cif.got.tgz:72137.got - 2010.06.27 23:14:04.
