data_PCOD8072276
_publ_section_title
;
Structure prediction by ZEFSAII (Michael W. Deem and Ramdas Pophale) SiO2 
 PCOD8072276
Probable space group: P 21/M
;
_chemical_formula_sum "Si O2"
_cell_formula_units_Z 32
_cell_length_a 19.799408
_cell_length_b 8.736152
_cell_length_c 12.150846
_cell_angle_alpha 90.000000
_cell_angle_beta 54.214938
_cell_angle_gamma 90.000000
_cell_volume 1704.965408
_symmetry_space_group_name_H-M "P 21/M"
_symmetry_group_IT_number 11
_symmetry_cell_setting 'monoclinic'
loop_
_space_group_symop_operation_xyz
x,y,z
-x,1/2+y,-z
-x,-y,-z
x,1/2-y,z
loop_
_atom_site_type_symbol
_atom_site_label
_atom_site_fract_x
_atom_site_fract_y
_atom_site_fract_z
Si Si1 0.494482 0.928412 0.173705
Si Si2 0.535867 0.430286 0.355514
Si Si3 0.368334 0.927439 0.108329
Si Si4 0.877083 0.927016 0.114869
Si Si5 0.982721 0.071765 0.190046
Si Si6 0.711130 0.572875 0.151756
Si Si7 0.216483 0.428370 0.154554
Si Si8 0.961851 0.429609 0.644899
O O1 0.518243 0.750000 0.153734
O O2 0.408962 0.956687 0.189110
O O3 0.483506 0.993804 0.306236
O O4 0.569943 0.017548 0.045622
O O5 0.500000 0.500000 0.500000
O O6 0.521696 0.250000 0.367621
O O7 0.633400 0.466726 0.253200
O O8 0.349187 0.750000 0.106826
O O9 0.282788 0.022233 0.184523
O O10 0.892362 0.750000 0.128224
O O11 0.781666 0.960228 0.175512
O O12 0.900592 0.025835 0.199473
O O13 0.934951 0.974543 0.956826
O O14 0.980835 0.250000 0.218848
O O15 0.983139 0.982163 0.303935
O O16 0.683396 0.750000 0.180652
O O17 0.746173 0.528932 0.999320
O O18 0.195836 0.250000 0.183907
O O19 0.132979 0.520954 0.251645
O O20 0.966863 0.250000 0.630159
O O21 0.000000 0.500000 0.500000
#
# Coordination Sequence:
#
# PCOD8072276 Si02
#       8
#     4   4   4   4   4   4   4   4
#     4  10  20  36  57  84 120 155 193 241 293 345
#     4  12  25  40  60  85 118 156 199 241 295 357
#     4  10  20  34  57  89 119 152 195 243 290 342
#     4   9  18  34  57  86 118 152 191 238 289 341
#     4  10  19  35  57  86 120 153 193 238 290 344
#     4  10  20  37  60  87 120 153 193 242 291 343
#     4  11  21  37  61  89 121 154 193 244 294 342
#     4  12  25  41  61  85 119 158 199 242 293 353
#
# _framework density 18.768709000000001
#
# number of rings (size 3 to 8) (size 9 to 14) (size 15 to 20)
#    0.000    1.500    2.500    3.750    0.000    3.000 
#    0.000    1.250    0.000    6.000    0.000    0.000 
#    0.000    0.000    0.000    0.000    0.000    0.000 
#
# Total GULP energy -396944.287243 kJ/mol
# GULP energy per Si atom -12404.508976 kJ/mol
# Density = 1.872599 g / cm^3
# Si number density = 18.768709 Si / 1000 Ang^3
#
#
#
# Elastic Constant Matrix: (Units=GPa)
#
#
# Indices 1 2 3 4 5 6 
#
# 1 123.3126 47.4414 51.7809 0.0000 15.3847 0.0000
# 2 47.4414 94.1325 47.1324 0.0000 11.5889 0.0000
# 3 51.7809 47.1324 94.8404 0.0000 20.7876 0.0000
# 4 0.0000 0.0000 0.0000 30.8426 0.0000 0.3491
# 5 15.3847 11.5889 20.7876 0.0000 25.5384 0.0000
# 6 0.0000 0.0000 0.0000 0.3491 0.0000 36.3537
#
#
#
# Elastic Compliance Matrix: (Units=1/GPa)
#
#
# Indices 1 2 3 4 5 6 
#
# 1 0.011397 -0.003464 -0.004066 0.000000 -0.001984 0.000000
# 2 -0.003464 0.015210 -0.005614 0.000000 -0.000246 0.000000
# 3 -0.004066 -0.005614 0.017599 0.000000 -0.009328 0.000000
# 4 0.000000 0.000000 0.000000 0.032426 0.000000 -0.000311
# 5 -0.001984 -0.000246 -0.009328 0.000000 0.048056 0.000000
# 6 0.000000 0.000000 0.000000 -0.000311 0.000000 0.027511
#
#
# Mechanical properties :
#
#
# Convention : Reuss Voigt Hill
#
# Bulk Modulus (GPa) = 55.81003 67.22166 61.51584
# Shear Modulus (GPa) = 27.10628 29.60899 28.35764
#
# Velocity S-wave (km/s) = 3.80442 3.97618 3.89125
# Velocity P-wave (km/s) = 7.00702 7.54808 7.28258
#
# Compressibility (1/GPa) = 0.01791793
#
# Stress axis : x y z
#
# Youngs Moduli (GPa) = 87.74162 65.74556 56.82271
#
# Poissons Ratio (x) = 0.22772 0.23106
# Poissons Ratio (y) = 0.30391 0.31900
# Poissons Ratio (z) = 0.35679 0.36909
#
# Static dielectric constant tensor:
#      x y z
#    x 3.625460 0.000000 0.219730 
#    y 0.000000 3.527850 0.000000 
#    z 0.219730 0.000000 3.065280 
# 
# 
# High freq. dielectric constant tensor:
#      x y z
#    x 1.745720 0.000000 0.009470 
#    y 0.000000 1.739990 0.000000 
#    z 0.009470 0.000000 1.700180 
# 
# From -- ./inp_files/42743.got.cif
#   From: 2010.06.25/outbox.cif.g09.slc.cpg/sg11_22_cif.got.tgz:42743.got - 2010.06.27 23:14:04.
