data_PCOD8072721
_publ_section_title
;
Structure prediction by ZEFSAII (Michael W. Deem and Ramdas Pophale) SiO2 
 PCOD8072721
Probable space group: P 21/M
;
_chemical_formula_sum "Si O2"
_cell_formula_units_Z 20
_cell_length_a 10.796696
_cell_length_b 9.680989
_cell_length_c 8.445403
_cell_angle_alpha 90.000000
_cell_angle_beta 94.117008
_cell_angle_gamma 90.000000
_cell_volume 880.458396
_symmetry_space_group_name_H-M "P 21/M"
_symmetry_group_IT_number 11
_symmetry_cell_setting 'monoclinic'
loop_
_space_group_symop_operation_xyz
x,y,z
-x,1/2+y,-z
-x,-y,-z
x,1/2-y,z
loop_
_atom_site_type_symbol
_atom_site_label
_atom_site_fract_x
_atom_site_fract_y
_atom_site_fract_z
Si Si1 0.005926 0.250000 0.364643
Si Si2 0.765437 0.250000 0.492339
Si Si3 0.494461 0.750000 0.135994
Si Si4 0.396069 0.527804 0.361689
Si Si5 0.737779 0.750000 0.731836
Si Si6 0.714163 0.250000 0.117036
Si Si7 0.216814 0.250000 0.903098
Si Si8 0.902557 0.472950 0.126760
O O1 0.155242 0.250000 0.396570
O O2 0.917541 0.250000 0.512912
O O3 0.969731 0.391092 0.272258
O O4 0.717711 0.113119 0.574555
O O5 0.715086 0.250000 0.307460
O O6 0.458049 0.611941 0.225391
O O7 0.639177 0.750000 0.120977
O O8 0.426007 0.750000 0.959560
O O9 0.500000 0.500000 0.500000
O O10 0.347552 0.383479 0.291472
O O11 0.805317 0.750000 0.908788
O O12 0.785766 0.383445 0.052914
O O13 0.151598 0.381783 0.816750
O O14 0.000000 0.500000 0.000000
#
# Coordination Sequence:
#
# PCOD8072721 Si02
#       8
#     2   2   2   4   2   2   2   4
#     4  10  23  41  68  98 131 178 219 276 330 396
#     4   9  23  47  64  90 140 177 213 272 340 390
#     4  11  27  41  68 104 129 175 230 270 330 393
#     4  11  26  47  66  92 137 183 219 269 336 398
#     4  12  24  42  72  98 131 174 232 274 325 397
#     4  10  23  41  69  97 137 167 220 286 324 386
#     4  12  24  38  67 109 134 171 222 282 325 400
#     4  10  19  39  62  97 141 170 204 269 352 382
#
# _framework density 22.715440999999998
#
# number of rings (size 3 to 8) (size 9 to 14) (size 15 to 20)
#    0.000    1.600    2.000    3.000    8.400    2.400 
#    0.000    0.000    0.000    0.000    0.000    0.000 
#    0.000    0.000    0.000    0.000    0.000    0.000 
#
# Total GULP energy -247989.605125 kJ/mol
# GULP energy per Si atom -12399.480256 kJ/mol
# Density = 2.266374 g / cm^3
# Si number density = 22.715441 Si / 1000 Ang^3
#
#
#
# Elastic Constant Matrix: (Units=GPa)
#
#
# Indices 1 2 3 4 5 6 
#
# 1 120.4418 49.5249 -1.6085 0.0000 -23.9474 0.0000
# 2 49.5249 190.5756 12.8272 0.0000 -3.5595 0.0000
# 3 -1.6085 12.8272 38.5489 0.0000 -7.2368 0.0000
# 4 0.0000 0.0000 0.0000 10.5499 0.0000 6.6327
# 5 -23.9474 -3.5595 -7.2368 0.0000 42.3853 0.0000
# 6 0.0000 0.0000 0.0000 6.6327 0.0000 24.2417
#
#
#
# Elastic Compliance Matrix: (Units=1/GPa)
#
#
# Indices 1 2 3 4 5 6 
#
# 1 0.010758 -0.002852 0.002577 0.000000 0.006279 0.000000
# 2 -0.002852 0.006124 -0.002441 0.000000 -0.001514 0.000000
# 3 0.002577 -0.002441 0.027993 0.000000 0.006030 0.000000
# 4 0.000000 0.000000 0.000000 0.114481 0.000000 -0.031323
# 5 0.006279 -0.001514 0.006030 0.000000 0.028043 0.000000
# 6 0.000000 0.000000 0.000000 -0.031323 0.000000 0.049821
#
#
# Mechanical properties :
#
#
# Convention : Reuss Voigt Hill
#
# Bulk Modulus (GPa) = 25.35311 52.33927 38.84619
# Shear Modulus (GPa) = 19.54643 34.69023 27.11833
#
# Velocity S-wave (km/s) = 2.93660 3.91214 3.45893
# Velocity P-wave (km/s) = 4.76272 6.59528 5.75244
#
# Compressibility (1/GPa) = 0.03944289
#
# Stress axis : x y z
#
# Youngs Moduli (GPa) = 92.95179 163.28079 35.72324
#
# Poissons Ratio (x) = 0.46566 -0.09205
# Poissons Ratio (y) = 0.26509 0.08720
# Poissons Ratio (z) = -0.23950 0.39858
#
# Static dielectric constant tensor:
#      x y z
#    x 4.368710 0.000000 -0.134570 
#    y 0.000000 4.942680 0.000000 
#    z -0.134570 0.000000 3.985360 
# 
# 
# High freq. dielectric constant tensor:
#      x y z
#    x 1.914990 0.000000 -0.012980 
#    y 0.000000 1.917730 0.000000 
#    z -0.012980 0.000000 1.865090 
# 
# From -- ./inp_files/16107.got.cif
#   From: 2010.06.25/outbox.cif.g09.slc.cpg/sg11_9_cif.got.tgz:16107.got - 2010.06.27 23:14:04.
