data_PCOD8072359
_publ_section_title
;
Structure prediction by ZEFSAII (Michael W. Deem and Ramdas Pophale) SiO2 
 PCOD8072359
Probable space group: P 21/M
;
_chemical_formula_sum "Si O2"
_cell_formula_units_Z 24
_cell_length_a 12.263410
_cell_length_b 8.888768
_cell_length_c 23.717471
_cell_angle_alpha 90.000000
_cell_angle_beta 29.599279
_cell_angle_gamma 90.000000
_cell_volume 1276.989763
_symmetry_space_group_name_H-M "P 21/M"
_symmetry_group_IT_number 11
_symmetry_cell_setting 'monoclinic'
loop_
_space_group_symop_operation_xyz
x,y,z
-x,1/2+y,-z
-x,-y,-z
x,1/2-y,z
loop_
_atom_site_type_symbol
_atom_site_label
_atom_site_fract_x
_atom_site_fract_y
_atom_site_fract_z
Si Si1 0.738290 0.427161 0.886746
Si Si2 0.351576 0.924183 0.887161
Si Si3 0.883495 0.072836 0.499150
Si Si4 0.813027 0.923669 0.739593
Si Si5 0.439692 0.577130 0.721302
Si Si6 0.964826 0.922878 0.888209
O O1 0.708884 0.250000 0.901996
O O2 0.851679 0.476670 0.777539
O O3 0.895524 0.476474 0.866752
O O4 0.500000 0.500000 0.000000
O O5 0.280190 0.750000 0.918944
O O6 0.567559 0.950535 0.827361
O O7 0.394377 0.982211 0.804771
O O8 0.154926 0.022686 0.001121
O O9 0.898019 0.250000 0.500077
O O10 0.010944 0.021552 0.385673
O O11 0.631499 0.020766 0.606845
O O12 0.000000 0.000000 0.500000
O O13 0.849662 0.750000 0.738987
O O14 0.517590 0.750000 0.689476
O O15 0.225706 0.557786 0.778826
O O16 0.901051 0.750000 0.905649
#
# Coordination Sequence:
#
# PCOD8072359 Si02
#       6
#     4   4   4   4   4   4
#     4  12  24  39  61  86 116 153 197 243 289 347
#     4  10  19  35  59  86 122 156 189 239 291 343
#     4  11  22  38  62  88 119 156 195 241 289 345
#     4  10  21  38  60  88 119 150 192 244 290 336
#     4  10  22  40  59  86 123 158 194 240 292 346
#     4  11  23  38  59  87 121 157 195 240 293 349
#
# _framework density 18.794198999999999
#
# number of rings (size 3 to 8) (size 9 to 14) (size 15 to 20)
#    0.000    1.333    3.333    3.000    0.000    3.333 
#    0.000    0.833    0.000    0.000    0.000    0.000 
#    0.000    0.000    0.000    0.000    0.000    0.000 
#
# Total GULP energy -297750.909359 kJ/mol
# GULP energy per Si atom -12406.287890 kJ/mol
# Density = 1.875142 g / cm^3
# Si number density = 18.794199 Si / 1000 Ang^3
#
#
#
# Elastic Constant Matrix: (Units=GPa)
#
#
# Indices 1 2 3 4 5 6 
#
# 1 80.6067 37.2488 36.0841 0.0000 13.8064 0.0000
# 2 37.2488 96.9086 54.1809 0.0000 10.2180 0.0000
# 3 36.0841 54.1809 124.3638 0.0000 11.2073 0.0000
# 4 0.0000 0.0000 0.0000 34.8762 0.0000 2.7628
# 5 13.8064 10.2180 11.2073 0.0000 30.6541 0.0000
# 6 0.0000 0.0000 0.0000 2.7628 0.0000 31.4942
#
#
#
# Elastic Compliance Matrix: (Units=1/GPa)
#
#
# Indices 1 2 3 4 5 6 
#
# 1 0.016379 -0.004444 -0.002363 0.000000 -0.005032 0.000000
# 2 -0.004444 0.015029 -0.005157 0.000000 -0.001123 0.000000
# 3 -0.002363 -0.005157 0.011088 0.000000 -0.001271 0.000000
# 4 0.000000 0.000000 0.000000 0.028874 0.000000 -0.002533
# 5 -0.005032 -0.001123 -0.001271 0.000000 0.035727 0.000000
# 6 0.000000 0.000000 0.000000 -0.002533 0.000000 0.031974
#
#
# Mechanical properties :
#
#
# Convention : Reuss Voigt Hill
#
# Bulk Modulus (GPa) = 53.85611 61.87853 57.86732
# Shear Modulus (GPa) = 29.55308 31.02923 30.29116
#
# Velocity S-wave (km/s) = 3.96972 4.06766 4.01899
# Velocity P-wave (km/s) = 7.05192 7.42003 7.23832
#
# Compressibility (1/GPa) = 0.01856800
#
# Stress axis : x y z
#
# Youngs Moduli (GPa) = 61.05333 66.53935 90.19030
#
# Poissons Ratio (x) = 0.29570 0.21310
# Poissons Ratio (y) = 0.27132 0.46510
# Poissons Ratio (z) = 0.14426 0.34313
#
# Static dielectric constant tensor:
#      x y z
#    x 3.474500 0.000000 0.077340 
#    y 0.000000 3.528630 0.000000 
#    z 0.077340 0.000000 3.568300 
# 
# 
# High freq. dielectric constant tensor:
#      x y z
#    x 1.730840 0.000000 0.004500 
#    y 0.000000 1.732480 0.000000 
#    z 0.004500 0.000000 1.730640 
# 
# From -- ./inp_files/33683.got.cif
#   From: 2010.06.25/outbox.cif.g09.slc.cpg/sg11_17_cif.got.tgz:33683.got - 2010.06.27 23:14:04.
