data_PCOD8072852
_publ_section_title
;
Structure prediction by ZEFSAII (Michael W. Deem and Ramdas Pophale) SiO2 
 PCOD8072852
Probable space group: P 21/M
;
_chemical_formula_sum "Si O2"
_cell_formula_units_Z 32
_cell_length_a 14.418949
_cell_length_b 8.856274
_cell_length_c 26.177999
_cell_angle_alpha 90.000000
_cell_angle_beta 145.130085
_cell_angle_gamma 90.000000
_cell_volume 1911.176496
_symmetry_space_group_name_H-M "P 21/M"
_symmetry_group_IT_number 11
_symmetry_cell_setting 'monoclinic'
loop_
_space_group_symop_operation_xyz
x,y,z
-x,1/2+y,-z
-x,-y,-z
x,1/2-y,z
loop_
_atom_site_type_symbol
_atom_site_label
_atom_site_fract_x
_atom_site_fract_y
_atom_site_fract_z
Si Si1 0.719589 0.078597 0.765207
Si Si2 0.421829 0.572787 0.914320
Si Si3 0.430917 0.075526 0.394857
Si Si4 0.248914 0.924439 0.404623
Si Si5 0.664469 0.072935 0.953473
Si Si6 0.051353 0.573750 0.757568
Si Si7 0.176943 0.928108 0.079099
Si Si8 0.054532 0.421655 0.862785
O O1 0.658189 0.250000 0.730727
O O2 0.716501 0.027546 0.823052
O O3 0.906907 0.063938 0.834720
O O4 0.604445 0.971724 0.679547
O O5 0.448529 0.750000 0.931033
O O6 0.502322 0.511374 0.898688
O O7 0.232685 0.530547 0.822895
O O8 0.500000 0.500000 0.000000
O O9 0.384566 0.250000 0.382195
O O10 0.621389 0.047895 0.491654
O O11 0.324218 0.975812 0.384658
O O12 0.202431 0.750000 0.378615
O O13 0.085815 0.019805 0.345100
O O14 0.630849 0.250000 0.938745
O O15 0.719063 0.014321 0.922398
O O16 0.803867 0.034556 0.056875
O O17 0.035686 0.750000 0.761663
O O18 0.996884 0.477196 0.781863
O O19 0.149180 0.750000 0.063698
O O20 0.000000 0.000000 0.000000
O O21 0.120113 0.250000 0.890331
#
# Coordination Sequence:
#
# PCOD8072852 Si02
#       8
#     4   4   4   4   4   4   4   4
#     4  10  20  33  49  72 101 135 171 204 247 296
#     4  11  23  36  52  73 100 133 172 211 252 300
#     4  10  20  32  49  73 101 132 167 204 245 297
#     4  10  20  33  49  72 101 133 165 202 250 300
#     4  11  22  35  51  72 101 135 173 213 252 294
#     4  11  22  34  50  73  99 132 172 209 248 296
#     4  10  21  35  51  73 100 133 172 210 248 297
#     4  11  20  30  49  72 101 137 171 206 247 293
#
# _framework density 16.743611999999999
#
# number of rings (size 3 to 8) (size 9 to 14) (size 15 to 20)
#    0.000    1.500    3.750    2.250    0.000    4.500 
#    0.000    0.000    0.000    0.000    0.000    0.875 
#    0.000    0.000    0.000    0.000    0.000    0.000 
#
# Total GULP energy -396807.347663 kJ/mol
# GULP energy per Si atom -12400.229614 kJ/mol
# Density = 1.670550 g / cm^3
# Si number density = 16.743612 Si / 1000 Ang^3
#
#
#
# Elastic Constant Matrix: (Units=GPa)
#
#
# Indices 1 2 3 4 5 6 
#
# 1 88.1094 39.5902 44.6975 0.0000 4.6144 0.0000
# 2 39.5902 69.6724 41.3638 0.0000 7.6180 0.0000
# 3 44.6975 41.3638 107.3173 0.0000 8.1295 0.0000
# 4 0.0000 0.0000 0.0000 29.9951 0.0000 1.8937
# 5 4.6144 7.6180 8.1295 0.0000 23.4076 0.0000
# 6 0.0000 0.0000 0.0000 1.8937 0.0000 23.1228
#
#
#
# Elastic Compliance Matrix: (Units=1/GPa)
#
#
# Indices 1 2 3 4 5 6 
#
# 1 0.016620 -0.006957 -0.004277 0.000000 0.000473 0.000000
# 2 -0.006957 0.021835 -0.005221 0.000000 -0.003921 0.000000
# 3 -0.004277 -0.005221 0.013268 0.000000 -0.002066 0.000000
# 4 0.000000 0.000000 0.000000 0.033512 0.000000 -0.002745
# 5 0.000473 -0.003921 -0.002066 0.000000 0.044621 0.000000
# 6 0.000000 0.000000 0.000000 -0.002745 0.000000 0.043472
#
#
# Mechanical properties :
#
#
# Convention : Reuss Voigt Hill
#
# Bulk Modulus (GPa) = 53.15326 57.37801 55.26563
# Shear Modulus (GPa) = 23.52835 24.60161 24.06498
#
# Velocity S-wave (km/s) = 3.75268 3.83732 3.79524
# Velocity P-wave (km/s) = 7.11275 7.34686 7.23075
#
# Compressibility (1/GPa) = 0.01881352
#
# Stress axis : x y z
#
# Youngs Moduli (GPa) = 60.16762 45.79899 75.36728
#
# Poissons Ratio (x) = 0.31862 0.32233
# Poissons Ratio (y) = 0.41858 0.39351
# Poissons Ratio (z) = 0.25732 0.23913
#
# Static dielectric constant tensor:
#      x y z
#    x 3.121600 0.000000 0.012180 
#    y 0.000000 3.207110 0.000000 
#    z 0.012180 0.000000 3.206620 
# 
# 
# High freq. dielectric constant tensor:
#      x y z
#    x 1.615300 0.000000 0.003450 
#    y 0.000000 1.657940 0.000000 
#    z 0.003450 0.000000 1.641130 
# 
# From -- ./inp_files/71630.got.cif
#   From: 2010.06.25/outbox.cif.g09.slc.cpg/sg11_36_cif.got.tgz:71630.got - 2010.06.27 23:14:04.
