data_PCOD8072074
_publ_section_title
;
Structure prediction by ZEFSAII (Michael W. Deem and Ramdas Pophale) SiO2 
 PCOD8072074
Probable space group: P 21/M
;
_chemical_formula_sum "Si O2"
_cell_formula_units_Z 28
_cell_length_a 9.572915
_cell_length_b 14.613507
_cell_length_c 11.989337
_cell_angle_alpha 90.000000
_cell_angle_beta 56.513983
_cell_angle_gamma 90.000000
_cell_volume 1398.848065
_symmetry_space_group_name_H-M "P 21/M"
_symmetry_group_IT_number 11
_symmetry_cell_setting 'monoclinic'
loop_
_space_group_symop_operation_xyz
x,y,z
-x,1/2+y,-z
-x,-y,-z
x,1/2-y,z
loop_
_atom_site_type_symbol
_atom_site_label
_atom_site_fract_x
_atom_site_fract_y
_atom_site_fract_z
Si Si1 0.650456 0.650166 0.683550
Si Si2 0.823507 0.044793 0.050955
Si Si3 0.333044 0.852285 0.433492
Si Si4 0.219350 0.642238 0.154453
Si Si5 0.011122 0.603079 0.455662
Si Si6 0.476791 0.532897 0.175232
Si Si7 0.661262 0.146675 0.322290
O O1 0.621515 0.750000 0.754883
O O2 0.834201 0.649936 0.551038
O O3 0.607981 0.568721 0.788706
O O4 0.530439 0.641079 0.630298
O O5 0.776491 0.091595 0.187174
O O6 0.678607 0.972917 0.076002
O O7 0.836967 0.119258 0.946264
O O8 0.000000 0.000000 0.000000
O O9 0.412221 0.750000 0.399904
O O10 0.441205 0.918865 0.308758
O O11 0.328724 0.896140 0.558589
O O12 0.144708 0.843896 0.471909
O O13 0.252257 0.750000 0.151612
O O14 0.393313 0.589993 0.110873
O O15 0.069361 0.609613 0.301355
O O16 0.000000 0.500000 0.500000
O O17 0.729851 0.250000 0.295799
#
# Coordination Sequence:
#
# PCOD8072074 Si02
#       7
#     4   4   4   4   4   4   4
#     4  10  19  34  57  87 119 152 192 246 306 363
#     4  11  25  39  60  87 125 166 209 252 306 366
#     4  10  20  37  62  90 121 155 197 255 309 360
#     4  11  23  42  64  87 125 169 207 251 305 370
#     4  11  20  35  59  92 122 149 198 254 308 356
#     4  10  21  40  61  90 117 158 210 254 305 363
#     4   9  21  39  58  83 119 158 199 246 304 364
#
# _framework density 20.016469000000001
#
# number of rings (size 3 to 8) (size 9 to 14) (size 15 to 20)
#    0.000    1.714    2.857    3.429    2.000    4.000 
#    0.000    4.286    0.000    0.857    0.000    0.000 
#    0.000    0.000    0.000    0.000    0.000    0.000 
#
# Total GULP energy -347119.657548 kJ/mol
# GULP energy per Si atom -12397.130627 kJ/mol
# Density = 1.997091 g / cm^3
# Si number density = 20.016469 Si / 1000 Ang^3
#
#
#
# Elastic Constant Matrix: (Units=GPa)
#
#
# Indices 1 2 3 4 5 6 
#
# 1 97.2905 34.1228 55.8056 0.0000 -16.6413 0.0000
# 2 34.1228 125.7292 39.7238 0.0000 1.6623 0.0000
# 3 55.8056 39.7238 77.2659 0.0000 6.9799 0.0000
# 4 0.0000 0.0000 0.0000 18.6699 0.0000 9.0123
# 5 -16.6413 1.6623 6.9799 0.0000 47.7046 0.0000
# 6 0.0000 0.0000 0.0000 9.0123 0.0000 28.4379
#
#
#
# Elastic Compliance Matrix: (Units=1/GPa)
#
#
# Indices 1 2 3 4 5 6 
#
# 1 0.021367 -0.000923 -0.015843 0.000000 0.009804 0.000000
# 2 -0.000923 0.009543 -0.004237 0.000000 -0.000035 0.000000
# 3 -0.015843 -0.004237 0.027412 0.000000 -0.009390 0.000000
# 4 0.000000 0.000000 0.000000 0.063236 0.000000 -0.020040
# 5 0.009804 -0.000035 -0.009390 0.000000 0.025757 0.000000
# 6 0.000000 0.000000 0.000000 -0.020040 0.000000 0.041515
#
#
# Mechanical properties :
#
#
# Convention : Reuss Voigt Hill
#
# Bulk Modulus (GPa) = 61.29050 62.17666 61.73358
# Shear Modulus (GPa) = 21.16178 30.33804 25.74991
#
# Velocity S-wave (km/s) = 3.25502 3.89736 3.59058
# Velocity P-wave (km/s) = 6.69428 7.16818 6.93528
#
# Compressibility (1/GPa) = 0.01631574
#
# Stress axis : x y z
#
# Youngs Moduli (GPa) = 46.80138 104.78808 36.48080
#
# Poissons Ratio (x) = 0.09671 0.57798
# Poissons Ratio (y) = 0.04319 0.15455
# Poissons Ratio (z) = 0.74150 0.44394
#
# Static dielectric constant tensor:
#      x y z
#    x 3.724560 0.000000 -0.037840 
#    y 0.000000 3.889560 0.000000 
#    z -0.037840 0.000000 3.752130 
# 
# 
# High freq. dielectric constant tensor:
#      x y z
#    x 1.773960 0.000000 0.002710 
#    y 0.000000 1.790510 0.000000 
#    z 0.002710 0.000000 1.777720 
# 
# From -- ./inp_files/31789.got.cif
#   From: 2010.06.25/outbox.cif.g09.slc.cpg/sg11_16_cif.got.tgz:31789.got - 2010.06.27 23:14:04.
