data_PCOD8072734
_publ_section_title
;
Structure prediction by ZEFSAII (Michael W. Deem and Ramdas Pophale) SiO2 
 PCOD8072734
Probable space group: P 21/M
;
_chemical_formula_sum "Si O2"
_cell_formula_units_Z 22
_cell_length_a 7.313058
_cell_length_b 19.738694
_cell_length_c 7.856345
_cell_angle_alpha 90.000000
_cell_angle_beta 54.616114
_cell_angle_gamma 90.000000
_cell_volume 924.592694
_symmetry_space_group_name_H-M "P 21/M"
_symmetry_group_IT_number 11
_symmetry_cell_setting 'monoclinic'
loop_
_space_group_symop_operation_xyz
x,y,z
-x,1/2+y,-z
-x,-y,-z
x,1/2-y,z
loop_
_atom_site_type_symbol
_atom_site_label
_atom_site_fract_x
_atom_site_fract_y
_atom_site_fract_z
Si Si1 0.422157 0.606433 0.882834
Si Si2 0.468249 0.607076 0.238686
Si Si3 0.135726 0.250000 0.655945
Si Si4 0.616564 0.750000 0.811725
Si Si5 0.780585 0.514395 0.510617
Si Si6 0.516405 0.750000 0.240680
Si Si7 0.934888 0.610090 0.145108
O O1 0.464425 0.685849 0.851128
O O2 0.619246 0.569706 0.679388
O O3 0.418211 0.578131 0.078832
O O4 0.176621 0.591828 0.932076
O O5 0.360861 0.555693 0.434086
O O6 0.360935 0.682434 0.318621
O O7 0.737766 0.619709 0.113301
O O8 0.172500 0.250000 0.431590
O O9 0.363350 0.250000 0.642423
O O10 0.016156 0.178795 0.770649
O O11 0.677507 0.750000 0.981720
O O12 0.858065 0.544278 0.290996
O O13 0.000000 0.500000 0.500000
#
# Coordination Sequence:
#
# PCOD8072734 Si02
#       7
#     4   4   2   2   4   2   4
#     4  11  23  43  65  95 131 170 217 271 329 393
#     4  10  22  42  64  93 129 167 217 270 330 391
#     4  10  19  41  69  98 129 172 227 267 332 405
#     4  10  19  39  69  95 129 175 216 271 338 388
#     4  12  24  42  64  96 132 172 223 267 326 403
#     4   8  20  38  66  95 130 167 219 278 326 397
#     4  11  23  42  68  92 130 173 211 277 330 386
#
# _framework density 23.794260000000001
#
# number of rings (size 3 to 8) (size 9 to 14) (size 15 to 20)
#    0.000    1.455    3.636    1.636    0.000    0.727 
#    3.273    0.909    0.000    6.545    0.000    0.000 
#    0.000    0.000    0.000    0.000    0.000    0.000 
#
# Total GULP energy -272596.939080 kJ/mol
# GULP energy per Si atom -12390.769958 kJ/mol
# Density = 2.374010 g / cm^3
# Si number density = 23.794260 Si / 1000 Ang^3
#
#
#
# Elastic Constant Matrix: (Units=GPa)
#
#
# Indices 1 2 3 4 5 6 
#
# 1 82.2512 19.8342 14.0131 0.0000 -29.0743 0.0000
# 2 19.8342 133.4189 26.3160 0.0000 -14.8396 0.0000
# 3 14.0131 26.3160 64.3210 0.0000 -22.0709 0.0000
# 4 0.0000 0.0000 0.0000 22.7340 0.0000 4.4245
# 5 -29.0743 -14.8396 -22.0709 0.0000 41.5433 0.0000
# 6 0.0000 0.0000 0.0000 4.4245 0.0000 24.1208
#
#
#
# Elastic Compliance Matrix: (Units=1/GPa)
#
#
# Indices 1 2 3 4 5 6 
#
# 1 0.016380 -0.001340 0.000916 0.000000 0.011472 0.000000
# 2 -0.001340 0.008329 -0.002956 0.000000 0.000467 0.000000
# 3 0.000916 -0.002956 0.020074 0.000000 0.010250 0.000000
# 4 0.000000 0.000000 0.000000 0.045616 0.000000 -0.008367
# 5 0.011472 0.000467 0.010250 0.000000 0.037712 0.000000
# 6 0.000000 0.000000 0.000000 -0.008367 0.000000 0.042993
#
#
# Mechanical properties :
#
#
# Convention : Reuss Voigt Hill
#
# Bulk Modulus (GPa) = 26.29895 44.47974 35.38935
# Shear Modulus (GPa) = 26.24158 32.33480 29.28819
#
# Velocity S-wave (km/s) = 3.32453 3.69037 3.51221
# Velocity P-wave (km/s) = 5.08068 6.07392 5.59936
#
# Compressibility (1/GPa) = 0.03802434
#
# Stress axis : x y z
#
# Youngs Moduli (GPa) = 61.05035 120.05790 49.81608
#
# Poissons Ratio (x) = 0.16085 -0.04563
# Poissons Ratio (y) = 0.08179 0.14723
# Poissons Ratio (z) = -0.05592 0.35483
#
# Static dielectric constant tensor:
#      x y z
#    x 4.180720 0.000000 -0.033140 
#    y 0.000000 4.840530 0.000000 
#    z -0.033140 0.000000 4.108620 
# 
# 
# High freq. dielectric constant tensor:
#      x y z
#    x 1.931410 0.000000 -0.001870 
#    y 0.000000 1.972630 0.000000 
#    z -0.001870 0.000000 1.912970 
# 
# From -- ./inp_files/2452.got.cif
#   From: 2010.06.25/outbox.cif.g09.slc.cpg/sg11_2_cif.got.tgz:2452.got - 2010.06.27 23:14:04.
