data_PCOD8072800
_publ_section_title
;
Structure prediction by ZEFSAII (Michael W. Deem and Ramdas Pophale) SiO2 
 PCOD8072800
Probable space group: P 21/M
;
_chemical_formula_sum "Si O2"
_cell_formula_units_Z 24
_cell_length_a 16.188685
_cell_length_b 9.499761
_cell_length_c 8.366967
_cell_angle_alpha 90.000000
_cell_angle_beta 104.976303
_cell_angle_gamma 90.000000
_cell_volume 1243.037342
_symmetry_space_group_name_H-M "P 21/M"
_symmetry_group_IT_number 11
_symmetry_cell_setting 'monoclinic'
loop_
_space_group_symop_operation_xyz
x,y,z
-x,1/2+y,-z
-x,-y,-z
x,1/2-y,z
loop_
_atom_site_type_symbol
_atom_site_label
_atom_site_fract_x
_atom_site_fract_y
_atom_site_fract_z
Si Si1 0.264756 0.908402 0.942335
Si Si2 0.075993 0.907556 0.847876
Si Si3 0.264757 0.908402 0.322422
Si Si4 0.924007 0.092444 0.771883
Si Si5 0.421169 0.409688 0.020743
Si Si6 0.421169 0.090312 0.400425
O O1 0.283492 0.750000 0.887711
O O2 0.268241 0.905521 0.134120
O O3 0.334969 0.017045 0.909871
O O4 0.170252 0.959233 0.838757
O O5 0.061201 0.750000 0.779113
O O6 0.071494 0.913813 0.035747
O O7 1.000000 0.000000 0.733198
O O8 0.283492 0.750000 0.395781
O O9 0.170252 0.959232 0.331495
O O10 0.334969 0.017045 0.425098
O O11 0.938799 0.250000 0.717913
O O12 0.426384 0.250000 0.956779
O O13 0.420815 0.408658 0.210407
O O14 0.500000 0.500000 0.000000
O O15 0.426384 0.250000 0.469604
O O16 0.500000 0.000000 0.500000
#
# Coordination Sequence:
#
# PCOD8072800 Si02
#       6
#     4   4   4   4   4   4
#     4   8  14  25  39  55  79 111 143 176 216 258
#     4   8  13  20  31  49  74 105 138 170 207 251
#     4   8  14  25  39  55  79 111 143 176 216 258
#     4   8  13  20  31  49  74 105 138 170 207 251
#     4  10  20  32  47  67  89 116 150 185 223 266
#     4  10  20  32  47  67  89 116 150 185 223 266
#
# _framework density 19.307545000000001
#
# number of rings (size 3 to 8) (size 9 to 14) (size 15 to 20)
#    0.000    3.333    0.000    3.000    0.000    3.333 
#    0.000    6.667    0.000    0.000    0.000    0.000 
#    0.000    1.333    0.000    4.333    0.000    8.667 
#
# Total GULP energy -297385.689072 kJ/mol
# GULP energy per Si atom -12391.070378 kJ/mol
# Density = 1.926360 g / cm^3
# Si number density = 19.307545 Si / 1000 Ang^3
#
#
#
# Elastic Constant Matrix: (Units=GPa)
#
#
# Indices 1 2 3 4 5 6 
#
# 1 172.2639 111.4790 22.2005 0.0000 54.6209 0.0000
# 2 111.4790 159.5308 22.2351 0.0000 41.2164 0.0000
# 3 22.2005 22.2351 15.1307 0.0000 17.9495 0.0000
# 4 0.0000 0.0000 0.0000 16.5130 0.0000 12.5628
# 5 54.6209 41.2164 17.9495 0.0000 32.8340 0.0000
# 6 0.0000 0.0000 0.0000 12.5628 0.0000 43.7145
#
#
#
# Elastic Compliance Matrix: (Units=1/GPa)
#
#
# Indices 1 2 3 4 5 6 
#
# 1 0.018650 -0.007352 0.026449 0.000000 -0.036255 0.000000
# 2 -0.007352 0.012177 -0.009908 0.000000 0.002362 0.000000
# 3 0.026449 -0.009908 0.225574 0.000000 -0.154877 0.000000
# 4 0.000000 0.000000 0.000000 0.077503 0.000000 -0.022273
# 5 -0.036255 0.002362 -0.154877 0.000000 0.172472 0.000000
# 6 0.000000 0.000000 0.000000 -0.022273 0.000000 0.029277
#
#
# Mechanical properties :
#
#
# Convention : Reuss Voigt Hill
#
# Bulk Modulus (GPa) = 3.63929 73.19496 38.41713
# Shear Modulus (GPa) = 8.21197 31.34634 19.77916
#
# Velocity S-wave (km/s) = 2.06458 4.03367 3.20414
# Velocity P-wave (km/s) = 2.75178 7.72570 5.79908
#
# Compressibility (1/GPa) = 0.27477870
#
# Stress axis : x y z
#
# Youngs Moduli (GPa) = 53.61995 82.12382 4.43313
#
# Poissons Ratio (x) = 0.60377 -0.11725
# Poissons Ratio (y) = 0.39421 0.04393
# Poissons Ratio (z) = -1.41821 0.81372
#
# Static dielectric constant tensor:
#      x y z
#    x 3.896180 0.000000 0.431070 
#    y 0.000000 4.308790 0.000000 
#    z 0.431070 0.000000 2.962800 
# 
# 
# High freq. dielectric constant tensor:
#      x y z
#    x 1.758910 0.000000 0.032660 
#    y 0.000000 1.751180 0.000000 
#    z 0.032660 0.000000 1.688200 
# 
# From -- ./inp_files/37235.got.cif
#   From: 2010.06.25/outbox.cif.g09.slc.cpg/sg11_19_cif.got.tgz:37235.got - 2010.06.27 23:14:04.
