data_PCOD8072758
_publ_section_title
;
Structure prediction by ZEFSAII (Michael W. Deem and Ramdas Pophale) SiO2 
 PCOD8072758
Probable space group: P 21/M
;
_chemical_formula_sum "Si O2"
_cell_formula_units_Z 32
_cell_length_a 26.769996
_cell_length_b 8.991951
_cell_length_c 21.056121
_cell_angle_alpha 90.000000
_cell_angle_beta 19.463354
_cell_angle_gamma 90.000000
_cell_volume 1688.848375
_symmetry_space_group_name_H-M "P 21/M"
_symmetry_group_IT_number 11
_symmetry_cell_setting 'monoclinic'
loop_
_space_group_symop_operation_xyz
x,y,z
-x,1/2+y,-z
-x,-y,-z
x,1/2-y,z
loop_
_atom_site_type_symbol
_atom_site_label
_atom_site_fract_x
_atom_site_fract_y
_atom_site_fract_z
Si Si1 0.063684 0.072130 0.360700
Si Si2 0.153072 0.913856 0.857913
Si Si3 0.727821 0.079816 0.057915
Si Si4 0.370873 0.578878 0.961559
Si Si5 0.045001 0.427951 0.633546
Si Si6 0.175170 0.425962 0.713702
Si Si7 0.707157 0.926421 0.562862
Si Si8 0.392110 0.912823 0.673321
O O1 0.053988 0.250000 0.374100
O O2 0.957655 0.009185 0.431434
O O3 0.000000 0.000000 0.500000
O O4 0.238621 0.024323 0.146774
O O5 0.127795 0.750000 0.859132
O O6 0.235818 0.902420 0.825027
O O7 0.250168 0.007594 0.688444
O O8 0.994276 0.983626 0.070555
O O9 0.750546 0.250000 0.051300
O O10 0.625507 0.065446 0.118729
O O11 0.893920 0.014378 0.848942
O O12 0.640131 0.001873 0.221204
O O13 0.339965 0.750000 0.019160
O O14 0.536501 0.524189 0.784804
O O15 0.043492 0.250000 0.624079
O O16 0.185456 0.480601 0.508238
O O17 0.192761 0.250000 0.691381
O O18 0.239544 0.491133 0.569721
O O19 0.714940 0.750000 0.549196
O O20 0.462109 0.750000 0.601660
O O21 0.500000 0.000000 0.500000
#
# Coordination Sequence:
#
# PCOD8072758 Si02
#       8
#     4   4   4   4   4   4   4   4
#     4  11  22  39  62  87 113 145 179 210 251 309
#     4   9  18  31  43  64  97 131 173 222 275 320
#     4   8  15  29  50  70  97 137 179 221 267 317
#     4   9  18  34  56  84 112 140 177 222 269 320
#     4   9  17  34  59  85 109 138 177 222 266 313
#     4   9  17  30  51  72  93 130 176 218 262 321
#     4   9  17  30  55  85 108 135 179 226 268 317
#     4  10  20  31  44  64  94 133 176 224 272 316
#
# _framework density 18.947823
#
# number of rings (size 3 to 8) (size 9 to 14) (size 15 to 20)
#    0.000    2.750    0.000    2.625    1.750    3.500 
#    0.000    5.000    0.000    4.500    0.000    0.000 
#    0.000    0.000    0.000    0.000    0.000    0.000 
#
# Total GULP energy -396425.405109 kJ/mol
# GULP energy per Si atom -12388.293910 kJ/mol
# Density = 1.890470 g / cm^3
# Si number density = 18.947823 Si / 1000 Ang^3
#
#
#
# Elastic Constant Matrix: (Units=GPa)
#
#
# Indices 1 2 3 4 5 6 
#
# 1 106.4315 33.3127 65.1355 0.0000 14.2474 0.0000
# 2 33.3127 59.7452 32.9612 0.0000 10.4152 0.0000
# 3 65.1355 32.9612 97.6931 0.0000 9.0557 0.0000
# 4 0.0000 0.0000 0.0000 23.4339 0.0000 3.3352
# 5 14.2474 10.4152 9.0557 0.0000 38.7026 0.0000
# 6 0.0000 0.0000 0.0000 3.3352 0.0000 24.2135
#
#
#
# Elastic Compliance Matrix: (Units=1/GPa)
#
#
# Indices 1 2 3 4 5 6 
#
# 1 0.016888 -0.003486 -0.009807 0.000000 -0.002984 0.000000
# 2 -0.003486 0.021909 -0.004743 0.000000 -0.003503 0.000000
# 3 -0.009807 -0.004743 0.018320 0.000000 0.000600 0.000000
# 4 0.000000 0.000000 0.000000 0.043526 0.000000 -0.005995
# 5 -0.002984 -0.003503 0.000600 0.000000 0.027739 0.000000
# 6 0.000000 0.000000 0.000000 -0.005995 0.000000 0.042125
#
#
# Mechanical properties :
#
#
# Convention : Reuss Voigt Hill
#
# Bulk Modulus (GPa) = 47.51870 58.52096 53.01983
# Shear Modulus (GPa) = 23.40888 26.10070 24.75479
#
# Velocity S-wave (km/s) = 3.51869 3.71550 3.61844
# Velocity P-wave (km/s) = 6.45302 7.02559 6.74538
#
# Compressibility (1/GPa) = 0.02104434
#
# Stress axis : x y z
#
# Youngs Moduli (GPa) = 59.21289 45.64393 54.58595
#
# Poissons Ratio (x) = 0.15910 0.53534
# Poissons Ratio (y) = 0.20639 0.25891
# Poissons Ratio (z) = 0.58072 0.21650
#
# Static dielectric constant tensor:
#      x y z
#    x 5.248270 0.000000 -0.449430 
#    y 0.000000 3.150600 0.000000 
#    z -0.449430 0.000000 3.622810 
# 
# 
# High freq. dielectric constant tensor:
#      x y z
#    x 1.739960 0.000000 -0.001300 
#    y 0.000000 1.695230 0.000000 
#    z -0.001300 0.000000 1.733860 
# 
# From -- ./inp_files/67046.got.cif
#   From: 2010.06.25/outbox.cif.g09.slc.cpg/sg11_34_cif.got.tgz:67046.got - 2010.06.27 23:14:04.
