data_PCOD8072680
_publ_section_title
;
Structure prediction by ZEFSAII (Michael W. Deem and Ramdas Pophale) SiO2 
 PCOD8072680
Probable space group: P 21/M
;
_chemical_formula_sum "Si O2"
_cell_formula_units_Z 28
_cell_length_a 5.181629
_cell_length_b 14.215668
_cell_length_c 18.546228
_cell_angle_alpha 90.000000
_cell_angle_beta 102.605197
_cell_angle_gamma 90.000000
_cell_volume 1333.193389
_symmetry_space_group_name_H-M "P 21/M"
_symmetry_group_IT_number 11
_symmetry_cell_setting 'monoclinic'
loop_
_space_group_symop_operation_xyz
x,y,z
-x,1/2+y,-z
-x,-y,-z
x,1/2-y,z
loop_
_atom_site_type_symbol
_atom_site_label
_atom_site_fract_x
_atom_site_fract_y
_atom_site_fract_z
Si Si1 0.005574 0.983242 0.737050
Si Si2 0.375485 0.639845 0.038711
Si Si3 0.839161 0.856309 0.509227
Si Si4 0.407210 0.505590 0.171900
Si Si5 0.212847 0.503388 0.604837
Si Si6 0.367502 0.146937 0.347649
Si Si7 0.801755 0.639833 0.947846
O O1 0.290490 0.982061 0.791332
O O2 0.021381 0.032628 0.658154
O O3 0.784027 0.034536 0.772954
O O4 0.906472 0.876359 0.711251
O O5 0.390402 0.750000 0.053889
O O6 0.409352 0.592404 0.117782
O O7 0.608245 0.606015 0.999964
O O8 0.097870 0.610400 0.986604
O O9 0.917229 0.750000 0.490127
O O10 0.653852 0.852165 0.567285
O O11 0.097036 0.917889 0.543302
O O12 0.693285 0.911769 0.434635
O O13 0.277500 0.412371 0.130023
O O14 0.444093 0.559511 0.661373
O O15 0.468850 0.250000 0.328460
O O16 0.773807 0.750000 0.931486
#
# Coordination Sequence:
#
# PCOD8072680 Si02
#       7
#     4   4   4   4   4   4   4
#     4  11  24  38  57  85 123 162 199 233 291 361
#     4  10  21  39  62  87 115 151 199 249 293 344
#     4   9  19  34  61  91 112 153 205 255 302 344
#     4  12  22  39  61  86 120 160 196 236 296 354
#     4  10  19  38  58  84 125 156 197 250 297 354
#     4  10  20  37  60  86 119 157 199 242 300 357
#     4  10  21  37  60  90 117 146 194 250 298 342
#
# _framework density 21.002206000000001
#
# number of rings (size 3 to 8) (size 9 to 14) (size 15 to 20)
#    0.000    1.714    1.429    3.429    0.000    1.714 
#    0.000    1.429    0.000    0.857    0.000    0.000 
#    0.000    0.000    0.000    0.000    0.000    0.000 
#
# Total GULP energy -346984.871833 kJ/mol
# GULP energy per Si atom -12392.316851 kJ/mol
# Density = 2.095440 g / cm^3
# Si number density = 21.002206 Si / 1000 Ang^3
#
#
#
# Elastic Constant Matrix: (Units=GPa)
#
#
# Indices 1 2 3 4 5 6 
#
# 1 105.0864 14.5799 20.6275 0.0000 7.6330 0.0000
# 2 14.5799 60.9710 14.0727 0.0000 7.1802 0.0000
# 3 20.6275 14.0727 51.6192 0.0000 11.6417 0.0000
# 4 0.0000 0.0000 0.0000 21.8348 0.0000 0.7583
# 5 7.6330 7.1802 11.6417 0.0000 35.1938 0.0000
# 6 0.0000 0.0000 0.0000 0.7583 0.0000 23.0664
#
#
#
# Elastic Compliance Matrix: (Units=1/GPa)
#
#
# Indices 1 2 3 4 5 6 
#
# 1 0.010497 -0.001592 -0.003588 0.000000 -0.000765 0.000000
# 2 -0.001592 0.017896 -0.003779 0.000000 -0.002056 0.000000
# 3 -0.003588 -0.003779 0.023220 0.000000 -0.006132 0.000000
# 4 0.000000 0.000000 0.000000 0.045851 0.000000 -0.001507
# 5 -0.000765 -0.002056 -0.006132 0.000000 0.031028 0.000000
# 6 0.000000 0.000000 0.000000 -0.001507 0.000000 0.043403
#
#
# Mechanical properties :
#
#
# Convention : Reuss Voigt Hill
#
# Bulk Modulus (GPa) = 29.67857 35.13740 32.40799
# Shear Modulus (GPa) = 24.87024 27.24542 26.05783
#
# Velocity S-wave (km/s) = 3.44491 3.60566 3.52621
# Velocity P-wave (km/s) = 5.47586 5.83961 5.66066
#
# Compressibility (1/GPa) = 0.03369435
#
# Stress axis : x y z
#
# Youngs Moduli (GPa) = 95.26804 55.87758 43.06698
#
# Poissons Ratio (x) = 0.08895 0.15453
# Poissons Ratio (y) = 0.15165 0.16276
# Poissons Ratio (z) = 0.34183 0.21117
#
# Static dielectric constant tensor:
#      x y z
#    x 3.948110 0.000000 -0.055060 
#    y 0.000000 3.746330 0.000000 
#    z -0.055060 0.000000 3.881240 
# 
# 
# High freq. dielectric constant tensor:
#      x y z
#    x 1.828580 0.000000 -0.004910 
#    y 0.000000 1.802230 0.000000 
#    z -0.004910 0.000000 1.825070 
# 
# From -- ./inp_files/56958.got.cif
#   From: 2010.06.25/outbox.cif.g09.slc.cpg/sg11_29_cif.got.tgz:56958.got - 2010.06.27 23:14:04.
