data_PCOD8072720
_publ_section_title
;
Structure prediction by ZEFSAII (Michael W. Deem and Ramdas Pophale) SiO2 
 PCOD8072720
Probable space group: P 21/M
;
_chemical_formula_sum "Si O2"
_cell_formula_units_Z 24
_cell_length_a 11.120135
_cell_length_b 13.817978
_cell_length_c 20.774290
_cell_angle_alpha 90.000000
_cell_angle_beta 157.533446
_cell_angle_gamma 90.000000
_cell_volume 1219.854012
_symmetry_space_group_name_H-M "P 21/M"
_symmetry_group_IT_number 11
_symmetry_cell_setting 'monoclinic'
loop_
_space_group_symop_operation_xyz
x,y,z
-x,1/2+y,-z
-x,-y,-z
x,1/2-y,z
loop_
_atom_site_type_symbol
_atom_site_label
_atom_site_fract_x
_atom_site_fract_y
_atom_site_fract_z
Si Si1 0.672279 0.142330 0.736391
Si Si2 0.609741 0.893920 0.541263
Si Si3 0.337592 0.529165 0.639835
Si Si4 0.175868 0.644205 0.435023
Si Si5 0.760406 0.471351 0.179292
Si Si6 0.606851 0.863935 0.892229
O O1 0.637081 0.250000 0.748466
O O2 0.513304 0.142470 0.588038
O O3 0.507801 0.069834 0.704227
O O4 0.038132 0.115708 0.909730
O O5 0.462244 0.833500 0.526742
O O6 0.989948 0.896533 0.729077
O O7 0.500000 0.000000 0.500000
O O8 0.316661 0.599832 0.569110
O O9 0.549616 0.586499 0.795390
O O10 0.000000 0.500000 0.500000
O O11 0.023335 0.750000 0.373681
O O12 0.915798 0.572057 0.278247
O O13 0.622145 0.415255 0.171192
O O14 0.500000 0.500000 0.000000
O O15 0.529999 0.750000 0.850706
#
# Coordination Sequence:
#
# PCOD8072720 Si02
#       6
#     4   4   4   4   4   4
#     4  11  23  41  68  94 125 168 212 259 317 380
#     4  10  19  39  62  91 123 160 209 258 316 368
#     4  12  23  43  64  92 127 170 211 265 310 374
#     4  11  23  41  64  92 129 168 212 261 319 376
#     4  11  23  40  67  94 129 164 209 268 317 374
#     4  11  24  42  65  95 129 168 211 257 316 383
#
# _framework density 19.674485000000001
#
# number of rings (size 3 to 8) (size 9 to 14) (size 15 to 20)
#    0.000    1.000    5.000    3.500    0.000    6.000 
#    0.000    0.000    0.000    0.000    0.000    0.000 
#    0.000    0.000    0.000    0.000    0.000    0.000 
#
# Total GULP energy -297533.615125 kJ/mol
# GULP energy per Si atom -12397.233964 kJ/mol
# Density = 1.962971 g / cm^3
# Si number density = 19.674485 Si / 1000 Ang^3
#
#
#
# Elastic Constant Matrix: (Units=GPa)
#
#
# Indices 1 2 3 4 5 6 
#
# 1 126.7903 60.1924 64.8625 0.0000 3.4194 0.0000
# 2 60.1924 143.6282 44.2263 0.0000 10.8875 0.0000
# 3 64.8625 44.2263 138.2769 0.0000 -0.4993 0.0000
# 4 0.0000 0.0000 0.0000 17.4440 0.0000 11.7395
# 5 3.4194 10.8875 -0.4993 0.0000 39.3014 0.0000
# 6 0.0000 0.0000 0.0000 11.7395 0.0000 8.2480
#
#
#
# Elastic Compliance Matrix: (Units=1/GPa)
#
#
# Indices 1 2 3 4 5 6 
#
# 1 0.011856 -0.003604 -0.004409 0.000000 -0.000089 0.000000
# 2 -0.003604 0.009009 -0.001199 0.000000 -0.002197 0.000000
# 3 -0.004409 -0.001199 0.009686 0.000000 0.000839 0.000000
# 4 0.000000 0.000000 0.000000 1.360344 0.000000 -1.936189
# 5 -0.000089 -0.002197 0.000839 0.000000 0.026071 0.000000
# 6 0.000000 0.000000 0.000000 -1.936189 0.000000 2.877035
#
#
# Mechanical properties :
#
#
# Convention : Reuss Voigt Hill
#
# Bulk Modulus (GPa) = 82.45774 83.02866 82.74320
# Shear Modulus (GPa) = 1.15835 28.95964 15.05900
#
# Velocity S-wave (km/s) = 0.76814 3.84075 2.76960
# Velocity P-wave (km/s) = 6.54131 7.87155 7.23706
#
# Compressibility (1/GPa) = 0.01212742
#
# Stress axis : x y z
#
# Youngs Moduli (GPa) = 84.34518 111.00574 103.23815
#
# Poissons Ratio (x) = 0.40010 0.45517
# Poissons Ratio (y) = 0.30401 0.12373
# Poissons Ratio (z) = 0.37187 0.13304
#
# Static dielectric constant tensor:
#      x y z
#    x 4.413530 0.000000 0.550310 
#    y 0.000000 3.710660 0.000000 
#    z 0.550310 0.000000 4.046260 
# 
# 
# High freq. dielectric constant tensor:
#      x y z
#    x 1.775050 0.000000 0.001290 
#    y 0.000000 1.782820 0.000000 
#    z 0.001290 0.000000 1.767460 
# 
# From -- ./inp_files/64829.got.cif
#   From: 2010.06.25/outbox.cif.g09.slc.cpg/sg11_33_cif.got.tgz:64829.got - 2010.06.27 23:14:04.
