data_PCOD8072895
_publ_section_title
;
Structure prediction by ZEFSAII (Michael W. Deem and Ramdas Pophale) SiO2 
 PCOD8072895
Probable space group: P 21/M
;
_chemical_formula_sum "Si O2"
_cell_formula_units_Z 32
_cell_length_a 14.473227
_cell_length_b 29.590882
_cell_length_c 8.887558
_cell_angle_alpha 90.000000
_cell_angle_beta 28.554437
_cell_angle_gamma 90.000000
_cell_volume 1819.398091
_symmetry_space_group_name_H-M "P 21/M"
_symmetry_group_IT_number 11
_symmetry_cell_setting 'monoclinic'
loop_
_space_group_symop_operation_xyz
x,y,z
-x,1/2+y,-z
-x,-y,-z
x,1/2-y,z
loop_
_atom_site_type_symbol
_atom_site_label
_atom_site_fract_x
_atom_site_fract_y
_atom_site_fract_z
Si Si1 0.808077 0.416761 0.435534
Si Si2 0.253689 0.909761 0.146223
Si Si3 0.288966 0.802980 0.697632
Si Si4 0.719348 0.003370 0.734912
Si Si5 0.538944 0.856086 0.546633
Si Si6 0.137368 0.403148 0.451719
Si Si7 0.464346 0.125318 0.776070
Si Si8 0.920480 0.859701 0.155507
O O1 0.779915 0.390407 0.636078
O O2 0.837437 0.470193 0.432090
O O3 0.609587 0.413353 0.625030
O O4 0.985959 0.396559 0.089516
O O5 0.081636 0.894938 0.283067
O O6 0.271408 0.964579 0.129323
O O7 0.448771 0.889214 0.799395
O O8 0.285249 0.750000 0.679052
O O9 0.386885 0.815964 0.719488
O O10 0.421413 0.826292 0.378163
O O11 0.070424 0.821645 0.996054
O O12 0.812188 0.955655 0.638647
O O13 0.500000 0.000000 0.000000
O O14 0.588012 0.884427 0.324010
O O15 0.739171 0.836503 0.328989
O O16 0.164256 0.387146 0.582783
O O17 0.273085 0.373122 0.149995
#
# Coordination Sequence:
#
# PCOD8072895 Si02
#       8
#     4   4   4   4   4   4   4   4
#     4   9  19  35  54  82 114 153 191 228 279 322
#     4  10  20  35  55  82 116 155 191 235 277 327
#     4   9  21  40  61  86 113 138 186 239 285 350
#     4  10  20  32  54  79 118 153 199 233 272 325
#     4  10  20  38  60  84 112 153 187 229 291 337
#     4  12  19  36  56  85 118 154 194 231 280 332
#     4   9  19  35  60  80 113 149 180 234 285 335
#     4  11  21  37  62  85 113 157 184 232 289 337
#
# _framework density 17.588232999999999
#
# number of rings (size 3 to 8) (size 9 to 14) (size 15 to 20)
#    1.500    0.500    2.500    2.625    0.000    1.000 
#    0.000    1.250    0.000    6.000    0.000    0.000 
#    0.000    0.000    0.000    0.000    0.000    0.000 
#
# Total GULP energy -396434.381901 kJ/mol
# GULP energy per Si atom -12388.574434 kJ/mol
# Density = 1.754820 g / cm^3
# Si number density = 17.588233 Si / 1000 Ang^3
#
#
#
# Elastic Constant Matrix: (Units=GPa)
#
#
# Indices 1 2 3 4 5 6 
#
# 1 110.1096 18.7783 42.4099 0.0000 -13.6433 0.0000
# 2 18.7783 89.9278 36.0384 0.0000 0.7377 0.0000
# 3 42.4099 36.0384 103.3961 0.0000 4.2191 0.0000
# 4 0.0000 0.0000 0.0000 16.4872 0.0000 1.8559
# 5 -13.6433 0.7377 4.2191 0.0000 44.8622 0.0000
# 6 0.0000 0.0000 0.0000 1.8559 0.0000 16.0886
#
#
#
# Elastic Compliance Matrix: (Units=1/GPa)
#
#
# Indices 1 2 3 4 5 6 
#
# 1 0.011462 -0.000555 -0.004669 0.000000 0.003934 0.000000
# 2 -0.000555 0.012954 -0.004288 0.000000 0.000022 0.000000
# 3 -0.004669 -0.004288 0.013187 0.000000 -0.002589 0.000000
# 4 0.000000 0.000000 0.000000 0.061451 0.000000 -0.007089
# 5 0.003934 0.000022 -0.002589 0.000000 0.023730 0.000000
# 6 0.000000 0.000000 0.000000 -0.007089 0.000000 0.062974
#
#
# Mechanical properties :
#
#
# Convention : Reuss Voigt Hill
#
# Bulk Modulus (GPa) = 53.82271 55.32074 54.57172
# Shear Modulus (GPa) = 23.69953 29.23472 26.46712
#
# Velocity S-wave (km/s) = 3.67477 4.08140 3.88341
# Velocity P-wave (km/s) = 6.97662 7.33021 7.15560
#
# Compressibility (1/GPa) = 0.01857952
#
# Stress axis : x y z
#
# Youngs Moduli (GPa) = 87.24438 77.19433 75.83320
#
# Poissons Ratio (x) = 0.04283 0.35403
# Poissons Ratio (y) = 0.04840 0.32521
# Poissons Ratio (z) = 0.40730 0.33105
#
# Static dielectric constant tensor:
#      x y z
#    x 3.346320 0.000000 -0.071800 
#    y 0.000000 2.949140 0.000000 
#    z -0.071800 0.000000 3.214810 
# 
# 
# High freq. dielectric constant tensor:
#      x y z
#    x 1.692240 0.000000 -0.010950 
#    y 0.000000 1.639520 0.000000 
#    z -0.010950 0.000000 1.678480 
# 
# From -- ./inp_files/23436.got.cif
#   From: 2010.06.25/outbox.cif.g09.slc.cpg/sg11_12_cif.got.tgz:23436.got - 2010.06.27 23:14:04.
