data_PCOD8072978
_publ_section_title
;
Structure prediction by ZEFSAII (Michael W. Deem and Ramdas Pophale) SiO2 
 PCOD8072978
Probable space group: P 21/M
;
_chemical_formula_sum "Si O2"
_cell_formula_units_Z 24
_cell_length_a 16.239948
_cell_length_b 9.668943
_cell_length_c 16.239942
_cell_angle_alpha 90.000000
_cell_angle_beta 147.130851
_cell_angle_gamma 90.000000
_cell_volume 1383.967068
_symmetry_space_group_name_H-M "P 21/M"
_symmetry_group_IT_number 11
_symmetry_cell_setting 'monoclinic'
loop_
_space_group_symop_operation_xyz
x,y,z
-x,1/2+y,-z
-x,-y,-z
x,1/2-y,z
loop_
_atom_site_type_symbol
_atom_site_label
_atom_site_fract_x
_atom_site_fract_y
_atom_site_fract_z
Si Si1 0.292777 0.914129 0.530230
Si Si2 0.455489 0.411757 0.384156
Si Si3 0.789232 0.096027 0.364005
Si Si4 0.135995 0.403973 0.710768
Si Si5 0.030229 0.414130 0.792776
Si Si6 0.115844 0.088243 0.044510
O O1 0.281348 0.750000 0.523237
O O2 0.440485 0.962679 0.604451
O O3 0.301316 0.965137 0.632577
O O4 0.141550 0.973636 0.358451
O O5 0.500000 0.500000 0.500000
O O6 0.482288 0.250000 0.425560
O O7 0.283419 0.443353 0.216581
O O8 0.731646 0.250000 0.293490
O O9 0.965441 0.100934 0.534559
O O10 0.760133 0.000000 0.260133
O O11 0.206509 0.250000 0.768352
O O12 0.132577 0.465137 0.801315
O O13 0.023238 0.250000 0.781348
O O14 0.104450 0.462679 0.940485
O O15 0.074440 0.250000 0.017712
O O16 0.000000 0.000000 0.000000
#
# Coordination Sequence:
#
# PCOD8072978 Si02
#       6
#     4   4   4   4   4   4
#     4   8  14  26  44  64  88 119 151 183 223 270
#     4  10  20  33  50  71  93 120 155 192 232 278
#     4   8  13  22  38  60  84 111 144 181 220 260
#     4   8  13  22  38  60  84 111 144 181 220 260
#     4   8  14  26  44  64  88 119 151 183 223 270
#     4  10  20  33  50  71  93 120 155 192 232 278
#
# _framework density 17.341452
#
# number of rings (size 3 to 8) (size 9 to 14) (size 15 to 20)
#    0.000    3.333    0.000    3.000    0.000    2.000 
#    0.000    1.667    0.000    7.000    0.000    0.000 
#    0.000    0.000    0.000    0.000    0.000    0.000 
#
# Total GULP energy -297420.755289 kJ/mol
# GULP energy per Si atom -12392.531470 kJ/mol
# Density = 1.730198 g / cm^3
# Si number density = 17.341452 Si / 1000 Ang^3
#
#
#
# Elastic Constant Matrix: (Units=GPa)
#
#
# Indices 1 2 3 4 5 6 
#
# 1 180.7374 60.9926 70.3642 0.0000 -17.6511 0.0000
# 2 60.9926 51.5633 35.8544 0.0000 -7.2568 0.0000
# 3 70.3642 35.8544 80.8791 0.0000 -11.1752 0.0000
# 4 0.0000 0.0000 0.0000 16.2787 0.0000 -4.1279
# 5 -17.6511 -7.2568 -11.1752 0.0000 26.4831 0.0000
# 6 0.0000 0.0000 0.0000 -4.1279 0.0000 30.5784
#
#
#
# Elastic Compliance Matrix: (Units=1/GPa)
#
#
# Indices 1 2 3 4 5 6 
#
# 1 0.010733 -0.008799 -0.005078 0.000000 0.002600 0.000000
# 2 -0.008799 0.035417 -0.007980 0.000000 0.000473 0.000000
# 3 -0.005078 -0.007980 0.020760 0.000000 0.003189 0.000000
# 4 0.000000 0.000000 0.000000 0.063607 0.000000 0.008587
# 5 0.002600 0.000473 0.003189 0.000000 0.040968 0.000000
# 6 0.000000 0.000000 0.000000 0.008587 0.000000 0.033862
#
#
# Mechanical properties :
#
#
# Convention : Reuss Voigt Hill
#
# Bulk Modulus (GPa) = 43.11046 71.95579 57.53312
# Shear Modulus (GPa) = 19.47083 24.39928 21.93505
#
# Velocity S-wave (km/s) = 3.35444 3.75506 3.56039
# Velocity P-wave (km/s) = 6.31797 7.77073 7.08170
#
# Compressibility (1/GPa) = 0.02319623
#
# Stress axis : x y z
#
# Youngs Moduli (GPa) = 93.17047 28.23468 48.16923
#
# Poissons Ratio (x) = 0.24844 0.24459
# Poissons Ratio (y) = 0.81981 0.38441
# Poissons Ratio (z) = 0.47309 0.22532
#
# Static dielectric constant tensor:
#      x y z
#    x 3.722000 0.000000 -0.194460 
#    y 0.000000 3.181820 0.000000 
#    z -0.194460 0.000000 3.048350 
# 
# 
# High freq. dielectric constant tensor:
#      x y z
#    x 1.686490 0.000000 -0.014040 
#    y 0.000000 1.630320 0.000000 
#    z -0.014040 0.000000 1.637850 
# 
# From -- ./inp_files/21006.got.cif
#   From: 2010.06.25/outbox.cif.g09.slc.cpg/sg11_11_cif.got.tgz:21006.got - 2010.06.27 23:14:04.
