data_PCOD8072413
_publ_section_title
;
Structure prediction by ZEFSAII (Michael W. Deem and Ramdas Pophale) SiO2 
 PCOD8072413
Probable space group: P 21/M
;
_chemical_formula_sum "Si O2"
_cell_formula_units_Z 32
_cell_length_a 15.222824
_cell_length_b 13.367711
_cell_length_c 22.049837
_cell_angle_alpha 90.000000
_cell_angle_beta 20.088640
_cell_angle_gamma 90.000000
_cell_volume 1541.171204
_symmetry_space_group_name_H-M "P 21/M"
_symmetry_group_IT_number 11
_symmetry_cell_setting 'monoclinic'
loop_
_space_group_symop_operation_xyz
x,y,z
-x,1/2+y,-z
-x,-y,-z
x,1/2-y,z
loop_
_atom_site_type_symbol
_atom_site_label
_atom_site_fract_x
_atom_site_fract_y
_atom_site_fract_z
Si Si1 0.804417 0.557570 0.877973
Si Si2 0.743146 0.136243 0.753774
Si Si3 0.399511 0.864694 0.699775
Si Si4 0.039912 0.865338 0.602046
Si Si5 0.494425 0.997316 0.262487
Si Si6 0.931491 0.865916 0.921571
Si Si7 0.823864 0.634706 0.615605
Si Si8 0.019631 0.362107 0.698120
O O1 0.952636 0.610502 0.836685
O O2 0.895440 0.609164 0.757364
O O3 0.868304 0.439491 0.838422
O O4 0.499380 0.565340 0.081466
O O5 0.641920 0.250000 0.818734
O O6 0.892085 0.109837 0.595206
O O7 0.948174 0.118257 0.674200
O O8 0.357900 0.750000 0.746237
O O9 0.359418 0.931188 0.785270
O O10 0.679286 0.879231 0.489567
O O11 0.196300 0.898844 0.780977
O O12 0.127906 0.750000 0.544913
O O13 0.839769 0.885385 0.677097
O O14 0.285281 0.935222 0.435640
O O15 0.385750 0.064028 0.278258
O O16 0.694293 0.922466 0.104054
O O17 0.877017 0.750000 0.966734
O O18 0.756083 0.750000 0.644224
O O19 0.939704 0.250000 0.769780
#
# Coordination Sequence:
#
# PCOD8072413 Si02
#       8
#     4   4   4   4   4   4   4   4
#     4  12  23  41  62  89 127 171 209 246 308 375
#     4  10  19  35  62  91 125 163 207 250 311 380
#     4  10  21  43  69  93 121 163 212 260 312 370
#     4  11  23  37  58  91 132 166 206 253 307 370
#     4  12  21  40  64  96 120 160 209 265 317 365
#     4  11  26  43  64  90 126 168 211 257 311 371
#     4  10  21  38  62  93 125 165 207 256 311 374
#     4  10  21  39  64  93 122 159 206 262 312 368
#
# _framework density 20.76343
#
# number of rings (size 3 to 8) (size 9 to 14) (size 15 to 20)
#    0.000    1.250    2.500    3.750    0.000    3.500 
#    0.000    2.500    0.000    1.500    0.000    0.000 
#    0.000    0.000    0.000    0.000    0.000    0.000 
#
# Total GULP energy -396993.165427 kJ/mol
# GULP energy per Si atom -12406.036420 kJ/mol
# Density = 2.071617 g / cm^3
# Si number density = 20.763430 Si / 1000 Ang^3
#
#
#
# Elastic Constant Matrix: (Units=GPa)
#
#
# Indices 1 2 3 4 5 6 
#
# 1 144.8518 67.8343 75.2815 0.0000 -8.4990 0.0000
# 2 67.8343 112.8751 56.3922 0.0000 -5.2538 0.0000
# 3 75.2815 56.3922 92.1440 0.0000 -6.1145 0.0000
# 4 0.0000 0.0000 0.0000 36.5521 0.0000 -0.2234
# 5 -8.4990 -5.2538 -6.1145 0.0000 26.8670 0.0000
# 6 0.0000 0.0000 0.0000 -0.2234 0.0000 26.3543
#
#
#
# Elastic Compliance Matrix: (Units=1/GPa)
#
#
# Indices 1 2 3 4 5 6 
#
# 1 0.012997 -0.003580 -0.008327 0.000000 0.001516 0.000000
# 2 -0.003580 0.013761 -0.005476 0.000000 0.000312 0.000000
# 3 -0.008327 -0.005476 0.021079 0.000000 0.001092 0.000000
# 4 0.000000 0.000000 0.000000 0.027360 0.000000 0.000232
# 5 0.001516 0.000312 0.001092 0.000000 0.038010 0.000000
# 6 0.000000 0.000000 0.000000 0.000232 0.000000 0.037947
#
#
# Mechanical properties :
#
#
# Convention : Reuss Voigt Hill
#
# Bulk Modulus (GPa) = 76.50300 83.20967 79.85633
# Shear Modulus (GPa) = 26.27762 27.97887 27.12824
#
# Velocity S-wave (km/s) = 3.56135 3.67482 3.61853
# Velocity P-wave (km/s) = 7.33730 7.62679 7.48344
#
# Compressibility (1/GPa) = 0.01307138
#
# Stress axis : x y z
#
# Youngs Moduli (GPa) = 76.94379 72.66743 47.43968
#
# Poissons Ratio (x) = 0.26015 0.39501
# Poissons Ratio (y) = 0.27546 0.25980
# Poissons Ratio (z) = 0.64068 0.39796
#
# Static dielectric constant tensor:
#      x y z
#    x 3.888860 0.000000 -0.042550 
#    y 0.000000 4.155470 0.000000 
#    z -0.042550 0.000000 3.530710 
# 
# 
# High freq. dielectric constant tensor:
#      x y z
#    x 1.809230 0.000000 -0.000440 
#    y 0.000000 1.837860 0.000000 
#    z -0.000440 0.000000 1.799290 
# 
# From -- ./inp_files/65732.got.cif
#   From: 2010.06.25/outbox.cif.g09.slc.cpg/sg11_33_cif.got.tgz:65732.got - 2010.06.27 23:14:04.
