data_PCOD8072075
_publ_section_title
;
Structure prediction by ZEFSAII (Michael W. Deem and Ramdas Pophale) SiO2 
 PCOD8072075
Probable space group: P 21/M
;
_chemical_formula_sum "Si O2"
_cell_formula_units_Z 32
_cell_length_a 20.007250
_cell_length_b 8.616672
_cell_length_c 25.776151
_cell_angle_alpha 90.000000
_cell_angle_beta 158.415802
_cell_angle_gamma 90.000000
_cell_volume 1634.696632
_symmetry_space_group_name_H-M "P 21/M"
_symmetry_group_IT_number 11
_symmetry_cell_setting 'monoclinic'
loop_
_space_group_symop_operation_xyz
x,y,z
-x,1/2+y,-z
-x,-y,-z
x,1/2-y,z
loop_
_atom_site_type_symbol
_atom_site_label
_atom_site_fract_x
_atom_site_fract_y
_atom_site_fract_z
Si Si1 0.311098 0.432085 0.845402
Si Si2 0.804483 0.433520 0.346728
Si Si3 0.529708 0.068353 0.599362
Si Si4 0.500102 0.933039 0.794928
Si Si5 0.210913 0.430151 0.290680
Si Si6 0.976846 0.431881 0.287008
Si Si7 0.892077 0.567977 0.116587
Si Si8 0.385492 0.067444 0.604947
O O1 0.328149 0.250000 0.847819
O O2 0.255234 0.516941 0.752979
O O3 0.163627 0.463862 0.782975
O O4 0.500000 0.500000 0.000000
O O5 0.813891 0.250000 0.356272
O O6 0.660652 0.499988 0.284766
O O7 0.000000 0.500000 0.500000
O O8 0.571154 0.250000 0.625712
O O9 0.351695 0.026607 0.437711
O O10 0.494620 0.012755 0.632694
O O11 0.703479 0.976165 0.702973
O O12 0.492081 0.750000 0.788924
O O13 0.479166 0.990153 0.721503
O O14 0.692105 0.989515 0.956114
O O15 0.160104 0.250000 0.254063
O O16 0.029052 0.530012 0.168405
O O17 0.942064 0.250000 0.271890
O O18 0.955561 0.467100 0.211174
O O19 0.176102 0.483215 0.449483
O O20 0.894734 0.750000 0.131790
O O21 0.398349 0.250000 0.620075
#
# Coordination Sequence:
#
# PCOD8072075 Si02
#       8
#     4   4   4   4   4   4   4   4
#     4  12  25  41  61  89 120 156 199 248 305 364
#     4  11  23  42  64  88 120 159 203 253 302 361
#     4   9  18  35  56  85 120 151 190 241 293 347
#     4  10  24  41  58  83 118 155 197 242 288 349
#     4  10  19  34  57  87 119 152 194 242 293 349
#     4  11  22  39  62  90 119 150 194 248 298 356
#     4  11  22  38  59  86 120 160 199 242 296 351
#     4  10  21  38  60  87 118 151 191 241 294 346
#
# _framework density 19.575499000000001
#
# number of rings (size 3 to 8) (size 9 to 14) (size 15 to 20)
#    0.000    1.500    1.250    4.125    0.000    7.000 
#    0.000    0.625    0.000    0.000    0.000    0.000 
#    0.000    0.000    0.000    0.000    0.000    0.000 
#
# Total GULP energy -396958.106339 kJ/mol
# GULP energy per Si atom -12404.940823 kJ/mol
# Density = 1.953094 g / cm^3
# Si number density = 19.575499 Si / 1000 Ang^3
#
#
#
# Elastic Constant Matrix: (Units=GPa)
#
#
# Indices 1 2 3 4 5 6 
#
# 1 -87.3867 -50.6188 242.1544 0.0000 100.0809 0.0000
# 2 -50.6188 21.3159 96.9133 0.0000 33.4738 0.0000
# 3 242.1544 96.9133 -100.4838 0.0000 -77.2057 0.0000
# 4 0.0000 0.0000 0.0000 27.6687 0.0000 -0.1121
# 5 100.0809 33.4738 -77.2057 0.0000 -3.1066 0.0000
# 6 0.0000 0.0000 0.0000 -0.1121 0.0000 37.6386
#
#
#
# Elastic Compliance Matrix: (Units=1/GPa)
#
#
# Indices 1 2 3 4 5 6 
#
# 1 0.005144 -0.007286 0.003407 0.000000 0.002555 0.000000
# 2 -0.007286 0.022098 -0.000064 0.000000 0.004969 0.000000
# 3 0.003407 -0.000064 0.004731 0.000000 -0.008504 0.000000
# 4 0.000000 0.000000 0.000000 0.036142 0.000000 0.000108
# 5 0.002555 0.004969 -0.008504 0.000000 0.025321 0.000000
# 6 0.000000 0.000000 0.000000 0.000108 0.000000 0.026569
#
#
# Mechanical properties :
#
#
# Convention : Reuss Voigt Hill
#
# Bulk Modulus (GPa) = 41.51586 45.59368 43.55477
# Shear Modulus (GPa) = 36.78620 -17.89343 9.44638
#
# Velocity S-wave (km/s) = 4.33967 -3.02664 2.19911
# Velocity P-wave (km/s) = 6.80914 3.33581 5.36153
#
# Compressibility (1/GPa) = 0.02408718
#
# Stress axis : x y z
#
# Youngs Moduli (GPa) = 194.38494 45.25311 211.38083
#
# Poissons Ratio (x) = 0.32972 -0.72015
# Poissons Ratio (y) = 1.41629 0.01349
# Poissons Ratio (z) = -0.66224 0.00289
#
# Static dielectric constant tensor:
#      x y z
#    x 5.092480 0.000000 -1.394210 
#    y 0.000000 3.549040 0.000000 
#    z -1.394210 0.000000 5.513040 
# 
# 
# High freq. dielectric constant tensor:
#      x y z
#    x 1.776520 0.000000 0.010600 
#    y 0.000000 1.763690 0.000000 
#    z 0.010600 0.000000 1.759760 
# 
# From -- ./inp_files/72174.got.cif
#   From: 2010.06.25/outbox.cif.g09.slc.cpg/sg11_37_cif.got.tgz:72174.got - 2010.06.27 23:14:04.
