data_PCOD8072751
_publ_section_title
;
Structure prediction by ZEFSAII (Michael W. Deem and Ramdas Pophale) SiO2 
 PCOD8072751
Probable space group: P 21/M
;
_chemical_formula_sum "Si O2"
_cell_formula_units_Z 32
_cell_length_a 16.705572
_cell_length_b 9.355140
_cell_length_c 12.251273
_cell_angle_alpha 90.000000
_cell_angle_beta 92.631204
_cell_angle_gamma 90.000000
_cell_volume 1912.646667
_symmetry_space_group_name_H-M "P 21/M"
_symmetry_group_IT_number 11
_symmetry_cell_setting 'monoclinic'
loop_
_space_group_symop_operation_xyz
x,y,z
-x,1/2+y,-z
-x,-y,-z
x,1/2-y,z
loop_
_atom_site_type_symbol
_atom_site_label
_atom_site_fract_x
_atom_site_fract_y
_atom_site_fract_z
Si Si1 0.559595 0.415876 0.642701
Si Si2 0.868468 0.580791 0.177184
Si Si3 0.048323 0.918547 0.199709
Si Si4 0.706168 0.417360 0.777465
Si Si5 0.178730 0.580480 0.034199
Si Si6 0.390614 0.415756 0.565079
Si Si7 0.167892 0.581079 0.389580
Si Si8 0.213094 0.417124 0.602326
O O1 0.572828 0.250000 0.617118
O O2 0.611953 0.456932 0.754099
O O3 0.465054 0.450220 0.652616
O O4 0.596769 0.499005 0.544309
O O5 0.866062 0.750000 0.157115
O O6 0.826084 0.537452 0.286660
O O7 0.958963 0.518458 0.185294
O O8 0.819877 0.503110 0.078811
O O9 0.043581 0.750000 0.198347
O O10 0.101233 0.968110 0.099692
O O11 0.088684 0.965071 0.316752
O O12 0.722315 0.250000 0.782177
O O13 0.742009 0.473853 0.894222
O O14 0.755784 0.473536 0.675790
O O15 0.179104 0.750000 0.012231
O O16 0.390586 0.250000 0.533576
O O17 0.307077 0.460314 0.615158
O O18 0.170341 0.750000 0.411874
O O19 0.167172 0.500742 0.504441
O O20 0.202222 0.250000 0.578710
#
# Coordination Sequence:
#
# PCOD8072751 Si02
#       8
#     4   4   4   4   4   4   4   4
#     4   9  15  26  46  68  88 114 147 178 217 263
#     4  10  20  33  46  62  89 125 154 176 220 273
#     4   8  16  31  50  68  87 112 145 192 233 259
#     4   8  14  26  46  69  89 109 138 184 231 262
#     4   9  17  31  50  69  86 106 146 198 231 253
#     4   9  17  27  41  65  94 119 144 177 213 256
#     4   9  16  29  48  67  87 115 150 183 220 263
#     4  10  20  31  42  62  97 128 146 174 216 267
#
# _framework density 16.730741999999999
#
# number of rings (size 3 to 8) (size 9 to 14) (size 15 to 20)
#    0.000    3.000    1.250    1.875    0.000    1.000 
#    0.000    3.750    0.000    0.750    0.000    0.000 
#    0.000    0.000    0.000    0.000    0.000    0.000 
#
# Total GULP energy -396539.484327 kJ/mol
# GULP energy per Si atom -12391.858885 kJ/mol
# Density = 1.669266 g / cm^3
# Si number density = 16.730742 Si / 1000 Ang^3
#
#
#
# Elastic Constant Matrix: (Units=GPa)
#
#
# Indices 1 2 3 4 5 6 
#
# 1 69.6724 17.4289 43.8504 0.0000 23.6016 0.0000
# 2 17.4289 27.1946 35.1221 0.0000 5.2488 0.0000
# 3 43.8504 35.1221 123.0414 0.0000 19.0000 0.0000
# 4 0.0000 0.0000 0.0000 24.4129 0.0000 3.5439
# 5 23.6016 5.2488 19.0000 0.0000 25.6466 0.0000
# 6 0.0000 0.0000 0.0000 3.5439 0.0000 16.3005
#
#
#
# Elastic Compliance Matrix: (Units=1/GPa)
#
#
# Indices 1 2 3 4 5 6 
#
# 1 0.024942 -0.007324 -0.003936 0.000000 -0.018539 0.000000
# 2 -0.007324 0.060400 -0.015541 0.000000 0.005892 0.000000
# 3 -0.003936 -0.015541 0.014584 0.000000 -0.004002 0.000000
# 4 0.000000 0.000000 0.000000 0.042297 0.000000 -0.009196
# 5 -0.018539 0.005892 -0.004002 0.000000 0.057811 0.000000
# 6 0.000000 0.000000 0.000000 -0.009196 0.000000 0.063347
#
#
# Mechanical properties :
#
#
# Convention : Reuss Voigt Hill
#
# Bulk Modulus (GPa) = 21.58666 45.85680 33.72173
# Shear Modulus (GPa) = 15.04105 21.50579 18.27342
#
# Velocity S-wave (km/s) = 3.00160 3.58915 3.30844
# Velocity P-wave (km/s) = 4.99432 6.68163 5.89862
#
# Compressibility (1/GPa) = 0.04632491
#
# Stress axis : x y z
#
# Youngs Moduli (GPa) = 40.09292 16.55635 68.56814
#
# Poissons Ratio (x) = 0.12126 0.26986
# Poissons Ratio (y) = 0.29365 1.06560
# Poissons Ratio (z) = 0.15779 0.25730
#
# Static dielectric constant tensor:
#      x y z
#    x 3.552040 0.000000 0.265390 
#    y 0.000000 2.805220 0.000000 
#    z 0.265390 0.000000 3.027280 
# 
# 
# High freq. dielectric constant tensor:
#      x y z
#    x 1.649900 0.000000 0.024630 
#    y 0.000000 1.618400 0.000000 
#    z 0.024630 0.000000 1.625610 
# 
# From -- ./inp_files/40704.got.cif
#   From: 2010.06.25/outbox.cif.g09.slc.cpg/sg11_21_cif.got.tgz:40704.got - 2010.06.27 23:14:04.
