data_PCOD8072439
_publ_section_title
;
Structure prediction by ZEFSAII (Michael W. Deem and Ramdas Pophale) SiO2 
 PCOD8072439
Probable space group: P 21/M
;
_chemical_formula_sum "Si O2"
_cell_formula_units_Z 32
_cell_length_a 21.573885
_cell_length_b 9.020915
_cell_length_c 18.990067
_cell_angle_alpha 90.000000
_cell_angle_beta 28.079686
_cell_angle_gamma 90.000000
_cell_volume 1739.597649
_symmetry_space_group_name_H-M "P 21/M"
_symmetry_group_IT_number 11
_symmetry_cell_setting 'monoclinic'
loop_
_space_group_symop_operation_xyz
x,y,z
-x,1/2+y,-z
-x,-y,-z
x,1/2-y,z
loop_
_atom_site_type_symbol
_atom_site_label
_atom_site_fract_x
_atom_site_fract_y
_atom_site_fract_z
Si Si1 0.597516 0.075232 0.956874
Si Si2 0.731341 0.426078 0.192178
Si Si3 0.099681 0.923823 0.347088
Si Si4 0.229776 0.925250 0.688951
Si Si5 0.967445 0.576712 0.878831
Si Si6 0.404324 0.418916 0.898747
Si Si7 0.100194 0.416593 0.206523
Si Si8 0.496142 0.575268 0.351120
O O1 0.580803 0.250000 0.968512
O O2 0.749009 0.027409 0.789240
O O3 0.500000 0.000000 0.000000
O O4 0.555559 0.023428 0.076749
O O5 0.726594 0.250000 0.194880
O O6 0.756029 0.487187 0.246288
O O7 0.593214 0.488386 0.304823
O O8 0.845222 0.482564 0.027517
O O9 0.083048 0.750000 0.371324
O O10 0.059122 0.970527 0.308864
O O11 0.000000 0.000000 0.500000
O O12 0.222611 0.750000 0.697941
O O13 0.350878 0.975871 0.519074
O O14 0.096403 0.987195 0.788050
O O15 0.941999 0.750000 0.920230
O O16 0.985938 0.551313 0.776584
O O17 0.438211 0.250000 0.885721
O O18 0.485542 0.469699 0.748782
O O19 0.251611 0.436736 0.032562
O O20 0.074975 0.250000 0.259818
O O21 0.520907 0.750000 0.336413
#
# Coordination Sequence:
#
# PCOD8072439 Si02
#       8
#     4   4   4   4   4   4   4   4
#     4  10  21  37  58  84 113 145 179 219 267 318
#     4  11  21  33  53  81 108 141 184 229 273 322
#     4  10  21  37  58  84 113 145 179 219 267 318
#     4   9  20  35  53  79 110 141 180 229 277 324
#     4  10  19  36  57  78 106 144 185 224 271 327
#     4   9  17  32  55  80 104 139 185 225 263 316
#     4   9  17  32  55  80 104 139 185 225 263 316
#     4  10  19  36  57  78 106 144 185 224 271 327
#
# _framework density 18.395060000000001
#
# number of rings (size 3 to 8) (size 9 to 14) (size 15 to 20)
#    0.000    2.250    1.250    1.875    0.000    2.500 
#    2.250    1.875    0.000    0.000    0.000    0.000 
#    0.000    0.000    0.000    0.000    0.000    0.000 
#
# Total GULP energy -396843.822885 kJ/mol
# GULP energy per Si atom -12401.369465 kJ/mol
# Density = 1.835319 g / cm^3
# Si number density = 18.395060 Si / 1000 Ang^3
#
#
#
# Elastic Constant Matrix: (Units=GPa)
#
#
# Indices 1 2 3 4 5 6 
#
# 1 113.0327 36.1707 27.1733 0.0000 7.1435 0.0000
# 2 36.1707 54.9519 24.7453 0.0000 5.2496 0.0000
# 3 27.1733 24.7453 73.5379 0.0000 13.4432 0.0000
# 4 0.0000 0.0000 0.0000 20.5079 0.0000 2.9084
# 5 7.1435 5.2496 13.4432 0.0000 27.7130 0.0000
# 6 0.0000 0.0000 0.0000 2.9084 0.0000 30.9957
#
#
#
# Elastic Compliance Matrix: (Units=1/GPa)
#
#
# Indices 1 2 3 4 5 6 
#
# 1 0.011467 -0.006635 -0.001859 0.000000 -0.000797 0.000000
# 2 -0.006635 0.025296 -0.006032 0.000000 -0.000156 0.000000
# 3 -0.001859 -0.006032 0.017577 0.000000 -0.006905 0.000000
# 4 0.000000 0.000000 0.000000 0.049419 0.000000 -0.004637
# 5 -0.000797 -0.000156 -0.006905 0.000000 0.039669 0.000000
# 6 0.000000 0.000000 0.000000 -0.004637 0.000000 0.032698
#
#
# Mechanical properties :
#
#
# Convention : Reuss Voigt Hill
#
# Bulk Modulus (GPa) = 39.54260 46.41122 42.97691
# Shear Modulus (GPa) = 23.40740 26.07221 24.73980
#
# Velocity S-wave (km/s) = 3.57106 3.76885 3.67129
# Velocity P-wave (km/s) = 6.20856 6.65012 6.43313
#
# Compressibility (1/GPa) = 0.02528918
#
# Stress axis : x y z
#
# Youngs Moduli (GPa) = 87.20318 39.53187 56.89154
#
# Poissons Ratio (x) = 0.26229 0.10576
# Poissons Ratio (y) = 0.57858 0.34317
# Poissons Ratio (z) = 0.16211 0.23845
#
# Static dielectric constant tensor:
#      x y z
#    x 3.583680 0.000000 0.004150 
#    y 0.000000 3.302910 0.000000 
#    z 0.004150 0.000000 3.414920 
# 
# 
# High freq. dielectric constant tensor:
#      x y z
#    x 1.720130 0.000000 0.007960 
#    y 0.000000 1.700410 0.000000 
#    z 0.007960 0.000000 1.709310 
# 
# From -- ./inp_files/61338.got.cif
#   From: 2010.06.25/outbox.cif.g09.slc.cpg/sg11_31_cif.got.tgz:61338.got - 2010.06.27 23:14:04.
