data_PCOD8072738
_publ_section_title
;
Structure prediction by ZEFSAII (Michael W. Deem and Ramdas Pophale) SiO2 
 PCOD8072738
Probable space group: P 21/M
;
_chemical_formula_sum "Si O2"
_cell_formula_units_Z 24
_cell_length_a 14.238325
_cell_length_b 14.546351
_cell_length_c 10.898705
_cell_angle_alpha 90.000000
_cell_angle_beta 151.335852
_cell_angle_gamma 90.000000
_cell_volume 1082.765805
_symmetry_space_group_name_H-M "P 21/M"
_symmetry_group_IT_number 11
_symmetry_cell_setting 'monoclinic'
loop_
_space_group_symop_operation_xyz
x,y,z
-x,1/2+y,-z
-x,-y,-z
x,1/2-y,z
loop_
_atom_site_type_symbol
_atom_site_label
_atom_site_fract_x
_atom_site_fract_y
_atom_site_fract_z
Si Si1 0.553620 0.924627 0.164310
Si Si2 0.483247 0.354875 0.445473
Si Si3 0.336938 0.150920 0.939914
Si Si4 0.290342 0.580740 0.515094
Si Si5 0.281947 0.646600 0.047477
Si Si6 0.141410 0.453801 0.924924
O O1 0.689042 0.856437 0.238172
O O2 0.369265 0.870712 0.011459
O O3 0.666556 0.973366 0.405780
O O4 0.500000 0.000000 0.000000
O O5 0.438847 0.250000 0.353674
O O6 0.665893 0.395394 0.576353
O O7 0.537966 0.359071 0.650402
O O8 0.293909 0.417954 0.202008
O O9 0.256761 0.250000 0.888493
O O10 0.568924 0.143711 0.238975
O O11 0.217760 0.073633 0.876952
O O12 0.062369 0.596450 0.281311
O O13 0.187903 0.750000 0.944704
O O14 0.128026 0.565672 0.907205
#
# Coordination Sequence:
#
# PCOD8072738 Si02
#       6
#     4   4   4   4   4   4
#     4  10  19  40  62  83 115 163 198 241 301 349
#     4  10  22  40  62  90 122 156 200 246 298 362
#     4  10  21  39  62  90 122 157 202 248 296 357
#     4  10  21  36  65  88 119 156 202 245 298 357
#     4  11  22  40  63  87 122 163 199 246 301 355
#     4  11  21  38  66  88 121 159 200 245 305 355
#
# _framework density 22.165458999999998
#
# number of rings (size 3 to 8) (size 9 to 14) (size 15 to 20)
#    0.000    1.667    5.000    3.000    0.000    4.000 
#    0.000    1.667    0.000    0.000    0.000    0.000 
#    0.000    0.000    0.000    0.000    0.000    0.000 
#
# Total GULP energy -297314.927530 kJ/mol
# GULP energy per Si atom -12388.121980 kJ/mol
# Density = 2.211501 g / cm^3
# Si number density = 22.165459 Si / 1000 Ang^3
#
#
#
# Elastic Constant Matrix: (Units=GPa)
#
#
# Indices 1 2 3 4 5 6 
#
# 1 82.6530 28.0306 31.8740 0.0000 -1.3368 0.0000
# 2 28.0306 147.7548 25.6690 0.0000 4.0025 0.0000
# 3 31.8740 25.6690 39.0512 0.0000 21.1043 0.0000
# 4 0.0000 0.0000 0.0000 17.0509 0.0000 -5.8654
# 5 -1.3368 4.0025 21.1043 0.0000 34.8259 0.0000
# 6 0.0000 0.0000 0.0000 -5.8654 0.0000 28.7598
#
#
#
# Elastic Compliance Matrix: (Units=1/GPa)
#
#
# Indices 1 2 3 4 5 6 
#
# 1 0.023854 0.000140 -0.029811 0.000000 0.018965 0.000000
# 2 0.000140 0.007892 -0.007159 0.000000 0.003437 0.000000
# 3 -0.029811 -0.007159 0.081515 0.000000 -0.049719 0.000000
# 4 0.000000 0.000000 0.000000 0.063073 0.000000 0.012863
# 5 0.018965 0.003437 -0.049719 0.000000 0.059177 0.000000
# 6 0.000000 0.000000 0.000000 0.012863 0.000000 0.037394
#
#
# Mechanical properties :
#
#
# Convention : Reuss Voigt Hill
#
# Bulk Modulus (GPa) = 25.25220 48.95625 37.10422
# Shear Modulus (GPa) = 13.89790 28.38635 21.14212
#
# Velocity S-wave (km/s) = 2.50673 3.58251 3.09177
# Velocity P-wave (km/s) = 4.44922 6.26476 5.43336
#
# Compressibility (1/GPa) = 0.03960052
#
# Stress axis : x y z
#
# Youngs Moduli (GPa) = 41.92102 126.70973 12.26766
#
# Poissons Ratio (x) = -0.01772 0.36572
# Poissons Ratio (y) = -0.00586 0.08782
# Poissons Ratio (z) = 1.24972 0.90712
#
# Static dielectric constant tensor:
#      x y z
#    x 4.201180 0.000000 -0.278420 
#    y 0.000000 4.614070 0.000000 
#    z -0.278420 0.000000 3.551230 
# 
# 
# High freq. dielectric constant tensor:
#      x y z
#    x 1.875140 0.000000 -0.019310 
#    y 0.000000 1.885450 0.000000 
#    z -0.019310 0.000000 1.822490 
# 
# From -- ./inp_files/39737.got.cif
#   From: 2010.06.25/outbox.cif.g09.slc.cpg/sg11_20_cif.got.tgz:39737.got - 2010.06.27 23:14:04.
