data_PCOD8072205
_publ_section_title
;
Structure prediction by ZEFSAII (Michael W. Deem and Ramdas Pophale) SiO2 
 PCOD8072205
Probable space group: P 21/M
;
_chemical_formula_sum "Si O2"
_cell_formula_units_Z 32
_cell_length_a 14.292869
_cell_length_b 9.055503
_cell_length_c 19.906807
_cell_angle_alpha 90.000000
_cell_angle_beta 139.100024
_cell_angle_gamma 90.000000
_cell_volume 1686.952296
_symmetry_space_group_name_H-M "P 21/M"
_symmetry_group_IT_number 11
_symmetry_cell_setting 'monoclinic'
loop_
_space_group_symop_operation_xyz
x,y,z
-x,1/2+y,-z
-x,-y,-z
x,1/2-y,z
loop_
_atom_site_type_symbol
_atom_site_label
_atom_site_fract_x
_atom_site_fract_y
_atom_site_fract_z
Si Si1 0.891109 0.573955 0.800563
Si Si2 0.155969 0.074945 0.374700
Si Si3 0.211001 0.574674 0.003608
Si Si4 0.315488 0.574072 0.205724
Si Si5 0.864093 0.418302 0.278582
Si Si6 0.635163 0.924947 0.400264
Si Si7 0.631493 0.082771 0.039552
Si Si8 0.850259 0.574771 0.402642
O O1 0.879781 0.750000 0.800121
O O2 0.844544 0.514799 0.701628
O O3 0.786233 0.499744 0.795885
O O4 0.050649 0.516999 0.903497
O O5 0.145212 0.250000 0.365477
O O6 0.297452 0.022138 0.491815
O O7 0.018951 0.018281 0.341884
O O8 0.209811 0.750000 0.997780
O O9 0.266620 0.519818 0.105703
O O10 0.319163 0.513263 0.005106
O O11 0.305978 0.750000 0.206820
O O12 0.475204 0.513232 0.305829
O O13 0.875637 0.250000 0.311274
O O14 0.766891 0.427901 0.160881
O O15 0.798958 0.521027 0.301557
O O16 0.630565 0.750000 0.395361
O O17 0.732659 0.981762 0.391904
O O18 0.581459 0.250000 0.002015
O O19 0.500000 0.000000 0.000000
O O20 0.866705 0.750000 0.413574
O O21 0.000000 0.500000 0.500000
#
# Coordination Sequence:
#
# PCOD8072205 Si02
#       8
#     4   4   4   4   4   4   4   4
#     4  10  19  35  59  80  98 135 184 226 266 319
#     4   9  16  32  57  78 101 139 184 217 255 326
#     4   9  18  35  58  78 103 143 185 214 260 337
#     4  10  21  36  54  78 107 138 174 224 274 322
#     4  10  19  35  56  79 109 146 186 227 270 322
#     4   9  19  34  53  77 106 143 179 211 263 329
#     4  10  21  36  56  83 113 147 184 225 273 327
#     4  11  21  34  56  83 110 146 186 225 266 323
#
# _framework density 18.969118999999999
#
# number of rings (size 3 to 8) (size 9 to 14) (size 15 to 20)
#    0.000    2.250    2.500    0.750    1.750    1.000 
#    0.000    3.125    0.000    0.000    0.000    0.000 
#    0.000    0.000    0.000    0.000    0.000    0.000 
#
# Total GULP energy -396751.112658 kJ/mol
# GULP energy per Si atom -12398.472271 kJ/mol
# Density = 1.892594 g / cm^3
# Si number density = 18.969119 Si / 1000 Ang^3
#
#
#
# Elastic Constant Matrix: (Units=GPa)
#
#
# Indices 1 2 3 4 5 6 
#
# 1 181.9785 34.8117 96.1891 0.0000 -1.4238 0.0000
# 2 34.8117 33.6398 24.7818 0.0000 -0.4840 0.0000
# 3 96.1891 24.7818 146.5918 0.0000 -5.6111 0.0000
# 4 0.0000 0.0000 0.0000 17.8635 0.0000 -0.5985
# 5 -1.4238 -0.4840 -5.6111 0.0000 38.4797 0.0000
# 6 0.0000 0.0000 0.0000 -0.5985 0.0000 32.5362
#
#
#
# Elastic Compliance Matrix: (Units=1/GPa)
#
#
# Indices 1 2 3 4 5 6 
#
# 1 0.009339 -0.005875 -0.005153 0.000000 -0.000480 0.000000
# 2 -0.005875 0.037658 -0.002515 0.000000 -0.000110 0.000000
# 3 -0.005153 -0.002515 0.010679 0.000000 0.001335 0.000000
# 4 0.000000 0.000000 0.000000 0.056015 0.000000 0.001030
# 5 -0.000480 -0.000110 0.001335 0.000000 0.026163 0.000000
# 6 0.000000 0.000000 0.000000 0.001030 0.000000 0.030754
#
#
# Mechanical properties :
#
#
# Convention : Reuss Voigt Hill
#
# Bulk Modulus (GPa) = 32.69144 74.86392 53.77768
# Shear Modulus (GPa) = 24.05095 31.53770 27.79433
#
# Velocity S-wave (km/s) = 3.56462 4.08190 3.83200
# Velocity P-wave (km/s) = 5.84923 7.85925 6.92753
#
# Compressibility (1/GPa) = 0.03058905
#
# Stress axis : x y z
#
# Youngs Moduli (GPa) = 107.07620 26.55488 93.63840
#
# Poissons Ratio (x) = 0.15601 0.48254
# Poissons Ratio (y) = 0.62908 0.23553
# Poissons Ratio (z) = 0.55179 0.06679
#
# Static dielectric constant tensor:
#      x y z
#    x 3.659050 0.000000 -0.053950 
#    y 0.000000 3.300900 0.000000 
#    z -0.053950 0.000000 3.911560 
# 
# 
# High freq. dielectric constant tensor:
#      x y z
#    x 1.748110 0.000000 -0.007050 
#    y 0.000000 1.688830 0.000000 
#    z -0.007050 0.000000 1.752370 
# 
# From -- ./inp_files/54375.got.cif
#   From: 2010.06.25/outbox.cif.g09.slc.cpg/sg11_28_cif.got.tgz:54375.got - 2010.06.27 23:14:04.
