data_PCOD8072445
_publ_section_title
;
Structure prediction by ZEFSAII (Michael W. Deem and Ramdas Pophale) SiO2 
 PCOD8072445
Probable space group: P 21/M
;
_chemical_formula_sum "Si O2"
_cell_formula_units_Z 32
_cell_length_a 13.761569
_cell_length_b 30.292617
_cell_length_c 8.527979
_cell_angle_alpha 90.000000
_cell_angle_beta 29.080181
_cell_angle_gamma 90.000000
_cell_volume 1727.892509
_symmetry_space_group_name_H-M "P 21/M"
_symmetry_group_IT_number 11
_symmetry_cell_setting 'monoclinic'
loop_
_space_group_symop_operation_xyz
x,y,z
-x,1/2+y,-z
-x,-y,-z
x,1/2-y,z
loop_
_atom_site_type_symbol
_atom_site_label
_atom_site_fract_x
_atom_site_fract_y
_atom_site_fract_z
Si Si1 0.283463 0.923186 0.360137
Si Si2 0.182059 0.485535 0.634926
Si Si3 0.063648 0.120838 0.307357
Si Si4 0.024636 0.300567 0.164277
Si Si5 0.480569 0.922433 0.760021
Si Si6 0.401262 0.150265 0.634722
Si Si7 0.941000 0.083182 0.795438
Si Si8 0.777500 0.142986 0.287730
O O1 0.060197 0.916991 0.607439
O O2 0.326500 0.888013 0.435857
O O3 0.299682 0.972808 0.399724
O O4 0.444558 0.915600 0.995755
O O5 0.347723 0.459232 0.503317
O O6 0.089800 0.457003 0.622594
O O7 0.000000 0.500000 0.000000
O O8 0.049185 0.113810 0.513157
O O9 0.968884 0.169162 0.394593
O O10 0.288705 0.118705 0.921853
O O11 0.975415 0.250000 0.270089
O O12 0.901286 0.317050 0.187807
O O13 0.261606 0.307520 0.792285
O O14 0.560401 0.876415 0.578659
O O15 0.274568 0.935220 0.959888
O O16 0.608758 0.165744 0.418275
O O17 0.920944 0.112303 0.980347
#
# Coordination Sequence:
#
# PCOD8072445 Si02
#       8
#     4   4   4   4   4   4   4   4
#     4  10  20  37  52  81 113 150 194 226 277 319
#     4  12  22  35  54  80 115 149 195 245 267 313
#     4   8  19  37  57  80 107 148 179 222 275 334
#     4   9  19  37  60  85 111 136 174 227 280 335
#     4  10  22  36  53  78 111 149 189 231 275 321
#     4   9  19  36  56  82 106 148 181 221 275 336
#     4  10  21  38  56  80 110 149 190 225 278 327
#     4  10  19  36  57  81 108 146 180 221 276 332
#
# _framework density 18.519670000000001
#
# number of rings (size 3 to 8) (size 9 to 14) (size 15 to 20)
#    0.750    1.500    1.250    1.875    1.750    3.000 
#    2.250    0.625    0.000    9.750    0.000    0.000 
#    0.000    0.000    0.000    0.000    0.000    0.000 
#
# Total GULP energy -396598.895470 kJ/mol
# GULP energy per Si atom -12393.715483 kJ/mol
# Density = 1.847752 g / cm^3
# Si number density = 18.519670 Si / 1000 Ang^3
#
#
#
# Elastic Constant Matrix: (Units=GPa)
#
#
# Indices 1 2 3 4 5 6 
#
# 1 85.7150 48.7710 29.5371 0.0000 4.0976 0.0000
# 2 48.7710 93.0648 18.1897 0.0000 1.5812 0.0000
# 3 29.5371 18.1897 77.7903 0.0000 14.0282 0.0000
# 4 0.0000 0.0000 0.0000 20.0492 0.0000 0.0234
# 5 4.0976 1.5812 14.0282 0.0000 37.1403 0.0000
# 6 0.0000 0.0000 0.0000 0.0234 0.0000 19.7012
#
#
#
# Elastic Compliance Matrix: (Units=1/GPa)
#
#
# Indices 1 2 3 4 5 6 
#
# 1 0.018261 -0.008604 -0.004963 0.000000 0.000226 0.000000
# 2 -0.008604 0.015324 -0.000397 0.000000 0.000447 0.000000
# 3 -0.004963 -0.000397 0.015807 0.000000 -0.005406 0.000000
# 4 0.000000 0.000000 0.000000 0.049877 0.000000 -0.000059
# 5 0.000226 0.000447 -0.005406 0.000000 0.028923 0.000000
# 6 0.000000 0.000000 0.000000 -0.000059 0.000000 0.050758
#
#
# Mechanical properties :
#
#
# Convention : Reuss Voigt Hill
#
# Bulk Modulus (GPa) = 46.58627 49.95172 48.26899
# Shear Modulus (GPa) = 23.36083 26.04963 24.70523
#
# Velocity S-wave (km/s) = 3.55548 3.75453 3.65636
# Velocity P-wave (km/s) = 6.48575 6.76950 6.62914
#
# Compressibility (1/GPa) = 0.02146555
#
# Stress axis : x y z
#
# Youngs Moduli (GPa) = 54.76027 65.25692 63.26243
#
# Poissons Ratio (x) = 0.56146 0.31396
# Poissons Ratio (y) = 0.47115 0.02511
# Poissons Ratio (z) = 0.27177 0.02590
#
# Static dielectric constant tensor:
#      x y z
#    x 3.415550 0.000000 -0.000910 
#    y 0.000000 3.064380 0.000000 
#    z -0.000910 0.000000 3.419920 
# 
# 
# High freq. dielectric constant tensor:
#      x y z
#    x 1.724900 0.000000 -0.004000 
#    y 0.000000 1.683690 0.000000 
#    z -0.004000 0.000000 1.718140 
# 
# From -- ./inp_files/23432.got.cif
#   From: 2010.06.25/outbox.cif.g09.slc.cpg/sg11_12_cif.got.tgz:23432.got - 2010.06.27 23:14:04.
