data_PCOD8072541
_publ_section_title
;
Structure prediction by ZEFSAII (Michael W. Deem and Ramdas Pophale) SiO2 
 PCOD8072541
Probable space group: P 21/M
;
_chemical_formula_sum "Si O2"
_cell_formula_units_Z 32
_cell_length_a 24.152192
_cell_length_b 8.745784
_cell_length_c 24.050824
_cell_angle_alpha 90.000000
_cell_angle_beta 161.280129
_cell_angle_gamma 90.000000
_cell_volume 1630.463599
_symmetry_space_group_name_H-M "P 21/M"
_symmetry_group_IT_number 11
_symmetry_cell_setting 'monoclinic'
loop_
_space_group_symop_operation_xyz
x,y,z
-x,1/2+y,-z
-x,-y,-z
x,1/2-y,z
loop_
_atom_site_type_symbol
_atom_site_label
_atom_site_fract_x
_atom_site_fract_y
_atom_site_fract_z
Si Si1 0.459610 0.069362 0.402178
Si Si2 0.201879 0.929582 0.633886
Si Si3 0.364869 0.429881 0.531557
Si Si4 0.451124 0.568497 0.081180
Si Si5 0.013987 0.571734 0.840200
Si Si6 0.096789 0.569561 0.040030
Si Si7 0.640261 0.432061 0.883721
Si Si8 0.155119 0.930010 0.716285
O O1 0.445110 0.250000 0.394113
O O2 0.500000 0.000000 0.500000
O O3 0.605667 0.022649 0.497170
O O4 0.285518 0.998278 0.213288
O O5 0.211482 0.750000 0.634969
O O6 0.208987 0.977109 0.705306
O O7 0.362443 0.004502 0.756051
O O8 0.024692 0.990188 0.438041
O O9 0.390230 0.250000 0.543619
O O10 0.490311 0.488802 0.699451
O O11 0.167490 0.466029 0.362293
O O12 0.462007 0.750000 0.090117
O O13 0.399327 0.505367 0.092556
O O14 0.306240 0.509642 0.900286
O O15 0.052750 0.750000 0.876627
O O16 0.000692 0.520343 0.891963
O O17 0.176004 0.496932 0.961641
O O18 0.106964 0.750000 0.057923
O O19 0.000000 0.500000 0.000000
O O20 0.643541 0.250000 0.888041
O O21 0.127450 0.750000 0.696014
#
# Coordination Sequence:
#
# PCOD8072541 Si02
#       8
#     4   4   4   4   4   4   4   4
#     4  12  24  38  57  83 114 148 187 232 285 344
#     4  10  20  34  54  81 117 156 192 239 298 349
#     4  10  19  36  61  84 110 143 181 230 288 343
#     4  10  20  34  57  85 113 149 197 244 288 344
#     4   9  18  33  56  82 107 139 178 223 277 334
#     4  11  21  36  57  84 117 147 184 230 280 343
#     4   9  18  34  56  84 112 144 187 236 285 338
#     4   9  19  35  55  82 115 152 197 244 289 344
#
# _framework density 19.62632
#
# number of rings (size 3 to 8) (size 9 to 14) (size 15 to 20)
#    0.000    2.000    1.250    3.000    0.000    3.000 
#    0.000    5.000    0.000    0.000    0.000    0.000 
#    0.000    0.000    0.000    0.000    0.000    0.000 
#
# Total GULP energy -396804.358661 kJ/mol
# GULP energy per Si atom -12400.136208 kJ/mol
# Density = 1.958165 g / cm^3
# Si number density = 19.626320 Si / 1000 Ang^3
#
#
#
# Elastic Constant Matrix: (Units=GPa)
#
#
# Indices 1 2 3 4 5 6 
#
# 1 135.0623 26.5693 68.9868 0.0000 16.4927 0.0000
# 2 26.5693 51.5253 20.5468 0.0000 2.9643 0.0000
# 3 68.9868 20.5468 132.1782 0.0000 20.1598 0.0000
# 4 0.0000 0.0000 0.0000 23.0653 0.0000 4.0019
# 5 16.4927 2.9643 20.1598 0.0000 29.6565 0.0000
# 6 0.0000 0.0000 0.0000 4.0019 0.0000 22.8201
#
#
#
# Elastic Compliance Matrix: (Units=1/GPa)
#
#
# Indices 1 2 3 4 5 6 
#
# 1 0.010811 -0.003553 -0.004717 0.000000 -0.002451 0.000000
# 2 -0.003553 0.021859 -0.001686 0.000000 0.000937 0.000000
# 3 -0.004717 -0.001686 0.011005 0.000000 -0.004689 0.000000
# 4 0.000000 0.000000 0.000000 0.044716 0.000000 -0.007842
# 5 -0.002451 0.000937 -0.004689 0.000000 0.038176 0.000000
# 6 0.000000 0.000000 0.000000 -0.007842 0.000000 0.045196
#
#
# Mechanical properties :
#
#
# Convention : Reuss Voigt Hill
#
# Bulk Modulus (GPa) = 42.08316 61.21906 51.65111
# Shear Modulus (GPa) = 25.05064 28.61924 26.83494
#
# Velocity S-wave (km/s) = 3.57652 3.82279 3.70170
# Velocity P-wave (km/s) = 6.20839 7.12355 6.68166
#
# Compressibility (1/GPa) = 0.02376247
#
# Stress axis : x y z
#
# Youngs Moduli (GPa) = 92.49527 45.74841 90.87162
#
# Poissons Ratio (x) = 0.16255 0.42860
# Poissons Ratio (y) = 0.32865 0.15325
# Poissons Ratio (z) = 0.43626 0.07715
#
# Static dielectric constant tensor:
#      x y z
#    x 3.740990 0.000000 0.005020 
#    y 0.000000 3.431680 0.000000 
#    z 0.005020 0.000000 3.806630 
# 
# 
# High freq. dielectric constant tensor:
#      x y z
#    x 1.764320 0.000000 0.005470 
#    y 0.000000 1.733900 0.000000 
#    z 0.005470 0.000000 1.781360 
# 
# From -- ./inp_files/70033.got.cif
#   From: 2010.06.25/outbox.cif.g09.slc.cpg/sg11_36_cif.got.tgz:70033.got - 2010.06.27 23:14:04.
