data_PCOD8072398
_publ_section_title
;
Structure prediction by ZEFSAII (Michael W. Deem and Ramdas Pophale) SiO2 
 PCOD8072398
Probable space group: P 21/M
;
_chemical_formula_sum "Si O2"
_cell_formula_units_Z 32
_cell_length_a 21.540769
_cell_length_b 8.827570
_cell_length_c 27.942950
_cell_angle_alpha 90.000000
_cell_angle_beta 18.707425
_cell_angle_gamma 90.000000
_cell_volume 1704.205570
_symmetry_space_group_name_H-M "P 21/M"
_symmetry_group_IT_number 11
_symmetry_cell_setting 'monoclinic'
loop_
_space_group_symop_operation_xyz
x,y,z
-x,1/2+y,-z
-x,-y,-z
x,1/2-y,z
loop_
_atom_site_type_symbol
_atom_site_label
_atom_site_fract_x
_atom_site_fract_y
_atom_site_fract_z
Si Si1 0.991053 0.429347 0.454568
Si Si2 0.286645 0.423878 0.413321
Si Si3 0.288760 0.924526 0.865705
Si Si4 0.707554 0.573764 0.844236
Si Si5 0.202078 0.070411 0.642458
Si Si6 0.621801 0.071016 0.305210
Si Si7 0.911689 0.071858 0.175977
Si Si8 0.960698 0.428138 0.327037
O O1 0.984831 0.250000 0.463178
O O2 0.794835 0.484267 0.572372
O O3 0.000000 0.500000 0.500000
O O4 0.175116 0.483440 0.288369
O O5 0.220606 0.250000 0.457646
O O6 0.517504 0.438356 0.244421
O O7 0.209323 0.490582 0.519515
O O8 0.218170 0.750000 0.915489
O O9 0.322154 0.990492 0.788017
O O10 0.133005 0.029750 0.005034
O O11 0.672547 0.750000 0.865107
O O12 0.831755 0.534130 0.800835
O O13 0.500000 0.500000 0.000000
O O14 0.184226 0.250000 0.651144
O O15 0.413434 0.007816 0.473425
O O16 0.164679 0.020722 0.723436
O O17 0.042619 0.993246 0.724260
O O18 0.606576 0.250000 0.313948
O O19 0.784449 0.017991 0.223759
O O20 0.891603 0.250000 0.200342
O O21 0.921347 0.250000 0.356415
#
# Coordination Sequence:
#
# PCOD8072398 Si02
#       8
#     4   4   4   4   4   4   4   4
#     4  10  21  38  59  87 119 150 189 236 280 334
#     4  10  19  35  61  86 112 150 192 234 280 336
#     4  10  20  38  59  82 113 149 190 233 280 342
#     4   9  20  37  58  85 116 146 182 227 273 329
#     4  11  21  38  60  82 111 151 192 234 284 339
#     4   9  19  37  60  83 110 144 191 237 280 339
#     4  11  23  37  54  83 118 149 184 237 291 337
#     4  10  20  36  58  86 116 146 188 237 279 332
#
# _framework density 18.777076999999998
#
# number of rings (size 3 to 8) (size 9 to 14) (size 15 to 20)
#    0.000    2.000    1.250    3.375    0.000    4.000 
#    2.250    2.500    0.000    0.000    0.000    0.000 
#    0.000    0.000    0.000    0.000    0.000    0.000 
#
# Total GULP energy -396875.549099 kJ/mol
# GULP energy per Si atom -12402.360909 kJ/mol
# Density = 1.873434 g / cm^3
# Si number density = 18.777077 Si / 1000 Ang^3
#
#
#
# Elastic Constant Matrix: (Units=GPa)
#
#
# Indices 1 2 3 4 5 6 
#
# 1 95.6054 33.1824 34.0435 0.0000 -4.0142 0.0000
# 2 33.1824 68.2759 35.4572 0.0000 -6.6501 0.0000
# 3 34.0435 35.4572 100.2877 0.0000 -7.8754 0.0000
# 4 0.0000 0.0000 0.0000 28.1823 0.0000 0.2872
# 5 -4.0142 -6.6501 -7.8754 0.0000 26.7842 0.0000
# 6 0.0000 0.0000 0.0000 0.2872 0.0000 33.8757
#
#
#
# Elastic Compliance Matrix: (Units=1/GPa)
#
#
# Indices 1 2 3 4 5 6 
#
# 1 0.013153 -0.004994 -0.002704 0.000000 -0.000064 0.000000
# 2 -0.004994 0.020023 -0.005172 0.000000 0.002702 0.000000
# 3 -0.002704 -0.005172 0.012882 0.000000 0.002099 0.000000
# 4 0.000000 0.000000 0.000000 0.035486 0.000000 -0.000301
# 5 -0.000064 0.002702 0.002099 0.000000 0.038614 0.000000
# 6 0.000000 0.000000 0.000000 -0.000301 0.000000 0.029522
#
#
# Mechanical properties :
#
#
# Convention : Reuss Voigt Hill
#
# Bulk Modulus (GPa) = 49.21706 52.17059 50.69383
# Shear Modulus (GPa) = 27.44329 28.53418 27.98873
#
# Velocity S-wave (km/s) = 3.82715 3.90247 3.86499
# Velocity P-wave (km/s) = 6.76739 6.93904 6.85375
#
# Compressibility (1/GPa) = 0.02031816
#
# Stress axis : x y z
#
# Youngs Moduli (GPa) = 76.02614 49.94339 77.62474
#
# Poissons Ratio (x) = 0.24944 0.20991
# Poissons Ratio (y) = 0.37971 0.40144
# Poissons Ratio (z) = 0.20559 0.25828
#
# Static dielectric constant tensor:
#      x y z
#    x 3.587910 0.000000 -0.040150 
#    y 0.000000 3.382020 0.000000 
#    z -0.040150 0.000000 3.452250 
# 
# 
# High freq. dielectric constant tensor:
#      x y z
#    x 1.738300 0.000000 -0.005970 
#    y 0.000000 1.727150 0.000000 
#    z -0.005970 0.000000 1.722050 
# 
# From -- ./inp_files/71982.got.cif
#   From: 2010.06.25/outbox.cif.g09.slc.cpg/sg11_36_cif.got.tgz:71982.got - 2010.06.27 23:14:04.
