data_PCOD8072194
_publ_section_title
;
Structure prediction by ZEFSAII (Michael W. Deem and Ramdas Pophale) SiO2 
 PCOD8072194
Probable space group: P 21/M
;
_chemical_formula_sum "Si O2"
_cell_formula_units_Z 28
_cell_length_a 9.615319
_cell_length_b 8.783714
_cell_length_c 26.950157
_cell_angle_alpha 90.000000
_cell_angle_beta 140.253766
_cell_angle_gamma 90.000000
_cell_volume 1455.351777
_symmetry_space_group_name_H-M "P 21/M"
_symmetry_group_IT_number 11
_symmetry_cell_setting 'monoclinic'
loop_
_space_group_symop_operation_xyz
x,y,z
-x,1/2+y,-z
-x,-y,-z
x,1/2-y,z
loop_
_atom_site_type_symbol
_atom_site_label
_atom_site_fract_x
_atom_site_fract_y
_atom_site_fract_z
Si Si1 0.299622 0.066983 0.915581
Si Si2 0.797318 0.430494 0.215546
Si Si3 0.949219 0.577630 0.434128
Si Si4 0.581295 0.423020 0.473158
Si Si5 0.241595 0.579493 0.319623
Si Si6 0.400810 0.433486 0.740255
Si Si7 0.838933 0.419195 0.816824
O O1 0.301823 0.250000 0.914945
O O2 0.079336 0.004141 0.882765
O O3 0.308963 0.007410 0.862023
O O4 0.500000 0.000000 0.000000
O O5 0.775622 0.250000 0.205555
O O6 0.668223 0.490280 0.227601
O O7 0.049048 0.477068 0.289358
O O8 0.892177 0.750000 0.431752
O O9 0.160204 0.563538 0.457451
O O10 0.000000 0.500000 0.500000
O O11 0.752006 0.508340 0.347221
O O12 0.500000 0.500000 0.500000
O O13 0.502629 0.250000 0.450087
O O14 0.473966 0.510465 0.397633
O O15 0.213918 0.750000 0.333691
O O16 0.245612 0.583153 0.262106
O O17 0.388583 0.250000 0.740782
O O18 0.647931 0.494750 0.797497
O O19 0.869273 0.250000 0.845900
#
# Coordination Sequence:
#
# PCOD8072194 Si02
#       7
#     4   4   4   4   4   4   4
#     4  10  20  38  62  89 116 146 181 222 270 326
#     4  11  22  36  56  85 115 147 183 225 274 330
#     4  10  22  36  53  77 108 145 188 233 283 335
#     4  11  22  34  49  75 106 140 182 232 282 331
#     4  10  19  35  56  77 102 140 186 232 277 328
#     4  10  19  36  57  79 109 147 186 229 277 330
#     4   8  17  33  57  82 105 137 180 223 270 324
#
# _framework density 19.239335000000001
#
# number of rings (size 3 to 8) (size 9 to 14) (size 15 to 20)
#    0.000    2.000    0.000    5.143    0.000    4.000 
#    0.000    5.000    0.000    0.000    0.000    0.000 
#    0.000    0.000    0.000    0.000    0.000    0.000 
#
# Total GULP energy -347065.445969 kJ/mol
# GULP energy per Si atom -12395.194499 kJ/mol
# Density = 1.919555 g / cm^3
# Si number density = 19.239335 Si / 1000 Ang^3
#
#
#
# Elastic Constant Matrix: (Units=GPa)
#
#
# Indices 1 2 3 4 5 6 
#
# 1 119.2829 39.4119 43.0223 0.0000 7.5998 0.0000
# 2 39.4119 89.5885 38.0314 0.0000 1.2124 0.0000
# 3 43.0223 38.0314 121.8157 0.0000 11.6863 0.0000
# 4 0.0000 0.0000 0.0000 31.6659 0.0000 -3.6368
# 5 7.5998 1.2124 11.6863 0.0000 22.5358 0.0000
# 6 0.0000 0.0000 0.0000 -3.6368 0.0000 25.8336
#
#
#
# Elastic Compliance Matrix: (Units=1/GPa)
#
#
# Indices 1 2 3 4 5 6 
#
# 1 0.010577 -0.003603 -0.002407 0.000000 -0.002125 0.000000
# 2 -0.003603 0.014141 -0.003353 0.000000 0.002193 0.000000
# 3 -0.002407 -0.003353 0.010535 0.000000 -0.004471 0.000000
# 4 0.000000 0.000000 0.000000 0.032099 0.000000 0.004519
# 5 -0.002125 0.002193 -0.004471 0.000000 0.047291 0.000000
# 6 0.000000 0.000000 0.000000 0.004519 0.000000 0.039345
#
#
# Mechanical properties :
#
#
# Convention : Reuss Voigt Hill
#
# Bulk Modulus (GPa) = 60.50344 63.51313 62.00828
# Shear Modulus (GPa) = 28.05486 30.02181 29.03833
#
# Velocity S-wave (km/s) = 3.82279 3.95452 3.88921
# Velocity P-wave (km/s) = 7.14150 7.34403 7.24347
#
# Compressibility (1/GPa) = 0.01652799
#
# Stress axis : x y z
#
# Youngs Moduli (GPa) = 94.54207 70.71818 94.92262
#
# Poissons Ratio (x) = 0.25477 0.22848
# Poissons Ratio (y) = 0.34060 0.31825
# Poissons Ratio (z) = 0.22757 0.23710
#
# Static dielectric constant tensor:
#      x y z
#    x 3.617130 0.000000 0.248700 
#    y 0.000000 3.593280 0.000000 
#    z 0.248700 0.000000 4.067670 
# 
# 
# High freq. dielectric constant tensor:
#      x y z
#    x 1.755140 0.000000 0.010430 
#    y 0.000000 1.736320 0.000000 
#    z 0.010430 0.000000 1.743980 
# 
# From -- ./inp_files/28627.got.cif
#   From: 2010.06.25/outbox.cif.g09.slc.cpg/sg11_15_cif.got.tgz:28627.got - 2010.06.27 23:14:04.
