data_PCOD8072172
_publ_section_title
;
Structure prediction by ZEFSAII (Michael W. Deem and Ramdas Pophale) SiO2 
 PCOD8072172
Probable space group: P 21/M
;
_chemical_formula_sum "Si O2"
_cell_formula_units_Z 32
_cell_length_a 28.562271
_cell_length_b 9.339670
_cell_length_c 11.713154
_cell_angle_alpha 90.000000
_cell_angle_beta 31.626422
_cell_angle_gamma 90.000000
_cell_volume 1638.487379
_symmetry_space_group_name_H-M "P 21/M"
_symmetry_group_IT_number 11
_symmetry_cell_setting 'monoclinic'
loop_
_space_group_symop_operation_xyz
x,y,z
-x,1/2+y,-z
-x,-y,-z
x,1/2-y,z
loop_
_atom_site_type_symbol
_atom_site_label
_atom_site_fract_x
_atom_site_fract_y
_atom_site_fract_z
Si Si1 0.579576 0.087054 0.391365
Si Si2 0.998661 0.417336 0.883474
Si Si3 0.476932 0.914197 0.236520
Si Si4 0.781585 0.416228 0.942200
Si Si5 0.162293 0.420331 0.385774
Si Si6 0.672156 0.915730 0.557615
Si Si7 0.673929 0.584345 0.812361
Si Si8 0.818974 0.085718 0.122348
O O1 0.567428 0.250000 0.376871
O O2 0.574146 0.074685 0.538394
O O3 0.500000 0.000000 0.500000
O O4 0.678122 0.029967 0.153311
O O5 0.006504 0.250000 0.895512
O O6 0.079880 0.468840 0.635241
O O7 0.000000 0.500000 0.000000
O O8 0.910427 0.453619 0.995204
O O9 0.481778 0.750000 0.182760
O O10 0.423534 0.008004 0.255793
O O11 0.576329 0.981447 0.040251
O O12 0.785310 0.250000 0.901309
O O13 0.841806 0.506542 0.729486
O O14 0.827108 0.441542 0.970508
O O15 0.162453 0.250000 0.369851
O O16 0.251401 0.483360 0.261063
O O17 0.660808 0.750000 0.550730
O O18 0.705066 0.939724 0.618071
O O19 0.743165 0.983071 0.325989
O O20 0.668615 0.750000 0.853864
O O21 0.791010 0.250000 0.204029
#
# Coordination Sequence:
#
# PCOD8072172 Si02
#       8
#     4   4   4   4   4   4   4   4
#     4  10  20  34  54  78 109 152 197 240 284 336
#     4  10  22  40  65  92 119 152 190 233 286 346
#     4  10  19  35  54  75 109 155 191 226 289 351
#     4  10  21  38  57  81 114 152 195 237 283 343
#     4  10  21  39  60  85 115 148 189 236 288 341
#     4  11  21  34  55  85 114 145 191 245 285 331
#     4   9  19  34  54  79 113 151 186 232 290 343
#     4  10  21  40  61  82 115 158 192 229 289 353
#
# _framework density 19.530208999999999
#
# number of rings (size 3 to 8) (size 9 to 14) (size 15 to 20)
#    0.000    2.000    1.250    2.250    0.000    5.000 
#    0.000    2.500    0.000    0.000    0.000    0.000 
#    0.000    0.000    0.000    0.000    0.000    0.000 
#
# Total GULP energy -396829.802857 kJ/mol
# GULP energy per Si atom -12400.931339 kJ/mol
# Density = 1.948576 g / cm^3
# Si number density = 19.530209 Si / 1000 Ang^3
#
#
#
# Elastic Constant Matrix: (Units=GPa)
#
#
# Indices 1 2 3 4 5 6 
#
# 1 114.8657 46.8210 47.4547 0.0000 -7.5423 0.0000
# 2 46.8210 63.8237 43.1385 0.0000 2.0241 0.0000
# 3 47.4547 43.1385 123.6649 0.0000 2.6821 0.0000
# 4 0.0000 0.0000 0.0000 22.4123 0.0000 5.8888
# 5 -7.5423 2.0241 2.6821 0.0000 30.4234 0.0000
# 6 0.0000 0.0000 0.0000 5.8888 0.0000 27.5966
#
#
#
# Elastic Compliance Matrix: (Units=1/GPa)
#
#
# Indices 1 2 3 4 5 6 
#
# 1 0.013323 -0.008358 -0.002285 0.000000 0.004061 0.000000
# 2 -0.008358 0.025762 -0.005708 0.000000 -0.003283 0.000000
# 3 -0.002285 -0.005708 0.010979 0.000000 -0.001155 0.000000
# 4 0.000000 0.000000 0.000000 0.047268 0.000000 -0.010086
# 5 0.004061 -0.003283 -0.001155 0.000000 0.034196 0.000000
# 6 0.000000 0.000000 0.000000 -0.010086 0.000000 0.038389
#
#
# Mechanical properties :
#
#
# Convention : Reuss Voigt Hill
#
# Bulk Modulus (GPa) = 57.59730 64.13142 60.86436
# Shear Modulus (GPa) = 23.99131 27.08248 25.53689
#
# Velocity S-wave (km/s) = 3.50869 3.72788 3.61994
# Velocity P-wave (km/s) = 6.78011 7.17201 6.97881
#
# Compressibility (1/GPa) = 0.01736192
#
# Stress axis : x y z
#
# Youngs Moduli (GPa) = 75.05537 38.81677 91.07919
#
# Poissons Ratio (x) = 0.32445 0.20812
# Poissons Ratio (y) = 0.62734 0.51989
# Poissons Ratio (z) = 0.17151 0.22157
#
# Static dielectric constant tensor:
#      x y z
#    x 3.673750 0.000000 -0.116120 
#    y 0.000000 3.371730 0.000000 
#    z -0.116120 0.000000 3.624050 
# 
# 
# High freq. dielectric constant tensor:
#      x y z
#    x 1.769550 0.000000 -0.001430 
#    y 0.000000 1.739260 0.000000 
#    z -0.001430 0.000000 1.767660 
# 
# From -- ./inp_files/38299.got.cif
#   From: 2010.06.25/outbox.cif.g09.slc.cpg/sg11_20_cif.got.tgz:38299.got - 2010.06.27 23:14:04.
