data_PCOD8072929
_publ_section_title
;
Structure prediction by ZEFSAII (Michael W. Deem and Ramdas Pophale) SiO2 
 PCOD8072929
Probable space group: P 21/M
;
_chemical_formula_sum "Si O2"
_cell_formula_units_Z 32
_cell_length_a 23.006232
_cell_length_b 8.909317
_cell_length_c 14.900995
_cell_angle_alpha 90.000000
_cell_angle_beta 140.558551
_cell_angle_gamma 90.000000
_cell_volume 1940.335175
_symmetry_space_group_name_H-M "P 21/M"
_symmetry_group_IT_number 11
_symmetry_cell_setting 'monoclinic'
loop_
_space_group_symop_operation_xyz
x,y,z
-x,1/2+y,-z
-x,-y,-z
x,1/2-y,z
loop_
_atom_site_type_symbol
_atom_site_label
_atom_site_fract_x
_atom_site_fract_y
_atom_site_fract_z
Si Si1 0.894169 0.425820 0.962497
Si Si2 0.920661 0.426285 0.788976
Si Si3 0.422973 0.425278 0.211525
Si Si4 0.373227 0.575111 0.781337
Si Si5 0.246089 0.426141 0.498429
Si Si6 0.389095 0.425132 0.514534
Si Si7 0.442001 0.575271 0.055549
Si Si8 0.710311 0.924363 0.785862
O O1 0.908226 0.250000 0.992599
O O2 0.889229 0.469893 0.851843
O O3 0.801948 0.478504 0.900498
O O4 0.978504 0.510203 0.109929
O O5 0.920974 0.250000 0.773525
O O6 0.852084 0.501796 0.637163
O O7 0.428488 0.250000 0.197745
O O8 0.520555 0.479151 0.363196
O O9 0.392533 0.511496 0.084789
O O10 0.346755 0.462847 0.193940
O O11 0.368728 0.750000 0.753469
O O12 0.283543 0.493556 0.636381
O O13 0.461939 0.508560 0.838908
O O14 0.377343 0.545136 0.892956
O O15 0.233659 0.250000 0.493903
O O16 0.315176 0.469259 0.501189
O O17 0.414276 0.250000 0.549283
O O18 0.349338 0.471714 0.370998
O O19 0.464109 0.750000 0.093457
O O20 0.737107 0.750000 0.811229
#
# Coordination Sequence:
#
# PCOD8072929 Si02
#       8
#     4   4   4   4   4   4   4   4
#     4  10  20  33  51  74  97 129 169 209 250 292
#     4  10  20  33  51  73 101 132 164 205 250 298
#     4  11  22  33  50  72  98 134 174 211 246 292
#     4  10  20  33  51  72  97 128 165 206 251 301
#     4  11  20  31  51  76 102 133 166 204 248 296
#     4  10  20  33  48  68 100 137 172 207 243 287
#     4  10  20  34  50  70  97 130 165 207 253 295
#     4  10  21  36  50  69  99 136 173 209 248 289
#
# _framework density 16.491996
#
# number of rings (size 3 to 8) (size 9 to 14) (size 15 to 20)
#    0.000    1.750    2.500    2.625    0.000    4.500 
#    0.000    0.000    0.000    0.000    0.000    0.875 
#    0.000    0.000    0.000    0.000    0.000    0.000 
#
# Total GULP energy -396955.557742 kJ/mol
# GULP energy per Si atom -12404.861179 kJ/mol
# Density = 1.645446 g / cm^3
# Si number density = 16.491996 Si / 1000 Ang^3
#
#
#
# Elastic Constant Matrix: (Units=GPa)
#
#
# Indices 1 2 3 4 5 6 
#
# 1 76.6025 37.9474 50.9250 0.0000 -4.3921 0.0000
# 2 37.9474 80.4467 59.5621 0.0000 1.5868 0.0000
# 3 50.9250 59.5621 130.4068 0.0000 -2.8485 0.0000
# 4 0.0000 0.0000 0.0000 33.0709 0.0000 1.3651
# 5 -4.3921 1.5868 -2.8485 0.0000 20.8294 0.0000
# 6 0.0000 0.0000 0.0000 1.3651 0.0000 25.4530
#
#
#
# Elastic Compliance Matrix: (Units=1/GPa)
#
#
# Indices 1 2 3 4 5 6 
#
# 1 0.019284 -0.005527 -0.004923 0.000000 0.003814 0.000000
# 2 -0.005527 0.020509 -0.007290 0.000000 -0.003725 0.000000
# 3 -0.004923 -0.007290 0.012949 0.000000 0.001288 0.000000
# 4 0.000000 0.000000 0.000000 0.030305 0.000000 -0.001625
# 5 0.003814 -0.003725 0.001288 0.000000 0.049273 0.000000
# 6 0.000000 0.000000 0.000000 -0.001625 0.000000 0.039375
#
#
# Mechanical properties :
#
#
# Convention : Reuss Voigt Hill
#
# Bulk Modulus (GPa) = 57.93299 64.92501 61.42900
# Shear Modulus (GPa) = 23.48213 25.13877 24.31045
#
# Velocity S-wave (km/s) = 3.77749 3.90847 3.84353
# Velocity P-wave (km/s) = 7.36411 7.73442 7.55153
#
# Compressibility (1/GPa) = 0.01726132
#
# Stress axis : x y z
#
# Youngs Moduli (GPa) = 51.85765 48.75975 77.22800
#
# Poissons Ratio (x) = 0.26948 0.38018
# Poissons Ratio (y) = 0.28660 0.56302
# Poissons Ratio (z) = 0.25529 0.35548
#
# Static dielectric constant tensor:
#      x y z
#    x 2.962990 0.000000 -0.104250 
#    y 0.000000 3.171780 0.000000 
#    z -0.104250 0.000000 3.129330 
# 
# 
# High freq. dielectric constant tensor:
#      x y z
#    x 1.605850 0.000000 -0.004680 
#    y 0.000000 1.650600 0.000000 
#    z -0.004680 0.000000 1.633470 
# 
# From -- ./inp_files/51196.got.cif
#   From: 2010.06.25/outbox.cif.g09.slc.cpg/sg11_26_cif.got.tgz:51196.got - 2010.06.27 23:14:04.
