data_PCOD8072146
_publ_section_title
;
Structure prediction by ZEFSAII (Michael W. Deem and Ramdas Pophale) SiO2 
 PCOD8072146
Probable space group: P 21/M
;
_chemical_formula_sum "Si O2"
_cell_formula_units_Z 24
_cell_length_a 11.845747
_cell_length_b 22.403220
_cell_length_c 5.186755
_cell_angle_alpha 90.000000
_cell_angle_beta 65.157834
_cell_angle_gamma 90.000000
_cell_volume 1249.108634
_symmetry_space_group_name_H-M "P 21/M"
_symmetry_group_IT_number 11
_symmetry_cell_setting 'monoclinic'
loop_
_space_group_symop_operation_xyz
x,y,z
-x,1/2+y,-z
-x,-y,-z
x,1/2-y,z
loop_
_atom_site_type_symbol
_atom_site_label
_atom_site_fract_x
_atom_site_fract_y
_atom_site_fract_z
Si Si1 0.325271 0.069159 0.957601
Si Si2 0.264805 0.610858 0.956722
Si Si3 0.083122 0.505973 0.170249
Si Si4 0.307986 0.683319 0.414516
Si Si5 0.466136 0.423799 0.329416
Si Si6 0.583871 0.682918 0.316613
O O1 0.318309 0.141947 0.938124
O O2 0.415223 0.044090 0.640370
O O3 0.388728 0.050103 0.164958
O O4 0.186311 0.045675 0.070569
O O5 0.144564 0.570709 0.112975
O O6 0.265278 0.660024 0.178707
O O7 0.252838 0.641963 0.691529
O O8 0.386084 0.567294 0.854853
O O9 0.000000 0.500000 0.500000
O O10 0.000000 0.500000 0.000000
O O11 0.255411 0.750000 0.501392
O O12 0.457020 0.683681 0.275342
O O13 0.443931 0.351475 0.385373
O O14 0.634658 0.750000 0.317192
#
# Coordination Sequence:
#
# PCOD8072146 Si02
#       6
#     4   4   4   4   4   4
#     4  10  20  37  57  86 120 149 194 240 289 356
#     4  11  20  38  59  90 123 155 192 244 298 359
#     4  12  27  43  61  81 112 170 212 251 288 339
#     4  10  19  34  59  95 127 150 180 232 308 378
#     4   9  18  33  55  92 117 144 179 235 310 346
#     4   8  17  31  55  88 124 147 175 226 300 369
#
# _framework density 19.213698999999998
#
# number of rings (size 3 to 8) (size 9 to 14) (size 15 to 20)
#    1.000    1.000    1.667    2.500    0.000    2.667 
#    0.000    0.000    0.000    6.000    0.000    0.000 
#    0.000    0.000    0.000    0.000    0.000    0.000 
#
# Total GULP energy -297480.989370 kJ/mol
# GULP energy per Si atom -12395.041224 kJ/mol
# Density = 1.916997 g / cm^3
# Si number density = 19.213699 Si / 1000 Ang^3
#
#
#
# Elastic Constant Matrix: (Units=GPa)
#
#
# Indices 1 2 3 4 5 6 
#
# 1 97.4671 22.7579 48.4914 0.0000 4.1800 0.0000
# 2 22.7579 58.8709 23.9713 0.0000 -14.8682 0.0000
# 3 48.4914 23.9713 126.3737 0.0000 5.6988 0.0000
# 4 0.0000 0.0000 0.0000 18.6999 0.0000 11.4104
# 5 4.1800 -14.8682 5.6988 0.0000 37.0992 0.0000
# 6 0.0000 0.0000 0.0000 11.4104 0.0000 11.7981
#
#
#
# Elastic Compliance Matrix: (Units=1/GPa)
#
#
# Indices 1 2 3 4 5 6 
#
# 1 0.013447 -0.004090 -0.004271 0.000000 -0.002498 0.000000
# 2 -0.004090 0.022332 -0.003113 0.000000 0.009889 0.000000
# 3 -0.004271 -0.003113 0.010248 0.000000 -0.002340 0.000000
# 4 0.000000 0.000000 0.000000 0.130472 0.000000 -0.126185
# 5 -0.002498 0.009889 -0.002340 0.000000 0.031559 0.000000
# 6 0.000000 0.000000 0.000000 -0.126185 0.000000 0.206798
#
#
# Mechanical properties :
#
#
# Convention : Reuss Voigt Hill
#
# Bulk Modulus (GPa) = 43.32874 52.57255 47.95064
# Shear Modulus (GPa) = 11.22340 26.01887 18.62113
#
# Velocity S-wave (km/s) = 2.41951 3.68392 3.11651
# Velocity P-wave (km/s) = 5.51410 6.74658 6.16124
#
# Compressibility (1/GPa) = 0.02307937
#
# Stress axis : x y z
#
# Youngs Moduli (GPa) = 74.36577 44.77812 97.58003
#
# Poissons Ratio (x) = 0.18314 0.41680
# Poissons Ratio (y) = 0.30415 0.30374
# Poissons Ratio (z) = 0.31764 0.13938
#
# Static dielectric constant tensor:
#      x y z
#    x 3.238160 0.000000 0.091550 
#    y 0.000000 3.571050 0.000000 
#    z 0.091550 0.000000 3.453060 
# 
# 
# High freq. dielectric constant tensor:
#      x y z
#    x 1.716630 0.000000 0.022470 
#    y 0.000000 1.752380 0.000000 
#    z 0.022470 0.000000 1.748730 
# 
# From -- ./inp_files/4819.got.cif
#   From: 2010.06.25/outbox.cif.g09.slc.cpg/sg11_3_cif.got.tgz:4819.got - 2010.06.27 23:14:04.
