data_PCOD8072842
_publ_section_title
;
Structure prediction by ZEFSAII (Michael W. Deem and Ramdas Pophale) SiO2 
 PCOD8072842
Probable space group: P 21/M
;
_chemical_formula_sum "Si O2"
_cell_formula_units_Z 32
_cell_length_a 23.278871
_cell_length_b 8.862864
_cell_length_c 16.835817
_cell_angle_alpha 90.000000
_cell_angle_beta 148.562150
_cell_angle_gamma 90.000000
_cell_volume 1811.697199
_symmetry_space_group_name_H-M "P 21/M"
_symmetry_group_IT_number 11
_symmetry_cell_setting 'monoclinic'
loop_
_space_group_symop_operation_xyz
x,y,z
-x,1/2+y,-z
-x,-y,-z
x,1/2-y,z
loop_
_atom_site_type_symbol
_atom_site_label
_atom_site_fract_x
_atom_site_fract_y
_atom_site_fract_z
Si Si1 0.831582 0.070906 0.649245
Si Si2 0.618492 0.427100 0.142935
Si Si3 0.387018 0.572244 0.343703
Si Si4 0.389805 0.573479 0.040776
Si Si5 0.641411 0.929314 0.326918
Si Si6 0.734051 0.429014 0.954319
Si Si7 0.050715 0.570616 0.879024
Si Si8 0.174685 0.571556 0.179619
O O1 0.821984 0.250000 0.631266
O O2 0.851261 0.013177 0.762759
O O3 0.718888 0.997595 0.485864
O O4 0.936010 0.011055 0.722126
O O5 0.610727 0.250000 0.151555
O O6 0.684782 0.508343 0.292313
O O7 0.500000 0.500000 0.000000
O O8 0.668183 0.457596 0.113301
O O9 0.500000 0.500000 0.500000
O O10 0.399730 0.750000 0.361275
O O11 0.296249 0.514847 0.299365
O O12 0.351253 0.518442 0.213866
O O13 0.399256 0.750000 0.067599
O O14 0.515981 0.512163 0.193862
O O15 0.310836 0.501257 0.015456
O O16 0.649866 0.750000 0.336807
O O17 0.737878 0.250000 0.962606
O O18 0.857758 0.483179 0.077615
O O19 0.034464 0.750000 0.857099
O O20 0.087740 0.514447 0.010907
O O21 0.173472 0.750000 0.175436
#
# Coordination Sequence:
#
# PCOD8072842 Si02
#       8
#     4   4   4   4   4   4   4   4
#     4  11  21  32  48  69  98 129 160 204 249 285
#     4   9  16  29  49  72 101 131 158 191 236 289
#     4   9  17  29  45  65  95 129 159 191 232 279
#     4   8  15  28  49  75  98 122 156 193 230 284
#     4  10  20  32  48  73 102 127 160 199 239 291
#     4   8  15  29  49  70  93 124 158 194 236 281
#     4   9  17  33  53  69  90 125 167 203 238 283
#     4   8  17  32  47  66  93 128 164 198 240 286
#
# _framework density 17.662994999999999
#
# number of rings (size 3 to 8) (size 9 to 14) (size 15 to 20)
#    0.000    3.000    0.000    3.750    1.750    0.000 
#    0.000    3.750    0.000    6.000    0.000    0.000 
#    0.000    0.000    0.000    0.000    0.000    0.000 
#
# Total GULP energy -396493.256734 kJ/mol
# GULP energy per Si atom -12390.414273 kJ/mol
# Density = 1.762279 g / cm^3
# Si number density = 17.662995 Si / 1000 Ang^3
#
#
#
# Elastic Constant Matrix: (Units=GPa)
#
#
# Indices 1 2 3 4 5 6 
#
# 1 128.5002 27.9242 41.5925 0.0000 -3.3608 0.0000
# 2 27.9242 46.8365 18.9970 0.0000 -1.8108 0.0000
# 3 41.5925 18.9970 57.6586 0.0000 5.0858 0.0000
# 4 0.0000 0.0000 0.0000 29.0781 0.0000 -0.5943
# 5 -3.3608 -1.8108 5.0858 0.0000 21.1255 0.0000
# 6 0.0000 0.0000 0.0000 -0.5943 0.0000 17.2057
#
#
#
# Elastic Compliance Matrix: (Units=1/GPa)
#
#
# Indices 1 2 3 4 5 6 
#
# 1 0.010886 -0.003549 -0.006957 0.000000 0.003103 0.000000
# 2 -0.003549 0.026163 -0.006343 0.000000 0.003205 0.000000
# 3 -0.006957 -0.006343 0.025131 0.000000 -0.007701 0.000000
# 4 0.000000 0.000000 0.000000 0.034414 0.000000 0.001189
# 5 0.003103 0.003205 -0.007701 0.000000 0.049958 0.000000
# 6 0.000000 0.000000 0.000000 0.001189 0.000000 0.058161
#
#
# Mechanical properties :
#
#
# Convention : Reuss Voigt Hill
#
# Bulk Modulus (GPa) = 35.10883 45.55808 40.33346
# Shear Modulus (GPa) = 20.16883 23.11399 21.64141
#
# Velocity S-wave (km/s) = 3.38282 3.62140 3.50414
# Velocity P-wave (km/s) = 5.93112 6.58293 6.26551
#
# Compressibility (1/GPa) = 0.02848286
#
# Stress axis : x y z
#
# Youngs Moduli (GPa) = 91.85826 38.22157 39.79091
#
# Poissons Ratio (x) = 0.13563 0.27684
# Poissons Ratio (y) = 0.32597 0.25239
# Poissons Ratio (z) = 0.63910 0.24244
#
# Static dielectric constant tensor:
#      x y z
#    x 3.827190 0.000000 -0.419820 
#    y 0.000000 3.099590 0.000000 
#    z -0.419820 0.000000 2.789050 
# 
# 
# High freq. dielectric constant tensor:
#      x y z
#    x 1.685570 0.000000 -0.003940 
#    y 0.000000 1.654310 0.000000 
#    z -0.003940 0.000000 1.666110 
# 
# From -- ./inp_files/61804.got.cif
#   From: 2010.06.25/outbox.cif.g09.slc.cpg/sg11_31_cif.got.tgz:61804.got - 2010.06.27 23:14:04.
