data_PCOD8072427
_publ_section_title
;
Structure prediction by ZEFSAII (Michael W. Deem and Ramdas Pophale) SiO2 
 PCOD8072427
Probable space group: P 21/M
;
_chemical_formula_sum "Si O2"
_cell_formula_units_Z 28
_cell_length_a 18.550823
_cell_length_b 13.485581
_cell_length_c 8.763094
_cell_angle_alpha 90.000000
_cell_angle_beta 42.579587
_cell_angle_gamma 90.000000
_cell_volume 1483.307131
_symmetry_space_group_name_H-M "P 21/M"
_symmetry_group_IT_number 11
_symmetry_cell_setting 'monoclinic'
loop_
_space_group_symop_operation_xyz
x,y,z
-x,1/2+y,-z
-x,-y,-z
x,1/2-y,z
loop_
_atom_site_type_symbol
_atom_site_label
_atom_site_fract_x
_atom_site_fract_y
_atom_site_fract_z
Si Si1 0.234464 0.360193 0.753484
Si Si2 0.356773 0.997840 0.358125
Si Si3 0.760666 0.637889 0.909333
Si Si4 0.158995 0.858258 0.597216
Si Si5 0.442268 0.134480 0.955385
Si Si6 0.981483 0.892313 0.085225
Si Si7 0.926357 0.979306 0.473540
O O1 0.285026 0.250000 0.678922
O O2 0.322188 0.436378 0.555657
O O3 0.128487 0.353238 0.815395
O O4 0.210176 0.394764 0.964094
O O5 0.258245 0.929213 0.467679
O O6 0.388248 0.076023 0.179141
O O7 0.450616 0.922948 0.258302
O O8 0.801218 0.750000 0.817028
O O9 0.634414 0.630786 0.072441
O O10 0.815448 0.563874 0.705699
O O11 0.196877 0.750000 0.478701
O O12 0.087597 0.913159 0.582162
O O13 0.086433 0.835359 0.861500
O O14 0.464940 0.250000 0.965509
O O15 0.974090 0.896854 0.281140
O O16 0.000000 0.000000 0.000000
O O17 0.000000 0.000000 0.500000
#
# Coordination Sequence:
#
# PCOD8072427 Si02
#       7
#     4   4   4   4   4   4   4
#     4  11  21  36  61  88 116 155 200 238 285 349
#     4  11  21  37  62  85 113 152 195 243 293 350
#     4  10  21  37  59  87 117 151 194 244 290 338
#     4  11  22  38  57  85 120 158 196 239 291 344
#     4  10  21  39  61  87 113 147 195 244 297 350
#     4  10  19  36  55  83 114 154 191 234 281 340
#     4  11  22  36  60  86 118 156 195 239 288 343
#
# _framework density 18.876739000000001
#
# number of rings (size 3 to 8) (size 9 to 14) (size 15 to 20)
#    0.000    1.429    4.286    3.000    0.000    4.571 
#    0.000    0.000    0.000    0.000    0.000    0.000 
#    0.000    0.000    0.000    0.000    0.000    0.000 
#
# Total GULP energy -346957.192663 kJ/mol
# GULP energy per Si atom -12391.328309 kJ/mol
# Density = 1.883377 g / cm^3
# Si number density = 18.876739 Si / 1000 Ang^3
#
#
#
# Elastic Constant Matrix: (Units=GPa)
#
#
# Indices 1 2 3 4 5 6 
#
# 1 99.2209 32.4669 41.7957 0.0000 7.3628 0.0000
# 2 32.4669 131.5641 54.6712 0.0000 3.7643 0.0000
# 3 41.7957 54.6712 106.3012 0.0000 -1.7174 0.0000
# 4 0.0000 0.0000 0.0000 -103.7762 0.0000 53.0141
# 5 7.3628 3.7643 -1.7174 0.0000 28.9440 0.0000
# 6 0.0000 0.0000 0.0000 53.0141 0.0000 2.5484
#
#
#
# Elastic Compliance Matrix: (Units=1/GPa)
#
#
# Indices 1 2 3 4 5 6 
#
# 1 0.012556 -0.001183 -0.004382 0.000000 -0.003300 0.000000
# 2 -0.001183 0.009849 -0.004620 0.000000 -0.001254 0.000000
# 3 -0.004382 -0.004620 0.013547 0.000000 0.002519 0.000000
# 4 0.000000 0.000000 0.000000 -0.000829 0.000000 0.017241
# 5 -0.003300 -0.001254 0.002519 0.000000 0.035702 0.000000
# 6 0.000000 0.000000 0.000000 0.017241 0.000000 0.033749
#
#
# Mechanical properties :
#
#
# Convention : Reuss Voigt Hill
#
# Bulk Modulus (GPa) = 64.17868 66.10597 65.14232
# Shear Modulus (GPa) = 38.42083 -0.57993 18.92045
#
# Velocity S-wave (km/s) = 4.51638 -0.55487 3.16937
# Velocity P-wave (km/s) = 7.82749 5.88942 6.92658
#
# Compressibility (1/GPa) = 0.01558150
#
# Stress axis : x y z
#
# Youngs Moduli (GPa) = 79.64099 101.53637 73.81767
#
# Poissons Ratio (x) = 0.12016 0.32344
# Poissons Ratio (y) = 0.09425 0.34105
# Poissons Ratio (z) = 0.34896 0.46912
#
# Static dielectric constant tensor:
#      x y z
#    x 3.487690 0.000000 0.323760 
#    y 0.000000 5.758320 0.000000 
#    z 0.323760 0.000000 4.495110 
# 
# 
# High freq. dielectric constant tensor:
#      x y z
#    x 1.721180 0.000000 -0.001100 
#    y 0.000000 1.747870 0.000000 
#    z -0.001100 0.000000 1.731040 
# 
# From -- ./inp_files/24914.got.cif
#   From: 2010.06.25/outbox.cif.g09.slc.cpg/sg11_13_cif.got.tgz:24914.got - 2010.06.27 23:14:04.
