data_PCOD8072190
_publ_section_title
;
Structure prediction by ZEFSAII (Michael W. Deem and Ramdas Pophale) SiO2 
 PCOD8072190
Probable space group: P 21/M
;
_chemical_formula_sum "Si O2"
_cell_formula_units_Z 32
_cell_length_a 23.239336
_cell_length_b 9.408292
_cell_length_c 23.128798
_cell_angle_alpha 90.000000
_cell_angle_beta 20.072277
_cell_angle_gamma 90.000000
_cell_volume 1735.567502
_symmetry_space_group_name_H-M "P 21/M"
_symmetry_group_IT_number 11
_symmetry_cell_setting 'monoclinic'
loop_
_space_group_symop_operation_xyz
x,y,z
-x,1/2+y,-z
-x,-y,-z
x,1/2-y,z
loop_
_atom_site_type_symbol
_atom_site_label
_atom_site_fract_x
_atom_site_fract_y
_atom_site_fract_z
Si Si1 0.232077 0.918394 0.087912
Si Si2 0.654267 0.403702 0.361646
Si Si3 0.779260 0.913451 0.665197
Si Si4 0.080022 0.909693 0.975722
Si Si5 0.398584 0.081630 0.280705
Si Si6 0.118431 0.079912 0.636549
Si Si7 0.907558 0.419024 0.222882
Si Si8 0.832165 0.086558 0.724020
O O1 0.222762 0.750000 0.098496
O O2 0.230642 0.974205 0.155227
O O3 0.065042 0.971724 0.212609
O O4 0.407415 0.969069 0.892046
O O5 0.500000 0.500000 0.500000
O O6 0.592542 0.250000 0.440582
O O7 0.730699 0.393432 0.224983
O O8 0.775951 0.460766 0.297121
O O9 0.739444 0.750000 0.716158
O O10 0.661635 0.974008 0.725119
O O11 0.968959 0.934303 0.465448
O O12 0.740635 0.000109 0.759759
O O13 0.001351 0.750000 0.056865
O O14 0.000000 0.000000 0.000000
O O15 0.073554 0.998010 0.042451
O O16 0.389769 0.250000 0.288104
O O17 0.268125 0.029196 0.452639
O O18 0.122700 0.250000 0.643084
O O19 0.154565 0.990554 0.659865
O O20 0.938286 0.250000 0.200442
O O21 0.781677 0.250000 0.763626
#
# Coordination Sequence:
#
# PCOD8072190 Si02
#       8
#     4   4   4   4   4   4   4   4
#     4   9  17  31  52  75  99 130 174 221 263 316
#     4   9  19  34  54  81 112 141 171 210 257 307
#     4   9  16  28  47  71  98 129 165 209 262 318
#     4   9  17  32  54  80 106 136 173 210 251 302
#     4   9  17  31  52  75  99 132 174 219 267 314
#     4  10  19  35  56  75 100 137 180 223 264 309
#     4  10  21  37  55  78 108 143 177 214 263 314
#     4   9  16  28  47  71  98 129 165 210 262 315
#
# _framework density 18.437773
#
# number of rings (size 3 to 8) (size 9 to 14) (size 15 to 20)
#    0.000    2.750    1.250    1.500    0.000    3.500 
#    2.250    1.250    0.000    1.500    0.000    0.000 
#    0.000    0.000    0.000    0.000    0.000    0.000 
#
# Total GULP energy -396433.966798 kJ/mol
# GULP energy per Si atom -12388.561462 kJ/mol
# Density = 1.839581 g / cm^3
# Si number density = 18.437773 Si / 1000 Ang^3
#
#
#
# Elastic Constant Matrix: (Units=GPa)
#
#
# Indices 1 2 3 4 5 6 
#
# 1 98.2158 37.4437 59.6475 0.0000 17.6700 0.0000
# 2 37.4437 69.6791 36.0019 0.0000 9.4134 0.0000
# 3 59.6475 36.0019 111.2441 0.0000 6.3048 0.0000
# 4 0.0000 0.0000 0.0000 19.0653 0.0000 4.7997
# 5 17.6700 9.4134 6.3048 0.0000 23.6586 0.0000
# 6 0.0000 0.0000 0.0000 4.7997 0.0000 30.0665
#
#
#
# Elastic Compliance Matrix: (Units=1/GPa)
#
#
# Indices 1 2 3 4 5 6 
#
# 1 0.018470 -0.004516 -0.007881 0.000000 -0.009898 0.000000
# 2 -0.004516 0.019059 -0.003562 0.000000 -0.003261 0.000000
# 3 -0.007881 -0.003562 0.014168 0.000000 0.003528 0.000000
# 4 0.000000 0.000000 0.000000 0.054648 0.000000 -0.008724
# 5 -0.009898 -0.003261 0.003528 0.000000 0.050018 0.000000
# 6 0.000000 0.000000 0.000000 -0.008724 0.000000 0.034652
#
#
# Mechanical properties :
#
#
# Convention : Reuss Voigt Hill
#
# Bulk Modulus (GPa) = 50.55806 60.59166 55.57486
# Shear Modulus (GPa) = 21.78399 24.29446 23.03922
#
# Velocity S-wave (km/s) = 3.44101 3.63388 3.53876
# Velocity P-wave (km/s) = 6.57783 7.10921 6.84867
#
# Compressibility (1/GPa) = 0.01977924
#
# Stress axis : x y z
#
# Youngs Moduli (GPa) = 54.14067 52.46771 70.58341
#
# Poissons Ratio (x) = 0.23697 0.55626
# Poissons Ratio (y) = 0.24452 0.25140
# Poissons Ratio (z) = 0.42668 0.18687
#
# Static dielectric constant tensor:
#      x y z
#    x 3.571930 0.000000 0.211870 
#    y 0.000000 3.358570 0.000000 
#    z 0.211870 0.000000 3.672420 
# 
# 
# High freq. dielectric constant tensor:
#      x y z
#    x 1.704010 0.000000 0.013430 
#    y 0.000000 1.689160 0.000000 
#    z 0.013430 0.000000 1.714190 
# 
# From -- ./inp_files/69932.got.cif
#   From: 2010.06.25/outbox.cif.g09.slc.cpg/sg11_35_cif.got.tgz:69932.got - 2010.06.27 23:14:04.
