data_PCOD8072612
_publ_section_title
;
Structure prediction by ZEFSAII (Michael W. Deem and Ramdas Pophale) SiO2 
 PCOD8072612
Probable space group: P 21/M
;
_chemical_formula_sum "Si O2"
_cell_formula_units_Z 32
_cell_length_a 11.978628
_cell_length_b 8.802738
_cell_length_c 15.261885
_cell_angle_alpha 90.000000
_cell_angle_beta 85.808248
_cell_angle_gamma 90.000000
_cell_volume 1604.980428
_symmetry_space_group_name_H-M "P 21/M"
_symmetry_group_IT_number 11
_symmetry_cell_setting 'monoclinic'
loop_
_space_group_symop_operation_xyz
x,y,z
-x,1/2+y,-z
-x,-y,-z
x,1/2-y,z
loop_
_atom_site_type_symbol
_atom_site_label
_atom_site_fract_x
_atom_site_fract_y
_atom_site_fract_z
Si Si1 0.560312 0.928311 0.875046
Si Si2 0.304991 0.929759 0.453535
Si Si3 0.907483 0.926693 0.067330
Si Si4 0.911582 0.925299 0.267634
Si Si5 0.524944 0.429446 0.699661
Si Si6 0.934124 0.427763 0.583468
Si Si7 0.306614 0.928791 0.650679
Si Si8 0.325425 0.928599 0.972606
O O1 0.580278 0.750000 0.879496
O O2 0.432422 0.971324 0.906885
O O3 0.585661 0.990535 0.777352
O O4 0.650619 0.008766 0.932024
O O5 0.302611 0.750000 0.459211
O O6 0.411410 0.985109 0.391705
O O7 0.192862 0.989486 0.412194
O O8 0.311475 0.994539 0.551574
O O9 0.900527 0.750000 0.045480
O O10 0.946119 0.954869 0.165272
O O11 0.785011 0.996748 0.060998
O O12 0.000000 0.000000 0.000000
O O13 0.875307 0.750000 0.283665
O O14 0.015409 0.968956 0.324429
O O15 0.811711 0.036417 0.299358
O O16 0.531403 0.250000 0.712301
O O17 0.397859 0.483740 0.702496
O O18 0.937395 0.250000 0.566439
O O19 0.000000 0.500000 0.500000
O O20 0.330139 0.750000 0.653873
O O21 0.305580 0.750000 0.978704
#
# Coordination Sequence:
#
# PCOD8072612 Si02
#       8
#     4   4   4   4   4   4   4   4
#     4  10  21  38  61  90 119 150 192 244 294 351
#     4   9  20  36  55  81 115 155 193 238 293 344
#     4  11  24  41  60  87 122 158 199 249 300 358
#     4  10  22  38  61  89 117 153 196 241 296 356
#     4  11  22  36  55  82 118 157 195 236 291 353
#     4  10  19  37  60  84 113 147 191 239 287 342
#     4  11  21  36  58  83 115 153 197 246 291 342
#     4  10  21  39  63  87 115 154 195 241 299 355
#
# _framework density 19.937937999999999
#
# number of rings (size 3 to 8) (size 9 to 14) (size 15 to 20)
#    0.000    1.750    1.250    3.000    0.000    5.500 
#    0.000    5.625    0.000    0.000    0.000    0.000 
#    0.000    0.000    0.000    0.000    0.000    0.000 
#
# Total GULP energy -396883.861724 kJ/mol
# GULP energy per Si atom -12402.620679 kJ/mol
# Density = 1.989256 g / cm^3
# Si number density = 19.937938 Si / 1000 Ang^3
#
#
#
# Elastic Constant Matrix: (Units=GPa)
#
#
# Indices 1 2 3 4 5 6 
#
# 1 62.5202 25.2674 22.7955 0.0000 16.4383 0.0000
# 2 25.2674 60.8755 34.2153 0.0000 4.4059 0.0000
# 3 22.7955 34.2153 127.8534 0.0000 12.6240 0.0000
# 4 0.0000 0.0000 0.0000 32.1157 0.0000 -0.4246
# 5 16.4383 4.4059 12.6240 0.0000 33.9726 0.0000
# 6 0.0000 0.0000 0.0000 -0.4246 0.0000 28.7266
#
#
#
# Elastic Compliance Matrix: (Units=1/GPa)
#
#
# Indices 1 2 3 4 5 6 
#
# 1 0.021966 -0.007956 -0.000872 0.000000 -0.009273 0.000000
# 2 -0.007956 0.022229 -0.004802 0.000000 0.002751 0.000000
# 3 -0.000872 -0.004802 0.009508 0.000000 -0.002488 0.000000
# 4 0.000000 0.000000 0.000000 0.031144 0.000000 0.000460
# 5 -0.009273 0.002751 -0.002488 0.000000 0.034490 0.000000
# 6 0.000000 0.000000 0.000000 0.000460 0.000000 0.034818
#
#
# Mechanical properties :
#
#
# Convention : Reuss Voigt Hill
#
# Bulk Modulus (GPa) = 37.81684 46.20061 42.00873
# Shear Modulus (GPa) = 26.28408 30.22770 28.25589
#
# Velocity S-wave (km/s) = 3.63477 3.89792 3.76865
# Velocity P-wave (km/s) = 6.05177 6.59401 6.32870
#
# Compressibility (1/GPa) = 0.02644325
#
# Stress axis : x y z
#
# Youngs Moduli (GPa) = 45.52414 44.98581 105.17877
#
# Poissons Ratio (x) = 0.35793 0.09167
# Poissons Ratio (y) = 0.36221 0.50506
# Poissons Ratio (z) = 0.03968 0.21602
#
# Static dielectric constant tensor:
#      x y z
#    x 3.734340 0.000000 0.149860 
#    y 0.000000 3.515570 0.000000 
#    z 0.149860 0.000000 3.865080 
# 
# 
# High freq. dielectric constant tensor:
#      x y z
#    x 1.776520 0.000000 0.010680 
#    y 0.000000 1.771540 0.000000 
#    z 0.010680 0.000000 1.789630 
# 
# From -- ./inp_files/49366.got.cif
#   From: 2010.06.25/outbox.cif.g09.slc.cpg/sg11_25_cif.got.tgz:49366.got - 2010.06.27 23:14:04.
