data_PCOD8072670
_publ_section_title
;
Structure prediction by ZEFSAII (Michael W. Deem and Ramdas Pophale) SiO2 
 PCOD8072670
Probable space group: P 21/M
;
_chemical_formula_sum "Si O2"
_cell_formula_units_Z 24
_cell_length_a 12.352791
_cell_length_b 12.737183
_cell_length_c 15.185043
_cell_angle_alpha 90.000000
_cell_angle_beta 151.915293
_cell_angle_gamma 90.000000
_cell_volume 1124.784191
_symmetry_space_group_name_H-M "P 21/M"
_symmetry_group_IT_number 11
_symmetry_cell_setting 'monoclinic'
loop_
_space_group_symop_operation_xyz
x,y,z
-x,1/2+y,-z
-x,-y,-z
x,1/2-y,z
loop_
_atom_site_type_symbol
_atom_site_label
_atom_site_fract_x
_atom_site_fract_y
_atom_site_fract_z
Si Si1 0.437484 0.630151 0.994987
Si Si2 0.205597 0.130899 0.887276
Si Si3 0.934067 0.564433 0.662126
Si Si4 0.507889 0.873306 0.243826
Si Si5 0.197918 0.441705 0.066855
Si Si6 0.745040 0.543726 0.705464
O O1 0.493400 0.750000 0.015156
O O2 0.164157 0.618560 0.793096
O O3 0.591650 0.575809 0.027632
O O4 0.529586 0.599098 0.156744
O O5 0.144484 0.250000 0.818111
O O6 0.288544 0.125993 0.048908
O O7 0.977848 0.060632 0.707177
O O8 0.745117 0.586958 0.454479
O O9 0.852108 0.608646 0.699632
O O10 0.464485 0.750000 0.230392
O O11 0.299375 0.939471 0.135011
O O12 0.276062 0.390311 0.217235
O O13 0.920415 0.449828 0.859769
O O14 0.500000 0.500000 0.500000
#
# Coordination Sequence:
#
# PCOD8072670 Si02
#       6
#     4   4   4   4   4   4
#     4  10  21  40  62  91 125 159 204 261 311 364
#     4  10  22  42  63  87 125 166 210 253 304 372
#     4  11  21  38  66  88 126 163 203 255 312 361
#     4  11  22  37  61  95 122 156 205 252 309 371
#     4  10  21  39  63  85 122 162 196 253 304 355
#     4  10  19  37  64  86 120 161 199 249 303 359
#
# _framework density 21.337427000000002
#
# number of rings (size 3 to 8) (size 9 to 14) (size 15 to 20)
#    0.000    1.667    5.000    1.000    0.000    0.667 
#    0.000   10.000    0.000    0.000    0.000    0.000 
#    0.000    0.000    0.000    0.000    0.000    0.000 
#
# Total GULP energy -297343.962769 kJ/mol
# GULP energy per Si atom -12389.331782 kJ/mol
# Density = 2.128886 g / cm^3
# Si number density = 21.337427 Si / 1000 Ang^3
#
#
#
# Elastic Constant Matrix: (Units=GPa)
#
#
# Indices 1 2 3 4 5 6 
#
# 1 142.9980 27.1302 52.0445 0.0000 0.7428 0.0000
# 2 27.1302 58.5196 23.6080 0.0000 -0.3604 0.0000
# 3 52.0445 23.6080 148.1803 0.0000 -6.3667 0.0000
# 4 0.0000 0.0000 0.0000 21.6812 0.0000 -1.5836
# 5 0.7428 -0.3604 -6.3667 0.0000 24.5023 0.0000
# 6 0.0000 0.0000 0.0000 -1.5836 0.0000 14.9660
#
#
#
# Elastic Compliance Matrix: (Units=1/GPa)
#
#
# Indices 1 2 3 4 5 6 
#
# 1 0.008480 -0.002906 -0.002557 0.000000 -0.000964 0.000000
# 2 -0.002906 0.019264 -0.002055 0.000000 -0.000163 0.000000
# 3 -0.002557 -0.002055 0.008066 0.000000 0.002143 0.000000
# 4 0.000000 0.000000 0.000000 0.046482 0.000000 0.004918
# 5 -0.000964 -0.000163 0.002143 0.000000 0.041396 0.000000
# 6 0.000000 0.000000 0.000000 0.004918 0.000000 0.067339
#
#
# Mechanical properties :
#
#
# Convention : Reuss Voigt Hill
#
# Bulk Modulus (GPa) = 48.13827 61.69590 54.91709
# Shear Modulus (GPa) = 23.47553 28.69090 26.08322
#
# Velocity S-wave (km/s) = 3.32053 3.67090 3.50010
# Velocity P-wave (km/s) = 6.10825 6.85160 6.49058
#
# Compressibility (1/GPa) = 0.02077349
#
# Stress axis : x y z
#
# Youngs Moduli (GPa) = 117.92462 51.91112 123.97535
#
# Poissons Ratio (x) = 0.15085 0.31699
# Poissons Ratio (y) = 0.34267 0.25483
# Poissons Ratio (z) = 0.30152 0.10670
#
# Static dielectric constant tensor:
#      x y z
#    x 4.517980 0.000000 -0.133730 
#    y 0.000000 3.680900 0.000000 
#    z -0.133730 0.000000 3.771040 
# 
# 
# High freq. dielectric constant tensor:
#      x y z
#    x 1.870130 0.000000 -0.004390 
#    y 0.000000 1.804730 0.000000 
#    z -0.004390 0.000000 1.829120 
# 
# From -- ./inp_files/39711.got.cif
#   From: 2010.06.25/outbox.cif.g09.slc.cpg/sg11_20_cif.got.tgz:39711.got - 2010.06.27 23:14:04.
