data_PCOD8072602
_publ_section_title
;
Structure prediction by ZEFSAII (Michael W. Deem and Ramdas Pophale) SiO2 
 PCOD8072602
Probable space group: P 21/M
;
_chemical_formula_sum "Si O2"
_cell_formula_units_Z 32
_cell_length_a 17.807565
_cell_length_b 17.669326
_cell_length_c 11.304640
_cell_angle_alpha 90.000000
_cell_angle_beta 151.953573
_cell_angle_gamma 90.000000
_cell_volume 1672.444639
_symmetry_space_group_name_H-M "P 21/M"
_symmetry_group_IT_number 11
_symmetry_cell_setting 'monoclinic'
loop_
_space_group_symop_operation_xyz
x,y,z
-x,1/2+y,-z
-x,-y,-z
x,1/2-y,z
loop_
_atom_site_type_symbol
_atom_site_label
_atom_site_fract_x
_atom_site_fract_y
_atom_site_fract_z
Si Si1 0.509093 0.411256 0.026561
Si Si2 0.796777 0.568967 0.277843
Si Si3 0.161462 0.662676 0.139002
Si Si4 0.022064 0.836663 0.444346
Si Si5 0.991621 0.037686 0.207992
Si Si6 0.162613 0.891595 0.397708
Si Si7 0.357666 0.556369 0.270798
Si Si8 0.323317 0.593483 0.966283
O O1 0.650629 0.390419 0.312921
O O2 0.544202 0.377139 0.944420
O O3 0.500000 0.500000 0.000000
O O4 0.340901 0.382178 0.845840
O O5 0.865950 0.616921 0.265919
O O6 0.938140 0.548206 0.564039
O O7 0.721023 0.492838 0.123012
O O8 0.159738 0.750000 0.097065
O O9 0.139561 0.658098 0.249173
O O10 0.328601 0.622083 0.329768
O O11 0.013918 0.617809 0.870813
O O12 0.976567 0.750000 0.391744
O O13 0.062280 0.856702 0.365434
O O14 0.167784 0.854199 0.735948
O O15 0.098599 0.976987 0.285166
O O16 0.808329 0.008700 0.970083
O O17 0.500000 0.500000 0.500000
O O18 0.393683 0.598455 0.196195
#
# Coordination Sequence:
#
# PCOD8072602 Si02
#       8
#     4   4   4   4   4   4   4   4
#     4   9  19  31  63  88 120 146 189 252 305 349
#     4  11  19  36  60  93 122 152 197 252 313 357
#     4  10  24  41  60  86 125 168 206 256 313 368
#     4  11  21  34  60  89 123 161 201 248 313 370
#     4  10  20  35  65  90 116 160 211 252 296 372
#     4  11  20  40  60  94 118 166 208 253 300 373
#     4  10  23  35  60  92 118 159 210 254 298 371
#     4  10  19  37  59  86 119 150 198 252 301 360
#
# _framework density 19.133666999999999
#
# number of rings (size 3 to 8) (size 9 to 14) (size 15 to 20)
#    0.750    1.000    5.000    1.875    3.500    2.000 
#    0.000    3.125    0.000    0.750    0.000    0.000 
#    0.000    0.000    0.000    0.000    0.000    0.000 
#
# Total GULP energy -396567.902222 kJ/mol
# GULP energy per Si atom -12392.746944 kJ/mol
# Density = 1.909012 g / cm^3
# Si number density = 19.133667 Si / 1000 Ang^3
#
#
#
# Elastic Constant Matrix: (Units=GPa)
#
#
# Indices 1 2 3 4 5 6 
#
# 1 116.8161 28.3923 45.4409 0.0000 4.3446 0.0000
# 2 28.3923 91.8955 19.5963 0.0000 2.5115 0.0000
# 3 45.4409 19.5963 68.4156 0.0000 12.0183 0.0000
# 4 0.0000 0.0000 0.0000 13.3123 0.0000 -1.7589
# 5 4.3446 2.5115 12.0183 0.0000 34.2324 0.0000
# 6 0.0000 0.0000 0.0000 -1.7589 0.0000 20.2399
#
#
#
# Elastic Compliance Matrix: (Units=1/GPa)
#
#
# Indices 1 2 3 4 5 6 
#
# 1 0.011973 -0.002120 -0.007573 0.000000 0.001295 0.000000
# 2 -0.002120 0.011969 -0.002039 0.000000 0.000107 0.000000
# 3 -0.007573 -0.002039 0.021352 0.000000 -0.006386 0.000000
# 4 0.000000 0.000000 0.000000 0.075991 0.000000 0.006604
# 5 0.001295 0.000107 -0.006386 0.000000 0.031282 0.000000
# 6 0.000000 0.000000 0.000000 0.006604 0.000000 0.049981
#
#
# Mechanical properties :
#
#
# Convention : Reuss Voigt Hill
#
# Bulk Modulus (GPa) = 45.80660 51.55402 48.68031
# Shear Modulus (GPa) = 21.43268 25.80341 23.61805
#
# Velocity S-wave (km/s) = 3.35050 3.67630 3.51717
# Velocity P-wave (km/s) = 6.24180 6.70991 6.48008
#
# Compressibility (1/GPa) = 0.02183091
#
# Stress axis : x y z
#
# Youngs Moduli (GPa) = 83.51905 83.55082 46.83392
#
# Poissons Ratio (x) = 0.17711 0.35466
# Poissons Ratio (y) = 0.17705 0.09549
# Poissons Ratio (z) = 0.63247 0.17036
#
# Static dielectric constant tensor:
#      x y z
#    x 3.901170 0.000000 0.155680 
#    y 0.000000 3.241060 0.000000 
#    z 0.155680 0.000000 3.349640 
# 
# 
# High freq. dielectric constant tensor:
#      x y z
#    x 1.762890 0.000000 0.000530 
#    y 0.000000 1.710850 0.000000 
#    z 0.000530 0.000000 1.721800 
# 
# From -- ./inp_files/41869.got.cif
#   From: 2010.06.25/outbox.cif.g09.slc.cpg/sg11_21_cif.got.tgz:41869.got - 2010.06.27 23:14:04.
