data_PCOD8072548
_publ_section_title
;
Structure prediction by ZEFSAII (Michael W. Deem and Ramdas Pophale) SiO2 
 PCOD8072548
Probable space group: P 21/M
;
_chemical_formula_sum "Si O2"
_cell_formula_units_Z 32
_cell_length_a 26.515780
_cell_length_b 9.308021
_cell_length_c 20.707443
_cell_angle_alpha 90.000000
_cell_angle_beta 160.440839
_cell_angle_gamma 90.000000
_cell_volume 1710.991112
_symmetry_space_group_name_H-M "P 21/M"
_symmetry_group_IT_number 11
_symmetry_cell_setting 'monoclinic'
loop_
_space_group_symop_operation_xyz
x,y,z
-x,1/2+y,-z
-x,-y,-z
x,1/2-y,z
loop_
_atom_site_type_symbol
_atom_site_label
_atom_site_fract_x
_atom_site_fract_y
_atom_site_fract_z
Si Si1 0.644644 0.912246 0.338052
Si Si2 0.995708 0.916390 0.756213
Si Si3 0.789106 0.579802 0.076161
Si Si4 0.942229 0.081801 0.024151
Si Si5 0.454725 0.082969 0.009107
Si Si6 0.222730 0.082797 0.276673
Si Si7 0.493674 0.413791 0.691088
Si Si8 0.856309 0.584314 0.302279
O O1 0.604363 0.750000 0.267096
O O2 0.608648 0.933565 0.369438
O O3 0.818937 0.943682 0.537406
O O4 0.549653 0.026356 0.183642
O O5 0.034659 0.750000 0.790243
O O6 0.070645 0.015490 0.792934
O O7 0.055061 0.964514 0.897975
O O8 0.787295 0.750000 0.066632
O O9 0.804703 0.531066 0.169382
O O10 0.635054 0.518777 0.861135
O O11 0.915780 0.250000 0.985467
O O12 0.803593 0.002400 0.821682
O O13 0.099526 0.035175 0.181212
O O14 0.490862 0.250000 0.043600
O O15 0.278530 0.057471 0.810156
O O16 0.500000 0.000000 0.000000
O O17 0.206770 0.250000 0.242295
O O18 0.388706 0.046175 0.503566
O O19 0.552011 0.250000 0.756252
O O20 0.902013 0.750000 0.354294
O O21 0.000000 0.500000 0.500000
#
# Coordination Sequence:
#
# PCOD8072548 Si02
#       8
#     4   4   4   4   4   4   4   4
#     4  10  20  37  62  88 114 148 192 238 285 338
#     4  10  21  38  59  85 117 153 193 235 283 342
#     4  11  24  41  58  84 118 150 191 239 284 334
#     4   9  17  32  53  82 117 149 185 234 285 337
#     4  11  24  42  61  88 120 150 188 237 287 337
#     4   9  17  31  54  84 115 147 187 234 283 340
#     4  10  19  36  61  86 112 151 194 233 283 343
#     4  10  24  43  61  83 115 152 189 231 281 339
#
# _framework density 18.702611000000001
#
# number of rings (size 3 to 8) (size 9 to 14) (size 15 to 20)
#    0.000    2.000    2.500    0.750    1.750    3.500 
#    0.000    0.625    0.000    0.000    0.000    0.000 
#    0.000    0.000    0.000    0.000    0.000    0.000 
#
# Total GULP energy -396896.148762 kJ/mol
# GULP energy per Si atom -12403.004649 kJ/mol
# Density = 1.866004 g / cm^3
# Si number density = 18.702611 Si / 1000 Ang^3
#
#
#
# Elastic Constant Matrix: (Units=GPa)
#
#
# Indices 1 2 3 4 5 6 
#
# 1 61.4702 40.7239 29.7134 0.0000 2.4471 0.0000
# 2 40.7239 82.3732 57.2811 0.0000 -1.6881 0.0000
# 3 29.7134 57.2811 111.5670 0.0000 -5.5575 0.0000
# 4 0.0000 0.0000 0.0000 36.8965 0.0000 -2.4349
# 5 2.4471 -1.6881 -5.5575 0.0000 30.9539 0.0000
# 6 0.0000 0.0000 0.0000 -2.4349 0.0000 32.9551
#
#
#
# Elastic Compliance Matrix: (Units=1/GPa)
#
#
# Indices 1 2 3 4 5 6 
#
# 1 0.024426 -0.011687 -0.000639 0.000000 -0.002683 0.000000
# 2 -0.011687 0.024488 -0.009432 0.000000 0.000566 0.000000
# 3 -0.000639 -0.009432 0.014079 0.000000 0.002064 0.000000
# 4 0.000000 0.000000 0.000000 0.027236 0.000000 0.002012
# 5 -0.002683 0.000566 0.002064 0.000000 0.032920 0.000000
# 6 0.000000 0.000000 0.000000 0.002012 0.000000 0.030493
#
#
# Mechanical properties :
#
#
# Convention : Reuss Voigt Hill
#
# Bulk Modulus (GPa) = 51.34018 56.76080 54.05049
# Shear Modulus (GPa) = 24.55210 28.67390 26.61300
#
# Velocity S-wave (km/s) = 3.62714 3.91979 3.77630
# Velocity P-wave (km/s) = 6.71207 7.13452 6.92652
#
# Compressibility (1/GPa) = 0.01947792
#
# Stress axis : x y z
#
# Youngs Moduli (GPa) = 40.94006 40.83629 71.02873
#
# Poissons Ratio (x) = 0.47723 0.04537
# Poissons Ratio (y) = 0.47845 0.66995
# Poissons Ratio (z) = 0.02615 0.38517
#
# Static dielectric constant tensor:
#      x y z
#    x 3.461380 0.000000 -0.132730 
#    y 0.000000 3.731400 0.000000 
#    z -0.132730 0.000000 3.534370 
# 
# 
# High freq. dielectric constant tensor:
#      x y z
#    x 1.722890 0.000000 -0.006310 
#    y 0.000000 1.722760 0.000000 
#    z -0.006310 0.000000 1.731820 
# 
# From -- ./inp_files/67221.got.cif
#   From: 2010.06.25/outbox.cif.g09.slc.cpg/sg11_34_cif.got.tgz:67221.got - 2010.06.27 23:14:04.
