data_PCOD8072828
_publ_section_title
;
Structure prediction by ZEFSAII (Michael W. Deem and Ramdas Pophale) SiO2 
 PCOD8072828
Probable space group: P 21/M
;
_chemical_formula_sum "Si O2"
_cell_formula_units_Z 32
_cell_length_a 12.589584
_cell_length_b 8.813017
_cell_length_c 17.964859
_cell_angle_alpha 90.000000
_cell_angle_beta 103.329552
_cell_angle_gamma 90.000000
_cell_volume 1939.543214
_symmetry_space_group_name_H-M "P 21/M"
_symmetry_group_IT_number 11
_symmetry_cell_setting 'monoclinic'
loop_
_space_group_symop_operation_xyz
x,y,z
-x,1/2+y,-z
-x,-y,-z
x,1/2-y,z
loop_
_atom_site_type_symbol
_atom_site_label
_atom_site_fract_x
_atom_site_fract_y
_atom_site_fract_z
Si Si1 0.750383 0.070197 0.424684
Si Si2 0.090129 0.930067 0.676071
Si Si3 0.145754 0.428538 0.415224
Si Si4 0.835436 0.425994 0.838430
Si Si5 0.702112 0.075771 0.678230
Si Si6 0.937621 0.429518 0.166144
Si Si7 0.474152 0.073776 0.574629
Si Si8 0.113097 0.572420 0.997452
O O1 0.739337 0.250000 0.425368
O O2 0.812114 0.011690 0.360479
O O3 0.820177 0.017863 0.506067
O O4 0.630632 0.999676 0.404292
O O5 0.088295 0.750000 0.675696
O O6 0.108451 0.994658 0.763047
O O7 0.973957 0.988054 0.626449
O O8 0.148484 0.250000 0.431706
O O9 0.229903 0.464843 0.363185
O O10 0.868288 0.250000 0.840053
O O11 0.731568 0.460179 0.769184
O O12 0.938407 0.518323 0.825230
O O13 0.805113 0.469372 0.920551
O O14 0.730476 0.250000 0.662071
O O15 0.574019 0.045166 0.647111
O O16 0.941307 0.250000 0.173336
O O17 0.859623 0.482009 0.083274
O O18 0.451684 0.250000 0.557132
O O19 0.500000 0.000000 0.500000
O O20 0.095664 0.750000 0.990392
O O21 0.000000 0.500000 0.000000
#
# Coordination Sequence:
#
# PCOD8072828 Si02
#       8
#     4   4   4   4   4   4   4   4
#     4  11  22  36  50  66  92 124 158 198 238 274
#     4   9  19  32  47  69  96 125 157 192 229 273
#     4  11  20  32  50  70  93 122 158 192 228 280
#     4   9  16  27  42  67  95 120 149 184 226 275
#     4  10  20  32  48  68  94 123 152 190 237 277
#     4   9  15  27  44  65  93 125 152 180 220 270
#     4  11  22  36  52  69  89 119 158 200 240 279
#     4   8  14  23  40  63  91 121 149 178 216 269
#
# _framework density 16.498729999999998
#
# number of rings (size 3 to 8) (size 9 to 14) (size 15 to 20)
#    0.000    2.250    2.500    1.500    0.000    0.500 
#    0.000    3.125    0.000    0.000    0.000    0.875 
#    0.000    0.000    0.000    0.000    0.000    0.000 
#
# Total GULP energy -396471.340076 kJ/mol
# GULP energy per Si atom -12389.729377 kJ/mol
# Density = 1.646118 g / cm^3
# Si number density = 16.498730 Si / 1000 Ang^3
#
#
#
# Elastic Constant Matrix: (Units=GPa)
#
#
# Indices 1 2 3 4 5 6 
#
# 1 93.6361 28.0829 77.1624 0.0000 -9.7044 0.0000
# 2 28.0829 39.8394 27.4940 0.0000 0.3144 0.0000
# 3 77.1624 27.4940 176.0552 0.0000 9.9090 0.0000
# 4 0.0000 0.0000 0.0000 12.9445 0.0000 -1.1950
# 5 -9.7044 0.3144 9.9090 0.0000 15.9468 0.0000
# 6 0.0000 0.0000 0.0000 -1.1950 0.0000 19.5791
#
#
#
# Elastic Compliance Matrix: (Units=1/GPa)
#
#
# Indices 1 2 3 4 5 6 
#
# 1 0.024555 -0.010326 -0.010364 0.000000 0.021587 0.000000
# 2 -0.010326 0.032554 -0.000174 0.000000 -0.006818 0.000000
# 3 -0.010364 -0.000174 0.010989 0.000000 -0.013132 0.000000
# 4 0.000000 0.000000 0.000000 0.077691 0.000000 0.004742
# 5 0.021587 -0.006818 -0.013132 0.000000 0.084140 0.000000
# 6 0.000000 0.000000 0.000000 0.004742 0.000000 0.051364
#
#
# Mechanical properties :
#
#
# Convention : Reuss Voigt Hill
#
# Bulk Modulus (GPa) = 37.92521 63.88993 50.90757
# Shear Modulus (GPa) = 15.06878 21.48016 18.27447
#
# Velocity S-wave (km/s) = 3.02541 3.61214 3.33172
# Velocity P-wave (km/s) = 5.93640 7.49700 6.76187
#
# Compressibility (1/GPa) = 0.02636769
#
# Stress axis : x y z
#
# Youngs Moduli (GPa) = 40.72510 30.71825 91.00089
#
# Poissons Ratio (x) = 0.31721 0.94317
# Poissons Ratio (y) = 0.42055 0.01585
# Poissons Ratio (z) = 0.42209 0.00535
#
# Static dielectric constant tensor:
#      x y z
#    x 2.961900 0.000000 0.073560 
#    y 0.000000 3.010170 0.000000 
#    z 0.073560 0.000000 3.937180 
# 
# 
# High freq. dielectric constant tensor:
#      x y z
#    x 1.593090 0.000000 0.009830 
#    y 0.000000 1.631530 0.000000 
#    z 0.009830 0.000000 1.653690 
# 
# From -- ./inp_files/40622.got.cif
#   From: 2010.06.25/outbox.cif.g09.slc.cpg/sg11_21_cif.got.tgz:40622.got - 2010.06.27 23:14:04.
