data_PCOD8072847
_publ_section_title
;
Structure prediction by ZEFSAII (Michael W. Deem and Ramdas Pophale) SiO2 
 PCOD8072847
Probable space group: P 21/M
;
_chemical_formula_sum "Si O2"
_cell_formula_units_Z 32
_cell_length_a 27.766731
_cell_length_b 9.122385
_cell_length_c 21.921101
_cell_angle_alpha 90.000000
_cell_angle_beta 18.381468
_cell_angle_gamma 90.000000
_cell_volume 1750.965080
_symmetry_space_group_name_H-M "P 21/M"
_symmetry_group_IT_number 11
_symmetry_cell_setting 'monoclinic'
loop_
_space_group_symop_operation_xyz
x,y,z
-x,1/2+y,-z
-x,-y,-z
x,1/2-y,z
loop_
_atom_site_type_symbol
_atom_site_label
_atom_site_fract_x
_atom_site_fract_y
_atom_site_fract_z
Si Si1 0.957186 0.421475 0.459812
Si Si2 0.763963 0.578359 0.790993
Si Si3 0.534199 0.578601 0.807879
Si Si4 0.478140 0.078411 0.434026
Si Si5 0.972019 0.920234 0.188227
Si Si6 0.873250 0.582107 0.442002
Si Si7 0.729283 0.920841 0.203477
Si Si8 0.356525 0.423882 0.452480
O O1 0.921617 0.250000 0.504947
O O2 0.827744 0.504334 0.653451
O O3 0.950940 0.477292 0.398163
O O4 0.124597 0.456396 0.286006
O O5 0.750709 0.750000 0.794569
O O6 0.596688 0.515360 0.003467
O O7 0.493528 0.750000 0.861115
O O8 0.694272 0.545319 0.648862
O O9 0.544768 0.526673 0.724629
O O10 0.515192 0.250000 0.386945
O O11 0.342390 0.044258 0.644415
O O12 0.430491 0.015176 0.425446
O O13 0.631529 0.996003 0.267936
O O14 0.999810 0.750000 0.139902
O O15 0.964809 0.944999 0.269473
O O16 0.816462 0.980821 0.345190
O O17 0.102331 0.014747 0.000001
O O18 0.891957 0.750000 0.440488
O O19 0.734241 0.750000 0.183889
O O20 0.348180 0.250000 0.463001
#
# Coordination Sequence:
#
# PCOD8072847 Si02
#       8
#     4   4   4   4   4   4   4   4
#     4  10  21  36  54  76 102 133 168 206 247 292
#     4  10  21  36  53  75 103 133 166 204 247 296
#     4   9  18  34  55  77 100 128 166 209 250 294
#     4   9  18  34  53  72  98 134 172 208 250 298
#     4   9  18  34  54  74  99 132 168 205 248 299
#     4   9  19  35  54  76 101 131 167 205 247 298
#     4  10  20  32  48  74 105 133 166 209 252 297
#     4   8  16  33  55  75  96 128 171 211 245 293
#
# _framework density 18.275635000000001
#
# number of rings (size 3 to 8) (size 9 to 14) (size 15 to 20)
#    0.000    2.750    0.000    2.625    0.000    5.000 
#    0.000    6.875    0.000    0.000    0.000    0.000 
#    0.000    0.000    0.000    0.000    0.000    0.000 
#
# Total GULP energy -396825.898820 kJ/mol
# GULP energy per Si atom -12400.809338 kJ/mol
# Density = 1.823404 g / cm^3
# Si number density = 18.275635 Si / 1000 Ang^3
#
#
#
# Elastic Constant Matrix: (Units=GPa)
#
#
# Indices 1 2 3 4 5 6 
#
# 1 57.8053 10.3170 -23.9774 0.0000 1.7424 0.0000
# 2 10.3170 51.0940 13.0808 0.0000 -0.5785 0.0000
# 3 -23.9774 13.0808 49.8474 0.0000 -1.2847 0.0000
# 4 0.0000 0.0000 0.0000 34.2027 0.0000 -1.0861
# 5 1.7424 -0.5785 -1.2847 0.0000 13.0148 0.0000
# 6 0.0000 0.0000 0.0000 -1.0861 0.0000 25.0954
#
#
#
# Elastic Compliance Matrix: (Units=1/GPa)
#
#
# Indices 1 2 3 4 5 6 
#
# 1 0.024770 -0.008644 0.014124 0.000000 -0.002306 0.000000
# 2 -0.008644 0.024000 -0.010425 0.000000 0.001195 0.000000
# 3 0.014124 -0.010425 0.029605 0.000000 0.000568 0.000000
# 4 0.000000 0.000000 0.000000 0.029278 0.000000 0.001267
# 5 -0.002306 0.001195 0.000568 0.000000 0.077253 0.000000
# 6 0.000000 0.000000 0.000000 0.001267 0.000000 0.039903
#
#
# Mechanical properties :
#
#
# Convention : Reuss Voigt Hill
#
# Bulk Modulus (GPa) = 14.60168 17.50971 16.05569
# Shear Modulus (GPa) = 19.41545 25.08434 22.24990
#
# Velocity S-wave (km/s) = 3.26294 3.70882 3.49300
# Velocity P-wave (km/s) = 4.71197 5.28604 5.00724
#
# Compressibility (1/GPa) = 0.06848529
#
# Stress axis : x y z
#
# Youngs Moduli (GPa) = 40.37126 41.66743 33.77783
#
# Poissons Ratio (x) = 0.36016 -0.47707
# Poissons Ratio (y) = 0.34895 0.35213
# Poissons Ratio (z) = -0.57019 0.43438
#
# Static dielectric constant tensor:
#      x y z
#    x 3.516460 0.000000 -0.007270 
#    y 0.000000 3.194620 0.000000 
#    z -0.007270 0.000000 3.279910 
# 
# 
# High freq. dielectric constant tensor:
#      x y z
#    x 1.710000 0.000000 -0.000280 
#    y 0.000000 1.696010 0.000000 
#    z -0.000280 0.000000 1.708510 
# 
# From -- ./inp_files/66965.got.cif
#   From: 2010.06.25/outbox.cif.g09.slc.cpg/sg11_34_cif.got.tgz:66965.got - 2010.06.27 23:14:04.
