data_PCOD8072467
_publ_section_title
;
Structure prediction by ZEFSAII (Michael W. Deem and Ramdas Pophale) SiO2 
 PCOD8072467
Probable space group: P 21/M
;
_chemical_formula_sum "Si O2"
_cell_formula_units_Z 32
_cell_length_a 11.991092
_cell_length_b 8.555062
_cell_length_c 15.465615
_cell_angle_alpha 90.000000
_cell_angle_beta 90.530479
_cell_angle_gamma 90.000000
_cell_volume 1586.464931
_symmetry_space_group_name_H-M "P 21/M"
_symmetry_group_IT_number 11
_symmetry_cell_setting 'monoclinic'
loop_
_space_group_symop_operation_xyz
x,y,z
-x,1/2+y,-z
-x,-y,-z
x,1/2-y,z
loop_
_atom_site_type_symbol
_atom_site_label
_atom_site_fract_x
_atom_site_fract_y
_atom_site_fract_z
Si Si1 0.138543 0.436175 0.250438
Si Si2 0.500369 0.433099 0.163328
Si Si3 0.262537 0.934326 0.902128
Si Si4 0.261376 0.933118 0.588897
Si Si5 0.887824 0.063909 0.253898
Si Si6 0.490073 0.431708 0.651977
Si Si7 0.732394 0.567910 0.915729
Si Si8 0.711740 0.933562 0.590149
O O1 0.138008 0.250000 0.249813
O O2 0.197085 0.500859 0.164041
O O3 0.206600 0.496065 0.334158
O O4 0.013181 0.503110 0.254276
O O5 0.506201 0.250000 0.187769
O O6 0.612843 0.493743 0.118675
O O7 0.478382 0.530321 0.249501
O O8 0.398361 0.468169 0.098275
O O9 0.260102 0.750000 0.899572
O O10 0.177398 0.003024 0.830287
O O11 0.225006 0.989492 0.996198
O O12 0.247806 0.750000 0.571368
O O13 0.174039 0.993409 0.660053
O O14 0.385195 0.965932 0.623243
O O15 0.232917 0.027225 0.501502
O O16 0.887853 0.250000 0.250533
O O17 0.461969 0.250000 0.639557
O O18 0.594376 0.476609 0.592824
O O19 0.755196 0.750000 0.924165
O O20 0.690012 0.750000 0.599779
#
# Coordination Sequence:
#
# PCOD8072467 Si02
#       8
#     4   4   4   4   4   4   4   4
#     4   9  19  37  60  83 112 154 196 235 284 340
#     4  10  19  36  58  83 114 155 190 229 292 349
#     4  10  20  35  57  84 116 151 191 233 284 342
#     4  11  22  39  61  86 118 152 190 234 285 343
#     4   9  19  37  60  83 112 154 196 235 284 340
#     4  12  23  36  59  89 118 149 189 235 286 343
#     4  10  20  35  57  84 116 151 191 233 284 342
#     4  11  22  39  61  86 118 152 190 234 285 343
#
# _framework density 20.170631
#
# number of rings (size 3 to 8) (size 9 to 14) (size 15 to 20)
#    0.000    1.750    2.500    2.625    0.000    2.000 
#    0.000    0.000    0.000    5.250    0.000    0.000 
#    0.000    0.000    0.000    0.000    0.000    0.000 
#
# Total GULP energy -396911.969806 kJ/mol
# GULP energy per Si atom -12403.499056 kJ/mol
# Density = 2.012472 g / cm^3
# Si number density = 20.170631 Si / 1000 Ang^3
#
#
#
# Elastic Constant Matrix: (Units=GPa)
#
#
# Indices 1 2 3 4 5 6 
#
# 1 144.6605 11.0387 55.1741 0.0000 -8.2828 0.0000
# 2 11.0387 29.0386 13.3489 0.0000 -0.1147 0.0000
# 3 55.1741 13.3489 140.4779 0.0000 -10.4132 0.0000
# 4 0.0000 0.0000 0.0000 34.1842 0.0000 -3.9620
# 5 -8.2828 -0.1147 -10.4132 0.0000 19.0898 0.0000
# 6 0.0000 0.0000 0.0000 -3.9620 0.0000 7.9930
#
#
#
# Elastic Compliance Matrix: (Units=1/GPa)
#
#
# Indices 1 2 3 4 5 6 
#
# 1 0.008283 -0.001791 -0.002936 0.000000 0.001981 0.000000
# 2 -0.001791 0.036451 -0.002920 0.000000 -0.002151 0.000000
# 3 -0.002936 -0.002920 0.008810 0.000000 0.003514 0.000000
# 4 0.000000 0.000000 0.000000 0.031036 0.000000 0.015384
# 5 0.001981 -0.002151 0.003514 0.000000 0.055148 0.000000
# 6 0.000000 0.000000 0.000000 0.015384 0.000000 0.132735
#
#
# Mechanical properties :
#
#
# Convention : Reuss Voigt Hill
#
# Bulk Modulus (GPa) = 26.14376 52.58894 39.36635
# Shear Modulus (GPa) = 16.63858 27.89442 22.26650
#
# Velocity S-wave (km/s) = 2.87521 3.72280 3.32611
# Velocity P-wave (km/s) = 4.90019 6.67889 5.85745
#
# Compressibility (1/GPa) = 0.03825005
#
# Stress axis : x y z
#
# Youngs Moduli (GPa) = 120.73401 27.43375 113.51190
#
# Poissons Ratio (x) = 0.04914 0.33327
# Poissons Ratio (y) = 0.21624 0.33143
# Poissons Ratio (z) = 0.35448 0.08010
#
# Static dielectric constant tensor:
#      x y z
#    x 3.835790 0.000000 -0.078240 
#    y 0.000000 3.267370 0.000000 
#    z -0.078240 0.000000 3.875090 
# 
# 
# High freq. dielectric constant tensor:
#      x y z
#    x 1.786060 0.000000 -0.001160 
#    y 0.000000 1.754240 0.000000 
#    z -0.001160 0.000000 1.802400 
# 
# From -- ./inp_files/38182.got.cif
#   From: 2010.06.25/outbox.cif.g09.slc.cpg/sg11_20_cif.got.tgz:38182.got - 2010.06.27 23:14:04.
