data_PCOD8072460
_publ_section_title
;
Structure prediction by ZEFSAII (Michael W. Deem and Ramdas Pophale) SiO2 
 PCOD8072460
Probable space group: P 21/M
;
_chemical_formula_sum "Si O2"
_cell_formula_units_Z 32
_cell_length_a 8.719753
_cell_length_b 13.994962
_cell_length_c 16.242625
_cell_angle_alpha 90.000000
_cell_angle_beta 119.593405
_cell_angle_gamma 90.000000
_cell_volume 1723.564626
_symmetry_space_group_name_H-M "P 21/M"
_symmetry_group_IT_number 11
_symmetry_cell_setting 'monoclinic'
loop_
_space_group_symop_operation_xyz
x,y,z
-x,1/2+y,-z
-x,-y,-z
x,1/2-y,z
loop_
_atom_site_type_symbol
_atom_site_label
_atom_site_fract_x
_atom_site_fract_y
_atom_site_fract_z
Si Si1 0.807862 0.357973 0.273030
Si Si2 0.873607 0.981746 0.164289
Si Si3 0.567778 0.859423 0.360744
Si Si4 0.580334 0.860619 0.801823
Si Si5 0.363973 0.494102 0.038541
Si Si6 0.814689 0.640465 0.573616
Si Si7 0.407237 0.359868 0.820714
Si Si8 0.732546 0.989408 0.702623
O O1 0.809503 0.250000 0.240373
O O2 0.816299 0.421463 0.194095
O O3 0.626821 0.377726 0.274492
O O4 0.974538 0.377780 0.376829
O O5 0.762234 0.894196 0.172767
O O6 0.829492 0.995899 0.055099
O O7 0.079393 0.961043 0.230431
O O8 0.505155 0.750000 0.354703
O O9 0.733015 0.883080 0.463243
O O10 0.633837 0.878819 0.285931
O O11 0.405522 0.925682 0.342894
O O12 0.633317 0.750000 0.811109
O O13 0.618642 0.897004 0.904481
O O14 0.695498 0.918296 0.767649
O O15 0.410969 0.583966 0.109688
O O16 0.500000 0.500000 0.000000
O O17 0.775477 0.750000 0.589006
O O18 0.728236 0.571618 0.618119
O O19 0.441501 0.250000 0.849967
#
# Coordination Sequence:
#
# PCOD8072460 Si02
#       8
#     4   4   4   4   4   4   4   4
#     4   9  17  33  56  81 109 141 186 235 276 319
#     4  10  21  36  56  82 112 146 187 233 277 335
#     4  10  20  37  58  80 113 151 192 232 279 336
#     4  11  21  36  58  83 114 148 185 233 284 336
#     4  10  19  36  58  81 109 141 189 232 281 323
#     4   9  19  35  57  85 111 148 190 233 282 332
#     4  10  20  37  58  80 108 147 191 236 278 328
#     4  11  21  37  57  80 121 149 186 226 289 335
#
# _framework density 18.566174
#
# number of rings (size 3 to 8) (size 9 to 14) (size 15 to 20)
#    0.000    2.000    3.750    0.750    0.000    4.000 
#    0.000    6.875    0.000    3.000    0.000    0.000 
#    0.000    0.000    0.000    0.000    0.000    0.000 
#
# Total GULP energy -396741.466259 kJ/mol
# GULP energy per Si atom -12398.170821 kJ/mol
# Density = 1.852392 g / cm^3
# Si number density = 18.566174 Si / 1000 Ang^3
#
#
#
# Elastic Constant Matrix: (Units=GPa)
#
#
# Indices 1 2 3 4 5 6 
#
# 1 59.7025 27.3869 34.5358 0.0000 6.5083 0.0000
# 2 27.3869 88.3764 49.3263 0.0000 7.5443 0.0000
# 3 34.5358 49.3263 140.4939 0.0000 6.4987 0.0000
# 4 0.0000 0.0000 0.0000 27.8842 0.0000 -2.1006
# 5 6.5083 7.5443 6.4987 0.0000 26.3797 0.0000
# 6 0.0000 0.0000 0.0000 -2.1006 0.0000 26.7549
#
#
#
# Elastic Compliance Matrix: (Units=1/GPa)
#
#
# Indices 1 2 3 4 5 6 
#
# 1 0.021106 -0.004303 -0.003534 0.000000 -0.003106 0.000000
# 2 -0.004303 0.015164 -0.004162 0.000000 -0.002250 0.000000
# 3 -0.003534 -0.004162 0.009460 0.000000 -0.000268 0.000000
# 4 0.000000 0.000000 0.000000 0.036076 0.000000 0.002832
# 5 -0.003106 -0.002250 -0.000268 0.000000 0.039384 0.000000
# 6 0.000000 0.000000 0.000000 0.002832 0.000000 0.037599
#
#
# Mechanical properties :
#
#
# Convention : Reuss Voigt Hill
#
# Bulk Modulus (GPa) = 46.01448 56.78566 51.40007
# Shear Modulus (GPa) = 26.31151 28.02535 27.16843
#
# Velocity S-wave (km/s) = 3.76862 3.88942 3.82950
# Velocity P-wave (km/s) = 6.61623 7.12896 6.87738
#
# Compressibility (1/GPa) = 0.02173229
#
# Stress axis : x y z
#
# Youngs Moduli (GPa) = 47.37884 65.94669 105.70712
#
# Poissons Ratio (x) = 0.28378 0.37355
# Poissons Ratio (y) = 0.20388 0.43996
# Poissons Ratio (z) = 0.16743 0.27447
#
# Static dielectric constant tensor:
#      x y z
#    x 3.357840 0.000000 0.212530 
#    y 0.000000 3.494180 0.000000 
#    z 0.212530 0.000000 3.802760 
# 
# 
# High freq. dielectric constant tensor:
#      x y z
#    x 1.702630 0.000000 0.006920 
#    y 0.000000 1.725840 0.000000 
#    z 0.006920 0.000000 1.726970 
# 
# From -- ./inp_files/26835.got.cif
#   From: 2010.06.25/outbox.cif.g09.slc.cpg/sg11_14_cif.got.tgz:26835.got - 2010.06.27 23:14:04.
