data_PCOD8072428
_publ_section_title
;
Structure prediction by ZEFSAII (Michael W. Deem and Ramdas Pophale) SiO2 
 PCOD8072428
Probable space group: P 21/M
;
_chemical_formula_sum "Si O2"
_cell_formula_units_Z 32
_cell_length_a 7.620551
_cell_length_b 22.623444
_cell_length_c 11.598273
_cell_angle_alpha 90.000000
_cell_angle_beta 126.673711
_cell_angle_gamma 90.000000
_cell_volume 1603.761329
_symmetry_space_group_name_H-M "P 21/M"
_symmetry_group_IT_number 11
_symmetry_cell_setting 'monoclinic'
loop_
_space_group_symop_operation_xyz
x,y,z
-x,1/2+y,-z
-x,-y,-z
x,1/2-y,z
loop_
_atom_site_type_symbol
_atom_site_label
_atom_site_fract_x
_atom_site_fract_y
_atom_site_fract_z
Si Si1 0.711829 0.316807 0.368712
Si Si2 0.990785 0.418998 0.910491
Si Si3 0.574257 0.027182 0.413288
Si Si4 0.770104 0.976528 0.283473
Si Si5 0.731131 0.620018 0.777017
Si Si6 0.297330 0.526972 0.017518
Si Si7 0.909213 0.119708 0.635495
Si Si8 0.092332 0.595627 0.745830
O O1 0.728055 0.250000 0.330013
O O2 0.454685 0.329695 0.293431
O O3 0.865263 0.320087 0.546190
O O4 0.800866 0.359539 0.302904
O O5 0.784927 0.452046 0.888095
O O6 0.895828 0.377550 0.769575
O O7 0.116115 0.376346 0.049690
O O8 0.152870 0.469530 0.920700
O O9 0.374228 0.054071 0.259459
O O10 0.720159 0.082416 0.502029
O O11 0.500000 0.000000 0.500000
O O12 0.700623 0.978535 0.389367
O O13 0.555860 0.987685 0.119380
O O14 0.860233 0.910791 0.303075
O O15 0.942006 0.030503 0.327268
O O16 0.869593 0.623583 0.711508
O O17 0.255604 0.582668 0.916567
#
# Coordination Sequence:
#
# PCOD8072428 Si02
#       8
#     4   4   4   4   4   4   4   4
#     4  11  26  47  63  82 113 159 216 269 310 352
#     4  10  19  36  55  91 127 165 193 234 289 381
#     4  11  21  32  51  87 131 168 192 228 288 374
#     4  12  20  32  56  95 135 163 189 235 307 383
#     4  10  22  39  63  87 119 161 206 241 306 360
#     4  10  20  31  57  92 136 162 185 227 302 369
#     4  11  23  34  57  86 125 157 199 246 303 358
#     4  11  21  37  63  94 121 155 202 251 299 371
#
# _framework density 19.953092000000002
#
# number of rings (size 3 to 8) (size 9 to 14) (size 15 to 20)
#    0.000    1.250    5.000    2.250    5.250    0.500 
#    0.000    0.625    0.000    0.750    0.000    0.000 
#    0.000    0.000    0.000    0.000    0.000    0.000 
#
# Total GULP energy -396546.332074 kJ/mol
# GULP energy per Si atom -12392.072877 kJ/mol
# Density = 1.990768 g / cm^3
# Si number density = 19.953092 Si / 1000 Ang^3
#
#
#
# Elastic Constant Matrix: (Units=GPa)
#
#
# Indices 1 2 3 4 5 6 
#
# 1 102.8099 20.1109 26.1010 0.0000 -3.9077 0.0000
# 2 20.1109 59.7553 16.9568 0.0000 1.1381 0.0000
# 3 26.1010 16.9568 100.8850 0.0000 -10.5013 0.0000
# 4 0.0000 0.0000 0.0000 18.6727 0.0000 1.4048
# 5 -3.9077 1.1381 -10.5013 0.0000 31.5120 0.0000
# 6 0.0000 0.0000 0.0000 1.4048 0.0000 14.7350
#
#
#
# Elastic Compliance Matrix: (Units=1/GPa)
#
#
# Indices 1 2 3 4 5 6 
#
# 1 0.010919 -0.003054 -0.002237 0.000000 0.000719 0.000000
# 2 -0.003054 0.018513 -0.002518 0.000000 -0.001886 0.000000
# 3 -0.002237 -0.002518 0.011286 0.000000 0.003575 0.000000
# 4 0.000000 0.000000 0.000000 0.053941 0.000000 -0.005143
# 5 0.000719 -0.001886 0.003575 0.000000 0.033082 0.000000
# 6 0.000000 0.000000 0.000000 -0.005143 0.000000 0.068356
#
#
# Mechanical properties :
#
#
# Convention : Reuss Voigt Hill
#
# Bulk Modulus (GPa) = 39.83857 43.30972 41.57414
# Shear Modulus (GPa) = 22.71876 26.33607 24.52741
#
# Velocity S-wave (km/s) = 3.37799 3.63698 3.50988
# Velocity P-wave (km/s) = 5.93497 6.27613 6.10793
#
# Compressibility (1/GPa) = 0.02510130
#
# Stress axis : x y z
#
# Youngs Moduli (GPa) = 91.58115 54.01570 88.60276
#
# Poissons Ratio (x) = 0.16496 0.19820
# Poissons Ratio (y) = 0.27967 0.22310
# Poissons Ratio (z) = 0.20486 0.13601
#
# Static dielectric constant tensor:
#      x y z
#    x 3.872100 0.000000 -0.080400 
#    y 0.000000 3.080960 0.000000 
#    z -0.080400 0.000000 3.832760 
# 
# 
# High freq. dielectric constant tensor:
#      x y z
#    x 1.799380 0.000000 -0.013040 
#    y 0.000000 1.704870 0.000000 
#    z -0.013040 0.000000 1.798370 
# 
# From -- ./inp_files/32999.got.cif
#   From: 2010.06.25/outbox.cif.g09.slc.cpg/sg11_17_cif.got.tgz:32999.got - 2010.06.27 23:14:04.
