data_PCOD8072556
_publ_section_title
;
Structure prediction by ZEFSAII (Michael W. Deem and Ramdas Pophale) SiO2 
 PCOD8072556
Probable space group: P 21/M
;
_chemical_formula_sum "Si O2"
_cell_formula_units_Z 28
_cell_length_a 10.084530
_cell_length_b 8.840494
_cell_length_c 29.695873
_cell_angle_alpha 90.000000
_cell_angle_beta 33.935599
_cell_angle_gamma 90.000000
_cell_volume 1477.969093
_symmetry_space_group_name_H-M "P 21/M"
_symmetry_group_IT_number 11
_symmetry_cell_setting 'monoclinic'
loop_
_space_group_symop_operation_xyz
x,y,z
-x,1/2+y,-z
-x,-y,-z
x,1/2-y,z
loop_
_atom_site_type_symbol
_atom_site_label
_atom_site_fract_x
_atom_site_fract_y
_atom_site_fract_z
Si Si1 0.415168 0.574434 0.738779
Si Si2 0.905765 0.924390 0.649361
Si Si3 0.070191 0.572583 0.914062
Si Si4 0.343877 0.928637 0.924744
Si Si5 0.874461 0.572476 0.762891
Si Si6 0.334288 0.072589 0.668512
Si Si7 0.626337 0.571757 0.507190
O O1 0.404287 0.750000 0.727279
O O2 0.649393 0.540353 0.701470
O O3 0.188756 0.530667 0.833145
O O4 0.416696 0.467308 0.695371
O O5 0.975606 0.750000 0.622739
O O6 0.905289 0.966576 0.701879
O O7 0.097335 0.026968 0.569703
O O8 0.036207 0.750000 0.928213
O O9 0.238410 0.512178 0.906989
O O10 0.810922 0.495666 0.990529
O O11 0.332958 0.750000 0.929642
O O12 0.615769 0.982233 0.852386
O O13 0.912284 0.750000 0.760898
O O14 0.063380 0.478922 0.738359
O O15 0.357881 0.250000 0.653420
O O16 0.506064 0.985351 0.586390
O O17 0.500000 0.500000 0.500000
O O18 0.596715 0.750000 0.512699
#
# Coordination Sequence:
#
# PCOD8072556 Si02
#       7
#     4   4   4   4   4   4   4
#     4  10  21  40  62  86 119 159 197 238 294 351
#     4  10  20  37  64  90 115 151 197 244 289 344
#     4   9  17  32  55  85 118 152 189 234 288 344
#     4   9  17  31  55  88 118 149 190 237 289 342
#     4  10  19  36  61  87 116 153 195 241 291 346
#     4  12  26  41  59  86 119 156 196 241 295 351
#     4  12  24  40  62  89 119 152 193 241 292 344
#
# _framework density 18.944915999999999
#
# number of rings (size 3 to 8) (size 9 to 14) (size 15 to 20)
#    0.000    1.714    2.857    2.571    0.000    2.286 
#    0.000    0.714    0.000    0.000    0.000    0.000 
#    0.000    0.000    0.000    0.000    0.000    0.000 
#
# Total GULP energy -347289.628424 kJ/mol
# GULP energy per Si atom -12403.201015 kJ/mol
# Density = 1.890180 g / cm^3
# Si number density = 18.944916 Si / 1000 Ang^3
#
#
#
# Elastic Constant Matrix: (Units=GPa)
#
#
# Indices 1 2 3 4 5 6 
#
# 1 52.2480 20.6325 12.9441 0.0000 0.9851 0.0000
# 2 20.6325 79.2257 38.9138 0.0000 -3.2472 0.0000
# 3 12.9441 38.9138 120.6053 0.0000 -10.6768 0.0000
# 4 0.0000 0.0000 0.0000 35.9251 0.0000 -0.9016
# 5 0.9851 -3.2472 -10.6768 0.0000 28.0995 0.0000
# 6 0.0000 0.0000 0.0000 -0.9016 0.0000 27.8547
#
#
#
# Elastic Compliance Matrix: (Units=1/GPa)
#
#
# Indices 1 2 3 4 5 6 
#
# 1 0.021442 -0.005288 -0.000741 0.000000 -0.001644 0.000000
# 2 -0.005288 0.016304 -0.004667 0.000000 0.000296 0.000000
# 3 -0.000741 -0.004667 0.010173 0.000000 0.003352 0.000000
# 4 0.000000 0.000000 0.000000 0.027858 0.000000 0.000902
# 5 -0.001644 0.000296 0.003352 0.000000 0.036953 0.000000
# 6 0.000000 0.000000 0.000000 0.000902 0.000000 0.035930
#
#
# Mechanical properties :
#
#
# Convention : Reuss Voigt Hill
#
# Bulk Modulus (GPa) = 37.69471 44.11775 40.90623
# Shear Modulus (GPa) = 27.94956 30.34844 29.14900
#
# Velocity S-wave (km/s) = 3.84514 4.00675 3.92678
# Velocity P-wave (km/s) = 6.29711 6.68905 6.49604
#
# Compressibility (1/GPa) = 0.02652892
#
# Stress axis : x y z
#
# Youngs Moduli (GPa) = 46.63726 61.33647 98.29471
#
# Poissons Ratio (x) = 0.32433 0.07281
# Poissons Ratio (y) = 0.24660 0.45871
# Poissons Ratio (z) = 0.03455 0.28624
#
# Static dielectric constant tensor:
#      x y z
#    x 3.345990 0.000000 -0.115330 
#    y 0.000000 3.427490 0.000000 
#    z -0.115330 0.000000 3.828360 
# 
# 
# High freq. dielectric constant tensor:
#      x y z
#    x 1.720430 0.000000 -0.008580 
#    y 0.000000 1.727160 0.000000 
#    z -0.008580 0.000000 1.751990 
# 
# From -- ./inp_files/26087.got.cif
#   From: 2010.06.25/outbox.cif.g09.slc.cpg/sg11_14_cif.got.tgz:26087.got - 2010.06.27 23:14:04.
