data_PCOD8072038
_publ_section_title
;
Structure prediction by ZEFSAII (Michael W. Deem and Ramdas Pophale) SiO2 
 PCOD8072038
Probable space group: P 21/M
;
_chemical_formula_sum "Si O2"
_cell_formula_units_Z 28
_cell_length_a 9.721843
_cell_length_b 8.607882
_cell_length_c 28.682022
_cell_angle_alpha 90.000000
_cell_angle_beta 38.959273
_cell_angle_gamma 90.000000
_cell_volume 1509.193688
_symmetry_space_group_name_H-M "P 21/M"
_symmetry_group_IT_number 11
_symmetry_cell_setting 'monoclinic'
loop_
_space_group_symop_operation_xyz
x,y,z
-x,1/2+y,-z
-x,-y,-z
x,1/2-y,z
loop_
_atom_site_type_symbol
_atom_site_label
_atom_site_fract_x
_atom_site_fract_y
_atom_site_fract_z
Si Si1 0.657660 0.066048 0.812967
Si Si2 0.197410 0.934355 0.918365
Si Si3 0.810336 0.933491 0.446504
Si Si4 0.725265 0.066549 0.690214
Si Si5 0.633401 0.433423 0.398786
Si Si6 0.248588 0.065202 0.803831
Si Si7 0.051404 0.566280 0.765164
O O1 0.644033 0.250000 0.821975
O O2 0.740726 0.014568 0.740037
O O3 0.418993 0.994458 0.884200
O O4 0.821337 0.997467 0.807956
O O5 0.194650 0.750000 0.918731
O O6 0.169053 0.996973 0.873552
O O7 0.000000 0.000000 0.000000
O O8 0.819013 0.750000 0.442490
O O9 0.623946 0.986915 0.532663
O O10 0.055764 0.997322 0.394085
O O11 0.754564 0.988309 0.409616
O O12 0.720132 0.250000 0.689044
O O13 0.498398 0.005006 0.727719
O O14 0.652870 0.250000 0.400017
O O15 0.748620 0.488760 0.320925
O O16 0.238697 0.250000 0.809427
O O17 0.090080 0.004233 0.805664
O O18 0.040301 0.750000 0.771323
#
# Coordination Sequence:
#
# PCOD8072038 Si02
#       7
#     4   4   4   4   4   4   4
#     4  10  19  34  57  84 109 144 186 225 265 321
#     4  11  22  40  64  90 116 143 173 215 262 318
#     4   9  15  28  48  71  99 137 183 233 280 323
#     4   8  15  29  51  75  99 134 184 231 270 318
#     4   9  18  28  44  72 106 139 179 231 282 325
#     4  10  21  37  56  80 109 146 186 226 271 326
#     4  11  21  34  50  78 114 149 185 230 282 328
#
# _framework density 18.552954
#
# number of rings (size 3 to 8) (size 9 to 14) (size 15 to 20)
#    0.000    2.286    1.429    3.429    0.000    0.571 
#    0.000    2.143    0.000    0.000    0.000    0.000 
#    0.000    0.000    0.000    0.000    0.000    0.000 
#
# Total GULP energy -347016.738171 kJ/mol
# GULP energy per Si atom -12393.454935 kJ/mol
# Density = 1.851073 g / cm^3
# Si number density = 18.552954 Si / 1000 Ang^3
#
#
#
# Elastic Constant Matrix: (Units=GPa)
#
#
# Indices 1 2 3 4 5 6 
#
# 1 134.6492 42.7512 65.4579 0.0000 -9.9494 0.0000
# 2 42.7512 76.9438 43.1010 0.0000 -5.8408 0.0000
# 3 65.4579 43.1010 139.0385 0.0000 -19.9409 0.0000
# 4 0.0000 0.0000 0.0000 22.6718 0.0000 -0.8141
# 5 -9.9494 -5.8408 -19.9409 0.0000 21.7849 0.0000
# 6 0.0000 0.0000 0.0000 -0.8141 0.0000 27.1108
#
#
#
# Elastic Compliance Matrix: (Units=1/GPa)
#
#
# Indices 1 2 3 4 5 6 
#
# 1 0.010430 -0.003686 -0.003714 0.000000 0.000376 0.000000
# 2 -0.003686 0.017032 -0.003604 0.000000 -0.000416 0.000000
# 3 -0.003714 -0.003604 0.011138 0.000000 0.007533 0.000000
# 4 0.000000 0.000000 0.000000 0.044155 0.000000 0.001326
# 5 0.000376 -0.000416 0.007533 0.000000 0.052859 0.000000
# 6 0.000000 0.000000 0.000000 0.001326 0.000000 0.036925
#
#
# Mechanical properties :
#
#
# Convention : Reuss Voigt Hill
#
# Bulk Modulus (GPa) = 60.26926 72.58352 66.42639
# Shear Modulus (GPa) = 24.99010 27.60159 26.29585
#
# Velocity S-wave (km/s) = 3.67408 3.86128 3.76884
# Velocity P-wave (km/s) = 7.11013 7.68678 7.40407
#
# Compressibility (1/GPa) = 0.01659221
#
# Stress axis : x y z
#
# Youngs Moduli (GPa) = 95.87425 58.71333 89.78043
#
# Poissons Ratio (x) = 0.21644 0.33343
# Poissons Ratio (y) = 0.35343 0.32356
# Poissons Ratio (z) = 0.35606 0.21160
#
# Static dielectric constant tensor:
#      x y z
#    x 3.313490 0.000000 -0.285910 
#    y 0.000000 3.366520 0.000000 
#    z -0.285910 0.000000 3.664820 
# 
# 
# High freq. dielectric constant tensor:
#      x y z
#    x 1.704170 0.000000 -0.022150 
#    y 0.000000 1.715600 0.000000 
#    z -0.022150 0.000000 1.720890 
# 
# From -- ./inp_files/29021.got.cif
#   From: 2010.06.25/outbox.cif.g09.slc.cpg/sg11_15_cif.got.tgz:29021.got - 2010.06.27 23:14:04.
