data_PCOD8072120
_publ_section_title
;
Structure prediction by ZEFSAII (Michael W. Deem and Ramdas Pophale) SiO2 
 PCOD8072120
Probable space group: P 21/M
;
_chemical_formula_sum "Si O2"
_cell_formula_units_Z 24
_cell_length_a 22.938766
_cell_length_b 9.183253
_cell_length_c 10.916960
_cell_angle_alpha 90.000000
_cell_angle_beta 31.320753
_cell_angle_gamma 90.000000
_cell_volume 1195.441874
_symmetry_space_group_name_H-M "P 21/M"
_symmetry_group_IT_number 11
_symmetry_cell_setting 'monoclinic'
loop_
_space_group_symop_operation_xyz
x,y,z
-x,1/2+y,-z
-x,-y,-z
x,1/2-y,z
loop_
_atom_site_type_symbol
_atom_site_label
_atom_site_fract_x
_atom_site_fract_y
_atom_site_fract_z
Si Si1 0.285511 0.087118 0.640883
Si Si2 0.710314 0.581358 0.871369
Si Si3 0.386977 0.411693 0.197065
Si Si4 0.070710 0.923348 0.480810
Si Si5 0.030852 0.078859 0.073303
Si Si6 0.520944 0.082248 0.584393
O O1 0.303563 0.250000 0.662908
O O2 0.315720 0.083650 0.445843
O O3 0.362539 0.972429 0.570434
O O4 0.157475 0.038763 0.882930
O O5 0.744296 0.750000 0.832530
O O6 0.702392 0.535213 0.743487
O O7 0.802035 0.478106 0.769923
O O8 0.584888 0.547917 0.141203
O O9 0.426905 0.250000 0.089764
O O10 0.500000 0.500000 0.000000
O O11 0.061695 0.750000 0.480110
O O12 0.037059 0.969024 0.681410
O O13 0.000000 0.000000 0.500000
O O14 0.015867 0.250000 0.075378
O O15 0.000000 0.000000 0.000000
O O16 0.535461 0.250000 0.530232
O O17 0.500000 0.000000 0.500000
#
# Coordination Sequence:
#
# PCOD8072120 Si02
#       6
#     4   4   4   4   4   4
#     4  10  21  38  62  90 123 159 197 247 306 365
#     4  10  22  41  63  88 123 162 201 251 306 365
#     4  10  19  34  58  88 120 154 193 240 298 361
#     4  11  25  43  65  94 126 165 213 263 314 373
#     4  10  23  43  66  93 126 165 210 260 313 370
#     4  11  24  40  60  88 122 160 204 251 304 365
#
# _framework density 20.076257999999999
#
# number of rings (size 3 to 8) (size 9 to 14) (size 15 to 20)
#    0.000    1.667    1.667    2.000    2.333    5.333 
#    0.000    0.000    0.000    0.000    0.000    0.000 
#    0.000    0.000    0.000    0.000    0.000    0.000 
#
# Total GULP energy -297473.967427 kJ/mol
# GULP energy per Si atom -12394.748643 kJ/mol
# Density = 2.003056 g / cm^3
# Si number density = 20.076258 Si / 1000 Ang^3
#
#
#
# Elastic Constant Matrix: (Units=GPa)
#
#
# Indices 1 2 3 4 5 6 
#
# 1 138.2115 67.3466 34.7021 0.0000 -4.8493 0.0000
# 2 67.3466 98.6867 45.4003 0.0000 -8.0786 0.0000
# 3 34.7021 45.4003 78.9387 0.0000 -15.8531 0.0000
# 4 0.0000 0.0000 0.0000 31.2536 0.0000 -4.2619
# 5 -4.8493 -8.0786 -15.8531 0.0000 33.3340 0.0000
# 6 0.0000 0.0000 0.0000 -4.2619 0.0000 42.1576
#
#
#
# Elastic Compliance Matrix: (Units=1/GPa)
#
#
# Indices 1 2 3 4 5 6 
#
# 1 0.010876 -0.007094 -0.000806 0.000000 -0.000520 0.000000
# 2 -0.007094 0.018413 -0.007498 0.000000 -0.000136 0.000000
# 3 -0.000806 -0.007498 0.018736 0.000000 0.006976 0.000000
# 4 0.000000 0.000000 0.000000 0.032444 0.000000 0.003280
# 5 -0.000520 -0.000136 0.006976 0.000000 0.033208 0.000000
# 6 0.000000 0.000000 0.000000 0.003280 0.000000 0.024052
#
#
# Mechanical properties :
#
#
# Convention : Reuss Voigt Hill
#
# Bulk Modulus (GPa) = 58.04404 67.85943 62.95174
# Shear Modulus (GPa) = 28.69144 32.57488 30.63316
#
# Velocity S-wave (km/s) = 3.78448 4.03247 3.91044
# Velocity P-wave (km/s) = 6.93332 7.45354 7.19813
#
# Compressibility (1/GPa) = 0.01722830
#
# Stress axis : x y z
#
# Youngs Moduli (GPa) = 91.94505 54.31006 53.37374
#
# Poissons Ratio (x) = 0.38528 0.04300
# Poissons Ratio (y) = 0.65227 0.40022
# Poissons Ratio (z) = 0.07407 0.40724
#
# Static dielectric constant tensor:
#      x y z
#    x 3.671990 0.000000 0.132440 
#    y 0.000000 4.288690 0.000000 
#    z 0.132440 0.000000 3.724530 
# 
# 
# High freq. dielectric constant tensor:
#      x y z
#    x 1.798460 0.000000 0.000110 
#    y 0.000000 1.779170 0.000000 
#    z 0.000110 0.000000 1.791390 
# 
# From -- ./inp_files/43888.got.cif
#   From: 2010.06.25/outbox.cif.g09.slc.cpg/sg11_22_cif.got.tgz:43888.got - 2010.06.27 23:14:04.
