data_PCOD8072324
_publ_section_title
;
Structure prediction by ZEFSAII (Michael W. Deem and Ramdas Pophale) SiO2 
 PCOD8072324
Probable space group: P 21/M
;
_chemical_formula_sum "Si O2"
_cell_formula_units_Z 32
_cell_length_a 13.124280
_cell_length_b 15.149454
_cell_length_c 19.233751
_cell_angle_alpha 90.000000
_cell_angle_beta 155.149667
_cell_angle_gamma 90.000000
_cell_volume 1607.102366
_symmetry_space_group_name_H-M "P 21/M"
_symmetry_group_IT_number 11
_symmetry_cell_setting 'monoclinic'
loop_
_space_group_symop_operation_xyz
x,y,z
-x,1/2+y,-z
-x,-y,-z
x,1/2-y,z
loop_
_atom_site_type_symbol
_atom_site_label
_atom_site_fract_x
_atom_site_fract_y
_atom_site_fract_z
Si Si1 0.492778 0.403950 0.409413
Si Si2 0.841456 0.348816 0.113737
Si Si3 0.671229 0.901783 0.542854
Si Si4 0.492566 0.651007 0.292345
Si Si5 0.996986 0.650041 0.938268
Si Si6 0.390350 0.052959 0.867481
Si Si7 0.276303 0.993239 0.652370
Si Si8 0.874171 0.148394 0.542655
O O1 0.426162 0.363020 0.443730
O O2 0.563476 0.504129 0.460044
O O3 0.713969 0.348922 0.513647
O O4 0.251488 0.405199 0.211142
O O5 0.917020 0.250000 0.179511
O O6 0.855956 0.367369 0.041322
O O7 0.036574 0.410431 0.274204
O O8 0.568726 0.364517 0.969274
O O9 0.595174 0.838481 0.433315
O O10 0.512284 0.750000 0.270132
O O11 0.642647 0.578751 0.341725
O O12 0.206089 0.624275 0.123137
O O13 0.908641 0.750000 0.891838
O O14 0.121308 0.093609 0.710528
O O15 0.412570 0.991396 0.811618
O O16 0.500000 0.000000 0.000000
O O17 0.295669 0.902423 0.619744
O O18 0.000000 0.000000 0.500000
O O19 0.927211 0.250000 0.552572
#
# Coordination Sequence:
#
# PCOD8072324 Si02
#       8
#     4   4   4   4   4   4   4   4
#     4  10  20  38  61  85 127 163 204 246 311 375
#     4  10  19  35  58  86 119 153 199 253 305 360
#     4  10  21  36  59  94 121 159 204 260 311 361
#     4  11  21  38  63  93 124 157 208 264 315 358
#     4   9  19  34  57  87 114 153 201 250 300 360
#     4  11  23  40  65  90 123 159 208 266 313 370
#     4  10  23  41  61  90 125 161 207 257 310 377
#     4  11  23  42  65  88 127 176 209 244 315 386
#
# _framework density 19.911612000000002
#
# number of rings (size 3 to 8) (size 9 to 14) (size 15 to 20)
#    0.000    1.750    2.500    1.875    1.750    4.000 
#    0.000    1.250    0.000    0.000    0.000    0.000 
#    0.000    0.000    0.000    0.000    0.000    0.000 
#
# Total GULP energy -396467.637531 kJ/mol
# GULP energy per Si atom -12389.613673 kJ/mol
# Density = 1.986629 g / cm^3
# Si number density = 19.911612 Si / 1000 Ang^3
#
#
#
# Elastic Constant Matrix: (Units=GPa)
#
#
# Indices 1 2 3 4 5 6 
#
# 1 88.3605 28.8392 52.4916 0.0000 0.4962 0.0000
# 2 28.8392 90.9278 39.4100 0.0000 -1.8772 0.0000
# 3 52.4916 39.4100 128.8193 0.0000 0.8454 0.0000
# 4 0.0000 0.0000 0.0000 34.9080 0.0000 2.5710
# 5 0.4962 -1.8772 0.8454 0.0000 41.0953 0.0000
# 6 0.0000 0.0000 0.0000 2.5710 0.0000 18.6654
#
#
#
# Elastic Compliance Matrix: (Units=1/GPa)
#
#
# Indices 1 2 3 4 5 6 
#
# 1 0.015410 -0.002502 -0.005513 0.000000 -0.000187 0.000000
# 2 -0.002502 0.013103 -0.002994 0.000000 0.000690 0.000000
# 3 -0.005513 -0.002994 0.010927 0.000000 -0.000295 0.000000
# 4 0.000000 0.000000 0.000000 0.028940 0.000000 -0.003986
# 5 -0.000187 0.000690 -0.000295 0.000000 0.024374 0.000000
# 6 0.000000 0.000000 0.000000 -0.003986 0.000000 0.054124
#
#
# Mechanical properties :
#
#
# Convention : Reuss Voigt Hill
#
# Bulk Modulus (GPa) = 57.39465 61.06547 59.23006
# Shear Modulus (GPa) = 28.62019 31.42486 30.02252
#
# Velocity S-wave (km/s) = 3.79537 3.97699 3.88724
# Velocity P-wave (km/s) = 6.93496 7.19885 7.06814
#
# Compressibility (1/GPa) = 0.01742323
#
# Stress axis : x y z
#
# Youngs Moduli (GPa) = 64.89411 76.31807 91.51769
#
# Poissons Ratio (x) = 0.19095 0.50449
# Poissons Ratio (y) = 0.16237 0.27397
# Poissons Ratio (z) = 0.35773 0.22847
#
# Static dielectric constant tensor:
#      x y z
#    x 3.885890 0.000000 -0.206720 
#    y 0.000000 3.634520 0.000000 
#    z -0.206720 0.000000 3.973430 
# 
# 
# High freq. dielectric constant tensor:
#      x y z
#    x 1.766460 0.000000 0.002860 
#    y 0.000000 1.765120 0.000000 
#    z 0.002860 0.000000 1.791500 
# 
# From -- ./inp_files/65808.got.cif
#   From: 2010.06.25/outbox.cif.g09.slc.cpg/sg11_33_cif.got.tgz:65808.got - 2010.06.27 23:14:04.
