data_PCOD8072043
_publ_section_title
;
Structure prediction by ZEFSAII (Michael W. Deem and Ramdas Pophale) SiO2 
 PCOD8072043
Probable space group: P 21/M
;
_chemical_formula_sum "Si O2"
_cell_formula_units_Z 32
_cell_length_a 12.498740
_cell_length_b 9.002716
_cell_length_c 28.901895
_cell_angle_alpha 90.000000
_cell_angle_beta 30.577491
_cell_angle_gamma 90.000000
_cell_volume 1654.362194
_symmetry_space_group_name_H-M "P 21/M"
_symmetry_group_IT_number 11
_symmetry_cell_setting 'monoclinic'
loop_
_space_group_symop_operation_xyz
x,y,z
-x,1/2+y,-z
-x,-y,-z
x,1/2-y,z
loop_
_atom_site_type_symbol
_atom_site_label
_atom_site_fract_x
_atom_site_fract_y
_atom_site_fract_z
Si Si1 0.799556 0.426413 0.796517
Si Si2 0.384256 0.924525 0.722363
Si Si3 0.847815 0.926249 0.519382
Si Si4 0.016670 0.421414 0.187779
Si Si5 0.326790 0.077611 0.991893
Si Si6 0.540698 0.581283 0.212186
Si Si7 0.906810 0.082230 0.656253
Si Si8 0.187114 0.925295 0.957484
O O1 0.804474 0.250000 0.793659
O O2 0.967045 0.485664 0.771188
O O3 0.566931 0.479347 0.898925
O O4 0.862981 0.495461 0.722378
O O5 0.372594 0.750000 0.737551
O O6 0.605487 0.970323 0.617090
O O7 0.193353 0.974531 0.760517
O O8 0.357848 0.010984 0.780096
O O9 0.881190 0.750000 0.510535
O O10 0.905955 0.984189 0.445473
O O11 0.000000 0.000000 0.500000
O O12 0.994717 0.250000 0.209381
O O13 0.228508 0.448538 0.079065
O O14 0.309259 0.250000 0.983886
O O15 0.182662 0.979234 0.011872
O O16 0.624121 0.750000 0.176441
O O17 0.289730 0.575220 0.305831
O O18 0.600665 0.485818 0.144861
O O19 0.962998 0.250000 0.648285
O O20 0.171470 0.750000 0.960436
O O21 0.000000 0.000000 0.000000
#
# Coordination Sequence:
#
# PCOD8072043 Si02
#       8
#     4   4   4   4   4   4   4   4
#     4  10  20  37  59  80 107 147 195 239 281 336
#     4  10  21  36  55  83 118 151 188 235 290 346
#     4  10  19  34  57  84 113 148 187 230 286 346
#     4  10  22  38  55  79 113 149 186 237 289 334
#     4  10  20  37  58  80 111 149 190 236 285 338
#     4  11  20  35  58  82 114 150 186 229 286 345
#     4   9  18  34  56  82 111 143 180 230 286 335
#     4  12  24  36  53  81 117 154 192 232 281 340
#
# _framework density 19.3428
#
# number of rings (size 3 to 8) (size 9 to 14) (size 15 to 20)
#    0.000    1.750    2.500    2.625    0.000    2.500 
#    0.000    1.250    0.000    0.000    0.000    0.000 
#    0.000    0.000    0.000    0.000    0.000    0.000 
#
# Total GULP energy -396706.511630 kJ/mol
# GULP energy per Si atom -12397.078488 kJ/mol
# Density = 1.929878 g / cm^3
# Si number density = 19.342800 Si / 1000 Ang^3
#
#
#
# Elastic Constant Matrix: (Units=GPa)
#
#
# Indices 1 2 3 4 5 6 
#
# 1 128.3329 31.2448 37.1753 0.0000 8.5753 0.0000
# 2 31.2448 59.5999 14.3933 0.0000 4.1011 0.0000
# 3 37.1753 14.3933 87.0996 0.0000 11.2136 0.0000
# 4 0.0000 0.0000 0.0000 18.0674 0.0000 -0.3091
# 5 8.5753 4.1011 11.2136 0.0000 25.8701 0.0000
# 6 0.0000 0.0000 0.0000 -0.3091 0.0000 34.7827
#
#
#
# Elastic Compliance Matrix: (Units=1/GPa)
#
#
# Indices 1 2 3 4 5 6 
#
# 1 0.009888 -0.004293 -0.003364 0.000000 -0.001139 0.000000
# 2 -0.004293 0.019403 -0.001230 0.000000 -0.001120 0.000000
# 3 -0.003364 -0.001230 0.013717 0.000000 -0.004636 0.000000
# 4 0.000000 0.000000 0.000000 0.055357 0.000000 0.000492
# 5 -0.001139 -0.001120 -0.004636 0.000000 0.041219 0.000000
# 6 0.000000 0.000000 0.000000 0.000492 0.000000 0.028754
#
#
# Mechanical properties :
#
#
# Convention : Reuss Voigt Hill
#
# Bulk Modulus (GPa) = 39.62916 48.96214 44.29565
# Shear Modulus (GPa) = 25.70376 28.55865 27.13120
#
# Velocity S-wave (km/s) = 3.64930 3.84663 3.74926
# Velocity P-wave (km/s) = 6.18779 6.71539 6.45699
#
# Compressibility (1/GPa) = 0.02523395
#
# Stress axis : x y z
#
# Youngs Moduli (GPa) = 101.13178 51.53803 72.90165
#
# Poissons Ratio (x) = 0.22125 0.24527
# Poissons Ratio (y) = 0.43415 0.08967
# Poissons Ratio (z) = 0.34024 0.06339
#
# Static dielectric constant tensor:
#      x y z
#    x 3.628950 0.000000 0.358600 
#    y 0.000000 3.450530 0.000000 
#    z 0.358600 0.000000 4.136110 
# 
# 
# High freq. dielectric constant tensor:
#      x y z
#    x 1.749250 0.000000 0.008360 
#    y 0.000000 1.731460 0.000000 
#    z 0.008360 0.000000 1.757540 
# 
# From -- ./inp_files/38140.got.cif
#   From: 2010.06.25/outbox.cif.g09.slc.cpg/sg11_20_cif.got.tgz:38140.got - 2010.06.27 23:14:04.
