data_PCOD8072419
_publ_section_title
;
Structure prediction by ZEFSAII (Michael W. Deem and Ramdas Pophale) SiO2 
 PCOD8072419
Probable space group: P 21/M
;
_chemical_formula_sum "Si O2"
_cell_formula_units_Z 28
_cell_length_a 8.037758
_cell_length_b 18.838878
_cell_length_c 8.336704
_cell_angle_alpha 90.000000
_cell_angle_beta 89.611028
_cell_angle_gamma 90.000000
_cell_volume 1262.334157
_symmetry_space_group_name_H-M "P 21/M"
_symmetry_group_IT_number 11
_symmetry_cell_setting 'monoclinic'
loop_
_space_group_symop_operation_xyz
x,y,z
-x,1/2+y,-z
-x,-y,-z
x,1/2-y,z
loop_
_atom_site_type_symbol
_atom_site_label
_atom_site_fract_x
_atom_site_fract_y
_atom_site_fract_z
Si Si1 0.007353 0.063195 0.377987
Si Si2 0.002832 0.170198 0.936282
Si Si3 0.156916 0.541182 0.933998
Si Si4 0.613912 0.570219 0.676965
Si Si5 0.653225 0.907311 0.018564
Si Si6 0.864605 0.170972 0.601626
Si Si7 0.527318 0.090404 0.654700
O O1 0.188031 0.065755 0.297840
O O2 0.859090 0.045785 0.256907
O O3 0.966380 0.139349 0.453055
O O4 0.000000 0.000000 0.500000
O O5 0.984017 0.250000 0.007113
O O6 0.176034 0.136795 0.990997
O O7 0.996221 0.172281 0.744887
O O8 0.846508 0.121471 0.996332
O O9 0.318122 0.493800 0.976260
O O10 0.000000 0.500000 0.000000
O O11 0.567590 0.612552 0.512335
O O12 0.531165 0.493848 0.663631
O O13 0.554383 0.606147 0.848648
O O14 0.558960 0.881133 0.180476
O O15 0.802556 0.250000 0.558977
O O16 0.709983 0.122132 0.648037
#
# Coordination Sequence:
#
# PCOD8072419 Si02
#       7
#     4   4   4   4   4   4   4
#     4  12  20  38  67  92 124 160 216 272 316 371
#     4  10  21  40  64  89 122 164 214 263 319 378
#     4  10  19  35  63  94 122 150 208 271 314 359
#     4  11  22  39  63  98 125 163 214 267 314 377
#     4  11  22  41  65  98 126 165 214 267 322 377
#     4  11  25  43  63  92 129 171 211 263 328 384
#     4  11  24  40  62  92 134 169 209 256 322 390
#
# _framework density 22.181132999999999
#
# number of rings (size 3 to 8) (size 9 to 14) (size 15 to 20)
#    0.000    1.143    4.286    4.714    2.000    1.143 
#    0.000    1.429    0.000    0.000    0.000    0.000 
#    0.000    0.000    0.000    0.000    0.000    0.000 
#
# Total GULP energy -346993.370500 kJ/mol
# GULP energy per Si atom -12392.620375 kJ/mol
# Density = 2.213065 g / cm^3
# Si number density = 22.181133 Si / 1000 Ang^3
#
#
#
# Elastic Constant Matrix: (Units=GPa)
#
#
# Indices 1 2 3 4 5 6 
#
# 1 43.1276 -1.1374 21.9544 0.0000 8.0430 0.0000
# 2 -1.1374 90.9464 26.2760 0.0000 2.0449 0.0000
# 3 21.9544 26.2760 175.9280 0.0000 19.2807 0.0000
# 4 0.0000 0.0000 0.0000 26.4962 0.0000 -1.5468
# 5 8.0430 2.0449 19.2807 0.0000 33.1236 0.0000
# 6 0.0000 0.0000 0.0000 -1.5468 0.0000 14.4543
#
#
#
# Elastic Compliance Matrix: (Units=1/GPa)
#
#
# Indices 1 2 3 4 5 6 
#
# 1 0.025540 0.001252 -0.002869 0.000000 -0.004609 0.000000
# 2 0.001252 0.011556 -0.001891 0.000000 0.000083 0.000000
# 3 -0.002869 -0.001891 0.006660 0.000000 -0.003063 0.000000
# 4 0.000000 0.000000 0.000000 0.037979 0.000000 0.004064
# 5 -0.004609 0.000083 -0.003063 0.000000 0.033087 0.000000
# 6 0.000000 0.000000 0.000000 0.004064 0.000000 0.069619
#
#
# Mechanical properties :
#
#
# Convention : Reuss Voigt Hill
#
# Bulk Modulus (GPa) = 27.21878 44.90977 36.06428
# Shear Modulus (GPa) = 24.54544 32.34208 28.44376
#
# Velocity S-wave (km/s) = 3.33015 3.82264 3.58486
# Velocity P-wave (km/s) = 5.20426 6.30668 5.78181
#
# Compressibility (1/GPa) = 0.03673934
#
# Stress axis : x y z
#
# Youngs Moduli (GPa) = 39.15415 86.53740 150.14114
#
# Poissons Ratio (x) = -0.10834 0.43077
# Poissons Ratio (y) = -0.04902 0.28396
# Poissons Ratio (z) = 0.11234 0.16367
#
# Static dielectric constant tensor:
#      x y z
#    x 4.166200 0.000000 -0.112050 
#    y 0.000000 4.002490 0.000000 
#    z -0.112050 0.000000 4.576800 
# 
# 
# High freq. dielectric constant tensor:
#      x y z
#    x 1.860080 0.000000 0.005320 
#    y 0.000000 1.838490 0.000000 
#    z 0.005320 0.000000 1.898640 
# 
# From -- ./inp_files/14034.got.cif
#   From: 2010.06.25/outbox.cif.g09.slc.cpg/sg11_8_cif.got.tgz:14034.got - 2010.06.27 23:14:04.
