data_PCOD8072538
_publ_section_title
;
Structure prediction by ZEFSAII (Michael W. Deem and Ramdas Pophale) SiO2 
 PCOD8072538
Probable space group: P 21/M
;
_chemical_formula_sum "Si O2"
_cell_formula_units_Z 28
_cell_length_a 21.199618
_cell_length_b 15.464615
_cell_length_c 9.170781
_cell_angle_alpha 90.000000
_cell_angle_beta 151.715801
_cell_angle_gamma 90.000000
_cell_volume 1424.656339
_symmetry_space_group_name_H-M "P 21/M"
_symmetry_group_IT_number 11
_symmetry_cell_setting 'monoclinic'
loop_
_space_group_symop_operation_xyz
x,y,z
-x,1/2+y,-z
-x,-y,-z
x,1/2-y,z
loop_
_atom_site_type_symbol
_atom_site_label
_atom_site_fract_x
_atom_site_fract_y
_atom_site_fract_z
Si Si1 0.039797 0.347319 0.770068
Si Si2 0.799035 0.151357 0.781625
Si Si3 0.685724 0.655167 0.508636
Si Si4 0.939523 0.648619 0.514317
Si Si5 0.107260 0.937624 0.290237
Si Si6 0.289571 0.421628 0.746384
Si Si7 0.442184 0.516938 0.721462
O O1 0.984237 0.250000 0.640523
O O2 0.071613 0.384319 0.674567
O O3 0.929950 0.407054 0.623174
O O4 0.165593 0.350018 0.130692
O O5 0.750932 0.250000 0.709287
O O6 0.867610 0.145020 0.762030
O O7 0.676497 0.085437 0.541838
O O8 0.913362 0.123647 0.129377
O O9 0.624040 0.750000 0.420463
O O10 0.691207 0.648087 0.343750
O O11 0.603480 0.578958 0.422580
O O12 0.915090 0.750000 0.478320
O O13 0.820870 0.604528 0.361896
O O14 0.244708 0.989773 0.576859
O O15 0.000000 0.000000 0.000000
O O16 0.432411 0.443098 0.113784
O O17 0.500000 0.500000 0.000000
#
# Coordination Sequence:
#
# PCOD8072538 Si02
#       7
#     4   4   4   4   4   4   4
#     4  10  21  37  58  86 117 152 197 245 295 351
#     4  11  21  37  62  88 118 154 193 247 302 347
#     4  10  19  36  61  82 115 158 194 241 294 344
#     4  10  22  38  59  87 115 153 201 242 293 356
#     4  12  19  35  58  86 120 147 191 247 290 348
#     4  11  21  36  58  86 119 149 194 243 287 352
#     4  10  21  38  55  88 121 150 197 243 286 355
#
# _framework density 19.653863000000001
#
# number of rings (size 3 to 8) (size 9 to 14) (size 15 to 20)
#    0.000    1.429    5.714    0.857    0.000    5.714 
#    0.000    0.714    0.000    0.000    0.000    0.000 
#    0.000    0.000    0.000    0.000    0.000    0.000 
#
# Total GULP energy -346988.224384 kJ/mol
# GULP energy per Si atom -12392.436585 kJ/mol
# Density = 1.960913 g / cm^3
# Si number density = 19.653863 Si / 1000 Ang^3
#
#
#
# Elastic Constant Matrix: (Units=GPa)
#
#
# Indices 1 2 3 4 5 6 
#
# 1 76.0396 38.7217 47.0338 0.0000 1.4822 0.0000
# 2 38.7217 118.0062 55.3959 0.0000 16.8306 0.0000
# 3 47.0338 55.3959 80.8773 0.0000 26.9699 0.0000
# 4 0.0000 0.0000 0.0000 30.2079 0.0000 1.9873
# 5 1.4822 16.8306 26.9699 0.0000 27.3091 0.0000
# 6 0.0000 0.0000 0.0000 1.9873 0.0000 21.8809
#
#
#
# Elastic Compliance Matrix: (Units=1/GPa)
#
#
# Indices 1 2 3 4 5 6 
#
# 1 0.026787 -0.001754 -0.021250 0.000000 0.020613 0.000000
# 2 -0.001754 0.012628 -0.007553 0.000000 -0.000228 0.000000
# 3 -0.021250 -0.007553 0.041688 0.000000 -0.035361 0.000000
# 4 0.000000 0.000000 0.000000 0.033303 0.000000 -0.003025
# 5 0.020613 -0.000228 -0.035361 0.000000 0.070562 0.000000
# 6 0.000000 0.000000 0.000000 -0.003025 0.000000 0.045977
#
#
# Mechanical properties :
#
#
# Convention : Reuss Voigt Hill
#
# Bulk Modulus (GPa) = 50.03140 61.91399 55.97270
# Shear Modulus (GPa) = 16.73805 24.79770 20.76787
#
# Velocity S-wave (km/s) = 2.92146 3.55593 3.25419
# Velocity P-wave (km/s) = 6.07383 6.95917 6.53152
#
# Compressibility (1/GPa) = 0.01998745
#
# Stress axis : x y z
#
# Youngs Moduli (GPa) = 37.33223 79.18932 23.98794
#
# Poissons Ratio (x) = 0.13890 0.50974
# Poissons Ratio (y) = 0.06548 0.18119
# Poissons Ratio (z) = 0.79331 0.59814
#
# Static dielectric constant tensor:
#      x y z
#    x 3.499880 0.000000 0.126470 
#    y 0.000000 3.895390 0.000000 
#    z 0.126470 0.000000 3.853780 
# 
# 
# High freq. dielectric constant tensor:
#      x y z
#    x 1.737660 0.000000 0.009820 
#    y 0.000000 1.776830 0.000000 
#    z 0.009820 0.000000 1.762920 
# 
# From -- ./inp_files/26876.got.cif
#   From: 2010.06.25/outbox.cif.g09.slc.cpg/sg11_14_cif.got.tgz:26876.got - 2010.06.27 23:14:04.
