data_PCOD8072735
_publ_section_title
;
Structure prediction by ZEFSAII (Michael W. Deem and Ramdas Pophale) SiO2 
 PCOD8072735
Probable space group: P 21/M
;
_chemical_formula_sum "Si O2"
_cell_formula_units_Z 24
_cell_length_a 8.428296
_cell_length_b 17.684643
_cell_length_c 7.454378
_cell_angle_alpha 90.000000
_cell_angle_beta 89.881187
_cell_angle_gamma 90.000000
_cell_volume 1111.083132
_symmetry_space_group_name_H-M "P 21/M"
_symmetry_group_IT_number 11
_symmetry_cell_setting 'monoclinic'
loop_
_space_group_symop_operation_xyz
x,y,z
-x,1/2+y,-z
-x,-y,-z
x,1/2-y,z
loop_
_atom_site_type_symbol
_atom_site_label
_atom_site_fract_x
_atom_site_fract_y
_atom_site_fract_z
Si Si1 0.661838 0.555559 0.873278
Si Si2 0.813300 0.833791 0.593027
Si Si3 0.381813 0.535862 0.646171
Si Si4 0.806850 0.901362 0.234333
Si Si5 0.109201 0.569368 0.058697
Si Si6 0.167129 0.837533 0.705158
O O1 0.719926 0.604844 0.705756
O O2 0.474341 0.543040 0.838244
O O3 0.736982 0.471252 0.858719
O O4 0.701776 0.603924 0.052433
O O5 0.770354 0.750000 0.662296
O O6 0.758873 0.840168 0.384460
O O7 0.001048 0.848354 0.605340
O O8 0.500000 0.500000 0.500000
O O9 0.227893 0.484162 0.682239
O O10 0.306536 0.617673 0.595515
O O11 0.995154 0.887710 0.200128
O O12 0.156269 0.627933 0.904616
O O13 0.000000 0.500000 0.000000
O O14 0.216886 0.750000 0.717888
#
# Coordination Sequence:
#
# PCOD8072735 Si02
#       6
#     4   4   4   4   4   4
#     4  11  22  41  67  95 131 174 222 271 329 398
#     4  11  24  41  64  97 133 173 224 284 336 384
#     4  12  24  40  67  98 135 179 219 268 332 408
#     4  11  22  40  67  97 126 172 225 271 322 398
#     4  10  19  39  70  95 121 169 226 271 329 386
#     4  11  24  44  66  97 134 172 222 285 342 391
#
# _framework density 21.600542999999998
#
# number of rings (size 3 to 8) (size 9 to 14) (size 15 to 20)
#    0.000    1.000    8.333    0.500    2.333    3.333 
#    0.000    0.000    0.000    0.000    0.000    0.000 
#    0.000    0.000    0.000    0.000    0.000    0.000 
#
# Total GULP energy -297380.613823 kJ/mol
# GULP energy per Si atom -12390.858909 kJ/mol
# Density = 2.155138 g / cm^3
# Si number density = 21.600543 Si / 1000 Ang^3
#
#
#
# Elastic Constant Matrix: (Units=GPa)
#
#
# Indices 1 2 3 4 5 6 
#
# 1 74.5918 32.8818 10.9251 0.0000 -4.4943 0.0000
# 2 32.8818 94.1092 24.3514 0.0000 -9.6950 0.0000
# 3 10.9251 24.3514 99.7929 0.0000 -10.1962 0.0000
# 4 0.0000 0.0000 0.0000 32.5656 0.0000 -4.5081
# 5 -4.4943 -9.6950 -10.1962 0.0000 35.7542 0.0000
# 6 0.0000 0.0000 0.0000 -4.5081 0.0000 28.4902
#
#
#
# Elastic Compliance Matrix: (Units=1/GPa)
#
#
# Indices 1 2 3 4 5 6 
#
# 1 0.015869 -0.005404 -0.000375 0.000000 0.000422 0.000000
# 2 -0.005404 0.013378 -0.002443 0.000000 0.002252 0.000000
# 3 -0.000375 -0.002443 0.010903 0.000000 0.002400 0.000000
# 4 0.000000 0.000000 0.000000 0.031395 0.000000 0.004968
# 5 0.000422 0.002252 0.002400 0.000000 0.029317 0.000000
# 6 0.000000 0.000000 0.000000 0.004968 0.000000 0.035886
#
#
# Mechanical properties :
#
#
# Convention : Reuss Voigt Hill
#
# Bulk Modulus (GPa) = 42.18399 44.97894 43.58147
# Shear Modulus (GPa) = 31.03773 32.71770 31.87772
#
# Velocity S-wave (km/s) = 3.79475 3.89610 3.84576
# Velocity P-wave (km/s) = 6.22670 6.41153 6.31979
#
# Compressibility (1/GPa) = 0.02370567
#
# Stress axis : x y z
#
# Youngs Moduli (GPa) = 63.01628 74.74864 91.71665
#
# Poissons Ratio (x) = 0.40394 0.03444
# Poissons Ratio (y) = 0.34054 0.22405
# Poissons Ratio (z) = 0.02366 0.18260
#
# Static dielectric constant tensor:
#      x y z
#    x 4.856610 0.000000 -0.265040 
#    y 0.000000 3.940010 0.000000 
#    z -0.265040 0.000000 4.067810 
# 
# 
# High freq. dielectric constant tensor:
#      x y z
#    x 1.850690 0.000000 -0.006450 
#    y 0.000000 1.826760 0.000000 
#    z -0.006450 0.000000 1.846190 
# 
# From -- ./inp_files/13194.got.cif
#   From: 2010.06.25/outbox.cif.g09.slc.cpg/sg11_7_cif.got.tgz:13194.got - 2010.06.27 23:14:04.
