data_PCOD8072085
_publ_section_title
;
Structure prediction by ZEFSAII (Michael W. Deem and Ramdas Pophale) SiO2 
 PCOD8072085
Probable space group: P 21/M
;
_chemical_formula_sum "Si O2"
_cell_formula_units_Z 32
_cell_length_a 14.772575
_cell_length_b 12.113313
_cell_length_c 14.738658
_cell_angle_alpha 90.000000
_cell_angle_beta 138.665490
_cell_angle_gamma 90.000000
_cell_volume 1741.885838
_symmetry_space_group_name_H-M "P 21/M"
_symmetry_group_IT_number 11
_symmetry_cell_setting 'monoclinic'
loop_
_space_group_symop_operation_xyz
x,y,z
-x,1/2+y,-z
-x,-y,-z
x,1/2-y,z
loop_
_atom_site_type_symbol
_atom_site_label
_atom_site_fract_x
_atom_site_fract_y
_atom_site_fract_z
Si Si1 0.085740 0.378121 0.242793
Si Si2 0.397390 0.622909 0.066139
Si Si3 0.663355 0.485803 0.317991
Si Si4 0.565199 0.117997 0.430615
Si Si5 0.305702 0.002640 0.306132
Si Si6 0.078051 0.381148 0.439600
Si Si7 0.772394 0.377113 0.231963
Si Si8 0.176209 0.876325 0.053099
O O1 0.056537 0.250000 0.228764
O O2 0.228042 0.399619 0.299469
O O3 0.095374 0.425671 0.350561
O O4 0.956130 0.431779 0.093892
O O5 0.437912 0.750000 0.077964
O O6 0.534350 0.555549 0.187928
O O7 0.306942 0.612481 0.087544
O O8 0.313537 0.571441 0.917297
O O9 0.641635 0.429455 0.399491
O O10 0.797654 0.562811 0.412982
O O11 0.689157 0.391513 0.262453
O O12 0.552696 0.250000 0.413683
O O13 0.417918 0.059767 0.326582
O O14 0.640494 0.086265 0.580614
O O15 0.198981 0.939304 0.163476
O O16 0.094650 0.250000 0.462930
O O17 0.927880 0.424019 0.358575
O O18 0.789419 0.250000 0.219977
O O19 0.146955 0.750000 0.056133
#
# Coordination Sequence:
#
# PCOD8072085 Si02
#       8
#     4   4   4   4   4   4   4   4
#     4  10  19  34  58  83 109 143 186 231 272 322
#     4  10  20  36  57  84 110 139 186 233 272 324
#     4  12  21  37  56  85 111 149 179 220 288 331
#     4  11  24  37  52  79 116 147 185 227 272 338
#     4  11  21  38  54  80 109 151 188 222 280 318
#     4  10  20  36  57  84 110 139 186 233 272 324
#     4  10  21  38  60  81 109 145 182 226 276 331
#     4  10  19  34  58  83 109 143 186 231 272 322
#
# _framework density 18.370892999999999
#
# number of rings (size 3 to 8) (size 9 to 14) (size 15 to 20)
#    0.000    1.500    3.750    2.625    0.000    0.000 
#    0.000    0.000    0.000    0.000    0.000    0.000 
#    0.000    0.000    0.000    0.000    0.000    0.000 
#
# Total GULP energy -396706.029946 kJ/mol
# GULP energy per Si atom -12397.063436 kJ/mol
# Density = 1.832908 g / cm^3
# Si number density = 18.370893 Si / 1000 Ang^3
#
#
#
# Elastic Constant Matrix: (Units=GPa)
#
#
# Indices 1 2 3 4 5 6 
#
# 1 82.7563 21.1945 7.4490 0.0000 -0.5385 0.0000
# 2 21.1945 54.9357 25.4603 0.0000 1.1772 0.0000
# 3 7.4490 25.4603 82.9321 0.0000 11.7196 0.0000
# 4 0.0000 0.0000 0.0000 24.3270 0.0000 -0.6691
# 5 -0.5385 1.1772 11.7196 0.0000 27.3549 0.0000
# 6 0.0000 0.0000 0.0000 -0.6691 0.0000 25.6155
#
#
#
# Elastic Compliance Matrix: (Units=1/GPa)
#
#
# Indices 1 2 3 4 5 6 
#
# 1 0.013425 -0.005371 0.000397 0.000000 0.000325 0.000000
# 2 -0.005371 0.023474 -0.006990 0.000000 0.001879 0.000000
# 3 0.000397 -0.006990 0.015035 0.000000 -0.006133 0.000000
# 4 0.000000 0.000000 0.000000 0.041136 0.000000 0.001075
# 5 0.000325 0.001879 -0.006133 0.000000 0.039109 0.000000
# 6 0.000000 0.000000 0.000000 0.001075 0.000000 0.039067
#
#
# Mechanical properties :
#
#
# Convention : Reuss Voigt Hill
#
# Bulk Modulus (GPa) = 35.70420 36.53686 36.12053
# Shear Modulus (GPa) = 24.44869 26.56084 25.50477
#
# Velocity S-wave (km/s) = 3.65202 3.80651 3.73007
# Velocity P-wave (km/s) = 6.10413 6.26506 6.18512
#
# Compressibility (1/GPa) = 0.02800791
#
# Stress axis : x y z
#
# Youngs Moduli (GPa) = 74.48513 42.59984 66.51187
#
# Poissons Ratio (x) = 0.22879 -0.02640
# Poissons Ratio (y) = 0.40003 0.46490
# Poissons Ratio (z) = -0.02956 0.29776
#
# Static dielectric constant tensor:
#      x y z
#    x 3.358780 0.000000 0.031660 
#    y 0.000000 3.099460 0.000000 
#    z 0.031660 0.000000 3.556540 
# 
# 
# High freq. dielectric constant tensor:
#      x y z
#    x 1.720400 0.000000 0.001760 
#    y 0.000000 1.687090 0.000000 
#    z 0.001760 0.000000 1.728450 
# 
# From -- ./inp_files/27806.got.cif
#   From: 2010.06.25/outbox.cif.g09.slc.cpg/sg11_14_cif.got.tgz:27806.got - 2010.06.27 23:14:04.
