data_PCOD8072722
_publ_section_title
;
Structure prediction by ZEFSAII (Michael W. Deem and Ramdas Pophale) SiO2 
 PCOD8072722
Probable space group: P 21/M
;
_chemical_formula_sum "Si O2"
_cell_formula_units_Z 28
_cell_length_a 9.375149
_cell_length_b 14.173782
_cell_length_c 11.766188
_cell_angle_alpha 90.000000
_cell_angle_beta 57.890328
_cell_angle_gamma 90.000000
_cell_volume 1324.340418
_symmetry_space_group_name_H-M "P 21/M"
_symmetry_group_IT_number 11
_symmetry_cell_setting 'monoclinic'
loop_
_space_group_symop_operation_xyz
x,y,z
-x,1/2+y,-z
-x,-y,-z
x,1/2-y,z
loop_
_atom_site_type_symbol
_atom_site_label
_atom_site_fract_x
_atom_site_fract_y
_atom_site_fract_z
Si Si1 0.726449 0.092240 0.693520
Si Si2 0.056218 0.545438 0.814886
Si Si3 0.443566 0.891619 0.018650
Si Si4 0.323160 0.519814 0.518551
Si Si5 0.111161 0.148947 0.508135
Si Si6 0.228107 0.108414 0.222348
Si Si7 0.899982 0.139301 0.965310
O O1 0.919555 0.123295 0.616902
O O2 0.656780 0.095003 0.593735
O O3 0.715184 0.987756 0.744418
O O4 0.608081 0.149342 0.833390
O O5 0.204843 0.563730 0.663629
O O6 0.887646 0.591362 0.837654
O O7 0.030154 0.432207 0.846520
O O8 0.106885 0.605159 0.902651
O O9 0.605254 0.837385 0.896336
O O10 0.286079 0.875096 0.003694
O O11 0.500000 0.000000 0.000000
O O12 0.500000 0.500000 0.500000
O O13 0.239602 0.425173 0.505653
O O14 0.148890 0.250000 0.549532
O O15 0.132360 0.163384 0.363098
O O16 0.955569 0.250000 0.931173
#
# Coordination Sequence:
#
# PCOD8072722 Si02
#       7
#     4   4   4   4   4   4   4
#     4  10  19  39  63  91 121 163 213 251 316 390
#     4  11  22  42  67  93 130 180 212 264 330 387
#     4  10  20  37  66  93 122 162 209 271 317 381
#     4  11  23  39  64  91 127 172 213 257 328 394
#     4  11  22  39  64  94 126 165 217 269 317 389
#     4  10  19  39  64  93 123 163 216 255 325 383
#     4  11  25  41  65  97 131 171 218 267 328 389
#
# _framework density 21.142602
#
# number of rings (size 3 to 8) (size 9 to 14) (size 15 to 20)
#    0.000    1.429    5.714    0.857    6.000    3.429 
#    0.000    0.714    0.000    1.714    0.000    0.000 
#    0.000    0.000    0.000    0.000    0.000    0.000 
#
# Total GULP energy -346866.394293 kJ/mol
# GULP energy per Si atom -12388.085510 kJ/mol
# Density = 2.109448 g / cm^3
# Si number density = 21.142602 Si / 1000 Ang^3
#
#
#
# Elastic Constant Matrix: (Units=GPa)
#
#
# Indices 1 2 3 4 5 6 
#
# 1 108.1194 10.8835 58.7581 0.0000 10.0560 0.0000
# 2 10.8835 71.1847 5.1358 0.0000 -0.5387 0.0000
# 3 58.7581 5.1358 181.8372 0.0000 -12.3092 0.0000
# 4 0.0000 0.0000 0.0000 -17.2906 0.0000 9.8653
# 5 10.0560 -0.5387 -12.3092 0.0000 39.2651 0.0000
# 6 0.0000 0.0000 0.0000 9.8653 0.0000 3.8911
#
#
#
# Elastic Compliance Matrix: (Units=1/GPa)
#
#
# Indices 1 2 3 4 5 6 
#
# 1 0.012078 -0.001580 -0.004157 0.000000 -0.004418 0.000000
# 2 -0.001580 0.014284 0.000151 0.000000 0.000648 0.000000
# 3 -0.004157 0.000151 0.007061 0.000000 0.003280 0.000000
# 4 0.000000 0.000000 0.000000 -0.023639 0.000000 0.059934
# 5 -0.004418 0.000648 0.003280 0.000000 0.027637 0.000000
# 6 0.000000 0.000000 0.000000 0.059934 0.000000 0.105044
#
#
# Mechanical properties :
#
#
# Convention : Reuss Voigt Hill
#
# Bulk Modulus (GPa) = 44.94482 56.74400 50.84441
# Shear Modulus (GPa) = 31.04556 24.26404 27.65480
#
# Velocity S-wave (km/s) = 3.83611 3.39136 3.62057
# Velocity P-wave (km/s) = 6.39727 6.49862 6.44814
#
# Compressibility (1/GPa) = 0.02224951
#
# Stress axis : x y z
#
# Youngs Moduli (GPa) = 82.79227 70.01056 141.63046
#
# Poissons Ratio (x) = 0.11063 0.58882
# Poissons Ratio (y) = 0.13083 -0.02139
# Poissons Ratio (z) = 0.34420 -0.01058
#
# Static dielectric constant tensor:
#      x y z
#    x 3.712890 0.000000 -0.042280 
#    y 0.000000 3.787640 0.000000 
#    z -0.042280 0.000000 5.911220 
# 
# 
# High freq. dielectric constant tensor:
#      x y z
#    x 1.815090 0.000000 0.003370 
#    y 0.000000 1.808230 0.000000 
#    z 0.003370 0.000000 1.858980 
# 
# From -- ./inp_files/31793.got.cif
#   From: 2010.06.25/outbox.cif.g09.slc.cpg/sg11_16_cif.got.tgz:31793.got - 2010.06.27 23:14:04.
