data_PCOD8072780
_publ_section_title
;
Structure prediction by ZEFSAII (Michael W. Deem and Ramdas Pophale) SiO2 
 PCOD8072780
Probable space group: P 21/M
;
_chemical_formula_sum "Si O2"
_cell_formula_units_Z 18
_cell_length_a 8.888782
_cell_length_b 9.789010
_cell_length_c 19.997028
_cell_angle_alpha 90.000000
_cell_angle_beta 28.958090
_cell_angle_gamma 90.000000
_cell_volume 842.449972
_symmetry_space_group_name_H-M "P 21/M"
_symmetry_group_IT_number 11
_symmetry_cell_setting 'monoclinic'
loop_
_space_group_symop_operation_xyz
x,y,z
-x,1/2+y,-z
-x,-y,-z
x,1/2-y,z
loop_
_atom_site_type_symbol
_atom_site_label
_atom_site_fract_x
_atom_site_fract_y
_atom_site_fract_z
Si Si1 0.090584 0.455883 0.343555
Si Si2 0.355449 0.750000 0.431704
Si Si3 0.806475 0.750000 0.026143
Si Si4 0.985579 0.750000 0.438208
Si Si5 0.470888 0.250000 0.280492
Si Si6 0.950318 0.750000 0.120398
Si Si7 0.444982 0.517351 0.943755
O O1 0.334450 0.388226 0.300484
O O2 0.233681 0.428409 0.214209
O O3 0.753882 0.383249 0.483278
O O4 0.057644 0.617288 0.366561
O O5 0.722050 0.750000 0.273904
O O6 0.187216 0.750000 0.426425
O O7 0.760755 0.750000 0.124246
O O8 0.636824 0.621486 0.061208
O O9 0.163734 0.750000 0.867130
O O10 0.626228 0.750000 0.603274
O O11 0.160701 0.617397 0.041577
O O12 0.500000 0.500000 0.000000
#
# Coordination Sequence:
#
# PCOD8072780 Si02
#       7
#     4   2   2   2   2   2   4
#     4  10  20  40  60  92 130 168 205 262 332 380
#     4  10  21  35  63  91 127 166 207 272 319 372
#     4  12  25  39  71 100 128 160 233 273 312 372
#     4  10  20  31  64  94 135 153 214 257 352 355
#     4  10  20  36  60  97 129 162 205 280 315 370
#     4  12  24  43  70 102 125 165 231 272 310 381
#     4  12  26  44  67  93 137 178 210 262 334 389
#
# _framework density 21.366256
#
# number of rings (size 3 to 8) (size 9 to 14) (size 15 to 20)
#    0.000    1.333    2.222    6.667    6.222    0.000 
#    0.000    1.111    4.889    0.000    0.000    0.000 
#    0.000    0.000    0.000    0.000    0.000    0.000 
#
# Total GULP energy -223150.585628 kJ/mol
# GULP energy per Si atom -12397.254757 kJ/mol
# Density = 2.131763 g / cm^3
# Si number density = 21.366256 Si / 1000 Ang^3
#
#
#
# Elastic Constant Matrix: (Units=GPa)
#
#
# Indices 1 2 3 4 5 6 
#
# 1 93.5139 40.4719 34.8944 0.0000 27.1165 0.0000
# 2 40.4719 168.4878 56.2521 0.0000 8.3265 0.0000
# 3 34.8944 56.2521 202.1179 0.0000 37.8541 0.0000
# 4 0.0000 0.0000 0.0000 31.2298 0.0000 -2.7530
# 5 27.1165 8.3265 37.8541 0.0000 26.8918 0.0000
# 6 0.0000 0.0000 0.0000 -2.7530 0.0000 13.0157
#
#
#
# Elastic Compliance Matrix: (Units=1/GPa)
#
#
# Indices 1 2 3 4 5 6 
#
# 1 0.016967 -0.003676 0.001473 0.000000 -0.018045 0.000000
# 2 -0.003676 0.007350 -0.002280 0.000000 0.004640 0.000000
# 3 0.001473 -0.002280 0.007434 0.000000 -0.011243 0.000000
# 4 0.000000 0.000000 0.000000 0.032629 0.000000 0.006901
# 5 -0.018045 0.004640 -0.011243 0.000000 0.069771 0.000000
# 6 0.000000 0.000000 0.000000 0.006901 0.000000 0.078290
#
#
# Mechanical properties :
#
#
# Convention : Reuss Voigt Hill
#
# Bulk Modulus (GPa) = 43.88735 80.81737 62.35236
# Shear Modulus (GPa) = 21.83393 36.39422 29.11407
#
# Velocity S-wave (km/s) = 3.20017 4.13164 3.69537
# Velocity P-wave (km/s) = 5.85148 7.78894 6.88866
#
# Compressibility (1/GPa) = 0.02278561
#
# Stress axis : x y z
#
# Youngs Moduli (GPa) = 58.93752 136.05437 134.52488
#
# Poissons Ratio (x) = 0.50010 -0.19819
# Poissons Ratio (y) = 0.21664 0.30672
# Poissons Ratio (z) = -0.08683 0.31021
#
# Static dielectric constant tensor:
#      x y z
#    x 3.447010 0.000000 0.327670 
#    y 0.000000 3.969770 0.000000 
#    z 0.327670 0.000000 4.647530 
# 
# 
# High freq. dielectric constant tensor:
#      x y z
#    x 1.781590 0.000000 0.023720 
#    y 0.000000 1.854600 0.000000 
#    z 0.023720 0.000000 1.872410 
# 
# From -- ./inp_files/16146.got.cif
#   From: 2010.06.25/outbox.cif.g09.slc.cpg/sg11_9_cif.got.tgz:16146.got - 2010.06.27 23:14:04.
