data_PCOD8072050
_publ_section_title
;
Structure prediction by ZEFSAII (Michael W. Deem and Ramdas Pophale) SiO2 
 PCOD8072050
Probable space group: P 21/M
;
_chemical_formula_sum "Si O2"
_cell_formula_units_Z 28
_cell_length_a 15.386469
_cell_length_b 8.947804
_cell_length_c 17.347905
_cell_angle_alpha 90.000000
_cell_angle_beta 143.800678
_cell_angle_gamma 90.000000
_cell_volume 1410.564833
_symmetry_space_group_name_H-M "P 21/M"
_symmetry_group_IT_number 11
_symmetry_cell_setting 'monoclinic'
loop_
_space_group_symop_operation_xyz
x,y,z
-x,1/2+y,-z
-x,-y,-z
x,1/2-y,z
loop_
_atom_site_type_symbol
_atom_site_label
_atom_site_fract_x
_atom_site_fract_y
_atom_site_fract_z
Si Si1 0.155823 0.575468 0.091947
Si Si2 0.355171 0.077217 0.927335
Si Si3 0.812641 0.925367 0.042977
Si Si4 0.817595 0.087854 0.317372
Si Si5 0.849309 0.912685 0.480328
Si Si6 0.342092 0.574228 0.376599
Si Si7 0.893018 0.928486 0.683227
O O1 0.125457 0.750000 0.056798
O O2 0.276834 0.549191 0.244585
O O3 0.225685 0.503259 0.065259
O O4 0.000000 0.500000 0.000000
O O5 0.370985 0.250000 0.922191
O O6 0.321796 0.045646 0.993682
O O7 0.219075 0.016813 0.780715
O O8 0.500000 0.000000 0.000000
O O9 0.839604 0.750000 0.048967
O O10 0.959719 0.995169 0.182369
O O11 0.739934 0.250000 0.252713
O O12 0.991023 0.109510 0.442298
O O13 0.760390 0.019321 0.357885
O O14 0.771146 0.750000 0.428048
O O15 0.858504 0.982661 0.571818
O O16 0.500000 0.500000 0.500000
O O17 0.348521 0.750000 0.401209
O O18 0.240712 0.484887 0.362262
O O19 0.911323 0.750000 0.700764
#
# Coordination Sequence:
#
# PCOD8072050 Si02
#       7
#     4   4   4   4   4   4   4
#     4  11  23  40  67  99 130 167 213 262 316 381
#     4  11  24  41  61  85 120 163 208 260 316 373
#     4  11  23  39  63  94 124 160 211 263 314 375
#     4  10  19  34  57  84 115 152 195 243 299 356
#     4   9  19  34  55  86 117 151 194 242 295 353
#     4  11  25  44  65  93 128 167 209 258 319 381
#     4  11  21  37  64  92 122 161 204 254 311 372
#
# _framework density 19.850204000000002
#
# number of rings (size 3 to 8) (size 9 to 14) (size 15 to 20)
#    0.000    1.429    2.857    2.571    0.000    5.143 
#    2.571    0.000    0.000    0.000    0.000    0.000 
#    0.000    0.000    0.000    0.000    0.000    0.000 
#
# Total GULP energy -347145.999088 kJ/mol
# GULP energy per Si atom -12398.071396 kJ/mol
# Density = 1.980502 g / cm^3
# Si number density = 19.850204 Si / 1000 Ang^3
#
#
#
# Elastic Constant Matrix: (Units=GPa)
#
#
# Indices 1 2 3 4 5 6 
#
# 1 124.7945 69.3019 47.2046 0.0000 -23.0412 0.0000
# 2 69.3019 125.9763 54.7698 0.0000 -11.6258 0.0000
# 3 47.2046 54.7698 73.6744 0.0000 -15.7435 0.0000
# 4 0.0000 0.0000 0.0000 32.8961 0.0000 -3.0262
# 5 -23.0412 -11.6258 -15.7435 0.0000 41.9478 0.0000
# 6 0.0000 0.0000 0.0000 -3.0262 0.0000 32.6727
#
#
#
# Elastic Compliance Matrix: (Units=1/GPa)
#
#
# Indices 1 2 3 4 5 6 
#
# 1 0.013080 -0.005252 -0.003535 0.000000 0.004402 0.000000
# 2 -0.005252 0.013838 -0.007305 0.000000 -0.001791 0.000000
# 3 -0.003535 -0.007305 0.022202 0.000000 0.004366 0.000000
# 4 0.000000 0.000000 0.000000 0.030660 0.000000 0.002840
# 5 0.004402 -0.001791 0.004366 0.000000 0.027399 0.000000
# 6 0.000000 0.000000 0.000000 0.002840 0.000000 0.030870
#
#
# Mechanical properties :
#
#
# Convention : Reuss Voigt Hill
#
# Bulk Modulus (GPa) = 59.04943 74.11089 66.58016
# Shear Modulus (GPa) = 28.42879 31.71458 30.07169
#
# Velocity S-wave (km/s) = 3.78850 4.00145 3.89643
# Velocity P-wave (km/s) = 6.99636 7.66583 7.33874
#
# Compressibility (1/GPa) = 0.01693497
#
# Stress axis : x y z
#
# Youngs Moduli (GPa) = 76.45300 72.26558 45.04145
#
# Poissons Ratio (x) = 0.37955 0.15924
# Poissons Ratio (y) = 0.40155 0.32901
# Poissons Ratio (z) = 0.27029 0.52788
#
# Static dielectric constant tensor:
#      x y z
#    x 2.563920 0.000000 -0.536840 
#    y 0.000000 4.061050 0.000000 
#    z -0.536840 0.000000 3.512280 
# 
# 
# High freq. dielectric constant tensor:
#      x y z
#    x 1.775870 0.000000 -0.020510 
#    y 0.000000 1.792760 0.000000 
#    z -0.020510 0.000000 1.761740 
# 
# From -- ./inp_files/60143.got.cif
#   From: 2010.06.25/outbox.cif.g09.slc.cpg/sg11_31_cif.got.tgz:60143.got - 2010.06.27 23:14:04.
