data_PCOD8072817
_publ_section_title
;
Structure prediction by ZEFSAII (Michael W. Deem and Ramdas Pophale) SiO2 
 PCOD8072817
Probable space group: P 21/M
;
_chemical_formula_sum "Si O2"
_cell_formula_units_Z 28
_cell_length_a 23.230971
_cell_length_b 9.364169
_cell_length_c 20.259877
_cell_angle_alpha 90.000000
_cell_angle_beta 19.822863
_cell_angle_gamma 90.000000
_cell_volume 1494.576953
_symmetry_space_group_name_H-M "P 21/M"
_symmetry_group_IT_number 11
_symmetry_cell_setting 'monoclinic'
loop_
_space_group_symop_operation_xyz
x,y,z
-x,1/2+y,-z
-x,-y,-z
x,1/2-y,z
loop_
_atom_site_type_symbol
_atom_site_label
_atom_site_fract_x
_atom_site_fract_y
_atom_site_fract_z
Si Si1 0.262926 0.080479 0.580373
Si Si2 0.535076 0.420581 0.394740
Si Si3 0.976867 0.909786 0.459874
Si Si4 0.893754 0.419523 0.949539
Si Si5 0.456573 0.415374 0.247409
Si Si6 0.586403 0.909791 0.850338
Si Si7 0.160562 0.915367 0.135459
O O1 0.278825 0.250000 0.560857
O O2 0.387091 0.025863 0.504371
O O3 0.324932 0.018479 0.442510
O O4 0.065268 0.033537 0.804167
O O5 0.500000 0.500000 0.500000
O O6 0.530159 0.250000 0.409511
O O7 0.721415 0.474126 0.170041
O O8 0.047603 0.750000 0.397102
O O9 0.783788 0.903766 0.648645
O O10 0.077666 0.985380 0.290306
O O11 0.000000 0.000000 0.500000
O O12 0.881491 0.250000 0.958187
O O13 0.907612 0.481527 0.859826
O O14 0.412414 0.250000 0.284644
O O15 0.445624 0.485371 0.186406
O O16 0.639579 0.439176 0.081254
O O17 0.507709 0.750000 0.936990
O O18 0.500000 0.000000 0.000000
O O19 0.109468 0.750000 0.193478
#
# Coordination Sequence:
#
# PCOD8072817 Si02
#       7
#     4   4   4   4   4   4   4
#     4   9  16  28  48  74 101 128 164 207 247 289
#     4  10  20  34  52  76 104 132 162 202 250 298
#     4  10  20  32  47  70  99 131 167 207 254 303
#     4   9  16  28  48  74 101 128 164 207 247 289
#     4   9  15  26  46  71  97 125 161 207 251 288
#     4  10  20  32  47  70  99 131 167 207 254 303
#     4   9  15  26  46  71  97 125 161 207 251 288
#
# _framework density 18.734399
#
# number of rings (size 3 to 8) (size 9 to 14) (size 15 to 20)
#    0.000    2.571    1.429    1.714    0.000    5.714 
#    0.000    0.000    0.000    1.714    0.000    0.000 
#    0.000    0.000    0.000    0.000    0.000    0.000 
#
# Total GULP energy -346975.297539 kJ/mol
# GULP energy per Si atom -12391.974912 kJ/mol
# Density = 1.869176 g / cm^3
# Si number density = 18.734399 Si / 1000 Ang^3
#
#
#
# Elastic Constant Matrix: (Units=GPa)
#
#
# Indices 1 2 3 4 5 6 
#
# 1 154.2855 24.4584 74.8683 0.0000 13.2400 0.0000
# 2 24.4584 22.4915 18.8693 0.0000 6.1224 0.0000
# 3 74.8683 18.8693 129.2892 0.0000 14.0879 0.0000
# 4 0.0000 0.0000 0.0000 16.1065 0.0000 6.2524
# 5 13.2400 6.1224 14.0879 0.0000 32.7099 0.0000
# 6 0.0000 0.0000 0.0000 6.2524 0.0000 21.8233
#
#
#
# Elastic Compliance Matrix: (Units=1/GPa)
#
#
# Indices 1 2 3 4 5 6 
#
# 1 0.009854 -0.006602 -0.004662 0.000000 -0.000745 0.000000
# 2 -0.006602 0.056487 -0.003735 0.000000 -0.006292 0.000000
# 3 -0.004662 -0.003735 0.011224 0.000000 -0.002248 0.000000
# 4 0.000000 0.000000 0.000000 0.069856 0.000000 -0.020014
# 5 -0.000745 -0.006292 -0.002248 0.000000 0.033019 0.000000
# 6 0.000000 0.000000 0.000000 -0.020014 0.000000 0.051557
#
#
# Mechanical properties :
#
#
# Convention : Reuss Voigt Hill
#
# Bulk Modulus (GPa) = 21.02282 60.27315 40.64799
# Shear Modulus (GPa) = 17.99523 26.65259 22.32391
#
# Velocity S-wave (km/s) = 3.10263 3.77590 3.45570
# Velocity P-wave (km/s) = 4.90723 7.15906 6.13731
#
# Compressibility (1/GPa) = 0.04756735
#
# Stress axis : x y z
#
# Youngs Moduli (GPa) = 101.48044 17.70309 89.09404
#
# Poissons Ratio (x) = 0.11688 0.41531
# Poissons Ratio (y) = 0.67000 0.33280
# Poissons Ratio (z) = 0.47305 0.06613
#
# Static dielectric constant tensor:
#      x y z
#    x 3.635360 0.000000 -0.065240 
#    y 0.000000 2.767620 0.000000 
#    z -0.065240 0.000000 3.694930 
# 
# 
# High freq. dielectric constant tensor:
#      x y z
#    x 1.743310 0.000000 -0.001820 
#    y 0.000000 1.642860 0.000000 
#    z -0.001820 0.000000 1.744960 
# 
# From -- ./inp_files/27457.got.cif
#   From: 2010.06.25/outbox.cif.g09.slc.cpg/sg11_14_cif.got.tgz:27457.got - 2010.06.27 23:14:04.
