data_PCOD8072689
_publ_section_title
;
Structure prediction by ZEFSAII (Michael W. Deem and Ramdas Pophale) SiO2 
 PCOD8072689
Probable space group: P 21/M
;
_chemical_formula_sum "Si O2"
_cell_formula_units_Z 28
_cell_length_a 12.480200
_cell_length_b 8.921591
_cell_length_c 14.580884
_cell_angle_alpha 90.000000
_cell_angle_beta 119.968000
_cell_angle_gamma 90.000000
_cell_volume 1406.430548
_symmetry_space_group_name_H-M "P 21/M"
_symmetry_group_IT_number 11
_symmetry_cell_setting 'monoclinic'
loop_
_space_group_symop_operation_xyz
x,y,z
-x,1/2+y,-z
-x,-y,-z
x,1/2-y,z
loop_
_atom_site_type_symbol
_atom_site_label
_atom_site_fract_x
_atom_site_fract_y
_atom_site_fract_z
Si Si1 0.309387 0.071900 0.483419
Si Si2 0.970417 0.923334 0.892306
Si Si3 0.843724 0.077637 0.187493
Si Si4 0.037246 0.074650 0.422783
Si Si5 0.483851 0.424752 0.719220
Si Si6 0.723576 0.425455 0.717212
Si Si7 0.588360 0.572561 0.111809
O O1 0.321837 0.250000 0.474957
O O2 0.171992 0.020550 0.450899
O O3 0.399106 0.008426 0.601406
O O4 0.341315 0.990710 0.401638
O O5 0.939697 0.750000 0.894820
O O6 0.092811 0.943475 0.883831
O O7 0.852582 0.994969 0.792611
O O8 0.000000 0.000000 0.000000
O O9 0.802793 0.250000 0.184331
O O10 0.941177 0.024494 0.304723
O O11 0.727514 0.969457 0.145718
O O12 0.036598 0.250000 0.437490
O O13 0.000000 0.000000 0.500000
O O14 0.454765 0.250000 0.710027
O O15 0.628174 0.456038 0.759980
O O16 0.447435 0.492737 0.802740
O O17 0.747686 0.250000 0.714885
O O18 0.571480 0.750000 0.101313
O O19 0.500000 0.500000 0.000000
#
# Coordination Sequence:
#
# PCOD8072689 Si02
#       7
#     4   4   4   4   4   4   4
#     4  10  19  38  61  86 121 163 202 245 304 360
#     4  11  24  43  65  91 123 161 204 254 308 364
#     4  10  22  42  63  87 123 160 198 251 307 357
#     4  10  20  35  58  87 120 159 200 245 301 358
#     4   9  21  39  61  87 123 164 202 248 305 359
#     4  11  22  38  61  93 125 161 203 248 304 365
#     4  11  24  43  65  90 120 160 206 253 305 366
#
# _framework density 19.908555
#
# number of rings (size 3 to 8) (size 9 to 14) (size 15 to 20)
#    0.000    1.714    1.429    2.571    2.000    3.429 
#    0.000    4.286    0.000    0.000    0.000    0.000 
#    0.000    0.000    0.000    0.000    0.000    0.000 
#
# Total GULP energy -347274.314645 kJ/mol
# GULP energy per Si atom -12402.654094 kJ/mol
# Density = 1.986324 g / cm^3
# Si number density = 19.908555 Si / 1000 Ang^3
#
#
#
# Elastic Constant Matrix: (Units=GPa)
#
#
# Indices 1 2 3 4 5 6 
#
# 1 108.4361 44.0301 47.4103 0.0000 -6.1060 0.0000
# 2 44.0301 71.8834 43.0791 0.0000 -4.6824 0.0000
# 3 47.4103 43.0791 125.1535 0.0000 -17.7735 0.0000
# 4 0.0000 0.0000 0.0000 34.6873 0.0000 -3.7247
# 5 -6.1060 -4.6824 -17.7735 0.0000 36.0282 0.0000
# 6 0.0000 0.0000 0.0000 -3.7247 0.0000 30.8466
#
#
#
# Elastic Compliance Matrix: (Units=1/GPa)
#
#
# Indices 1 2 3 4 5 6 
#
# 1 0.012984 -0.006307 -0.002744 0.000000 0.000027 0.000000
# 2 -0.006307 0.020609 -0.004813 0.000000 -0.000765 0.000000
# 3 -0.002744 -0.004813 0.011325 0.000000 0.004496 0.000000
# 4 0.000000 0.000000 0.000000 0.029208 0.000000 0.003527
# 5 0.000027 -0.000765 0.004496 0.000000 0.029879 0.000000
# 6 0.000000 0.000000 0.000000 0.003527 0.000000 0.032844
#
#
# Mechanical properties :
#
#
# Convention : Reuss Voigt Hill
#
# Bulk Modulus (GPa) = 58.17305 63.83466 61.00386
# Shear Modulus (GPa) = 29.35855 31.70932 30.53393
#
# Velocity S-wave (km/s) = 3.84431 3.99525 3.92051
# Velocity P-wave (km/s) = 6.99918 7.30864 7.15559
#
# Compressibility (1/GPa) = 0.01719009
#
# Stress axis : x y z
#
# Youngs Moduli (GPa) = 77.01722 48.52170 88.30056
#
# Poissons Ratio (x) = 0.30602 0.24228
# Poissons Ratio (y) = 0.48574 0.42503
# Poissons Ratio (z) = 0.21132 0.23356
#
# Static dielectric constant tensor:
#      x y z
#    x 3.784220 0.000000 -0.019420 
#    y 0.000000 3.422160 0.000000 
#    z -0.019420 0.000000 3.798540 
# 
# 
# High freq. dielectric constant tensor:
#      x y z
#    x 1.790550 0.000000 -0.002050 
#    y 0.000000 1.761300 0.000000 
#    z -0.002050 0.000000 1.789750 
# 
# From -- ./inp_files/49460.got.cif
#   From: 2010.06.25/outbox.cif.g09.slc.cpg/sg11_25_cif.got.tgz:49460.got - 2010.06.27 23:14:04.
