data_PCOD8072975
_publ_section_title
;
Structure prediction by ZEFSAII (Michael W. Deem and Ramdas Pophale) SiO2 
 PCOD8072975
Probable space group: P 21/M
;
_chemical_formula_sum "Si O2"
_cell_formula_units_Z 32
_cell_length_a 28.469352
_cell_length_b 9.013302
_cell_length_c 14.364621
_cell_angle_alpha 90.000000
_cell_angle_beta 27.807260
_cell_angle_gamma 90.000000
_cell_volume 1719.515662
_symmetry_space_group_name_H-M "P 21/M"
_symmetry_group_IT_number 11
_symmetry_cell_setting 'monoclinic'
loop_
_space_group_symop_operation_xyz
x,y,z
-x,1/2+y,-z
-x,-y,-z
x,1/2-y,z
loop_
_atom_site_type_symbol
_atom_site_label
_atom_site_fract_x
_atom_site_fract_y
_atom_site_fract_z
Si Si1 0.741150 0.924020 0.622801
Si Si2 0.234856 0.577417 0.087963
Si Si3 0.870335 0.423152 0.539724
Si Si4 0.608668 0.926408 0.310412
Si Si5 0.529492 0.580091 0.040119
Si Si6 0.318786 0.577282 0.462365
Si Si7 0.074478 0.918356 0.215077
Si Si8 0.260127 0.921219 0.766953
O O1 0.760445 0.750000 0.581194
O O2 0.837753 0.996819 0.501640
O O3 0.725506 0.984973 0.545960
O O4 0.645247 0.964840 0.859221
O O5 0.263737 0.750000 0.025316
O O6 0.207328 0.535748 0.241712
O O7 0.137385 0.540662 0.196631
O O8 0.329714 0.479885 0.888814
O O9 0.871251 0.250000 0.519287
O O10 0.981923 0.470908 0.371634
O O11 0.598332 0.750000 0.326088
O O12 0.500000 0.000000 0.500000
O O13 0.665846 0.975955 0.303472
O O14 0.530804 0.750000 0.010976
O O15 0.439351 0.545938 0.271052
O O16 0.500000 0.500000 0.000000
O O17 0.301469 0.750000 0.469855
O O18 0.262836 0.528949 0.654581
O O19 0.034130 0.750000 0.290816
O O20 0.145462 0.940877 0.000785
O O21 0.295105 0.750000 0.717545
#
# Coordination Sequence:
#
# PCOD8072975 Si02
#       8
#     4   4   4   4   4   4   4   4
#     4  10  20  33  49  75 110 141 175 218 262 312
#     4   9  20  38  57  79 107 138 175 219 266 318
#     4  11  22  35  54  79 106 137 175 221 271 320
#     4  11  22  36  56  82 114 147 179 217 260 310
#     4   8  15  28  47  70  96 128 164 202 246 298
#     4   9  17  33  56  78 103 138 177 215 260 313
#     4   9  18  35  56  77 104 135 170 218 273 324
#     4   9  19  36  57  80 107 140 179 222 267 317
#
# _framework density 18.609891999999999
#
# number of rings (size 3 to 8) (size 9 to 14) (size 15 to 20)
#    0.000    2.500    0.000    3.000    0.000    5.000 
#    0.000    1.875    0.000    0.000    0.000    0.000 
#    0.000    0.000    0.000    0.000    0.000    0.000 
#
# Total GULP energy -396591.653300 kJ/mol
# GULP energy per Si atom -12393.489166 kJ/mol
# Density = 1.856754 g / cm^3
# Si number density = 18.609892 Si / 1000 Ang^3
#
#
#
# Elastic Constant Matrix: (Units=GPa)
#
#
# Indices 1 2 3 4 5 6 
#
# 1 77.3086 45.5269 43.1274 0.0000 5.2256 0.0000
# 2 45.5269 94.5135 54.5477 0.0000 -2.0271 0.0000
# 3 43.1274 54.5477 82.9008 0.0000 -1.0269 0.0000
# 4 0.0000 0.0000 0.0000 29.9903 0.0000 -3.0850
# 5 5.2256 -2.0271 -1.0269 0.0000 26.8148 0.0000
# 6 0.0000 0.0000 0.0000 -3.0850 0.0000 27.2026
#
#
#
# Elastic Compliance Matrix: (Units=1/GPa)
#
#
# Indices 1 2 3 4 5 6 
#
# 1 0.020644 -0.006149 -0.006753 0.000000 -0.004747 0.000000
# 2 -0.006149 0.018910 -0.009215 0.000000 0.002275 0.000000
# 3 -0.006753 -0.009215 0.021657 0.000000 0.001449 0.000000
# 4 0.000000 0.000000 0.000000 0.033738 0.000000 0.003826
# 5 -0.004747 0.002275 0.001449 0.000000 0.038445 0.000000
# 6 0.000000 0.000000 0.000000 0.003826 0.000000 0.037195
#
#
# Mechanical properties :
#
#
# Convention : Reuss Voigt Hill
#
# Bulk Modulus (GPa) = 58.90232 60.12521 59.51377
# Shear Modulus (GPa) = 22.67762 24.23626 23.45694
#
# Velocity S-wave (km/s) = 3.49460 3.61270 3.55414
# Velocity P-wave (km/s) = 6.92840 7.05553 6.99225
#
# Compressibility (1/GPa) = 0.01697726
#
# Stress axis : x y z
#
# Youngs Moduli (GPa) = 48.44013 52.88282 46.17419
#
# Poissons Ratio (x) = 0.32516 0.31180
# Poissons Ratio (y) = 0.29785 0.42552
# Poissons Ratio (z) = 0.32710 0.48734
#
# Static dielectric constant tensor:
#      x y z
#    x 3.259080 0.000000 0.380070 
#    y 0.000000 3.352780 0.000000 
#    z 0.380070 0.000000 6.826390 
# 
# 
# High freq. dielectric constant tensor:
#      x y z
#    x 1.705750 0.000000 0.001550 
#    y 0.000000 1.722980 0.000000 
#    z 0.001550 0.000000 1.725910 
# 
# From -- ./inp_files/56144.got.cif
#   From: 2010.06.25/outbox.cif.g09.slc.cpg/sg11_29_cif.got.tgz:56144.got - 2010.06.27 23:14:04.
