data_PCOD8072177
_publ_section_title
;
Structure prediction by ZEFSAII (Michael W. Deem and Ramdas Pophale) SiO2 
 PCOD8072177
Probable space group: P 21/M
;
_chemical_formula_sum "Si O2"
_cell_formula_units_Z 28
_cell_length_a 9.641913
_cell_length_b 16.829000
_cell_length_c 14.577180
_cell_angle_alpha 90.000000
_cell_angle_beta 41.818436
_cell_angle_gamma 90.000000
_cell_volume 1577.148507
_symmetry_space_group_name_H-M "P 21/M"
_symmetry_group_IT_number 11
_symmetry_cell_setting 'monoclinic'
loop_
_space_group_symop_operation_xyz
x,y,z
-x,1/2+y,-z
-x,-y,-z
x,1/2-y,z
loop_
_atom_site_type_symbol
_atom_site_label
_atom_site_fract_x
_atom_site_fract_y
_atom_site_fract_z
Si Si1 0.175864 0.656818 0.664275
Si Si2 0.263303 0.413562 0.124918
Si Si3 0.704369 0.158763 0.894682
Si Si4 0.278197 0.541625 0.773213
Si Si5 0.146529 0.541548 0.040643
Si Si6 0.147320 0.956398 0.318965
Si Si7 0.726342 0.466477 0.536185
O O1 0.235222 0.750000 0.631118
O O2 0.255540 0.619689 0.721156
O O3 0.276530 0.610676 0.528175
O O4 0.928410 0.646833 0.781002
O O5 0.265635 0.469468 0.033339
O O6 0.267153 0.468982 0.213761
O O7 0.462604 0.358502 0.028275
O O8 0.751020 0.250000 0.872638
O O9 0.840472 0.121571 0.908357
O O10 0.783881 0.125892 0.759007
O O11 0.500125 0.504153 0.641777
O O12 0.097868 0.477552 0.843293
O O13 0.257509 0.562326 0.890306
O O14 0.207194 0.943438 0.394336
O O15 0.901464 0.969791 0.419001
#
# Coordination Sequence:
#
# PCOD8072177 Si02
#       7
#     4   4   4   4   4   4   4
#     4  10  21  33  48  74 104 132 166 204 241 290
#     4   9  17  34  55  73  97 131 168 201 244 295
#     4  11  20  31  51  79 107 127 153 205 263 297
#     4  10  19  35  55  72  96 133 172 203 239 288
#     4   9  19  34  54  76  97 127 169 208 238 291
#     4   9  19  34  54  76  97 127 169 208 238 291
#     4  10  19  35  55  72  96 133 172 203 239 288
#
# _framework density 17.753561000000001
#
# number of rings (size 3 to 8) (size 9 to 14) (size 15 to 20)
#    0.000    2.286    0.000    5.143    0.000    1.143 
#    0.000    2.857    0.000    1.714    0.000    0.000 
#    0.000    0.000    0.000    0.000    0.000    0.000 
#
# Total GULP energy -347121.115191 kJ/mol
# GULP energy per Si atom -12397.182685 kJ/mol
# Density = 1.771315 g / cm^3
# Si number density = 17.753561 Si / 1000 Ang^3
#
#
#
# Elastic Constant Matrix: (Units=GPa)
#
#
# Indices 1 2 3 4 5 6 
#
# 1 42.5484 14.6433 24.2917 0.0000 9.5103 0.0000
# 2 14.6433 104.3865 35.6729 0.0000 -0.1993 0.0000
# 3 24.2917 35.6729 88.4541 0.0000 1.8622 0.0000
# 4 0.0000 0.0000 0.0000 15.1153 0.0000 -3.3045
# 5 9.5103 -0.1993 1.8622 0.0000 34.5365 0.0000
# 6 0.0000 0.0000 0.0000 -3.3045 0.0000 14.0165
#
#
#
# Elastic Compliance Matrix: (Units=1/GPa)
#
#
# Indices 1 2 3 4 5 6 
#
# 1 0.030083 -0.001703 -0.007408 0.000000 -0.007894 0.000000
# 2 -0.001703 0.011211 -0.004069 0.000000 0.000753 0.000000
# 3 -0.007408 -0.004069 0.014955 0.000000 0.001210 0.000000
# 4 0.000000 0.000000 0.000000 0.069753 0.000000 0.016445
# 5 -0.007894 0.000753 0.001210 0.000000 0.031068 0.000000
# 6 0.000000 0.000000 0.000000 0.016445 0.000000 0.075222
#
#
# Mechanical properties :
#
#
# Convention : Reuss Voigt Hill
#
# Bulk Modulus (GPa) = 33.45923 42.73389 38.09656
# Shear Modulus (GPa) = 18.61390 23.45239 21.03314
#
# Velocity S-wave (km/s) = 3.24151 3.63849 3.44572
# Velocity P-wave (km/s) = 5.73561 6.46331 6.11030
#
# Compressibility (1/GPa) = 0.02988712
#
# Stress axis : x y z
#
# Youngs Moduli (GPa) = 33.24139 89.19964 66.86514
#
# Poissons Ratio (x) = 0.15194 0.49536
# Poissons Ratio (y) = 0.05662 0.27209
# Poissons Ratio (z) = 0.24627 0.36298
#
# Static dielectric constant tensor:
#      x y z
#    x 3.464060 0.000000 0.090700 
#    y 0.000000 2.983810 0.000000 
#    z 0.090700 0.000000 3.490010 
# 
# 
# High freq. dielectric constant tensor:
#      x y z
#    x 1.697860 0.000000 0.002890 
#    y 0.000000 1.656800 0.000000 
#    z 0.002890 0.000000 1.700950 
# 
# From -- ./inp_files/48001.got.cif
#   From: 2010.06.25/outbox.cif.g09.slc.cpg/sg11_25_cif.got.tgz:48001.got - 2010.06.27 23:14:04.
