data_PCOD8072250
_publ_section_title
;
Structure prediction by ZEFSAII (Michael W. Deem and Ramdas Pophale) SiO2 
 PCOD8072250
Probable space group: P 21/M
;
_chemical_formula_sum "Si O2"
_cell_formula_units_Z 28
_cell_length_a 21.038616
_cell_length_b 9.451076
_cell_length_c 14.644255
_cell_angle_alpha 90.000000
_cell_angle_beta 29.202599
_cell_angle_gamma 90.000000
_cell_volume 1420.678671
_symmetry_space_group_name_H-M "P 21/M"
_symmetry_group_IT_number 11
_symmetry_cell_setting 'monoclinic'
loop_
_space_group_symop_operation_xyz
x,y,z
-x,1/2+y,-z
-x,-y,-z
x,1/2-y,z
loop_
_atom_site_type_symbol
_atom_site_label
_atom_site_fract_x
_atom_site_fract_y
_atom_site_fract_z
Si Si1 0.834606 0.591377 0.112751
Si Si2 0.394986 0.918967 0.068026
Si Si3 0.924115 0.407239 0.321325
Si Si4 0.386175 0.916399 0.691077
Si Si5 0.475044 0.915529 0.771144
Si Si6 0.763789 0.587726 0.399450
Si Si7 0.910690 0.085406 0.540510
O O1 0.772720 0.750000 0.179735
O O2 0.748897 0.466721 0.179866
O O3 0.852556 0.560261 0.198268
O O4 0.967062 0.582693 0.892124
O O5 0.415334 0.750000 0.054318
O O6 0.242429 0.959517 0.274693
O O7 0.423931 0.978738 0.930039
O O8 0.500000 0.000000 0.000000
O O9 0.864798 0.250000 0.399445
O O10 0.811035 0.510135 0.430948
O O11 0.972348 0.446160 0.362880
O O12 0.406212 0.750000 0.649806
O O13 0.381134 0.955281 0.804940
O O14 0.500000 0.000000 0.500000
O O15 0.479852 0.750000 0.779147
O O16 0.618562 0.969650 0.562679
O O17 0.764198 0.750000 0.426546
O O18 0.920653 0.250000 0.555677
O O19 0.000000 0.000000 0.500000
#
# Coordination Sequence:
#
# PCOD8072250 Si02
#       7
#     4   4   4   4   4   4   4
#     4  10  21  37  55  79 116 151 185 231 279 332
#     4  10  21  39  62  87 116 151 194 246 295 347
#     4  10  22  38  56  81 115 149 186 237 285 330
#     4  11  21  36  57  82 114 150 188 230 279 336
#     4   9  19  35  56  81 112 146 182 230 284 334
#     4  10  19  35  57  81 111 147 185 228 280 342
#     4  10  23  41  60  85 119 155 197 247 297 349
#
# _framework density 19.70889
#
# number of rings (size 3 to 8) (size 9 to 14) (size 15 to 20)
#    0.000    2.000    1.429    1.714    2.000    2.286 
#    0.000    1.429    0.000    0.000    0.000    0.000 
#    0.000    0.000    0.000    0.000    0.000    0.000 
#
# Total GULP energy -346980.383593 kJ/mol
# GULP energy per Si atom -12392.156557 kJ/mol
# Density = 1.966403 g / cm^3
# Si number density = 19.708890 Si / 1000 Ang^3
#
#
#
# Elastic Constant Matrix: (Units=GPa)
#
#
# Indices 1 2 3 4 5 6 
#
# 1 136.9632 64.6794 33.8393 0.0000 4.1336 0.0000
# 2 64.6794 77.4661 24.4424 0.0000 -5.1358 0.0000
# 3 33.8393 24.4424 71.8082 0.0000 11.8004 0.0000
# 4 0.0000 0.0000 0.0000 21.5840 0.0000 -5.5596
# 5 4.1336 -5.1358 11.8004 0.0000 35.9883 0.0000
# 6 0.0000 0.0000 0.0000 -5.5596 0.0000 41.0632
#
#
#
# Elastic Compliance Matrix: (Units=1/GPa)
#
#
# Indices 1 2 3 4 5 6 
#
# 1 0.012628 -0.009994 -0.002195 0.000000 -0.002157 0.000000
# 2 -0.009994 0.022906 -0.004030 0.000000 0.005738 0.000000
# 3 -0.002195 -0.004030 0.017318 0.000000 -0.006002 0.000000
# 4 0.000000 0.000000 0.000000 0.048005 0.000000 0.006499
# 5 -0.002157 0.005738 -0.006002 0.000000 0.030821 0.000000
# 6 0.000000 0.000000 0.000000 0.006499 0.000000 0.025233
#
#
# Mechanical properties :
#
#
# Convention : Reuss Voigt Hill
#
# Bulk Modulus (GPa) = 48.98533 59.12887 54.05710
# Shear Modulus (GPa) = 25.49027 30.61218 28.05123
#
# Velocity S-wave (km/s) = 3.60020 3.94536 3.77673
# Velocity P-wave (km/s) = 6.49541 7.12887 6.81950
#
# Compressibility (1/GPa) = 0.02041427
#
# Stress axis : x y z
#
# Youngs Moduli (GPa) = 79.18708 43.65754 57.74308
#
# Poissons Ratio (x) = 0.43633 0.12672
# Poissons Ratio (y) = 0.79143 0.23269
# Poissons Ratio (z) = 0.17378 0.17593
#
# Static dielectric constant tensor:
#      x y z
#    x 3.387670 0.000000 0.604290 
#    y 0.000000 3.244040 0.000000 
#    z 0.604290 0.000000 3.359660 
# 
# 
# High freq. dielectric constant tensor:
#      x y z
#    x 1.775940 0.000000 0.014430 
#    y 0.000000 1.751340 0.000000 
#    z 0.014430 0.000000 1.771600 
# 
# From -- ./inp_files/37444.got.cif
#   From: 2010.06.25/outbox.cif.g09.slc.cpg/sg11_19_cif.got.tgz:37444.got - 2010.06.27 23:14:04.
