data_PCOD8072282
_publ_section_title
;
Structure prediction by ZEFSAII (Michael W. Deem and Ramdas Pophale) SiO2 
 PCOD8072282
Probable space group: P 21/M
;
_chemical_formula_sum "Si O2"
_cell_formula_units_Z 32
_cell_length_a 24.426156
_cell_length_b 8.744454
_cell_length_c 24.380676
_cell_angle_alpha 90.000000
_cell_angle_beta 161.545274
_cell_angle_gamma 90.000000
_cell_volume 1648.477537
_symmetry_space_group_name_H-M "P 21/M"
_symmetry_group_IT_number 11
_symmetry_cell_setting 'monoclinic'
loop_
_space_group_symop_operation_xyz
x,y,z
-x,1/2+y,-z
-x,-y,-z
x,1/2-y,z
loop_
_atom_site_type_symbol
_atom_site_label
_atom_site_fract_x
_atom_site_fract_y
_atom_site_fract_z
Si Si1 0.460414 0.069382 0.403699
Si Si2 0.220264 0.069360 0.661015
Si Si3 0.363109 0.429601 0.527678
Si Si4 0.435454 0.567956 0.070154
Si Si5 0.016620 0.571903 0.845130
Si Si6 0.097156 0.569527 0.041054
Si Si7 0.636729 0.432391 0.877607
Si Si8 0.164600 0.930630 0.723368
O O1 0.445021 0.250000 0.394800
O O2 0.500000 0.000000 0.500000
O O3 0.607300 0.023389 0.499993
O O4 0.286753 0.997570 0.215341
O O5 0.229768 0.250000 0.676002
O O6 0.378081 0.008066 0.773707
O O7 0.036226 0.019201 0.459438
O O8 0.242789 0.000234 0.742534
O O9 0.390091 0.250000 0.541122
O O10 0.487314 0.488076 0.694084
O O11 0.164833 0.464169 0.357307
O O12 0.434854 0.750000 0.070933
O O13 0.404045 0.500673 0.101012
O O14 0.279711 0.508328 0.883358
O O15 0.057040 0.750000 0.883901
O O16 0.001848 0.519307 0.894485
O O17 0.178914 0.497407 0.967132
O O18 0.106052 0.750000 0.057537
O O19 0.000000 0.500000 0.000000
O O20 0.639282 0.250000 0.882323
O O21 0.179009 0.750000 0.732088
#
# Coordination Sequence:
#
# PCOD8072282 Si02
#       8
#     4   4   4   4   4   4   4   4
#     4  12  24  38  57  82 111 143 180 225 277 333
#     4   9  17  29  46  71 101 134 173 217 262 311
#     4  10  19  35  58  80 106 139 175 217 269 327
#     4   9  17  28  46  73 104 134 172 217 262 310
#     4   9  18  32  53  79 105 135 171 212 263 320
#     4  11  21  36  56  83 116 145 179 223 271 329
#     4   9  17  31  51  78 107 136 172 221 268 316
#     4   9  17  29  46  70 101 135 171 216 263 311
#
# _framework density 19.411852
#
# number of rings (size 3 to 8) (size 9 to 14) (size 15 to 20)
#    0.000    2.250    1.250    2.625    0.000    2.000 
#    0.000    5.625    0.000    1.500    0.000    1.750 
#    0.000    0.000    0.000    0.000    0.000    0.000 
#
# Total GULP energy -396721.901551 kJ/mol
# GULP energy per Si atom -12397.559423 kJ/mol
# Density = 1.936767 g / cm^3
# Si number density = 19.411852 Si / 1000 Ang^3
#
#
#
# Elastic Constant Matrix: (Units=GPa)
#
#
# Indices 1 2 3 4 5 6 
#
# 1 169.5543 22.6967 91.9240 0.0000 2.8915 0.0000
# 2 22.6967 40.3340 18.3494 0.0000 -1.4599 0.0000
# 3 91.9240 18.3494 152.9190 0.0000 4.0993 0.0000
# 4 0.0000 0.0000 0.0000 17.0180 0.0000 0.9672
# 5 2.8915 -1.4599 4.0993 0.0000 31.5336 0.0000
# 6 0.0000 0.0000 0.0000 0.9672 0.0000 22.0486
#
#
#
# Elastic Compliance Matrix: (Units=1/GPa)
#
#
# Indices 1 2 3 4 5 6 
#
# 1 0.009034 -0.002779 -0.005089 0.000000 -0.000295 0.000000
# 2 -0.002779 0.027163 -0.001635 0.000000 0.001725 0.000000
# 3 -0.005089 -0.001635 0.009819 0.000000 -0.000885 0.000000
# 4 0.000000 0.000000 0.000000 0.058908 0.000000 -0.002584
# 5 -0.000295 0.001725 -0.000885 0.000000 0.031934 0.000000
# 6 0.000000 0.000000 0.000000 -0.002584 0.000000 0.045468
#
#
# Mechanical properties :
#
#
# Convention : Reuss Voigt Hill
#
# Bulk Modulus (GPa) = 37.02468 69.86084 53.44276
# Shear Modulus (GPa) = 23.77157 29.44253 26.60705
#
# Velocity S-wave (km/s) = 3.50321 3.89875 3.70626
# Velocity P-wave (km/s) = 5.95634 7.50559 6.77539
#
# Compressibility (1/GPa) = 0.02700901
#
# Stress axis : x y z
#
# Youngs Moduli (GPa) = 110.69334 36.81471 101.84743
#
# Poissons Ratio (x) = 0.10231 0.51832
# Poissons Ratio (y) = 0.30762 0.16653
# Poissons Ratio (z) = 0.56334 0.06020
#
# Static dielectric constant tensor:
#      x y z
#    x 3.787450 0.000000 0.059650 
#    y 0.000000 3.230590 0.000000 
#    z 0.059650 0.000000 3.860960 
# 
# 
# High freq. dielectric constant tensor:
#      x y z
#    x 1.755050 0.000000 0.005090 
#    y 0.000000 1.709490 0.000000 
#    z 0.005090 0.000000 1.773600 
# 
# From -- ./inp_files/70036.got.cif
#   From: 2010.06.25/outbox.cif.g09.slc.cpg/sg11_36_cif.got.tgz:70036.got - 2010.06.27 23:14:04.
