data_PCOD8072420
_publ_section_title
;
Structure prediction by ZEFSAII (Michael W. Deem and Ramdas Pophale) SiO2 
 PCOD8072420
Probable space group: P 21/M
;
_chemical_formula_sum "Si O2"
_cell_formula_units_Z 28
_cell_length_a 11.150835
_cell_length_b 13.842147
_cell_length_c 9.643381
_cell_angle_alpha 90.000000
_cell_angle_beta 112.314557
_cell_angle_gamma 90.000000
_cell_volume 1377.003639
_symmetry_space_group_name_H-M "P 21/M"
_symmetry_group_IT_number 11
_symmetry_cell_setting 'monoclinic'
loop_
_space_group_symop_operation_xyz
x,y,z
-x,1/2+y,-z
-x,-y,-z
x,1/2-y,z
loop_
_atom_site_type_symbol
_atom_site_label
_atom_site_fract_x
_atom_site_fract_y
_atom_site_fract_z
Si Si1 0.449097 0.640632 0.036120
Si Si2 0.947064 0.896972 0.018489
Si Si3 0.460965 0.536053 0.760406
Si Si4 0.196242 0.007877 0.518315
Si Si5 0.217546 0.851491 0.111158
Si Si6 0.035180 0.134773 0.651957
Si Si7 0.273946 0.049642 0.261248
O O1 0.497267 0.750000 0.078977
O O2 0.474017 0.611787 0.890080
O O3 0.526997 0.573182 0.177314
O O4 0.295126 0.626938 0.002232
O O5 0.922097 0.882217 0.170471
O O6 0.064721 0.830501 0.015788
O O7 0.810665 0.881522 0.878698
O O8 0.000000 0.000000 0.000000
O O9 0.322950 0.547481 0.628252
O O10 0.573906 0.563945 0.700946
O O11 0.145472 0.086402 0.605792
O O12 0.236034 0.072420 0.402291
O O13 0.097031 0.921732 0.439909
O O14 0.272365 0.750000 0.197744
O O15 0.238080 0.936537 0.228806
O O16 0.020749 0.250000 0.616192
#
# Coordination Sequence:
#
# PCOD8072420 Si02
#       7
#     4   4   4   4   4   4   4
#     4   9  20  37  59  90 121 159 212 259 307 370
#     4  10  19  35  64  89 120 155 209 259 302 365
#     4  10  22  38  63  88 125 167 204 253 314 371
#     4  11  24  41  66  90 132 165 205 260 311 384
#     4   9  17  32  59  88 116 154 206 257 302 356
#     4  11  25  43  65  93 126 170 210 257 321 372
#     4  10  21  39  61  90 123 162 208 250 310 365
#
# _framework density 20.334005999999999
#
# number of rings (size 3 to 8) (size 9 to 14) (size 15 to 20)
#    0.000    2.000    2.857    0.857    8.000    1.143 
#    0.000    4.286    0.000    3.429    0.000    0.000 
#    0.000    0.000    0.000    0.000    0.000    0.000 
#
# Total GULP energy -346900.135066 kJ/mol
# GULP energy per Si atom -12389.290538 kJ/mol
# Density = 2.028772 g / cm^3
# Si number density = 20.334006 Si / 1000 Ang^3
#
#
#
# Elastic Constant Matrix: (Units=GPa)
#
#
# Indices 1 2 3 4 5 6 
#
# 1 136.4700 18.2798 47.8273 0.0000 -9.5004 0.0000
# 2 18.2798 79.4772 16.8963 0.0000 -12.7437 0.0000
# 3 47.8273 16.8963 72.6653 0.0000 -2.8139 0.0000
# 4 0.0000 0.0000 0.0000 13.1124 0.0000 0.8435
# 5 -9.5004 -12.7437 -2.8139 0.0000 39.5126 0.0000
# 6 0.0000 0.0000 0.0000 0.8435 0.0000 12.6069
#
#
#
# Elastic Compliance Matrix: (Units=1/GPa)
#
#
# Indices 1 2 3 4 5 6 
#
# 1 0.009691 -0.000649 -0.006163 0.000000 0.001682 0.000000
# 2 -0.000649 0.013963 -0.002659 0.000000 0.004158 0.000000
# 3 -0.006163 -0.002659 0.018396 0.000000 -0.001029 0.000000
# 4 0.000000 0.000000 0.000000 0.076593 0.000000 -0.005125
# 5 0.001682 0.004158 -0.001029 0.000000 0.026981 0.000000
# 6 0.000000 0.000000 0.000000 -0.005125 0.000000 0.079665
#
#
# Mechanical properties :
#
#
# Convention : Reuss Voigt Hill
#
# Bulk Modulus (GPa) = 43.27068 50.51326 46.89197
# Shear Modulus (GPa) = 19.84645 26.75364 23.30005
#
# Velocity S-wave (km/s) = 3.12753 3.63121 3.38874
# Velocity P-wave (km/s) = 5.86243 6.51741 6.19857
#
# Compressibility (1/GPa) = 0.02311034
#
# Stress axis : x y z
#
# Youngs Moduli (GPa) = 103.18379 71.61559 54.35892
#
# Poissons Ratio (x) = 0.04649 0.33500
# Poissons Ratio (y) = 0.06699 0.14451
# Poissons Ratio (z) = 0.63589 0.19039
#
# Static dielectric constant tensor:
#      x y z
#    x 3.967000 0.000000 -0.116450 
#    y 0.000000 3.759210 0.000000 
#    z -0.116450 0.000000 3.521280 
# 
# 
# High freq. dielectric constant tensor:
#      x y z
#    x 1.816320 0.000000 -0.013590 
#    y 0.000000 1.785590 0.000000 
#    z -0.013590 0.000000 1.770150 
# 
# From -- ./inp_files/17812.got.cif
#   From: 2010.06.25/outbox.cif.g09.slc.cpg/sg11_9_cif.got.tgz:17812.got - 2010.06.27 23:14:04.
