data_PCOD8072653
_publ_section_title
;
Structure prediction by ZEFSAII (Michael W. Deem and Ramdas Pophale) SiO2 
 PCOD8072653
Probable space group: P 21/M
;
_chemical_formula_sum "Si O2"
_cell_formula_units_Z 32
_cell_length_a 21.831041
_cell_length_b 10.156248
_cell_length_c 9.445663
_cell_angle_alpha 90.000000
_cell_angle_beta 43.869640
_cell_angle_gamma 90.000000
_cell_volume 1451.395960
_symmetry_space_group_name_H-M "P 21/M"
_symmetry_group_IT_number 11
_symmetry_cell_setting 'monoclinic'
loop_
_space_group_symop_operation_xyz
x,y,z
-x,1/2+y,-z
-x,-y,-z
x,1/2-y,z
loop_
_atom_site_type_symbol
_atom_site_label
_atom_site_fract_x
_atom_site_fract_y
_atom_site_fract_z
Si Si1 0.139061 0.600952 0.728263
Si Si2 0.958838 0.407806 0.389416
Si Si3 0.106850 0.898908 0.086638
Si Si4 0.287280 0.523253 0.888203
Si Si5 0.610627 0.896831 0.536287
Si Si6 0.582455 0.101207 0.092129
Si Si7 0.299318 0.466571 0.333508
Si Si8 0.819292 0.891202 0.712540
O O1 0.136728 0.750000 0.778039
O O2 0.064845 0.569897 0.735257
O O3 0.237275 0.576257 0.507915
O O4 0.114619 0.532271 0.917777
O O5 0.965904 0.250000 0.415629
O O6 0.881700 0.478896 0.608881
O O7 0.047647 0.492968 0.271799
O O8 0.064738 0.750000 0.161378
O O9 0.204361 0.884462 0.989192
O O10 0.332748 0.481167 0.667143
O O11 0.356502 0.600338 0.870516
O O12 0.248871 0.400984 0.042951
O O13 0.602185 0.750000 0.488186
O O14 0.656483 0.885877 0.613371
O O15 0.513205 0.962238 0.712753
O O16 0.567233 0.250000 0.068516
O O17 0.624220 0.028391 0.889268
O O18 0.236146 0.378080 0.340794
O O19 0.870246 0.750000 0.642483
#
# Coordination Sequence:
#
# PCOD8072653 Si02
#       8
#     4   4   4   4   4   4   4   4
#     4   9  18  35  58  88 123 158 197 247 302 359
#     4  10  22  39  62  91 123 160 201 251 310 366
#     4  11  22  38  61  89 123 160 206 255 302 366
#     4  11  23  40  61  86 124 164 208 253 310 368
#     4  11  22  38  60  90 124 160 207 260 311 368
#     4  10  22  39  61  88 123 164 206 255 312 371
#     4  10  19  37  62  91 122 159 204 257 305 365
#     4  10  22  40  63  89 123 167 208 251 304 367
#
# _framework density 22.047739
#
# number of rings (size 3 to 8) (size 9 to 14) (size 15 to 20)
#    0.000    1.750    1.250    3.000    0.000    5.000 
#    0.000    0.625    0.000    6.000    0.000    0.000 
#    0.000    0.000    0.000    0.000    0.000    0.000 
#
# Total GULP energy -396513.269444 kJ/mol
# GULP energy per Si atom -12391.039670 kJ/mol
# Density = 2.199756 g / cm^3
# Si number density = 22.047739 Si / 1000 Ang^3
#
#
#
# Elastic Constant Matrix: (Units=GPa)
#
#
# Indices 1 2 3 4 5 6 
#
# 1 93.0509 18.6421 36.7063 0.0000 -7.5839 0.0000
# 2 18.6421 108.8606 49.1362 0.0000 -10.7825 0.0000
# 3 36.7063 49.1362 137.9090 0.0000 -8.9180 0.0000
# 4 0.0000 0.0000 0.0000 6.6804 0.0000 -12.2372
# 5 -7.5839 -10.7825 -8.9180 0.0000 41.6674 0.0000
# 6 0.0000 0.0000 0.0000 -12.2372 0.0000 17.7919
#
#
#
# Elastic Compliance Matrix: (Units=1/GPa)
#
#
# Indices 1 2 3 4 5 6 
#
# 1 0.012138 -0.000621 -0.002917 0.000000 0.001424 0.000000
# 2 -0.000621 0.011150 -0.003679 0.000000 0.001985 0.000000
# 3 -0.002917 -0.003679 0.009372 0.000000 0.000523 0.000000
# 4 0.000000 0.000000 0.000000 -0.575962 0.000000 -0.396144
# 5 0.001424 0.001985 0.000523 0.000000 0.024884 0.000000
# 6 0.000000 0.000000 0.000000 -0.396144 0.000000 -0.216260
#
#
# Mechanical properties :
#
#
# Convention : Reuss Voigt Hill
#
# Bulk Modulus (GPa) = 54.86768 60.97663 57.92215
# Shear Modulus (GPa) = -7.00114 28.91700 10.95793
#
# Velocity S-wave (km/s) = -1.78391 3.62548 2.23179
# Velocity P-wave (km/s) = 4.54937 6.72623 5.74190
#
# Compressibility (1/GPa) = 0.01822567
#
# Stress axis : x y z
#
# Youngs Moduli (GPa) = 82.38516 89.69008 106.69766
#
# Poissons Ratio (x) = 0.05567 0.31129
# Poissons Ratio (y) = 0.05114 0.39253
# Poissons Ratio (z) = 0.24036 0.32996
#
# Static dielectric constant tensor:
#      x y z
#    x 4.092180 0.000000 0.057610 
#    y 0.000000 3.595750 0.000000 
#    z 0.057610 0.000000 3.995570 
# 
# 
# High freq. dielectric constant tensor:
#      x y z
#    x 1.878520 0.000000 0.008800 
#    y 0.000000 1.844170 0.000000 
#    z 0.008800 0.000000 1.878480 
# 
# From -- ./inp_files/26564.got.cif
#   From: 2010.06.25/outbox.cif.g09.slc.cpg/sg11_14_cif.got.tgz:26564.got - 2010.06.27 23:14:04.
