data_PCOD8072789
_publ_section_title
;
Structure prediction by ZEFSAII (Michael W. Deem and Ramdas Pophale) SiO2 
 PCOD8072789
Probable space group: P 21/M
;
_chemical_formula_sum "Si O2"
_cell_formula_units_Z 32
_cell_length_a 11.222985
_cell_length_b 9.358064
_cell_length_c 23.118357
_cell_angle_alpha 90.000000
_cell_angle_beta 54.552132
_cell_angle_gamma 90.000000
_cell_volume 1977.966728
_symmetry_space_group_name_H-M "P 21/M"
_symmetry_group_IT_number 11
_symmetry_cell_setting 'monoclinic'
loop_
_space_group_symop_operation_xyz
x,y,z
-x,1/2+y,-z
-x,-y,-z
x,1/2-y,z
loop_
_atom_site_type_symbol
_atom_site_label
_atom_site_fract_x
_atom_site_fract_y
_atom_site_fract_z
Si Si1 0.404534 0.080848 0.479810
Si Si2 0.834303 0.907838 0.369815
Si Si3 0.688610 0.582845 0.900645
Si Si4 0.639140 0.085085 0.026731
Si Si5 0.782083 0.083482 0.213349
Si Si6 0.419960 0.413546 0.652991
Si Si7 0.138048 0.916275 0.937691
Si Si8 0.976336 0.585313 0.759605
O O1 0.444516 0.250000 0.466454
O O2 0.234439 0.059741 0.547159
O O3 0.500000 0.000000 0.500000
O O4 0.438276 0.004285 0.408874
O O5 0.901404 0.750000 0.349818
O O6 0.703199 0.920884 0.361150
O O7 0.966647 0.011321 0.315155
O O8 0.708061 0.750000 0.907593
O O9 0.531649 0.545171 0.917118
O O10 0.813878 0.529992 0.821113
O O11 0.711220 0.505523 0.955327
O O12 0.656267 0.250000 0.004677
O O13 0.720460 0.048871 0.063287
O O14 0.738065 0.250000 0.227673
O O15 0.825244 0.033192 0.137214
O O16 0.920085 0.051198 0.215262
O O17 0.642570 0.989741 0.272020
O O18 0.465227 0.250000 0.653830
O O19 0.098141 0.750000 0.950329
O O20 0.000000 0.000000 0.000000
O O21 0.974521 0.750000 0.744704
#
# Coordination Sequence:
#
# PCOD8072789 Si02
#       8
#     4   4   4   4   4   4   4   4
#     4   9  15  23  35  52  76 107 139 169 202 240
#     4   8  15  24  34  52  78 105 133 165 198 237
#     4   9  17  30  46  63  84 109 139 175 213 253
#     4   9  18  31  46  64  84 108 140 176 213 253
#     4   9  17  28  40  56  80 109 140 171 205 248
#     4   9  16  25  37  54  76 105 139 171 204 242
#     4  10  20  32  46  64  86 113 143 176 214 254
#     4   9  16  25  39  57  78 107 138 168 203 242
#
# _framework density 16.178229000000002
#
# number of rings (size 3 to 8) (size 9 to 14) (size 15 to 20)
#    0.000    3.000    0.000    2.250    0.000    6.000 
#    0.000    2.500    0.000    0.000    0.000    0.000 
#    0.000    1.000    0.000    2.000    0.000    3.125 
#
# Total GULP energy -396624.617903 kJ/mol
# GULP energy per Si atom -12394.519309 kJ/mol
# Density = 1.614141 g / cm^3
# Si number density = 16.178229 Si / 1000 Ang^3
#
#
#
# Elastic Constant Matrix: (Units=GPa)
#
#
# Indices 1 2 3 4 5 6 
#
# 1 36.3219 24.3562 37.0943 0.0000 -5.1072 0.0000
# 2 24.3562 79.7884 74.7001 0.0000 -9.0380 0.0000
# 3 37.0943 74.7001 167.1700 0.0000 -17.3027 0.0000
# 4 0.0000 0.0000 0.0000 34.6113 0.0000 -2.8303
# 5 -5.1072 -9.0380 -17.3027 0.0000 17.4688 0.0000
# 6 0.0000 0.0000 0.0000 -2.8303 0.0000 12.8227
#
#
#
# Elastic Compliance Matrix: (Units=1/GPa)
#
#
# Indices 1 2 3 4 5 6 
#
# 1 0.037431 -0.006205 -0.005273 0.000000 0.002510 0.000000
# 2 -0.006205 0.022627 -0.008591 0.000000 0.001384 0.000000
# 3 -0.005273 -0.008591 0.011556 0.000000 0.005460 0.000000
# 4 0.000000 0.000000 0.000000 0.029423 0.000000 0.006494
# 5 0.002510 0.001384 0.005460 0.000000 0.064102 0.000000
# 6 0.000000 0.000000 0.000000 0.006494 0.000000 0.079420
#
#
# Mechanical properties :
#
#
# Convention : Reuss Voigt Hill
#
# Bulk Modulus (GPa) = 31.77055 61.73130 46.75093
# Shear Modulus (GPa) = 16.93828 22.78920 19.86374
#
# Velocity S-wave (km/s) = 3.23922 3.75725 3.50781
# Velocity P-wave (km/s) = 5.80263 7.55397 6.73546
#
# Compressibility (1/GPa) = 0.03147569
#
# Stress axis : x y z
#
# Youngs Moduli (GPa) = 26.71608 44.19505 86.53516
#
# Poissons Ratio (x) = 0.27422 0.45633
# Poissons Ratio (y) = 0.16577 0.74341
# Poissons Ratio (z) = 0.14088 0.37967
#
# Static dielectric constant tensor:
#      x y z
#    x 2.676220 0.000000 -0.153260 
#    y 0.000000 3.143750 0.000000 
#    z -0.153260 0.000000 3.507340 
# 
# 
# High freq. dielectric constant tensor:
#      x y z
#    x 1.559130 0.000000 -0.014370 
#    y 0.000000 1.627590 0.000000 
#    z -0.014370 0.000000 1.636250 
# 
# From -- ./inp_files/40698.got.cif
#   From: 2010.06.25/outbox.cif.g09.slc.cpg/sg11_21_cif.got.tgz:40698.got - 2010.06.27 23:14:04.
