data_PCOD8072629
_publ_section_title
;
Structure prediction by ZEFSAII (Michael W. Deem and Ramdas Pophale) SiO2 
 PCOD8072629
Probable space group: P 21/M
;
_chemical_formula_sum "Si O2"
_cell_formula_units_Z 32
_cell_length_a 14.673828
_cell_length_b 8.609363
_cell_length_c 12.930456
_cell_angle_alpha 90.000000
_cell_angle_beta 80.281888
_cell_angle_gamma 90.000000
_cell_volume 1610.093439
_symmetry_space_group_name_H-M "P 21/M"
_symmetry_group_IT_number 11
_symmetry_cell_setting 'monoclinic'
loop_
_space_group_symop_operation_xyz
x,y,z
-x,1/2+y,-z
-x,-y,-z
x,1/2-y,z
loop_
_atom_site_type_symbol
_atom_site_label
_atom_site_fract_x
_atom_site_fract_y
_atom_site_fract_z
Si Si1 0.926443 0.565219 0.323937
Si Si2 0.597239 0.069629 0.452212
Si Si3 0.151150 0.079151 0.869123
Si Si4 0.876315 0.567264 0.697132
Si Si5 0.783054 0.565243 0.929884
Si Si6 0.407191 0.933764 0.971693
Si Si7 0.215196 0.934483 0.482797
Si Si8 0.639523 0.923228 0.231941
O O1 0.910206 0.750000 0.330728
O O2 0.911392 0.498722 0.208607
O O3 0.856102 0.484170 0.415082
O O4 0.029094 0.524226 0.340105
O O5 0.590038 0.250000 0.470074
O O6 0.682040 0.007336 0.506216
O O7 0.500000 0.000000 0.500000
O O8 0.616992 0.032928 0.330638
O O9 0.109617 0.250000 0.895846
O O10 0.251655 0.088501 0.800629
O O11 0.158544 0.997740 0.981396
O O12 0.895188 0.750000 0.688792
O O13 0.834687 0.517664 0.815630
O O14 0.805989 0.518172 0.621212
O O15 0.771702 0.750000 0.945260
O O16 0.681146 0.492666 0.946480
O O17 0.408013 0.750000 0.973312
O O18 0.500000 0.000000 0.000000
O O19 0.406571 0.995887 0.856288
O O20 0.209619 0.750000 0.470206
O O21 0.598050 0.750000 0.255367
#
# Coordination Sequence:
#
# PCOD8072629 Si02
#       8
#     4   4   4   4   4   4   4   4
#     4  11  21  37  63  91 119 157 204 249 304 368
#     4  11  24  40  61  90 121 156 201 252 308 365
#     4   8  16  33  60  87 113 150 192 239 295 354
#     4  11  24  40  60  87 123 164 203 250 306 364
#     4   9  20  40  60  84 120 159 201 250 305 358
#     4  11  22  37  60  89 119 156 202 247 298 360
#     4  11  24  42  62  86 120 158 205 256 299 358
#     4  10  19  37  61  85 117 153 194 245 300 359
#
# _framework density 19.874623
#
# number of rings (size 3 to 8) (size 9 to 14) (size 15 to 20)
#    0.000    1.750    1.250    4.125    0.000    4.000 
#    0.000    3.125    0.000    0.000    0.000    0.000 
#    0.000    0.000    0.000    0.000    0.000    0.000 
#
# Total GULP energy -396708.314696 kJ/mol
# GULP energy per Si atom -12397.134834 kJ/mol
# Density = 1.982939 g / cm^3
# Si number density = 19.874623 Si / 1000 Ang^3
#
#
#
# Elastic Constant Matrix: (Units=GPa)
#
#
# Indices 1 2 3 4 5 6 
#
# 1 110.6136 26.9254 63.3585 0.0000 16.1951 0.0000
# 2 26.9254 4.9198 -2.9868 0.0000 23.0198 0.0000
# 3 63.3585 -2.9868 117.5088 0.0000 14.1164 0.0000
# 4 0.0000 0.0000 0.0000 28.5708 0.0000 -1.3038
# 5 16.1951 23.0198 14.1164 0.0000 15.2678 0.0000
# 6 0.0000 0.0000 0.0000 -1.3038 0.0000 29.1739
#
#
#
# Elastic Compliance Matrix: (Units=1/GPa)
#
#
# Indices 1 2 3 4 5 6 
#
# 1 0.013096 0.005083 -0.004885 0.000000 -0.017038 0.000000
# 2 0.005083 -0.026254 -0.008454 0.000000 0.042010 0.000000
# 3 -0.004885 -0.008454 0.009872 0.000000 0.008802 0.000000
# 4 0.000000 0.000000 0.000000 0.035072 0.000000 0.001567
# 5 -0.017038 0.042010 0.008802 0.000000 0.012092 0.000000
# 6 0.000000 0.000000 0.000000 0.001567 0.000000 0.034347
#
#
# Mechanical properties :
#
#
# Convention : Reuss Voigt Hill
#
# Bulk Modulus (GPa) = -50.50437 45.29293 -2.60572
# Shear Modulus (GPa) = 56.72833 24.31882 40.52358
#
# Velocity S-wave (km/s) = 5.34837 3.50181 4.52038
# Velocity P-wave (km/s) = 3.55998 6.26012 5.09227
#
# Compressibility (1/GPa) = -0.01980027
#
# Stress axis : x y z
#
# Youngs Moduli (GPa) = 76.35927 -38.08924 101.29937
#
# Poissons Ratio (x) = 0.19359 0.49486
# Poissons Ratio (y) = -0.38811 0.85643
# Poissons Ratio (z) = 0.37303 -0.32202
#
# Static dielectric constant tensor:
#      x y z
#    x 3.728960 0.000000 0.136330 
#    y 0.000000 3.608780 0.000000 
#    z 0.136330 0.000000 3.889920 
# 
# 
# High freq. dielectric constant tensor:
#      x y z
#    x 1.774830 0.000000 0.012640 
#    y 0.000000 1.769580 0.000000 
#    z 0.012640 0.000000 1.788180 
# 
# From -- ./inp_files/38109.got.cif
#   From: 2010.06.25/outbox.cif.g09.slc.cpg/sg11_20_cif.got.tgz:38109.got - 2010.06.27 23:14:04.
