data_PCOD8072863
_publ_section_title
;
Structure prediction by ZEFSAII (Michael W. Deem and Ramdas Pophale) SiO2 
 PCOD8072863
Probable space group: P 21/M
;
_chemical_formula_sum "Si O2"
_cell_formula_units_Z 28
_cell_length_a 13.820838
_cell_length_b 9.312752
_cell_length_c 15.977207
_cell_angle_alpha 90.000000
_cell_angle_beta 131.339767
_cell_angle_gamma 90.000000
_cell_volume 1543.977384
_symmetry_space_group_name_H-M "P 21/M"
_symmetry_group_IT_number 11
_symmetry_cell_setting 'monoclinic'
loop_
_space_group_symop_operation_xyz
x,y,z
-x,1/2+y,-z
-x,-y,-z
x,1/2-y,z
loop_
_atom_site_type_symbol
_atom_site_label
_atom_site_fract_x
_atom_site_fract_y
_atom_site_fract_z
Si Si1 0.475651 0.583446 0.362397
Si Si2 0.304262 0.081603 0.386506
Si Si3 0.568653 0.415649 0.852235
Si Si4 0.685519 0.585508 0.197032
Si Si5 0.224956 0.416780 0.936577
Si Si6 0.985025 0.584760 0.744886
Si Si7 0.079224 0.584579 0.613246
O O1 0.445954 0.750000 0.359704
O O2 0.610456 0.539916 0.483377
O O3 0.357751 0.496448 0.335011
O O4 0.485813 0.545378 0.270439
O O5 0.309643 0.250000 0.372865
O O6 0.158583 0.029844 0.317941
O O7 0.610899 0.250000 0.881487
O O8 0.459126 0.450147 0.857836
O O9 0.692891 0.512109 0.942378
O O10 0.721808 0.750000 0.239455
O O11 0.698818 0.555860 0.106154
O O12 0.778441 0.481349 0.301669
O O13 0.206706 0.250000 0.945806
O O14 0.084346 0.488704 0.854170
O O15 0.004974 0.750000 0.782554
O O16 0.006585 0.564440 0.659020
O O17 0.090533 0.750000 0.593560
O O18 0.000000 0.500000 0.500000
#
# Coordination Sequence:
#
# PCOD8072863 Si02
#       7
#     4   4   4   4   4   4   4
#     4   9  19  34  54  80 105 132 169 214 261 311
#     4   9  18  35  57  78 102 133 170 213 262 312
#     4  10  20  34  55  77 104 142 178 211 255 314
#     4   9  19  34  52  74 104 142 176 212 256 304
#     4  10  20  34  52  78 109 137 173 220 259 299
#     4   9  19  35  56  75  99 140 178 208 255 317
#     4  10  20  32  49  75 107 139 173 214 253 305
#
# _framework density 18.134979999999999
#
# number of rings (size 3 to 8) (size 9 to 14) (size 15 to 20)
#    0.000    2.571    0.000    1.286    2.000    2.857 
#    0.000    0.714    0.000    0.000    0.000    0.000 
#    0.000    0.000    0.000    0.000    0.000    0.000 
#
# Total GULP energy -347274.159619 kJ/mol
# GULP energy per Si atom -12402.648558 kJ/mol
# Density = 1.809370 g / cm^3
# Si number density = 18.134980 Si / 1000 Ang^3
#
#
#
# Elastic Constant Matrix: (Units=GPa)
#
#
# Indices 1 2 3 4 5 6 
#
# 1 84.8050 34.6623 45.7695 0.0000 21.7836 0.0000
# 2 34.6623 79.7053 55.7289 0.0000 12.3946 0.0000
# 3 45.7695 55.7289 102.2340 0.0000 15.0972 0.0000
# 4 0.0000 0.0000 0.0000 35.0355 0.0000 1.7476
# 5 21.7836 12.3946 15.0972 0.0000 26.7167 0.0000
# 6 0.0000 0.0000 0.0000 1.7476 0.0000 28.6838
#
#
#
# Elastic Compliance Matrix: (Units=1/GPa)
#
#
# Indices 1 2 3 4 5 6 
#
# 1 0.018504 -0.002724 -0.005191 0.000000 -0.010890 0.000000
# 2 -0.002724 0.020969 -0.009931 0.000000 -0.001895 0.000000
# 3 -0.005191 -0.009931 0.017690 0.000000 -0.001156 0.000000
# 4 0.000000 0.000000 0.000000 0.028629 0.000000 -0.001744
# 5 -0.010890 -0.001895 -0.001156 0.000000 0.047842 0.000000
# 6 0.000000 0.000000 0.000000 -0.001744 0.000000 0.034969
#
#
# Mechanical properties :
#
#
# Convention : Reuss Voigt Hill
#
# Bulk Modulus (GPa) = 46.57515 59.89620 53.23567
# Shear Modulus (GPa) = 23.64584 26.79276 25.21930
#
# Velocity S-wave (km/s) = 3.61485 3.84788 3.73318
# Velocity P-wave (km/s) = 6.56971 7.26920 6.92829
#
# Compressibility (1/GPa) = 0.02147068
#
# Stress axis : x y z
#
# Youngs Moduli (GPa) = 54.04178 47.68864 56.52953
#
# Poissons Ratio (x) = 0.12991 0.29345
# Poissons Ratio (y) = 0.14721 0.56141
# Poissons Ratio (z) = 0.28054 0.47361
#
# Static dielectric constant tensor:
#      x y z
#    x 3.302250 0.000000 0.100030 
#    y 0.000000 3.379220 0.000000 
#    z 0.100030 0.000000 3.356270 
# 
# 
# High freq. dielectric constant tensor:
#      x y z
#    x 1.688970 0.000000 0.006730 
#    y 0.000000 1.704230 0.000000 
#    z 0.006730 0.000000 1.703720 
# 
# From -- ./inp_files/37644.got.cif
#   From: 2010.06.25/outbox.cif.g09.slc.cpg/sg11_19_cif.got.tgz:37644.got - 2010.06.27 23:14:04.
