data_PCOD8072755
_publ_section_title
;
Structure prediction by ZEFSAII (Michael W. Deem and Ramdas Pophale) SiO2 
 PCOD8072755
Probable space group: P 21/M
;
_chemical_formula_sum "Si O2"
_cell_formula_units_Z 24
_cell_length_a 11.766132
_cell_length_b 9.293662
_cell_length_c 17.074956
_cell_angle_alpha 90.000000
_cell_angle_beta 121.002019
_cell_angle_gamma 90.000000
_cell_volume 1600.429627
_symmetry_space_group_name_H-M "P 21/M"
_symmetry_group_IT_number 11
_symmetry_cell_setting 'monoclinic'
loop_
_space_group_symop_operation_xyz
x,y,z
-x,1/2+y,-z
-x,-y,-z
x,1/2-y,z
loop_
_atom_site_type_symbol
_atom_site_label
_atom_site_fract_x
_atom_site_fract_y
_atom_site_fract_z
Si Si1 0.433136 0.415222 0.868178
Si Si2 0.298248 0.583185 0.946807
Si Si3 0.237843 0.417000 0.243549
Si Si4 0.577558 0.086236 0.592862
Si Si5 0.449149 0.587671 0.246421
Si Si6 0.968117 0.416990 0.067424
O O1 0.395321 0.250000 0.867596
O O2 0.319815 0.506928 0.870578
O O3 0.440293 0.457572 0.778365
O O4 0.578262 0.451058 0.953580
O O5 0.281314 0.750000 0.922534
O O6 0.166505 0.522539 0.941688
O O7 0.272879 0.250000 0.267575
O O8 0.282489 0.505548 0.337722
O O9 0.322118 0.480358 0.199335
O O10 0.083371 0.441144 0.172379
O O11 0.604580 0.250000 0.574593
O O12 0.491393 0.085116 0.643619
O O13 0.500000 0.000000 0.500000
O O14 0.399727 0.750000 0.207757
O O15 0.954121 0.250000 0.040472
O O16 0.000000 0.500000 0.000000
#
# Coordination Sequence:
#
# PCOD8072755 Si02
#       6
#     4   4   4   4   4   4
#     4   9  16  29  44  60  83 115 153 187 219 261
#     4   9  18  29  42  60  86 117 150 187 223 256
#     4   9  17  28  43  65  90 117 149 181 218 267
#     4   9  17  29  46  68  93 118 143 181 229 272
#     4   8  16  28  44  63  87 116 142 178 225 264
#     4  10  20  31  44  63  90 123 155 186 222 265
#
# _framework density 14.995974
#
# number of rings (size 3 to 8) (size 9 to 14) (size 15 to 20)
#    1.000    2.000    0.000    1.500    0.000    4.000 
#    0.000    3.333    0.000    0.000    0.000    1.167 
#    0.000    0.000    0.000    0.000    0.000    0.000 
#
# Total GULP energy -297328.963334 kJ/mol
# GULP energy per Si atom -12388.706806 kJ/mol
# Density = 1.496184 g / cm^3
# Si number density = 14.995974 Si / 1000 Ang^3
#
#
#
# Elastic Constant Matrix: (Units=GPa)
#
#
# Indices 1 2 3 4 5 6 
#
# 1 110.8591 44.8370 38.5778 0.0000 -4.8534 0.0000
# 2 44.8370 79.7776 39.3904 0.0000 0.1959 0.0000
# 3 38.5778 39.3904 68.3091 0.0000 -2.7473 0.0000
# 4 0.0000 0.0000 0.0000 22.9945 0.0000 -3.3565
# 5 -4.8534 0.1959 -2.7473 0.0000 17.5654 0.0000
# 6 0.0000 0.0000 0.0000 -3.3565 0.0000 24.3197
#
#
#
# Elastic Compliance Matrix: (Units=1/GPa)
#
#
# Indices 1 2 3 4 5 6 
#
# 1 0.012625 -0.005089 -0.004079 0.000000 0.002907 0.000000
# 2 -0.005089 0.019632 -0.008566 0.000000 -0.002965 0.000000
# 3 -0.004079 -0.008566 0.021979 0.000000 0.002406 0.000000
# 4 0.000000 0.000000 0.000000 0.044383 0.000000 0.006126
# 5 0.002907 -0.002965 0.002406 0.000000 0.058143 0.000000
# 6 0.000000 0.000000 0.000000 0.006126 0.000000 0.041964
#
#
# Mechanical properties :
#
#
# Convention : Reuss Voigt Hill
#
# Bulk Modulus (GPa) = 53.27931 56.06182 54.67056
# Shear Modulus (GPa) = 20.79440 22.05196 21.42318
#
# Velocity S-wave (km/s) = 3.72784 3.83890 3.78378
# Velocity P-wave (km/s) = 7.35766 7.55747 7.45823
#
# Compressibility (1/GPa) = 0.01876901
#
# Stress axis : x y z
#
# Youngs Moduli (GPa) = 79.20578 50.93812 45.49793
#
# Poissons Ratio (x) = 0.25923 0.18557
# Poissons Ratio (y) = 0.40308 0.38973
# Poissons Ratio (z) = 0.32306 0.43633
#
# Static dielectric constant tensor:
#      x y z
#    x 2.860900 0.000000 -0.110650 
#    y 0.000000 2.973170 0.000000 
#    z -0.110650 0.000000 2.687900 
# 
# 
# High freq. dielectric constant tensor:
#      x y z
#    x 1.552870 0.000000 -0.013230 
#    y 0.000000 1.582970 0.000000 
#    z -0.013230 0.000000 1.547710 
# 
# From -- ./inp_files/58780.got.cif
#   From: 2010.06.25/outbox.cif.g09.slc.cpg/sg11_30_cif.got.tgz:58780.got - 2010.06.27 23:14:04.
