data_PCOD8072440
_publ_section_title
;
Structure prediction by ZEFSAII (Michael W. Deem and Ramdas Pophale) SiO2 
 PCOD8072440
Probable space group: P 21/M
;
_chemical_formula_sum "Si O2"
_cell_formula_units_Z 28
_cell_length_a 15.804963
_cell_length_b 9.056966
_cell_length_c 23.672493
_cell_angle_alpha 90.000000
_cell_angle_beta 26.478213
_cell_angle_gamma 90.000000
_cell_volume 1510.832340
_symmetry_space_group_name_H-M "P 21/M"
_symmetry_group_IT_number 11
_symmetry_cell_setting 'monoclinic'
loop_
_space_group_symop_operation_xyz
x,y,z
-x,1/2+y,-z
-x,-y,-z
x,1/2-y,z
loop_
_atom_site_type_symbol
_atom_site_label
_atom_site_fract_x
_atom_site_fract_y
_atom_site_fract_z
Si Si1 0.226583 0.075480 0.063259
Si Si2 0.951571 0.924180 0.715421
Si Si3 0.312347 0.578960 0.434436
Si Si4 0.384118 0.420063 0.163137
Si Si5 0.733818 0.918731 0.179344
Si Si6 0.106090 0.577833 0.020857
Si Si7 0.195007 0.080788 0.394611
O O1 0.237016 0.250000 0.049043
O O2 0.082640 0.028620 0.199485
O O3 0.432160 0.017772 0.958681
O O4 0.150403 0.004107 0.052004
O O5 0.947517 0.750000 0.712061
O O6 0.786522 0.985879 0.772988
O O7 0.157728 0.983083 0.571629
O O8 0.270657 0.750000 0.445999
O O9 0.525452 0.556517 0.331041
O O10 0.303023 0.490689 0.382116
O O11 0.427392 0.250000 0.121692
O O12 0.333069 0.435703 0.259088
O O13 0.760618 0.750000 0.143019
O O14 0.758164 0.021675 0.110218
O O15 0.887663 0.957070 0.135412
O O16 0.145707 0.750000 0.006037
O O17 0.148837 0.250000 0.435381
O O18 0.000000 0.000000 0.500000
#
# Coordination Sequence:
#
# PCOD8072440 Si02
#       7
#     4   4   4   4   4   4   4
#     4  11  22  35  54  78 104 141 185 220 258 313
#     4   9  19  36  54  74 105 143 179 218 265 311
#     4  10  19  36  57  78 107 139 175 218 265 316
#     4  10  20  36  55  76 105 141 178 221 271 310
#     4   9  19  35  60  86 105 134 174 215 265 321
#     4  10  20  36  56  81 112 138 168 218 270 313
#     4  11  21  33  52  78 108 139 172 212 261 313
#
# _framework density 18.532831000000002
#
# number of rings (size 3 to 8) (size 9 to 14) (size 15 to 20)
#    0.000    2.000    1.429    2.571    0.000    4.571 
#    0.000    2.857    0.000    0.000    0.000    0.000 
#    0.000    0.000    0.000    0.000    0.000    0.000 
#
# Total GULP energy -347219.939625 kJ/mol
# GULP energy per Si atom -12400.712129 kJ/mol
# Density = 1.849065 g / cm^3
# Si number density = 18.532831 Si / 1000 Ang^3
#
#
#
# Elastic Constant Matrix: (Units=GPa)
#
#
# Indices 1 2 3 4 5 6 
#
# 1 94.9823 35.3724 70.9862 0.0000 -4.8115 0.0000
# 2 35.3724 75.7077 48.4345 0.0000 0.5892 0.0000
# 3 70.9862 48.4345 134.1538 0.0000 -9.8525 0.0000
# 4 0.0000 0.0000 0.0000 22.8664 0.0000 -2.0484
# 5 -4.8115 0.5892 -9.8525 0.0000 27.2733 0.0000
# 6 0.0000 0.0000 0.0000 -2.0484 0.0000 23.4244
#
#
#
# Elastic Compliance Matrix: (Units=1/GPa)
#
#
# Indices 1 2 3 4 5 6 
#
# 1 0.017925 -0.003014 -0.008382 0.000000 0.000199 0.000000
# 2 -0.003014 0.017876 -0.005061 0.000000 -0.002746 0.000000
# 3 -0.008382 -0.005061 0.013987 0.000000 0.003683 0.000000
# 4 0.000000 0.000000 0.000000 0.044078 0.000000 0.003855
# 5 0.000199 -0.002746 0.003683 0.000000 0.038091 0.000000
# 6 0.000000 0.000000 0.000000 0.003855 0.000000 0.043028
#
#
# Mechanical properties :
#
#
# Convention : Reuss Voigt Hill
#
# Bulk Modulus (GPa) = 59.26122 68.27000 63.76561
# Shear Modulus (GPa) = 23.41663 24.71620 24.06641
#
# Velocity S-wave (km/s) = 3.55846 3.65587 3.60749
# Velocity P-wave (km/s) = 6.99495 7.39850 7.19955
#
# Compressibility (1/GPa) = 0.01687444
#
# Stress axis : x y z
#
# Youngs Moduli (GPa) = 55.78669 55.94116 71.49447
#
# Poissons Ratio (x) = 0.16862 0.59928
# Poissons Ratio (y) = 0.16815 0.36181
# Poissons Ratio (z) = 0.46762 0.28310
#
# Static dielectric constant tensor:
#      x y z
#    x 3.582550 0.000000 -0.055790 
#    y 0.000000 3.428770 0.000000 
#    z -0.055790 0.000000 3.637910 
# 
# 
# High freq. dielectric constant tensor:
#      x y z
#    x 1.713730 0.000000 -0.007980 
#    y 0.000000 1.711070 0.000000 
#    z -0.007980 0.000000 1.724060 
# 
# From -- ./inp_files/37682.got.cif
#   From: 2010.06.25/outbox.cif.g09.slc.cpg/sg11_19_cif.got.tgz:37682.got - 2010.06.27 23:14:04.
