data_PCOD8072370
_publ_section_title
;
Structure prediction by ZEFSAII (Michael W. Deem and Ramdas Pophale) SiO2 
 PCOD8072370
Probable space group: P 21/M
;
_chemical_formula_sum "Si O2"
_cell_formula_units_Z 28
_cell_length_a 8.256273
_cell_length_b 16.692044
_cell_length_c 19.843260
_cell_angle_alpha 90.000000
_cell_angle_beta 149.043651
_cell_angle_gamma 90.000000
_cell_volume 1406.678309
_symmetry_space_group_name_H-M "P 21/M"
_symmetry_group_IT_number 11
_symmetry_cell_setting 'monoclinic'
loop_
_space_group_symop_operation_xyz
x,y,z
-x,1/2+y,-z
-x,-y,-z
x,1/2-y,z
loop_
_atom_site_type_symbol
_atom_site_label
_atom_site_fract_x
_atom_site_fract_y
_atom_site_fract_z
Si Si1 0.612213 0.561178 0.326457
Si Si2 0.647825 0.995600 0.896835
Si Si3 0.361303 0.661003 0.856305
Si Si4 0.713097 0.890234 0.568104
Si Si5 0.240256 0.659163 0.284532
Si Si6 0.435530 0.084627 0.944052
Si Si7 0.258016 0.958473 0.504241
O O1 0.543257 0.505030 0.239334
O O2 0.385025 0.636372 0.262000
O O3 0.558908 0.507627 0.373654
O O4 0.972014 0.587780 0.439863
O O5 0.584069 0.908049 0.905419
O O6 0.566543 0.072673 0.915097
O O7 0.000000 0.000000 0.000000
O O8 0.495854 0.750000 0.888810
O O9 0.014297 0.659049 0.700326
O O10 0.370769 0.648954 0.941490
O O11 0.518061 0.847404 0.439134
O O12 0.488291 0.893989 0.553343
O O13 0.837642 0.978065 0.589114
O O14 0.122623 0.750000 0.238700
O O15 0.936668 0.604922 0.193271
O O16 0.500000 0.000000 0.000000
#
# Coordination Sequence:
#
# PCOD8072370 Si02
#       7
#     4   4   4   4   4   4   4
#     4  10  19  35  59  92 119 159 201 249 305 360
#     4  11  23  39  64  90 117 158 210 253 303 369
#     4  11  23  41  63  91 125 162 202 258 318 364
#     4  10  20  36  65  89 124 158 212 250 306 367
#     4  11  23  40  62  91 127 167 206 256 315 369
#     4  10  23  40  63  87 115 160 213 251 293 369
#     4   9  19  33  60  91 120 157 204 254 293 362
#
# _framework density 19.905049000000002
#
# number of rings (size 3 to 8) (size 9 to 14) (size 15 to 20)
#    0.000    1.714    1.429    3.429   12.000    0.000 
#    0.000    5.714    0.000    0.000    0.000    0.000 
#    0.000    0.000    0.000    0.000    0.000    0.000 
#
# Total GULP energy -346911.136993 kJ/mol
# GULP energy per Si atom -12389.683464 kJ/mol
# Density = 1.985974 g / cm^3
# Si number density = 19.905049 Si / 1000 Ang^3
#
#
#
# Elastic Constant Matrix: (Units=GPa)
#
#
# Indices 1 2 3 4 5 6 
#
# 1 135.9727 52.5743 34.9377 0.0000 5.5259 0.0000
# 2 52.5743 105.3222 35.0850 0.0000 9.6543 0.0000
# 3 34.9377 35.0850 101.7972 0.0000 4.5240 0.0000
# 4 0.0000 0.0000 0.0000 20.2812 0.0000 3.3852
# 5 5.5259 9.6543 4.5240 0.0000 34.7172 0.0000
# 6 0.0000 0.0000 0.0000 3.3852 0.0000 19.2030
#
#
#
# Elastic Compliance Matrix: (Units=1/GPa)
#
#
# Indices 1 2 3 4 5 6 
#
# 1 0.009403 -0.004077 -0.001816 0.000000 -0.000126 0.000000
# 2 -0.004077 0.012717 -0.002872 0.000000 -0.002513 0.000000
# 3 -0.001816 -0.002872 0.011455 0.000000 -0.000405 0.000000
# 4 0.000000 0.000000 0.000000 0.050802 0.000000 -0.008956
# 5 -0.000126 -0.002513 -0.000405 0.000000 0.029576 0.000000
# 6 0.000000 0.000000 0.000000 -0.008956 0.000000 0.053654
#
#
# Mechanical properties :
#
#
# Convention : Reuss Voigt Hill
#
# Bulk Modulus (GPa) = 62.33002 65.36513 63.84757
# Shear Modulus (GPa) = 26.24890 29.53994 27.89442
#
# Velocity S-wave (km/s) = 3.63534 3.85651 3.74755
# Velocity P-wave (km/s) = 7.00018 7.26223 7.13241
#
# Compressibility (1/GPa) = 0.01604363
#
# Stress axis : x y z
#
# Youngs Moduli (GPa) = 106.35361 78.63565 87.30059
#
# Poissons Ratio (x) = 0.32059 0.15856
# Poissons Ratio (y) = 0.43360 0.25073
# Poissons Ratio (z) = 0.19317 0.22584
#
# Static dielectric constant tensor:
#      x y z
#    x 3.940250 0.000000 -0.417240 
#    y 0.000000 3.557650 0.000000 
#    z -0.417240 0.000000 3.545570 
# 
# 
# High freq. dielectric constant tensor:
#      x y z
#    x 1.779520 0.000000 -0.004070 
#    y 0.000000 1.743770 0.000000 
#    z -0.004070 0.000000 1.789200 
# 
# From -- ./inp_files/47979.got.cif
#   From: 2010.06.25/outbox.cif.g09.slc.cpg/sg11_24_cif.got.tgz:47979.got - 2010.06.27 23:14:04.
