data_PCOD8072824
_publ_section_title
;
Structure prediction by ZEFSAII (Michael W. Deem and Ramdas Pophale) SiO2 
 PCOD8072824
Probable space group: P 21/M
;
_chemical_formula_sum "Si O2"
_cell_formula_units_Z 28
_cell_length_a 17.622851
_cell_length_b 8.792004
_cell_length_c 20.147662
_cell_angle_alpha 90.000000
_cell_angle_beta 29.025171
_cell_angle_gamma 90.000000
_cell_volume 1514.620927
_symmetry_space_group_name_H-M "P 21/M"
_symmetry_group_IT_number 11
_symmetry_cell_setting 'monoclinic'
loop_
_space_group_symop_operation_xyz
x,y,z
-x,1/2+y,-z
-x,-y,-z
x,1/2-y,z
loop_
_atom_site_type_symbol
_atom_site_label
_atom_site_fract_x
_atom_site_fract_y
_atom_site_fract_z
Si Si1 0.532497 0.571784 0.375365
Si Si2 0.736485 0.929808 0.340153
Si Si3 0.858074 0.569158 0.650243
Si Si4 0.615900 0.070974 0.174839
Si Si5 0.795165 0.069210 0.836771
Si Si6 0.933389 0.070235 0.868555
Si Si7 0.524338 0.570493 0.855838
O O1 0.506424 0.750000 0.401576
O O2 0.374503 0.489456 0.517181
O O3 0.674252 0.518416 0.315358
O O4 0.565856 0.527237 0.275203
O O5 0.742453 0.750000 0.340885
O O6 0.907834 0.000682 0.222775
O O7 0.867355 0.750000 0.638179
O O8 0.868609 0.516811 0.718117
O O9 0.692476 0.504905 0.748953
O O10 0.000000 0.500000 0.500000
O O11 0.603255 0.250000 0.200057
O O12 0.506048 0.023908 0.197131
O O13 0.792011 0.019582 0.023823
O O14 0.800719 0.250000 0.820812
O O15 0.903300 0.018236 0.815943
O O16 0.616774 0.013047 0.988359
O O17 0.941561 0.250000 0.862161
O O18 0.524063 0.750000 0.861319
#
# Coordination Sequence:
#
# PCOD8072824 Si02
#       7
#     4   4   4   4   4   4   4
#     4  10  20  32  47  72 103 131 162 201 243 286
#     4   9  18  34  52  69  95 133 169 198 237 291
#     4  11  22  35  50  73 103 132 163 198 240 288
#     4   9  17  33  55  75  95 125 165 202 240 289
#     4   9  17  34  57  77  96 122 161 206 247 286
#     4   8  16  32  55  77  95 123 165 204 238 288
#     4   8  17  34  55  74  95 128 166 199 236 292
#
# _framework density 18.486474000000001
#
# number of rings (size 3 to 8) (size 9 to 14) (size 15 to 20)
#    0.000    2.857    0.000    3.000    0.000    2.286 
#    0.000   12.143    0.000    0.000    0.000    0.000 
#    0.000    0.000    0.000    0.000    0.000    0.000 
#
# Total GULP energy -347092.469753 kJ/mol
# GULP energy per Si atom -12396.159634 kJ/mol
# Density = 1.844440 g / cm^3
# Si number density = 18.486474 Si / 1000 Ang^3
#
#
#
# Elastic Constant Matrix: (Units=GPa)
#
#
# Indices 1 2 3 4 5 6 
#
# 1 53.5965 6.4907 22.1556 0.0000 12.4889 0.0000
# 2 6.4907 17.6243 10.4669 0.0000 -1.2105 0.0000
# 3 22.1556 10.4669 66.3289 0.0000 14.4060 0.0000
# 4 0.0000 0.0000 0.0000 24.6707 0.0000 5.7312
# 5 12.4889 -1.2105 14.4060 0.0000 34.3073 0.0000
# 6 0.0000 0.0000 0.0000 5.7312 0.0000 26.4206
#
#
#
# Elastic Compliance Matrix: (Units=1/GPa)
#
#
# Indices 1 2 3 4 5 6 
#
# 1 0.023066 -0.005702 -0.005433 0.000000 -0.006317 0.000000
# 2 -0.005702 0.065581 -0.010341 0.000000 0.008732 0.000000
# 3 -0.005433 -0.010341 0.019996 0.000000 -0.006784 0.000000
# 4 0.000000 0.000000 0.000000 0.042685 0.000000 -0.009259
# 5 -0.006317 0.008732 -0.006784 0.000000 0.034604 0.000000
# 6 0.000000 0.000000 0.000000 -0.009259 0.000000 0.039858
#
#
# Mechanical properties :
#
#
# Convention : Reuss Voigt Hill
#
# Bulk Modulus (GPa) = 15.22262 23.97511 19.59887
# Shear Modulus (GPa) = 17.20347 23.64217 20.42282
#
# Velocity S-wave (km/s) = 3.05388 3.58004 3.32737
# Velocity P-wave (km/s) = 4.54832 5.48507 5.03852
#
# Compressibility (1/GPa) = 0.06569171
#
# Stress axis : x y z
#
# Youngs Moduli (GPa) = 43.35334 15.24838 50.00927
#
# Poissons Ratio (x) = 0.08695 0.27170
# Poissons Ratio (y) = 0.24721 0.51713
# Poissons Ratio (z) = 0.23554 0.15768
#
# Static dielectric constant tensor:
#      x y z
#    x 3.991170 0.000000 -0.614080 
#    y 0.000000 3.047880 0.000000 
#    z -0.614080 0.000000 3.950350 
# 
# 
# High freq. dielectric constant tensor:
#      x y z
#    x 1.727000 0.000000 -0.001780 
#    y 0.000000 1.686660 0.000000 
#    z -0.001780 0.000000 1.718850 
# 
# From -- ./inp_files/65988.got.cif
#   From: 2010.06.25/outbox.cif.g09.slc.cpg/sg11_33_cif.got.tgz:65988.got - 2010.06.27 23:14:04.
