data_PCOD8072246
_publ_section_title
;
Structure prediction by ZEFSAII (Michael W. Deem and Ramdas Pophale) SiO2 
 PCOD8072246
Probable space group: P 21/M
;
_chemical_formula_sum "Si O2"
_cell_formula_units_Z 28
_cell_length_a 9.471138
_cell_length_b 13.840193
_cell_length_c 11.809760
_cell_angle_alpha 90.000000
_cell_angle_beta 71.690964
_cell_angle_gamma 90.000000
_cell_volume 1469.682785
_symmetry_space_group_name_H-M "P 21/M"
_symmetry_group_IT_number 11
_symmetry_cell_setting 'monoclinic'
loop_
_space_group_symop_operation_xyz
x,y,z
-x,1/2+y,-z
-x,-y,-z
x,1/2-y,z
loop_
_atom_site_type_symbol
_atom_site_label
_atom_site_fract_x
_atom_site_fract_y
_atom_site_fract_z
Si Si1 0.423955 0.860770 0.962428
Si Si2 0.757544 0.359562 0.210122
Si Si3 0.670183 0.017679 0.430558
Si Si4 0.862866 0.061414 0.579894
Si Si5 0.021631 0.014272 0.124454
Si Si6 0.090380 0.140344 0.675894
Si Si7 0.315679 0.008169 0.162809
O O1 0.459591 0.750000 0.980502
O O2 0.285890 0.871592 0.910834
O O3 0.564030 0.907062 0.862287
O O4 0.389955 0.911198 0.091413
O O5 0.739057 0.250000 0.255143
O O6 0.658365 0.428357 0.313849
O O7 0.925949 0.393712 0.187972
O O8 0.762333 0.916484 0.404641
O O9 0.500000 0.000000 0.500000
O O10 0.753831 0.087307 0.502267
O O11 0.952223 0.147549 0.620509
O O12 0.755672 0.006567 0.696034
O O13 0.000000 0.000000 0.500000
O O14 0.189855 0.042719 0.107479
O O15 0.972830 0.915561 0.199137
O O16 0.000000 0.000000 0.000000
O O17 0.136220 0.250000 0.695494
#
# Coordination Sequence:
#
# PCOD8072246 Si02
#       7
#     4   4   4   4   4   4   4
#     4  10  21  37  57  82 112 148 187 228 283 347
#     4  10  21  36  55  82 112 147 187 232 284 339
#     4  10  20  36  59  82 118 151 189 233 290 335
#     4   9  19  37  57  82 110 151 191 233 281 338
#     4  10  19  35  57  81 109 145 180 233 286 330
#     4   9  20  36  56  82 112 148 194 234 281 337
#     4  10  20  36  60  80 114 147 188 230 285 335
#
# _framework density 19.051729000000002
#
# number of rings (size 3 to 8) (size 9 to 14) (size 15 to 20)
#    0.000    2.286    1.429    1.714    0.000    4.571 
#    0.000    4.286    0.000    0.000    0.000    0.000 
#    0.000    0.000    0.000    0.000    0.000    0.000 
#
# Total GULP energy -346943.474796 kJ/mol
# GULP energy per Si atom -12390.838386 kJ/mol
# Density = 1.900837 g / cm^3
# Si number density = 19.051729 Si / 1000 Ang^3
#
#
#
# Elastic Constant Matrix: (Units=GPa)
#
#
# Indices 1 2 3 4 5 6 
#
# 1 88.8148 36.9090 17.4474 0.0000 -9.9035 0.0000
# 2 36.9090 111.9550 23.5522 0.0000 -6.4018 0.0000
# 3 17.4474 23.5522 88.3708 0.0000 -7.0999 0.0000
# 4 0.0000 0.0000 0.0000 11.3847 0.0000 5.1753
# 5 -9.9035 -6.4018 -7.0999 0.0000 38.2177 0.0000
# 6 0.0000 0.0000 0.0000 5.1753 0.0000 20.9026
#
#
#
# Elastic Compliance Matrix: (Units=1/GPa)
#
#
# Indices 1 2 3 4 5 6 
#
# 1 0.013483 -0.004006 -0.001388 0.000000 0.002565 0.000000
# 2 -0.004006 0.010702 -0.002031 0.000000 0.000377 0.000000
# 3 -0.001388 -0.002031 0.012258 0.000000 0.001577 0.000000
# 4 0.000000 0.000000 0.000000 0.098977 0.000000 -0.024506
# 5 0.002565 0.000377 0.001577 0.000000 0.027187 0.000000
# 6 0.000000 0.000000 0.000000 -0.024506 0.000000 0.053908
#
#
# Mechanical properties :
#
#
# Convention : Reuss Voigt Hill
#
# Bulk Modulus (GPa) = 46.31352 49.43975 47.87663
# Shear Modulus (GPa) = 20.95882 28.18315 24.57099
#
# Velocity S-wave (km/s) = 3.32038 3.85033 3.59513
# Velocity P-wave (km/s) = 6.24996 6.76560 6.51289
#
# Compressibility (1/GPa) = 0.02159197
#
# Stress axis : x y z
#
# Youngs Moduli (GPa) = 74.16737 93.44244 81.57924
#
# Poissons Ratio (x) = 0.37436 0.11325
# Poissons Ratio (y) = 0.29714 0.16568
# Poissons Ratio (z) = 0.10296 0.18977
#
# Static dielectric constant tensor:
#      x y z
#    x 3.880520 0.000000 0.027980 
#    y 0.000000 3.416820 0.000000 
#    z 0.027980 0.000000 3.689320 
# 
# 
# High freq. dielectric constant tensor:
#      x y z
#    x 1.749510 0.000000 -0.003220 
#    y 0.000000 1.712060 0.000000 
#    z -0.003220 0.000000 1.751300 
# 
# From -- ./inp_files/17711.got.cif
#   From: 2010.06.25/outbox.cif.g09.slc.cpg/sg11_9_cif.got.tgz:17711.got - 2010.06.27 23:14:04.
