data_PCOD8072373
_publ_section_title
;
Structure prediction by ZEFSAII (Michael W. Deem and Ramdas Pophale) SiO2 
 PCOD8072373
Probable space group: P 21/M
;
_chemical_formula_sum "Si O2"
_cell_formula_units_Z 28
_cell_length_a 9.565110
_cell_length_b 17.223379
_cell_length_c 15.467578
_cell_angle_alpha 90.000000
_cell_angle_beta 145.152250
_cell_angle_gamma 90.000000
_cell_volume 1456.026027
_symmetry_space_group_name_H-M "P 21/M"
_symmetry_group_IT_number 11
_symmetry_cell_setting 'monoclinic'
loop_
_space_group_symop_operation_xyz
x,y,z
-x,1/2+y,-z
-x,-y,-z
x,1/2-y,z
loop_
_atom_site_type_symbol
_atom_site_label
_atom_site_fract_x
_atom_site_fract_y
_atom_site_fract_z
Si Si1 0.880266 0.939419 0.065311
Si Si2 0.701572 0.441241 0.842734
Si Si3 0.565964 0.336480 0.332823
Si Si4 0.792993 0.499167 0.466703
Si Si5 0.540532 0.164423 0.123884
Si Si6 0.972726 0.662148 0.877463
Si Si7 0.933874 0.063151 0.231929
O O1 0.163775 0.931005 0.181966
O O2 0.847546 0.988662 0.135176
O O3 0.746246 0.858667 0.018201
O O4 0.753130 0.976898 0.915833
O O5 0.415080 0.443068 0.676304
O O6 0.792906 0.373518 0.953387
O O7 0.635418 0.250000 0.407673
O O8 0.703537 0.410914 0.444524
O O9 0.646836 0.335434 0.274348
O O10 0.273268 0.347585 0.191817
O O11 0.000000 0.500000 0.500000
O O12 0.883224 0.537814 0.600418
O O13 0.560425 0.250000 0.092497
O O14 0.690229 0.103122 0.144132
O O15 0.042482 0.750000 0.894700
O O16 0.926105 0.621269 0.761721
#
# Coordination Sequence:
#
# PCOD8072373 Si02
#       7
#     4   4   4   4   4   4   4
#     4  10  19  36  58  88 109 147 198 251 289 337
#     4  10  19  35  60  84 114 150 199 240 289 348
#     4  10  20  37  63  83 111 157 201 241 293 356
#     4  12  22  39  57  88 123 161 199 237 294 360
#     4  11  20  36  60  85 112 152 200 243 295 351
#     4  10  21  40  63  90 118 151 199 253 300 344
#     4  11  23  35  59  89 125 154 191 245 297 352
#
# _framework density 19.230423999999999
#
# number of rings (size 3 to 8) (size 9 to 14) (size 15 to 20)
#    0.000    1.429    4.286    2.571    0.000    3.429 
#    0.000    2.857    0.000    0.000    0.000    0.000 
#    0.000    0.000    0.000    0.000    0.000    0.000 
#
# Total GULP energy -347034.439356 kJ/mol
# GULP energy per Si atom -12394.087120 kJ/mol
# Density = 1.918665 g / cm^3
# Si number density = 19.230424 Si / 1000 Ang^3
#
#
#
# Elastic Constant Matrix: (Units=GPa)
#
#
# Indices 1 2 3 4 5 6 
#
# 1 99.1752 34.3977 55.1786 0.0000 -2.1739 0.0000
# 2 34.3977 129.0160 59.2290 0.0000 -3.5334 0.0000
# 3 55.1786 59.2290 98.1668 0.0000 5.1679 0.0000
# 4 0.0000 0.0000 0.0000 23.5821 0.0000 0.3955
# 5 -2.1739 -3.5334 5.1679 0.0000 30.2484 0.0000
# 6 0.0000 0.0000 0.0000 0.3955 0.0000 22.8439
#
#
#
# Elastic Compliance Matrix: (Units=1/GPa)
#
#
# Indices 1 2 3 4 5 6 
#
# 1 0.014859 0.000003 -0.008487 0.000000 0.002518 0.000000
# 2 0.000003 0.010893 -0.006701 0.000000 0.002418 0.000000
# 3 -0.008487 -0.006701 0.019247 0.000000 -0.004681 0.000000
# 4 0.000000 0.000000 0.000000 0.042417 0.000000 -0.000734
# 5 0.002518 0.002418 -0.004681 0.000000 0.034323 0.000000
# 6 0.000000 0.000000 0.000000 -0.000734 0.000000 0.043788
#
#
# Mechanical properties :
#
#
# Convention : Reuss Voigt Hill
#
# Bulk Modulus (GPa) = 68.35652 69.32985 68.84318
# Shear Modulus (GPa) = 24.90386 27.17174 26.03780
#
# Velocity S-wave (km/s) = 3.60255 3.76301 3.68365
# Velocity P-wave (km/s) = 7.27514 7.41692 7.34637
#
# Compressibility (1/GPa) = 0.01462918
#
# Stress axis : x y z
#
# Youngs Moduli (GPa) = 67.29942 91.80425 51.95689
#
# Poissons Ratio (x) = -0.00031 0.44094
# Poissons Ratio (y) = -0.00023 0.34818
# Poissons Ratio (z) = 0.57115 0.61521
#
# Static dielectric constant tensor:
#      x y z
#    x 3.666620 0.000000 -0.008870 
#    y 0.000000 3.743900 0.000000 
#    z -0.008870 0.000000 3.182100 
# 
# 
# High freq. dielectric constant tensor:
#      x y z
#    x 1.762550 0.000000 0.001310 
#    y 0.000000 1.752960 0.000000 
#    z 0.001310 0.000000 1.710700 
# 
# From -- ./inp_files/48017.got.cif
#   From: 2010.06.25/outbox.cif.g09.slc.cpg/sg11_25_cif.got.tgz:48017.got - 2010.06.27 23:14:04.
