data_PCOD8072737
_publ_section_title
;
Structure prediction by ZEFSAII (Michael W. Deem and Ramdas Pophale) SiO2 
 PCOD8072737
Probable space group: P 21/M
;
_chemical_formula_sum "Si O2"
_cell_formula_units_Z 32
_cell_length_a 21.571189
_cell_length_b 13.088652
_cell_length_c 10.869780
_cell_angle_alpha 90.000000
_cell_angle_beta 31.456257
_cell_angle_gamma 90.000000
_cell_volume 1601.523553
_symmetry_space_group_name_H-M "P 21/M"
_symmetry_group_IT_number 11
_symmetry_cell_setting 'monoclinic'
loop_
_space_group_symop_operation_xyz
x,y,z
-x,1/2+y,-z
-x,-y,-z
x,1/2-y,z
loop_
_atom_site_type_symbol
_atom_site_label
_atom_site_fract_x
_atom_site_fract_y
_atom_site_fract_z
Si Si1 0.365251 0.366191 0.583597
Si Si2 0.998931 0.461853 0.805694
Si Si3 0.791392 0.512288 0.976278
Si Si4 0.167064 0.365747 0.322791
Si Si5 0.348434 0.515641 0.392164
Si Si6 0.109889 0.868741 0.774933
Si Si7 0.613431 0.541242 0.944469
Si Si8 0.636930 0.134041 0.086997
O O1 0.323138 0.250000 0.633905
O O2 0.321783 0.430546 0.539672
O O3 0.505960 0.372005 0.366012
O O4 0.307020 0.409741 0.805951
O O5 0.878689 0.481381 0.936475
O O6 0.092171 0.402681 0.565003
O O7 0.056939 0.568832 0.749380
O O8 0.970890 0.390671 0.969540
O O9 0.864473 0.567376 0.743617
O O10 0.727974 0.410627 0.032890
O O11 0.135474 0.250000 0.345692
O O12 0.306990 0.376526 0.117974
O O13 0.246073 0.600134 0.570026
O O14 0.352431 0.456708 0.256027
O O15 0.475503 0.570717 0.199198
O O16 0.104358 0.750000 0.750635
O O17 0.640919 0.428349 0.952362
O O18 0.674103 0.250000 0.993920
#
# Coordination Sequence:
#
# PCOD8072737 Si02
#       8
#     4   4   4   4   4   4   4   4
#     4  10  20  37  61  90 123 160 200 247 304 361
#     4  11  24  45  60  88 124 159 203 251 299 356
#     4  11  22  40  62  86 120 156 209 252 291 355
#     4  11  23  40  61  88 121 160 201 246 301 358
#     4  10  19  40  61  92 122 156 198 249 302 361
#     4  11  24  42  66  91 120 159 202 253 304 356
#     4   9  20  37  63  89 127 154 194 250 301 364
#     4   9  20  37  61  90 123 162 197 244 308 360
#
# _framework density 19.980975000000001
#
# number of rings (size 3 to 8) (size 9 to 14) (size 15 to 20)
#    0.000    1.750    2.500    1.500    0.000    3.500 
#    0.000    2.500    0.000    0.000    0.000    0.000 
#    0.000    0.000    0.000    0.000    0.000    0.000 
#
# Total GULP energy -396913.408917 kJ/mol
# GULP energy per Si atom -12403.544029 kJ/mol
# Density = 1.993550 g / cm^3
# Si number density = 19.980975 Si / 1000 Ang^3
#
#
#
# Elastic Constant Matrix: (Units=GPa)
#
#
# Indices 1 2 3 4 5 6 
#
# 1 76.0072 38.1986 21.2499 0.0000 -10.1311 0.0000
# 2 38.1986 112.3666 28.1245 0.0000 -13.7454 0.0000
# 3 21.2499 28.1245 76.7986 0.0000 2.5265 0.0000
# 4 0.0000 0.0000 0.0000 18.3006 0.0000 3.1260
# 5 -10.1311 -13.7454 2.5265 0.0000 29.0573 0.0000
# 6 0.0000 0.0000 0.0000 3.1260 0.0000 21.0929
#
#
#
# Elastic Compliance Matrix: (Units=1/GPa)
#
#
# Indices 1 2 3 4 5 6 
#
# 1 0.016804 -0.004427 -0.003161 0.000000 0.004039 0.000000
# 2 -0.004427 0.011733 -0.003213 0.000000 0.004286 0.000000
# 3 -0.003161 -0.003213 0.015202 0.000000 -0.003944 0.000000
# 4 0.000000 0.000000 0.000000 0.056062 0.000000 -0.008309
# 5 0.004039 0.004286 -0.003944 0.000000 0.038194 0.000000
# 6 0.000000 0.000000 0.000000 -0.008309 0.000000 0.048641
#
#
# Mechanical properties :
#
#
# Convention : Reuss Voigt Hill
#
# Bulk Modulus (GPa) = 45.17392 48.92428 47.04910
# Shear Modulus (GPa) = 23.18939 25.53011 24.35975
#
# Velocity S-wave (km/s) = 3.41042 3.57840 3.49542
# Velocity P-wave (km/s) = 6.17782 6.45073 6.31575
#
# Compressibility (1/GPa) = 0.02213667
#
# Stress axis : x y z
#
# Youngs Moduli (GPa) = 59.51055 85.23111 65.78064
#
# Poissons Ratio (x) = 0.37732 0.20795
# Poissons Ratio (y) = 0.26345 0.21134
# Poissons Ratio (z) = 0.18813 0.27383
#
# Static dielectric constant tensor:
#      x y z
#    x 3.658300 0.000000 -0.023930 
#    y 0.000000 3.486810 0.000000 
#    z -0.023930 0.000000 3.801980 
# 
# 
# High freq. dielectric constant tensor:
#      x y z
#    x 1.784790 0.000000 0.001780 
#    y 0.000000 1.763930 0.000000 
#    z 0.001780 0.000000 1.791660 
# 
# From -- ./inp_files/44194.got.cif
#   From: 2010.06.25/outbox.cif.g09.slc.cpg/sg11_23_cif.got.tgz:44194.got - 2010.06.27 23:14:04.
