data_PCOD8072658
_publ_section_title
;
Structure prediction by ZEFSAII (Michael W. Deem and Ramdas Pophale) SiO2 
 PCOD8072658
Probable space group: P 21/M
;
_chemical_formula_sum "Si O2"
_cell_formula_units_Z 32
_cell_length_a 11.840158
_cell_length_b 18.277370
_cell_length_c 9.463473
_cell_angle_alpha 90.000000
_cell_angle_beta 126.492566
_cell_angle_gamma 90.000000
_cell_volume 1646.425795
_symmetry_space_group_name_H-M "P 21/M"
_symmetry_group_IT_number 11
_symmetry_cell_setting 'monoclinic'
loop_
_space_group_symop_operation_xyz
x,y,z
-x,1/2+y,-z
-x,-y,-z
x,1/2-y,z
loop_
_atom_site_type_symbol
_atom_site_label
_atom_site_fract_x
_atom_site_fract_y
_atom_site_fract_z
Si Si1 0.374734 0.337014 0.210487
Si Si2 0.086893 0.918128 0.919583
Si Si3 0.620225 0.663334 0.464931
Si Si4 0.642518 0.336788 0.233428
Si Si5 0.929086 0.166632 0.588064
Si Si6 0.358032 0.662901 0.089737
Si Si7 0.917058 0.666567 0.576316
Si Si8 0.092384 0.085749 0.941595
O O1 0.362254 0.250000 0.196436
O O2 0.390342 0.366177 0.382661
O O3 0.508942 0.365335 0.222548
O O4 0.235629 0.368984 0.034413
O O5 0.034244 0.883528 0.734761
O O6 0.123848 0.002597 0.922948
O O7 0.226353 0.874716 0.069224
O O8 0.964153 0.907771 0.941836
O O9 0.615845 0.750000 0.462874
O O10 0.492831 0.633670 0.275494
O O11 0.763064 0.635785 0.497516
O O12 0.645865 0.250000 0.233240
O O13 0.785154 0.365138 0.413715
O O14 0.631152 0.365063 0.064009
O O15 0.906312 0.250000 0.622363
O O16 0.056700 0.162911 0.571200
O O17 0.971173 0.117338 0.751256
O O18 0.341793 0.750000 0.086664
O O19 0.935303 0.750000 0.645061
#
# Coordination Sequence:
#
# PCOD8072658 Si02
#       8
#     4   4   4   4   4   4   4   4
#     4  10  20  37  58  83 116 149 186 239 289 339
#     4  11  23  41  58  80 117 156 199 238 280 336
#     4   9  19  33  57  88 111 142 190 235 285 336
#     4   9  19  35  57  87 118 142 181 238 291 338
#     4  10  21  37  61  90 113 146 190 237 291 344
#     4  10  20  37  61  85 111 148 191 240 286 338
#     4  10  19  37  63  87 112 146 192 242 287 339
#     4  11  25  39  56  84 118 156 196 236 284 340
#
# _framework density 19.436042
#
# number of rings (size 3 to 8) (size 9 to 14) (size 15 to 20)
#    0.000    2.000    2.500    0.750    3.500    2.000 
#    0.000    2.500    0.000    0.000    0.000    0.000 
#    0.000    0.000    0.000    0.000    0.000    0.000 
#
# Total GULP energy -396872.238629 kJ/mol
# GULP energy per Si atom -12402.257457 kJ/mol
# Density = 1.939180 g / cm^3
# Si number density = 19.436042 Si / 1000 Ang^3
#
#
#
# Elastic Constant Matrix: (Units=GPa)
#
#
# Indices 1 2 3 4 5 6 
#
# 1 94.5506 27.9777 26.0305 0.0000 19.8066 0.0000
# 2 27.9777 54.8370 31.8912 0.0000 3.1274 0.0000
# 3 26.0305 31.8912 117.1948 0.0000 16.7313 0.0000
# 4 0.0000 0.0000 0.0000 7.2549 0.0000 -1.6288
# 5 19.8066 3.1274 16.7313 0.0000 33.0477 0.0000
# 6 0.0000 0.0000 0.0000 -1.6288 0.0000 16.2421
#
#
#
# Elastic Compliance Matrix: (Units=1/GPa)
#
#
# Indices 1 2 3 4 5 6 
#
# 1 0.014253 -0.006692 -0.000232 0.000000 -0.007791 0.000000
# 2 -0.006692 0.024838 -0.005939 0.000000 0.004667 0.000000
# 3 -0.000232 -0.005939 0.010887 0.000000 -0.004811 0.000000
# 4 0.000000 0.000000 0.000000 0.141013 0.000000 0.014141
# 5 -0.007791 0.004667 -0.004811 0.000000 0.036923 0.000000
# 6 0.000000 0.000000 0.000000 0.014141 0.000000 0.062987
#
#
# Mechanical properties :
#
#
# Convention : Reuss Voigt Hill
#
# Bulk Modulus (GPa) = 41.23513 48.70901 44.97207
# Shear Modulus (GPa) = 15.39833 23.35446 19.37639
#
# Velocity S-wave (km/s) = 2.81776 3.47018 3.16085
# Velocity P-wave (km/s) = 5.64342 6.41652 6.04235
#
# Compressibility (1/GPa) = 0.02425116
#
# Stress axis : x y z
#
# Youngs Moduli (GPa) = 70.16224 40.26111 91.85039
#
# Poissons Ratio (x) = 0.26944 0.02134
# Poissons Ratio (y) = 0.46954 0.54548
# Poissons Ratio (z) = 0.01630 0.23910
#
# Static dielectric constant tensor:
#      x y z
#    x 3.689610 0.000000 0.065260 
#    y 0.000000 3.181490 0.000000 
#    z 0.065260 0.000000 3.580600 
# 
# 
# High freq. dielectric constant tensor:
#      x y z
#    x 1.767810 0.000000 0.004490 
#    y 0.000000 1.716900 0.000000 
#    z 0.004490 0.000000 1.761990 
# 
# From -- ./inp_files/19405.got.cif
#   From: 2010.06.25/outbox.cif.g09.slc.cpg/sg11_10_cif.got.tgz:19405.got - 2010.06.27 23:14:04.
