data_PCOD8072566
_publ_section_title
;
Structure prediction by ZEFSAII (Michael W. Deem and Ramdas Pophale) SiO2 
 PCOD8072566
Probable space group: P 21/M
;
_chemical_formula_sum "Si O2"
_cell_formula_units_Z 32
_cell_length_a 25.917150
_cell_length_b 8.961005
_cell_length_c 20.090884
_cell_angle_alpha 90.000000
_cell_angle_beta 21.149497
_cell_angle_gamma 90.000000
_cell_volume 1683.498421
_symmetry_space_group_name_H-M "P 21/M"
_symmetry_group_IT_number 11
_symmetry_cell_setting 'monoclinic'
loop_
_space_group_symop_operation_xyz
x,y,z
-x,1/2+y,-z
-x,-y,-z
x,1/2-y,z
loop_
_atom_site_type_symbol
_atom_site_label
_atom_site_fract_x
_atom_site_fract_y
_atom_site_fract_z
Si Si1 0.333544 0.076879 0.356552
Si Si2 0.633158 0.427108 0.052573
Si Si3 0.152527 0.574662 0.316911
Si Si4 0.645048 0.072477 0.188349
Si Si5 0.647745 0.425522 0.802045
Si Si6 0.869472 0.576652 0.277166
Si Si7 0.331209 0.073286 0.600044
Si Si8 0.170427 0.073287 0.924580
O O1 0.351795 0.250000 0.315432
O O2 0.479810 0.012851 0.212230
O O3 0.204854 0.053132 0.562495
O O4 0.295437 0.984867 0.336632
O O5 0.625611 0.250000 0.061294
O O6 0.664532 0.483712 0.089239
O O7 0.756514 0.486669 0.855231
O O8 0.131730 0.750000 0.335638
O O9 0.233235 0.530745 0.287266
O O10 0.000000 0.500000 0.500000
O O11 0.656563 0.250000 0.179951
O O12 0.492468 0.012573 0.398766
O O13 0.771843 0.999741 0.077617
O O14 0.623110 0.250000 0.828761
O O15 0.500000 0.500000 0.000000
O O16 0.908307 0.750000 0.219067
O O17 0.765439 0.515043 0.344579
O O18 0.009996 0.477715 0.104841
O O19 0.334563 0.250000 0.591851
O O20 0.267247 0.016423 0.746614
O O21 0.175199 0.250000 0.925417
#
# Coordination Sequence:
#
# PCOD8072566 Si02
#       8
#     4   4   4   4   4   4   4   4
#     4  10  19  36  62  87 111 142 190 245 285 327
#     4   9  17  35  61  83 106 141 187 237 277 324
#     4  10  22  39  58  83 115 147 183 226 277 329
#     4  10  19  36  62  84 105 144 197 239 277 336
#     4  11  22  37  60  88 118 151 187 231 280 335
#     4  10  20  37  61  84 107 147 197 236 279 340
#     4   9  18  35  60  84 107 145 194 240 284 335
#     4  11  23  36  51  81 124 153 178 232 294 341
#
# _framework density 19.008037000000002
#
# number of rings (size 3 to 8) (size 9 to 14) (size 15 to 20)
#    0.000    2.000    2.500    1.500    0.000    2.500 
#    0.000    6.875    0.000    0.000    0.000    0.000 
#    0.000    0.000    0.000    0.000    0.000    0.000 
#
# Total GULP energy -396885.111063 kJ/mol
# GULP energy per Si atom -12402.659721 kJ/mol
# Density = 1.896477 g / cm^3
# Si number density = 19.008037 Si / 1000 Ang^3
#
#
#
# Elastic Constant Matrix: (Units=GPa)
#
#
# Indices 1 2 3 4 5 6 
#
# 1 122.4011 35.4805 30.0128 0.0000 6.4358 0.0000
# 2 35.4805 42.0082 23.5711 0.0000 -0.6021 0.0000
# 3 30.0128 23.5711 82.1181 0.0000 -0.5263 0.0000
# 4 0.0000 0.0000 0.0000 30.9274 0.0000 -0.5710
# 5 6.4358 -0.6021 -0.5263 0.0000 36.5904 0.0000
# 6 0.0000 0.0000 0.0000 -0.5710 0.0000 25.3630
#
#
#
# Elastic Compliance Matrix: (Units=1/GPa)
#
#
# Indices 1 2 3 4 5 6 
#
# 1 0.011158 -0.008533 -0.001642 0.000000 -0.002127 0.000000
# 2 -0.008533 0.034905 -0.006888 0.000000 0.001976 0.000000
# 3 -0.001642 -0.006888 0.014757 0.000000 0.000388 0.000000
# 4 0.000000 0.000000 0.000000 0.032347 0.000000 0.000728
# 5 -0.002127 0.001976 0.000388 0.000000 0.027742 0.000000
# 6 0.000000 0.000000 0.000000 0.000728 0.000000 0.039444
#
#
# Mechanical properties :
#
#
# Convention : Reuss Voigt Hill
#
# Bulk Modulus (GPa) = 37.46155 47.18403 42.32279
# Shear Modulus (GPa) = 24.58486 29.07368 26.82927
#
# Velocity S-wave (km/s) = 3.60028 3.91519 3.76103
# Velocity P-wave (km/s) = 6.08553 6.73167 6.41674
#
# Compressibility (1/GPa) = 0.02669404
#
# Stress axis : x y z
#
# Youngs Moduli (GPa) = 89.62315 28.64923 67.76274
#
# Poissons Ratio (x) = 0.24446 0.11129
# Poissons Ratio (y) = 0.76475 0.46673
# Poissons Ratio (z) = 0.14719 0.19733
#
# Static dielectric constant tensor:
#      x y z
#    x 3.807100 0.000000 0.275730 
#    y 0.000000 3.129790 0.000000 
#    z 0.275730 0.000000 3.567540 
# 
# 
# High freq. dielectric constant tensor:
#      x y z
#    x 1.754750 0.000000 0.004720 
#    y 0.000000 1.707800 0.000000 
#    z 0.004720 0.000000 1.746020 
# 
# From -- ./inp_files/66918.got.cif
#   From: 2010.06.25/outbox.cif.g09.slc.cpg/sg11_34_cif.got.tgz:66918.got - 2010.06.27 23:14:04.
