data_PCOD8072609
_publ_section_title
;
Structure prediction by ZEFSAII (Michael W. Deem and Ramdas Pophale) SiO2 
 PCOD8072609
Probable space group: P 21/M
;
_chemical_formula_sum "Si O2"
_cell_formula_units_Z 28
_cell_length_a 27.079663
_cell_length_b 8.548376
_cell_length_c 9.480895
_cell_angle_alpha 90.000000
_cell_angle_beta 41.120432
_cell_angle_gamma 90.000000
_cell_volume 1443.334603
_symmetry_space_group_name_H-M "P 21/M"
_symmetry_group_IT_number 11
_symmetry_cell_setting 'monoclinic'
loop_
_space_group_symop_operation_xyz
x,y,z
-x,1/2+y,-z
-x,-y,-z
x,1/2-y,z
loop_
_atom_site_type_symbol
_atom_site_label
_atom_site_fract_x
_atom_site_fract_y
_atom_site_fract_z
Si Si1 0.571160 0.563645 0.431820
Si Si2 0.182533 0.919499 0.862516
Si Si3 0.264475 0.936641 0.958778
Si Si4 0.693076 0.421468 0.634798
Si Si5 0.561029 0.570389 0.768244
Si Si6 0.794740 0.935872 0.634117
Si Si7 0.082879 0.937603 0.838908
O O1 0.500000 0.500000 0.500000
O O2 0.571859 0.750000 0.423101
O O3 0.560729 0.496438 0.612727
O O4 0.651510 0.503996 0.201377
O O5 0.157174 0.750000 0.976405
O O6 0.237388 0.893656 0.614486
O O7 0.224121 0.006892 0.902929
O O8 0.112050 0.000122 0.931915
O O9 0.271212 0.750000 0.937046
O O10 0.209007 0.992259 0.201533
O O11 0.656047 0.250000 0.746442
O O12 0.639806 0.541930 0.671562
O O13 0.718968 0.502537 0.723029
O O14 0.543967 0.750000 0.788186
O O15 0.500000 0.500000 0.000000
O O16 0.795069 0.750000 0.640035
O O17 0.868777 0.994849 0.394845
O O18 0.085906 0.750000 0.827785
O O19 0.000000 0.000000 0.000000
#
# Coordination Sequence:
#
# PCOD8072609 Si02
#       7
#     4   4   4   4   4   4   4
#     4  11  25  42  59  84 117 158 203 251 304 360
#     4   8  17  34  60  87 113 148 191 235 287 345
#     4  11  21  39  63  87 117 157 199 249 301 356
#     4  10  19  37  60  83 110 148 195 245 294 350
#     4  11  24  39  57  82 113 150 197 248 300 356
#     4  11  23  38  58  89 122 157 196 242 292 352
#     4  10  20  39  64  94 124 157 195 240 292 352
#
# _framework density 19.399521
#
# number of rings (size 3 to 8) (size 9 to 14) (size 15 to 20)
#    0.000    1.714    1.429    4.286    2.000    1.714 
#    0.000    2.857    0.000    0.000    0.000    0.000 
#    0.000    0.000    0.000    0.000    0.000    0.000 
#
# Total GULP energy -346951.577696 kJ/mol
# GULP energy per Si atom -12391.127775 kJ/mol
# Density = 1.935537 g / cm^3
# Si number density = 19.399521 Si / 1000 Ang^3
#
#
#
# Elastic Constant Matrix: (Units=GPa)
#
#
# Indices 1 2 3 4 5 6 
#
# 1 148.6623 33.5149 62.1099 0.0000 -5.6090 0.0000
# 2 33.5149 79.8254 32.3320 0.0000 3.6162 0.0000
# 3 62.1099 32.3320 92.8818 0.0000 4.3672 0.0000
# 4 0.0000 0.0000 0.0000 31.4886 0.0000 -3.6486
# 5 -5.6090 3.6162 4.3672 0.0000 31.3705 0.0000
# 6 0.0000 0.0000 0.0000 -3.6486 0.0000 27.2795
#
#
#
# Elastic Compliance Matrix: (Units=1/GPa)
#
#
# Indices 1 2 3 4 5 6 
#
# 1 0.009754 -0.001777 -0.006035 0.000000 0.002789 0.000000
# 2 -0.001777 0.014937 -0.003941 0.000000 -0.001491 0.000000
# 3 -0.006035 -0.003941 0.016310 0.000000 -0.002895 0.000000
# 4 0.000000 0.000000 0.000000 0.032257 0.000000 0.004314
# 5 0.002789 -0.001491 -0.002895 0.000000 0.032951 0.000000
# 6 0.000000 0.000000 0.000000 0.004314 0.000000 0.037235
#
#
# Mechanical properties :
#
#
# Convention : Reuss Voigt Hill
#
# Bulk Modulus (GPa) = 57.16026 64.14255 60.65141
# Shear Modulus (GPa) = 28.93822 30.92190 29.93006
#
# Velocity S-wave (km/s) = 3.86644 3.99676 3.93214
# Velocity P-wave (km/s) = 7.03287 7.37798 7.20749
#
# Compressibility (1/GPa) = 0.01749467
#
# Stress axis : x y z
#
# Youngs Moduli (GPa) = 102.52350 66.94626 61.31229
#
# Poissons Ratio (x) = 0.11898 0.37001
# Poissons Ratio (y) = 0.18220 0.24164
# Poissons Ratio (z) = 0.61872 0.26385
#
# Static dielectric constant tensor:
#      x y z
#    x 3.710800 0.000000 0.120930 
#    y 0.000000 3.661950 0.000000 
#    z 0.120930 0.000000 3.266140 
# 
# 
# High freq. dielectric constant tensor:
#      x y z
#    x 1.768790 0.000000 0.007060 
#    y 0.000000 1.752550 0.000000 
#    z 0.007060 0.000000 1.741800 
# 
# From -- ./inp_files/28468.got.cif
#   From: 2010.06.25/outbox.cif.g09.slc.cpg/sg11_15_cif.got.tgz:28468.got - 2010.06.27 23:14:04.
