data_PCOD8072202
_publ_section_title
;
Structure prediction by ZEFSAII (Michael W. Deem and Ramdas Pophale) SiO2 
 PCOD8072202
Probable space group: P 21/M
;
_chemical_formula_sum "Si O2"
_cell_formula_units_Z 32
_cell_length_a 12.656801
_cell_length_b 8.759496
_cell_length_c 29.154690
_cell_angle_alpha 90.000000
_cell_angle_beta 30.501647
_cell_angle_gamma 90.000000
_cell_volume 1640.595689
_symmetry_space_group_name_H-M "P 21/M"
_symmetry_group_IT_number 11
_symmetry_cell_setting 'monoclinic'
loop_
_space_group_symop_operation_xyz
x,y,z
-x,1/2+y,-z
-x,-y,-z
x,1/2-y,z
loop_
_atom_site_type_symbol
_atom_site_label
_atom_site_fract_x
_atom_site_fract_y
_atom_site_fract_z
Si Si1 0.826581 0.429951 0.533502
Si Si2 0.918315 0.929671 0.147814
Si Si3 0.976453 0.569972 0.318838
Si Si4 0.151326 0.430240 0.982133
Si Si5 0.654452 0.929129 0.512804
Si Si6 0.786632 0.570196 0.296818
Si Si7 0.482124 0.927370 0.275985
Si Si8 0.615057 0.068104 0.784697
O O1 0.857234 0.250000 0.513930
O O2 0.823658 0.521174 0.487341
O O3 0.613451 0.472250 0.639458
O O4 0.000000 0.500000 0.500000
O O5 0.965865 0.750000 0.132264
O O6 0.875672 0.994512 0.215268
O O7 0.723470 0.969092 0.188021
O O8 0.102180 0.016532 0.052738
O O9 0.989387 0.750000 0.320380
O O10 0.765794 0.515418 0.424047
O O11 0.952467 0.525292 0.274341
O O12 0.191599 0.497876 0.258322
O O13 0.130321 0.250000 0.985527
O O14 0.390128 0.484429 0.887281
O O15 0.000000 0.500000 0.000000
O O16 0.615604 0.750000 0.528245
O O17 0.437241 0.009747 0.604018
O O18 0.756956 0.750000 0.302738
O O19 0.452589 0.750000 0.279664
O O20 0.371534 0.000145 0.272462
O O21 0.629924 0.250000 0.780502
#
# Coordination Sequence:
#
# PCOD8072202 Si02
#       8
#     4   4   4   4   4   4   4   4
#     4  11  21  34  52  78 113 151 189 228 276 335
#     4  10  19  35  56  79 107 141 180 223 274 330
#     4   9  19  35  56  80 106 145 193 231 273 335
#     4  11  21  34  57  85 112 142 179 226 276 333
#     4  11  21  34  55  83 112 144 187 238 281 328
#     4  10  20  37  59  80 107 147 192 233 275 332
#     4   9  16  30  52  74 103 142 178 215 266 330
#     4   9  17  32  54  78 105 139 180 222 269 329
#
# _framework density 19.505109999999998
#
# number of rings (size 3 to 8) (size 9 to 14) (size 15 to 20)
#    0.000    2.000    2.500    2.250    0.000    2.500 
#    0.000    1.250    0.000    3.750    0.000    0.000 
#    0.000    0.000    0.000    0.000    0.000    0.000 
#
# Total GULP energy -396513.926143 kJ/mol
# GULP energy per Si atom -12391.060192 kJ/mol
# Density = 1.946072 g / cm^3
# Si number density = 19.505110 Si / 1000 Ang^3
#
#
#
# Elastic Constant Matrix: (Units=GPa)
#
#
# Indices 1 2 3 4 5 6 
#
# 1 137.7051 15.1392 38.6192 0.0000 8.7408 0.0000
# 2 15.1392 28.8856 20.9574 0.0000 5.4467 0.0000
# 3 38.6192 20.9574 102.1194 0.0000 15.8267 0.0000
# 4 0.0000 0.0000 0.0000 25.8740 0.0000 1.3069
# 5 8.7408 5.4467 15.8267 0.0000 30.4637 0.0000
# 6 0.0000 0.0000 0.0000 1.3069 0.0000 18.8070
#
#
#
# Elastic Compliance Matrix: (Units=1/GPa)
#
#
# Indices 1 2 3 4 5 6 
#
# 1 0.008277 -0.002372 -0.002546 0.000000 -0.000628 0.000000
# 2 -0.002372 0.041643 -0.007179 0.000000 -0.003035 0.000000
# 3 -0.002546 -0.007179 0.012960 0.000000 -0.004719 0.000000
# 4 0.000000 0.000000 0.000000 0.038785 0.000000 -0.002695
# 5 -0.000628 -0.003035 -0.004719 0.000000 0.036000 0.000000
# 6 0.000000 0.000000 0.000000 -0.002695 0.000000 0.053359
#
#
# Mechanical properties :
#
#
# Convention : Reuss Voigt Hill
#
# Bulk Modulus (GPa) = 25.84907 46.46019 36.15463
# Shear Modulus (GPa) = 21.91895 27.96190 24.94042
#
# Velocity S-wave (km/s) = 3.35588 3.79036 3.57972
# Velocity P-wave (km/s) = 5.31951 6.55949 5.97177
#
# Compressibility (1/GPa) = 0.03868612
#
# Stress axis : x y z
#
# Youngs Moduli (GPa) = 120.82346 24.01345 77.16155
#
# Poissons Ratio (x) = 0.05697 0.19644
# Poissons Ratio (y) = 0.28663 0.55391
# Poissons Ratio (z) = 0.30759 0.17238
#
# Static dielectric constant tensor:
#      x y z
#    x 11.944040 0.000000 15.275620 
#    y 0.000000 3.348630 0.000000 
#    z 15.275620 0.000000 32.191310 
# 
# 
# High freq. dielectric constant tensor:
#      x y z
#    x 1.768060 0.000000 0.008850 
#    y 0.000000 1.718480 0.000000 
#    z 0.008850 0.000000 1.762740 
# 
# From -- ./inp_files/73066.got.cif
#   From: 2010.06.25/outbox.cif.g09.slc.cpg/sg11_37_cif.got.tgz:73066.got - 2010.06.27 23:14:04.
