data_PCOD8072839
_publ_section_title
;
Structure prediction by ZEFSAII (Michael W. Deem and Ramdas Pophale) SiO2 
 PCOD8072839
Probable space group: P 21/M
;
_chemical_formula_sum "Si O2"
_cell_formula_units_Z 32
_cell_length_a 14.318134
_cell_length_b 8.886007
_cell_length_c 25.911254
_cell_angle_alpha 90.000000
_cell_angle_beta 144.506501
_cell_angle_gamma 90.000000
_cell_volume 1914.108051
_symmetry_space_group_name_H-M "P 21/M"
_symmetry_group_IT_number 11
_symmetry_cell_setting 'monoclinic'
loop_
_space_group_symop_operation_xyz
x,y,z
-x,1/2+y,-z
-x,-y,-z
x,1/2-y,z
loop_
_atom_site_type_symbol
_atom_site_label
_atom_site_fract_x
_atom_site_fract_y
_atom_site_fract_z
Si Si1 0.324398 0.426382 0.417091
Si Si2 0.522625 0.081507 0.354008
Si Si3 0.195607 0.421356 0.469850
Si Si4 0.553977 0.080294 0.248328
Si Si5 0.089132 0.576154 0.587758
Si Si6 0.770818 0.427055 0.727661
Si Si7 0.059570 0.424046 0.105779
Si Si8 0.757269 0.423589 0.904443
O O1 0.500000 0.500000 0.500000
O O2 0.348812 0.250000 0.419021
O O3 0.219540 0.460872 0.420761
O O4 0.219304 0.497035 0.323934
O O5 0.489386 0.250000 0.360020
O O6 0.501870 0.076384 0.284045
O O7 0.702040 0.033166 0.448852
O O8 0.401812 0.964836 0.325762
O O9 0.249939 0.250000 0.505274
O O10 0.010841 0.444790 0.404202
O O11 0.549854 0.250000 0.224445
O O12 0.732255 0.008608 0.321925
O O13 0.419651 0.981455 0.158188
O O14 0.110361 0.750000 0.581959
O O15 0.000000 0.500000 0.500000
O O16 0.790024 0.250000 0.730263
O O17 0.912749 0.489959 0.827946
O O18 0.102833 0.250000 0.133450
O O19 0.178194 0.484658 0.115305
O O20 0.874671 0.447844 0.006087
O O21 0.749746 0.250000 0.884690
#
# Coordination Sequence:
#
# PCOD8072839 Si02
#       8
#     4   4   4   4   4   4   4   4
#     4  11  22  35  51  73 100 133 170 211 252 296
#     4  11  20  30  48  72 101 135 168 206 247 290
#     4  10  21  35  51  70  98 133 172 211 248 291
#     4  10  20  32  48  72 103 137 170 202 246 294
#     4  10  20  34  50  72  99 132 170 207 244 292
#     4  12  23  34  50  73  99 135 173 206 248 298
#     4  10  20  34  50  72 101 132 165 205 250 297
#     4  10  20  32  50  74 101 132 166 203 247 299
#
# _framework density 16.717969
#
# number of rings (size 3 to 8) (size 9 to 14) (size 15 to 20)
#    0.000    1.500    3.750    2.625    0.000    3.000 
#    0.000    0.000    0.000    0.000    0.000    0.875 
#    0.000    0.000    0.000    0.000    0.000    0.000 
#
# Total GULP energy -396812.056286 kJ/mol
# GULP energy per Si atom -12400.376759 kJ/mol
# Density = 1.667992 g / cm^3
# Si number density = 16.717969 Si / 1000 Ang^3
#
#
#
# Elastic Constant Matrix: (Units=GPa)
#
#
# Indices 1 2 3 4 5 6 
#
# 1 76.3160 32.0478 40.8663 0.0000 7.6225 0.0000
# 2 32.0478 96.5839 52.3172 0.0000 -0.7784 0.0000
# 3 40.8663 52.3172 121.9839 0.0000 10.4930 0.0000
# 4 0.0000 0.0000 0.0000 29.6688 0.0000 0.2442
# 5 7.6225 -0.7784 10.4930 0.0000 27.8556 0.0000
# 6 0.0000 0.0000 0.0000 0.2442 0.0000 18.0575
#
#
#
# Elastic Compliance Matrix: (Units=1/GPa)
#
#
# Indices 1 2 3 4 5 6 
#
# 1 0.017011 -0.003566 -0.003886 0.000000 -0.003290 0.000000
# 2 -0.003566 0.014425 -0.005282 0.000000 0.003368 0.000000
# 3 -0.003886 -0.005282 0.012078 0.000000 -0.003634 0.000000
# 4 0.000000 0.000000 0.000000 0.033709 0.000000 -0.000456
# 5 -0.003290 0.003368 -0.003634 0.000000 0.038263 0.000000
# 6 0.000000 0.000000 0.000000 -0.000456 0.000000 0.055385
#
#
# Mechanical properties :
#
#
# Convention : Reuss Voigt Hill
#
# Bulk Modulus (GPa) = 55.41617 60.59406 58.00512
# Shear Modulus (GPa) = 24.70926 26.42654 25.56790
#
# Velocity S-wave (km/s) = 3.84866 3.98015 3.91495
# Velocity P-wave (km/s) = 7.27799 7.57929 7.43017
#
# Compressibility (1/GPa) = 0.01804528
#
# Stress axis : x y z
#
# Youngs Moduli (GPa) = 58.78701 69.32381 82.79689
#
# Poissons Ratio (x) = 0.24718 0.32179
# Poissons Ratio (y) = 0.20961 0.43733
# Poissons Ratio (z) = 0.22847 0.36616
#
# Static dielectric constant tensor:
#      x y z
#    x 3.053320 0.000000 0.035080 
#    y 0.000000 3.262930 0.000000 
#    z 0.035080 0.000000 3.276080 
# 
# 
# High freq. dielectric constant tensor:
#      x y z
#    x 1.613520 0.000000 0.003300 
#    y 0.000000 1.655530 0.000000 
#    z 0.003300 0.000000 1.639980 
# 
# From -- ./inp_files/56461.got.cif
#   From: 2010.06.25/outbox.cif.g09.slc.cpg/sg11_29_cif.got.tgz:56461.got - 2010.06.27 23:14:04.
