data_PCOD8072353
_publ_section_title
;
Structure prediction by ZEFSAII (Michael W. Deem and Ramdas Pophale) SiO2 
 PCOD8072353
Probable space group: P 21/M
;
_chemical_formula_sum "Si O2"
_cell_formula_units_Z 32
_cell_length_a 12.546670
_cell_length_b 8.978800
_cell_length_c 29.059715
_cell_angle_alpha 90.000000
_cell_angle_beta 30.144556
_cell_angle_gamma 90.000000
_cell_volume 1643.994841
_symmetry_space_group_name_H-M "P 21/M"
_symmetry_group_IT_number 11
_symmetry_cell_setting 'monoclinic'
loop_
_space_group_symop_operation_xyz
x,y,z
-x,1/2+y,-z
-x,-y,-z
x,1/2-y,z
loop_
_atom_site_type_symbol
_atom_site_label
_atom_site_fract_x
_atom_site_fract_y
_atom_site_fract_z
Si Si1 0.309272 0.572860 0.005457
Si Si2 0.737450 0.923090 0.723575
Si Si3 0.587258 0.415423 0.229230
Si Si4 0.978295 0.924454 0.204752
Si Si5 0.933083 0.425556 0.477255
Si Si6 0.272949 0.575657 0.174813
Si Si7 0.052539 0.081428 0.026727
Si Si8 0.530896 0.924181 0.340788
O O1 0.326803 0.750000 0.998472
O O2 0.542821 0.503800 0.923681
O O3 0.151293 0.511389 0.103917
O O4 0.229872 0.515004 0.985794
O O5 0.761709 0.750000 0.727507
O O6 0.509948 0.956947 0.784497
O O7 0.918258 0.976335 0.620330
O O8 0.756060 0.016202 0.763052
O O9 0.502769 0.250000 0.273732
O O10 0.506338 0.531048 0.296849
O O11 0.839717 0.417575 0.136040
O O12 0.965709 0.750000 0.199706
O O13 0.055644 0.957084 0.227793
O O14 0.742554 0.996671 0.285270
O O15 0.950214 0.250000 0.478853
O O16 0.691727 0.471712 0.552567
O O17 0.000000 0.500000 0.500000
O O18 0.324181 0.750000 0.157307
O O19 0.134137 0.250000 0.987690
O O20 0.000000 0.000000 0.000000
O O21 0.560184 0.750000 0.332377
#
# Coordination Sequence:
#
# PCOD8072353 Si02
#       8
#     4   4   4   4   4   4   4   4
#     4  11  21  37  59  82 111 150 191 241 293 340
#     4  10  21  38  56  82 119 153 185 231 288 340
#     4  10  20  34  53  78 113 147 179 228 280 328
#     4   9  20  38  59  83 114 149 191 240 287 334
#     4  10  20  34  59  88 116 148 185 230 282 341
#     4  11  23  39  58  82 111 150 197 242 285 340
#     4  11  22  34  51  80 115 154 194 232 280 339
#     4  10  19  35  59  86 111 143 184 227 279 339
#
# _framework density 19.464780000000001
#
# number of rings (size 3 to 8) (size 9 to 14) (size 15 to 20)
#    0.000    1.750    2.500    2.250    0.000    2.500 
#    0.000    3.750    0.000    0.000    0.000    0.000 
#    0.000    0.000    0.000    0.000    0.000    0.000 
#
# Total GULP energy -396685.585616 kJ/mol
# GULP energy per Si atom -12396.424551 kJ/mol
# Density = 1.942048 g / cm^3
# Si number density = 19.464780 Si / 1000 Ang^3
#
#
#
# Elastic Constant Matrix: (Units=GPa)
#
#
# Indices 1 2 3 4 5 6 
#
# 1 107.2212 25.9672 40.4246 0.0000 -14.3911 0.0000
# 2 25.9672 53.0853 27.7829 0.0000 -7.1512 0.0000
# 3 40.4246 27.7829 95.3157 0.0000 -15.6663 0.0000
# 4 0.0000 0.0000 0.0000 20.5836 0.0000 -0.0631
# 5 -14.3911 -7.1512 -15.6663 0.0000 27.0189 0.0000
# 6 0.0000 0.0000 0.0000 -0.0631 0.0000 24.4021
#
#
#
# Elastic Compliance Matrix: (Units=1/GPa)
#
#
# Indices 1 2 3 4 5 6 
#
# 1 0.011958 -0.003574 -0.003469 0.000000 0.003412 0.000000
# 2 -0.003574 0.023433 -0.005093 0.000000 0.001345 0.000000
# 3 -0.003469 -0.005093 0.014283 0.000000 0.005086 0.000000
# 4 0.000000 0.000000 0.000000 0.048583 0.000000 0.000126
# 5 0.003412 0.001345 0.005086 0.000000 0.042133 0.000000
# 6 0.000000 0.000000 0.000000 0.000126 0.000000 0.040980
#
#
# Mechanical properties :
#
#
# Convention : Reuss Voigt Hill
#
# Bulk Modulus (GPa) = 39.36838 49.33016 44.34927
# Shear Modulus (GPa) = 23.35243 25.16409 24.25826
#
# Velocity S-wave (km/s) = 3.46747 3.59946 3.53408
# Velocity P-wave (km/s) = 6.02498 6.53246 6.28385
#
# Compressibility (1/GPa) = 0.02540110
#
# Stress axis : x y z
#
# Youngs Moduli (GPa) = 83.62667 42.67515 70.01212
#
# Poissons Ratio (x) = 0.15253 0.24287
# Poissons Ratio (y) = 0.29890 0.35659
# Poissons Ratio (z) = 0.29009 0.21736
#
# Static dielectric constant tensor:
#      x y z
#    x 3.552650 0.000000 -0.347450 
#    y 0.000000 3.440730 0.000000 
#    z -0.347450 0.000000 3.995460 
# 
# 
# High freq. dielectric constant tensor:
#      x y z
#    x 1.755270 0.000000 -0.015310 
#    y 0.000000 1.743370 0.000000 
#    z -0.015310 0.000000 1.760380 
# 
# From -- ./inp_files/38155.got.cif
#   From: 2010.06.25/outbox.cif.g09.slc.cpg/sg11_20_cif.got.tgz:38155.got - 2010.06.27 23:14:04.
