data_PCOD8072127
_publ_section_title
;
Structure prediction by ZEFSAII (Michael W. Deem and Ramdas Pophale) SiO2 
 PCOD8072127
Probable space group: P 21/M
;
_chemical_formula_sum "Si O2"
_cell_formula_units_Z 24
_cell_length_a 9.876564
_cell_length_b 9.040173
_cell_length_c 13.955263
_cell_angle_alpha 90.000000
_cell_angle_beta 89.585115
_cell_angle_gamma 90.000000
_cell_volume 1245.974814
_symmetry_space_group_name_H-M "P 21/M"
_symmetry_group_IT_number 11
_symmetry_cell_setting 'monoclinic'
loop_
_space_group_symop_operation_xyz
x,y,z
-x,1/2+y,-z
-x,-y,-z
x,1/2-y,z
loop_
_atom_site_type_symbol
_atom_site_label
_atom_site_fract_x
_atom_site_fract_y
_atom_site_fract_z
Si Si1 0.985503 0.579510 0.100164
Si Si2 0.482601 0.422160 0.101359
Si Si3 0.711561 0.581202 0.209979
Si Si4 0.161323 0.922089 0.401528
Si Si5 0.787756 0.576796 0.784694
Si Si6 0.154245 0.078203 0.593183
O O1 0.029424 0.750000 0.090821
O O2 0.830807 0.565533 0.132543
O O3 0.078395 0.501827 0.177809
O O4 0.000000 0.500000 0.000000
O O5 0.506140 0.250000 0.084887
O O6 0.589063 0.478120 0.179026
O O7 0.333803 0.456065 0.141933
O O8 0.500000 0.500000 0.000000
O O9 0.660828 0.750000 0.213708
O O10 0.761622 0.529662 0.314142
O O11 0.196095 0.750000 0.394718
O O12 0.002938 0.955109 0.386582
O O13 0.245002 0.008197 0.319245
O O14 0.209085 0.982353 0.504295
O O15 0.815230 0.750000 0.773841
O O16 0.174729 0.250000 0.569005
#
# Coordination Sequence:
#
# PCOD8072127 Si02
#       6
#     4   4   4   4   4   4
#     4  11  22  37  57  86 116 146 191 242 291 347
#     4  11  25  42  60  84 115 155 200 240 289 348
#     4  10  21  39  60  84 117 152 191 239 290 343
#     4  10  19  34  58  89 119 151 191 237 289 346
#     4  11  23  39  58  84 117 154 194 240 289 343
#     4   9  18  35  57  86 120 152 186 235 293 345
#
# _framework density 19.262025999999999
#
# number of rings (size 3 to 8) (size 9 to 14) (size 15 to 20)
#    0.000    1.667    1.667    3.000    0.000    9.333 
#    0.000    0.833    0.000    0.000    0.000    0.000 
#    0.000    0.000    0.000    0.000    0.000    0.000 
#
# Total GULP energy -297713.567985 kJ/mol
# GULP energy per Si atom -12404.731999 kJ/mol
# Density = 1.921819 g / cm^3
# Si number density = 19.262026 Si / 1000 Ang^3
#
#
#
# Elastic Constant Matrix: (Units=GPa)
#
#
# Indices 1 2 3 4 5 6 
#
# 1 35.9576 31.3643 12.3177 0.0000 9.3262 0.0000
# 2 31.3643 109.1922 59.7364 0.0000 -8.6598 0.0000
# 3 12.3177 59.7364 128.4690 0.0000 1.6590 0.0000
# 4 0.0000 0.0000 0.0000 42.9478 0.0000 2.6970
# 5 9.3262 -8.6598 1.6590 0.0000 28.4604 0.0000
# 6 0.0000 0.0000 0.0000 2.6970 0.0000 30.0309
#
#
#
# Elastic Compliance Matrix: (Units=1/GPa)
#
#
# Indices 1 2 3 4 5 6 
#
# 1 0.046910 -0.017183 0.003761 0.000000 -0.020820 0.000000
# 2 -0.017183 0.019068 -0.007372 0.000000 0.011862 0.000000
# 3 0.003761 -0.007372 0.010904 0.000000 -0.004111 0.000000
# 4 0.000000 0.000000 0.000000 0.023416 0.000000 -0.002103
# 5 -0.020820 0.011862 -0.004111 0.000000 0.045808 0.000000
# 6 0.000000 0.000000 0.000000 -0.002103 0.000000 0.033488
#
#
# Mechanical properties :
#
#
# Convention : Reuss Voigt Hill
#
# Bulk Modulus (GPa) = 28.33331 53.38397 40.85864
# Shear Modulus (GPa) = 21.46409 31.63449 26.54929
#
# Velocity S-wave (km/s) = 3.34177 4.05696 3.71660
# Velocity P-wave (km/s) = 5.44346 7.05124 6.29886
#
# Compressibility (1/GPa) = 0.03529414
#
# Stress axis : x y z
#
# Youngs Moduli (GPa) = 21.31725 52.44502 91.70730
#
# Poissons Ratio (x) = 0.90118 -0.34492
# Poissons Ratio (y) = 0.36630 0.67605
# Poissons Ratio (z) = -0.08018 0.38662
#
# Static dielectric constant tensor:
#      x y z
#    x 3.340840 0.000000 0.017030 
#    y 0.000000 3.447090 0.000000 
#    z 0.017030 0.000000 3.641460 
# 
# 
# High freq. dielectric constant tensor:
#      x y z
#    x 1.727170 0.000000 0.000210 
#    y 0.000000 1.758770 0.000000 
#    z 0.000210 0.000000 1.768300 
# 
# From -- ./inp_files/20500.got.cif
#   From: 2010.06.25/outbox.cif.g09.slc.cpg/sg11_11_cif.got.tgz:20500.got - 2010.06.27 23:14:04.
