data_PCOD8072504
_publ_section_title
;
Structure prediction by ZEFSAII (Michael W. Deem and Ramdas Pophale) SiO2 
 PCOD8072504
Probable space group: P 21/M
;
_chemical_formula_sum "Si O2"
_cell_formula_units_Z 28
_cell_length_a 12.047811
_cell_length_b 8.507133
_cell_length_c 15.502514
_cell_angle_alpha 90.000000
_cell_angle_beta 59.669626
_cell_angle_gamma 90.000000
_cell_volume 1371.414349
_symmetry_space_group_name_H-M "P 21/M"
_symmetry_group_IT_number 11
_symmetry_cell_setting 'monoclinic'
loop_
_space_group_symop_operation_xyz
x,y,z
-x,1/2+y,-z
-x,-y,-z
x,1/2-y,z
loop_
_atom_site_type_symbol
_atom_site_label
_atom_site_fract_x
_atom_site_fract_y
_atom_site_fract_z
Si Si1 0.613117 0.068315 0.012910
Si Si2 0.648328 0.570131 0.180599
Si Si3 0.634961 0.433903 0.695974
Si Si4 0.082970 0.567122 0.887797
Si Si5 0.879447 0.436998 0.493454
Si Si6 0.748908 0.927044 0.817462
Si Si7 0.036657 0.571511 0.717510
O O1 0.596299 0.250000 0.045838
O O2 0.626445 0.956448 0.088824
O O3 0.500000 0.000000 0.000000
O O4 0.737858 0.043425 0.903822
O O5 0.688426 0.750000 0.181668
O O6 0.510685 0.531336 0.281295
O O7 0.764146 0.459309 0.165017
O O8 0.651622 0.250000 0.709064
O O9 0.742545 0.492373 0.586118
O O10 0.653886 0.525885 0.777714
O O11 0.051673 0.750000 0.901336
O O12 0.045382 0.490294 0.808939
O O13 0.000000 0.500000 0.000000
O O14 0.891406 0.250000 0.488145
O O15 0.878523 0.501459 0.394162
O O16 0.000000 0.500000 0.500000
O O17 0.712459 0.750000 0.859660
O O18 0.895586 0.939154 0.730903
O O19 0.080304 0.750000 0.716201
#
# Coordination Sequence:
#
# PCOD8072504 Si02
#       7
#     4   4   4   4   4   4   4
#     4  12  23  35  53  82 116 154 195 241 299 363
#     4  11  23  40  58  83 120 159 200 252 303 355
#     4  10  21  35  56  84 119 156 193 241 301 360
#     4  11  23  42  65  88 117 160 206 253 304 363
#     4  10  19  36  59  88 120 157 198 246 304 364
#     4  11  20  33  56  85 118 154 193 243 299 359
#     4   9  20  37  59  86 118 154 197 248 305 358
#
# _framework density 20.416876999999999
#
# number of rings (size 3 to 8) (size 9 to 14) (size 15 to 20)
#    0.000    1.429    2.857    3.429    0.000    1.714 
#    0.000    4.286    0.000    0.000    0.000    0.000 
#    0.000    0.000    0.000    0.000    0.000    0.000 
#
# Total GULP energy -346961.051615 kJ/mol
# GULP energy per Si atom -12391.466129 kJ/mol
# Density = 2.037041 g / cm^3
# Si number density = 20.416877 Si / 1000 Ang^3
#
#
#
# Elastic Constant Matrix: (Units=GPa)
#
#
# Indices 1 2 3 4 5 6 
#
# 1 100.3174 11.8035 46.5264 0.0000 -6.1750 0.0000
# 2 11.8035 43.9932 17.7333 0.0000 -6.0658 0.0000
# 3 46.5264 17.7333 144.1345 0.0000 -5.9358 0.0000
# 4 0.0000 0.0000 0.0000 22.4348 0.0000 -2.7645
# 5 -6.1750 -6.0658 -5.9358 0.0000 34.9106 0.0000
# 6 0.0000 0.0000 0.0000 -2.7645 0.0000 28.7467
#
#
#
# Elastic Compliance Matrix: (Units=1/GPa)
#
#
# Indices 1 2 3 4 5 6 
#
# 1 0.011897 -0.001574 -0.003596 0.000000 0.001219 0.000000
# 2 -0.001574 0.024604 -0.002371 0.000000 0.003593 0.000000
# 3 -0.003596 -0.002371 0.008406 0.000000 0.000381 0.000000
# 4 0.000000 0.000000 0.000000 0.045108 0.000000 0.004338
# 5 0.001219 0.003593 0.000381 0.000000 0.029549 0.000000
# 6 0.000000 0.000000 0.000000 0.004338 0.000000 0.035204
#
#
# Mechanical properties :
#
#
# Convention : Reuss Voigt Hill
#
# Bulk Modulus (GPa) = 33.52980 48.95239 41.24110
# Shear Modulus (GPa) = 27.80981 31.37725 29.59353
#
# Velocity S-wave (km/s) = 3.69467 3.92449 3.81131
# Velocity P-wave (km/s) = 5.88719 6.67563 6.29377
#
# Compressibility (1/GPa) = 0.02982421
#
# Stress axis : x y z
#
# Youngs Moduli (GPa) = 84.05791 40.64325 118.95900
#
# Poissons Ratio (x) = 0.06398 0.42781
# Poissons Ratio (y) = 0.13232 0.28205
# Poissons Ratio (z) = 0.30230 0.09637
#
# Static dielectric constant tensor:
#      x y z
#    x 3.768020 0.000000 -0.174820 
#    y 0.000000 3.798640 0.000000 
#    z -0.174820 0.000000 4.363010 
# 
# 
# High freq. dielectric constant tensor:
#      x y z
#    x 1.786990 0.000000 -0.015620 
#    y 0.000000 1.779960 0.000000 
#    z -0.015620 0.000000 1.808510 
# 
# From -- ./inp_files/49126.got.cif
#   From: 2010.06.25/outbox.cif.g09.slc.cpg/sg11_25_cif.got.tgz:49126.got - 2010.06.27 23:14:04.
