data_PCOD8072501
_publ_section_title
;
Structure prediction by ZEFSAII (Michael W. Deem and Ramdas Pophale) SiO2 
 PCOD8072501
Probable space group: P 21/M
;
_chemical_formula_sum "Si O2"
_cell_formula_units_Z 32
_cell_length_a 24.016592
_cell_length_b 9.007124
_cell_length_c 18.582953
_cell_angle_alpha 90.000000
_cell_angle_beta 155.850206
_cell_angle_gamma 90.000000
_cell_volume 1644.624691
_symmetry_space_group_name_H-M "P 21/M"
_symmetry_group_IT_number 11
_symmetry_cell_setting 'monoclinic'
loop_
_space_group_symop_operation_xyz
x,y,z
-x,1/2+y,-z
-x,-y,-z
x,1/2-y,z
loop_
_atom_site_type_symbol
_atom_site_label
_atom_site_fract_x
_atom_site_fract_y
_atom_site_fract_z
Si Si1 0.440939 0.925875 0.636755
Si Si2 0.369248 0.577755 0.030894
Si Si3 0.828382 0.925317 0.640712
Si Si4 0.364432 0.576648 0.862531
Si Si5 0.410475 0.424699 0.334235
Si Si6 0.880780 0.085281 0.166701
Si Si7 0.181163 0.414205 0.537694
Si Si8 0.895780 0.922852 0.041793
O O1 0.424422 0.750000 0.620825
O O2 0.535131 0.976543 0.680338
O O3 0.508742 0.983587 0.790451
O O4 0.290647 0.998346 0.452816
O O5 0.411775 0.750000 0.085766
O O6 0.337583 0.527211 0.912619
O O7 0.230677 0.541032 0.907429
O O8 0.827187 0.750000 0.652864
O O9 0.805470 0.965174 0.529743
O O10 0.976979 0.986171 0.841912
O O11 0.381578 0.750000 0.876441
O O12 0.247293 0.529011 0.669928
O O13 0.500000 0.500000 0.000000
O O14 0.500000 0.500000 0.500000
O O15 0.428376 0.250000 0.361396
O O16 0.253020 0.469811 0.164201
O O17 0.852606 0.250000 0.099229
O O18 0.024460 0.090581 0.376459
O O19 0.884161 0.956247 0.112288
O O20 0.247295 0.250000 0.624123
O O21 0.924312 0.750000 0.063011
#
# Coordination Sequence:
#
# PCOD8072501 Si02
#       8
#     4   4   4   4   4   4   4   4
#     4  11  22  38  59  89 119 146 189 242 286 334
#     4  10  21  36  55  79 109 147 191 236 283 341
#     4  10  21  37  59  87 115 154 198 235 281 342
#     4  11  23  36  50  72 104 144 189 235 286 340
#     4  10  23  40  61  90 121 150 186 229 281 340
#     4   9  18  34  56  80 107 145 187 230 281 340
#     4   9  19  35  53  76 109 143 185 234 282 336
#     4  10  19  36  59  87 119 149 186 235 283 333
#
# _framework density 19.457325999999998
#
# number of rings (size 3 to 8) (size 9 to 14) (size 15 to 20)
#    0.000    2.000    1.250    3.000    0.000    9.000 
#    0.000    0.625    0.000    0.000    0.000    0.000 
#    0.000    0.000    0.000    0.000    0.000    0.000 
#
# Total GULP energy -396705.464636 kJ/mol
# GULP energy per Si atom -12397.045770 kJ/mol
# Density = 1.941304 g / cm^3
# Si number density = 19.457326 Si / 1000 Ang^3
#
#
#
# Elastic Constant Matrix: (Units=GPa)
#
#
# Indices 1 2 3 4 5 6 
#
# 1 43.3210 25.2420 30.8596 0.0000 11.0605 0.0000
# 2 25.2420 66.1499 44.5114 0.0000 3.2612 0.0000
# 3 30.8596 44.5114 117.8366 0.0000 9.6965 0.0000
# 4 0.0000 0.0000 0.0000 37.8164 0.0000 -0.0753
# 5 11.0605 3.2612 9.6965 0.0000 37.0231 0.0000
# 6 0.0000 0.0000 0.0000 -0.0753 0.0000 28.3592
#
#
#
# Elastic Compliance Matrix: (Units=1/GPa)
#
#
# Indices 1 2 3 4 5 6 
#
# 1 0.033965 -0.009419 -0.004671 0.000000 -0.008094 0.000000
# 2 -0.009419 0.022883 -0.006380 0.000000 0.002469 0.000000
# 3 -0.004671 -0.006380 0.012222 0.000000 -0.001243 0.000000
# 4 0.000000 0.000000 0.000000 0.026444 0.000000 0.000070
# 5 -0.008094 0.002469 -0.001243 0.000000 0.029536 0.000000
# 6 0.000000 0.000000 0.000000 0.000070 0.000000 0.035262
#
#
# Mechanical properties :
#
#
# Convention : Reuss Voigt Hill
#
# Bulk Modulus (GPa) = 35.54917 47.61486 41.58201
# Shear Modulus (GPa) = 23.73841 29.08605 26.41223
#
# Velocity S-wave (km/s) = 3.49667 3.87054 3.68835
# Velocity P-wave (km/s) = 5.88322 6.67078 6.28934
#
# Compressibility (1/GPa) = 0.02813005
#
# Stress axis : x y z
#
# Youngs Moduli (GPa) = 29.44164 43.70127 81.81928
#
# Poissons Ratio (x) = 0.41160 0.38220
# Poissons Ratio (y) = 0.27730 0.52203
# Poissons Ratio (z) = 0.13753 0.27883
#
# Static dielectric constant tensor:
#      x y z
#    x 3.513010 0.000000 0.281090 
#    y 0.000000 3.582830 0.000000 
#    z 0.281090 0.000000 3.550690 
# 
# 
# High freq. dielectric constant tensor:
#      x y z
#    x 1.742440 0.000000 0.020520 
#    y 0.000000 1.758550 0.000000 
#    z 0.020520 0.000000 1.765840 
# 
# From -- ./inp_files/67145.got.cif
#   From: 2010.06.25/outbox.cif.g09.slc.cpg/sg11_34_cif.got.tgz:67145.got - 2010.06.27 23:14:04.
