data_PCOD8072481
_publ_section_title
;
Structure prediction by ZEFSAII (Michael W. Deem and Ramdas Pophale) SiO2 
 PCOD8072481
Probable space group: P 21/M
;
_chemical_formula_sum "Si O2"
_cell_formula_units_Z 28
_cell_length_a 18.360058
_cell_length_b 13.438169
_cell_length_c 6.654713
_cell_angle_alpha 90.000000
_cell_angle_beta 119.092671
_cell_angle_gamma 90.000000
_cell_volume 1434.738088
_symmetry_space_group_name_H-M "P 21/M"
_symmetry_group_IT_number 11
_symmetry_cell_setting 'monoclinic'
loop_
_space_group_symop_operation_xyz
x,y,z
-x,1/2+y,-z
-x,-y,-z
x,1/2-y,z
loop_
_atom_site_type_symbol
_atom_site_label
_atom_site_fract_x
_atom_site_fract_y
_atom_site_fract_z
Si Si1 0.189530 0.138708 0.519190
Si Si2 0.216537 0.864470 0.525237
Si Si3 0.315006 0.135676 0.020350
Si Si4 0.203586 0.493322 0.159554
Si Si5 0.098236 0.503506 0.642124
Si Si6 0.403728 0.866604 0.875518
Si Si7 0.519873 0.526585 0.748241
O O1 0.171286 0.250000 0.437187
O O2 0.175894 0.082485 0.293985
O O3 0.124134 0.105872 0.602078
O O4 0.279536 0.121059 0.745802
O O5 0.191705 0.750000 0.471118
O O6 0.228724 0.906699 0.314315
O O7 0.143024 0.917396 0.552998
O O8 0.303832 0.878441 0.759875
O O9 0.299809 0.250000 0.071286
O O10 0.412130 0.113310 0.135936
O O11 0.276928 0.056754 0.127627
O O12 0.126625 0.520503 0.910083
O O13 0.000000 0.500000 0.500000
O O14 0.428377 0.750000 0.904515
O O15 0.435278 0.926807 0.723197
O O16 0.449705 0.921540 0.119961
O O17 0.500000 0.500000 0.500000
#
# Coordination Sequence:
#
# PCOD8072481 Si02
#       7
#     4   4   4   4   4   4   4
#     4   9  19  35  56  81 109 142 180 225 277 330
#     4  10  22  40  60  81 109 149 191 229 276 333
#     4  10  20  35  56  83 113 145 184 232 282 326
#     4  10  19  36  59  82 110 144 183 225 273 331
#     4  10  22  38  56  82 114 143 177 226 278 331
#     4  10  22  39  56  79 114 151 189 235 281 328
#     4  11  22  36  56  83 114 149 191 235 277 327
#
# _framework density 19.515758000000002
#
# number of rings (size 3 to 8) (size 9 to 14) (size 15 to 20)
#    0.000    2.000    0.000    4.286    0.000    6.286 
#    0.000    5.000    0.000    0.000    0.000    0.000 
#    0.000    0.000    0.000    0.000    0.000    0.000 
#
# Total GULP energy -347008.494610 kJ/mol
# GULP energy per Si atom -12393.160522 kJ/mol
# Density = 1.947134 g / cm^3
# Si number density = 19.515758 Si / 1000 Ang^3
#
#
#
# Elastic Constant Matrix: (Units=GPa)
#
#
# Indices 1 2 3 4 5 6 
#
# 1 93.1105 40.1040 40.7967 0.0000 9.2561 0.0000
# 2 40.1040 128.6358 53.3329 0.0000 -3.3444 0.0000
# 3 40.7967 53.3329 113.3365 0.0000 -14.7454 0.0000
# 4 0.0000 0.0000 0.0000 21.4127 0.0000 -1.7986
# 5 9.2561 -3.3444 -14.7454 0.0000 32.2082 0.0000
# 6 0.0000 0.0000 0.0000 -1.7986 0.0000 22.1652
#
#
#
# Elastic Compliance Matrix: (Units=1/GPa)
#
#
# Indices 1 2 3 4 5 6 
#
# 1 0.014737 -0.002741 -0.004895 0.000000 -0.006761 0.000000
# 2 -0.002741 0.010208 -0.003803 0.000000 0.000107 0.000000
# 3 -0.004895 -0.003803 0.013298 0.000000 0.007100 0.000000
# 4 0.000000 0.000000 0.000000 0.047022 0.000000 0.003816
# 5 -0.006761 0.000107 0.007100 0.000000 0.036252 0.000000
# 6 0.000000 0.000000 0.000000 0.003816 0.000000 0.045425
#
#
# Mechanical properties :
#
#
# Convention : Reuss Voigt Hill
#
# Bulk Modulus (GPa) = 65.07709 67.06112 66.06910
# Shear Modulus (GPa) = 25.64860 28.54717 27.09788
#
# Velocity S-wave (km/s) = 3.62919 3.82877 3.73032
# Velocity P-wave (km/s) = 7.14001 7.34732 7.24441
#
# Compressibility (1/GPa) = 0.01536639
#
# Stress axis : x y z
#
# Youngs Moduli (GPa) = 67.85580 97.96272 75.19664
#
# Poissons Ratio (x) = 0.26851 0.36805
# Poissons Ratio (y) = 0.18599 0.28598
# Poissons Ratio (z) = 0.33212 0.37256
#
# Static dielectric constant tensor:
#      x y z
#    x 3.399470 0.000000 -0.108690 
#    y 0.000000 3.808690 0.000000 
#    z -0.108690 0.000000 3.528930 
# 
# 
# High freq. dielectric constant tensor:
#      x y z
#    x 1.748320 0.000000 -0.005780 
#    y 0.000000 1.770010 0.000000 
#    z -0.005780 0.000000 1.763260 
# 
# From -- ./inp_files/8132.got.cif
#   From: 2010.06.25/outbox.cif.g09.slc.cpg/sg11_5_cif.got.tgz:8132.got - 2010.06.27 23:14:04.
