data_PCOD8072986
_publ_section_title
;
Structure prediction by ZEFSAII (Michael W. Deem and Ramdas Pophale) SiO2 
 PCOD8072986
Probable space group: P 21/M
;
_chemical_formula_sum "Si O2"
_cell_formula_units_Z 28
_cell_length_a 29.810530
_cell_length_b 9.579947
_cell_length_c 10.129285
_cell_angle_alpha 90.000000
_cell_angle_beta 34.301175
_cell_angle_gamma 90.000000
_cell_volume 1630.191583
_symmetry_space_group_name_H-M "P 21/M"
_symmetry_group_IT_number 11
_symmetry_cell_setting 'monoclinic'
loop_
_space_group_symop_operation_xyz
x,y,z
-x,1/2+y,-z
-x,-y,-z
x,1/2-y,z
loop_
_atom_site_type_symbol
_atom_site_label
_atom_site_fract_x
_atom_site_fract_y
_atom_site_fract_z
Si Si1 0.918103 0.088632 0.934533
Si Si2 0.679192 0.910907 0.663036
Si Si3 0.491269 0.090982 0.893648
Si Si4 0.849653 0.912810 0.337832
Si Si5 0.661308 0.088951 0.444554
Si Si6 0.898996 0.911129 0.507724
Si Si7 0.182807 0.912283 0.074074
O O1 0.902445 0.250000 0.007892
O O2 0.866726 0.040694 0.934054
O O3 0.009800 0.062031 0.675678
O O4 0.895299 0.997663 0.115459
O O5 0.682952 0.750000 0.609555
O O6 0.755387 0.948510 0.566481
O O7 0.680696 0.000563 0.526851
O O8 0.597663 0.939548 0.948117
O O9 0.494962 0.250000 0.931578
O O10 0.570174 0.060488 0.612101
O O11 0.500000 0.000000 0.000000
O O12 0.865681 0.750000 0.272712
O O13 0.884226 0.960161 0.393982
O O14 0.672790 0.250000 0.457809
O O15 0.724005 0.052764 0.177233
O O16 0.875192 0.750000 0.582901
O O17 0.842825 0.000446 0.737836
O O18 0.168068 0.750000 0.140230
#
# Coordination Sequence:
#
# PCOD8072986 Si02
#       7
#     4   4   4   4   4   4   4
#     4  10  20  35  53  72  94 122 161 204 242 282
#     4   9  16  27  45  70  96 122 154 189 231 281
#     4   8  14  24  41  66  94 121 148 186 232 274
#     4  10  20  33  50  73  99 126 159 196 236 286
#     4   9  16  28  46  69  96 122 153 193 234 276
#     4  10  22  36  49  69  97 129 162 197 239 284
#     4  10  20  33  50  72  96 124 160 199 239 284
#
# _framework density 17.175895000000001
#
# number of rings (size 3 to 8) (size 9 to 14) (size 15 to 20)
#    0.000    2.571    1.429    0.857    0.000    2.286 
#    0.000    0.000    0.000    0.857    0.000    0.000 
#    0.000    0.000    0.000    0.000    0.000    0.000 
#
# Total GULP energy -346952.381737 kJ/mol
# GULP energy per Si atom -12391.156491 kJ/mol
# Density = 1.713680 g / cm^3
# Si number density = 17.175895 Si / 1000 Ang^3
#
#
#
# Elastic Constant Matrix: (Units=GPa)
#
#
# Indices 1 2 3 4 5 6 
#
# 1 28.9510 19.2491 28.6869 0.0000 3.0495 0.0000
# 2 19.2491 45.1706 40.1220 0.0000 6.3109 0.0000
# 3 28.6869 40.1220 111.7711 0.0000 -4.8686 0.0000
# 4 0.0000 0.0000 0.0000 29.2325 0.0000 5.0180
# 5 3.0495 6.3109 -4.8686 0.0000 27.9951 0.0000
# 6 0.0000 0.0000 0.0000 5.0180 0.0000 19.3580
#
#
#
# Elastic Compliance Matrix: (Units=1/GPa)
#
#
# Indices 1 2 3 4 5 6 
#
# 1 0.053092 -0.014388 -0.008638 0.000000 -0.004042 0.000000
# 2 -0.014388 0.039072 -0.010730 0.000000 -0.009107 0.000000
# 3 -0.008638 -0.010730 0.015277 0.000000 0.006017 0.000000
# 4 0.000000 0.000000 0.000000 0.035802 0.000000 -0.009281
# 5 -0.004042 -0.009107 0.006017 0.000000 0.039260 0.000000
# 6 0.000000 0.000000 0.000000 -0.009281 0.000000 0.054064
#
#
# Mechanical properties :
#
#
# Convention : Reuss Voigt Hill
#
# Bulk Modulus (GPa) = 25.04281 40.22318 32.63299
# Shear Modulus (GPa) = 15.75359 21.83942 18.79650
#
# Velocity S-wave (km/s) = 3.03180 3.56970 3.31169
# Velocity P-wave (km/s) = 5.18340 6.36078 5.80203
#
# Compressibility (1/GPa) = 0.03993163
#
# Stress axis : x y z
#
# Youngs Moduli (GPa) = 18.83519 25.59371 65.45587
#
# Poissons Ratio (x) = 0.36823 0.56540
# Poissons Ratio (y) = 0.27099 0.70231
# Poissons Ratio (z) = 0.16270 0.27461
#
# Static dielectric constant tensor:
#      x y z
#    x 3.271100 0.000000 -0.523260 
#    y 0.000000 3.215540 0.000000 
#    z -0.523260 0.000000 3.540320 
# 
# 
# High freq. dielectric constant tensor:
#      x y z
#    x 1.637520 0.000000 -0.036210 
#    y 0.000000 1.664780 0.000000 
#    z -0.036210 0.000000 1.668900 
# 
# From -- ./inp_files/24066.got.cif
#   From: 2010.06.25/outbox.cif.g09.slc.cpg/sg11_13_cif.got.tgz:24066.got - 2010.06.27 23:14:04.
