data_PCOD8072294
_publ_section_title
;
Structure prediction by ZEFSAII (Michael W. Deem and Ramdas Pophale) SiO2 
 PCOD8072294
Probable space group: P 21/M
;
_chemical_formula_sum "Si O2"
_cell_formula_units_Z 32
_cell_length_a 12.201194
_cell_length_b 8.601544
_cell_length_c 16.311295
_cell_angle_alpha 90.000000
_cell_angle_beta 88.749703
_cell_angle_gamma 90.000000
_cell_volume 1711.448276
_symmetry_space_group_name_H-M "P 21/M"
_symmetry_group_IT_number 11
_symmetry_cell_setting 'monoclinic'
loop_
_space_group_symop_operation_xyz
x,y,z
-x,1/2+y,-z
-x,-y,-z
x,1/2-y,z
loop_
_atom_site_type_symbol
_atom_site_label
_atom_site_fract_x
_atom_site_fract_y
_atom_site_fract_z
Si Si1 0.642777 0.430786 0.205356
Si Si2 0.740475 0.933432 0.874647
Si Si3 0.071039 0.433358 0.240776
Si Si4 0.589990 0.566980 0.730520
Si Si5 0.152717 0.069467 0.710100
Si Si6 0.386221 0.433185 0.970714
Si Si7 0.770953 0.067723 0.626933
Si Si8 0.116745 0.432979 0.522343
O O1 0.636376 0.250000 0.184603
O O2 0.537307 0.480399 0.261058
O O3 0.749310 0.468629 0.255565
O O4 0.645939 0.519284 0.119570
O O5 0.738301 0.750000 0.873127
O O6 0.860596 0.987312 0.841373
O O7 0.647647 0.992109 0.812973
O O8 0.710079 0.994474 0.965992
O O9 0.047102 0.250000 0.242030
O O10 0.141392 0.475089 0.319686
O O11 0.958037 0.526636 0.240119
O O12 0.606203 0.750000 0.716145
O O13 0.646649 0.476856 0.653883
O O14 0.178506 0.250000 0.722750
O O15 0.140860 0.024841 0.615626
O O16 0.395776 0.250000 0.975665
O O17 0.500000 0.500000 0.000000
O O18 0.791867 0.250000 0.636586
O O19 0.789206 0.015375 0.533014
O O20 0.117700 0.250000 0.507175
O O21 0.000000 0.500000 0.500000
#
# Coordination Sequence:
#
# PCOD8072294 Si02
#       8
#     4   4   4   4   4   4   4   4
#     4  11  23  40  60  84 116 156 196 235 290 352
#     4   8  16  32  55  83 113 145 185 235 283 331
#     4  10  19  35  58  82 113 153 191 232 286 341
#     4   9  18  36  57  80 113 151 191 233 284 341
#     4  11  24  40  58  85 117 150 191 239 289 347
#     4  11  20  35  58  87 119 151 193 242 287 338
#     4  11  21  33  55  88 118 145 188 239 287 339
#     4  11  22  37  59  85 116 150 191 240 288 342
#
# _framework density 18.697611999999999
#
# number of rings (size 3 to 8) (size 9 to 14) (size 15 to 20)
#    0.000    1.750    2.500    3.750    0.000    2.500 
#    0.000    3.125    0.000    0.000    0.000    0.000 
#    0.000    0.000    0.000    0.000    0.000    0.000 
#
# Total GULP energy -396797.378349 kJ/mol
# GULP energy per Si atom -12399.918073 kJ/mol
# Density = 1.865506 g / cm^3
# Si number density = 18.697612 Si / 1000 Ang^3
#
#
#
# Elastic Constant Matrix: (Units=GPa)
#
#
# Indices 1 2 3 4 5 6 
#
# 1 123.6260 19.0285 63.4126 0.0000 -22.2645 0.0000
# 2 19.0285 47.8699 32.6565 0.0000 -10.9050 0.0000
# 3 63.4126 32.6565 109.6156 0.0000 -23.9220 0.0000
# 4 0.0000 0.0000 0.0000 27.7592 0.0000 -1.7870
# 5 -22.2645 -10.9050 -23.9220 0.0000 34.6648 0.0000
# 6 0.0000 0.0000 0.0000 -1.7870 0.0000 29.4408
#
#
#
# Elastic Compliance Matrix: (Units=1/GPa)
#
#
# Indices 1 2 3 4 5 6 
#
# 1 0.011833 0.000297 -0.006187 0.000000 0.003424 0.000000
# 2 0.000297 0.026564 -0.007323 0.000000 0.003494 0.000000
# 3 -0.006187 -0.007323 0.015910 0.000000 0.004702 0.000000
# 4 0.000000 0.000000 0.000000 0.036165 0.000000 0.002195
# 5 0.003424 0.003494 0.004702 0.000000 0.035391 0.000000
# 6 0.000000 0.000000 0.000000 0.002195 0.000000 0.034100
#
#
# Mechanical properties :
#
#
# Convention : Reuss Voigt Hill
#
# Bulk Modulus (GPa) = 35.86735 56.81186 46.33960
# Shear Modulus (GPa) = 25.55169 29.44054 27.49612
#
# Velocity S-wave (km/s) = 3.70073 3.97238 3.83896
# Velocity P-wave (km/s) = 6.12250 7.17567 6.66991
#
# Compressibility (1/GPa) = 0.02788051
#
# Stress axis : x y z
#
# Youngs Moduli (GPa) = 84.50705 37.64558 62.85532
#
# Poissons Ratio (x) = -0.01117 0.38887
# Poissons Ratio (y) = -0.02508 0.46029
# Poissons Ratio (z) = 0.52282 0.27568
#
# Static dielectric constant tensor:
#      x y z
#    x 3.255560 0.000000 0.016120 
#    y 0.000000 3.374310 0.000000 
#    z 0.016120 0.000000 3.007320 
# 
# 
# High freq. dielectric constant tensor:
#      x y z
#    x 1.721040 0.000000 -0.028910 
#    y 0.000000 1.725750 0.000000 
#    z -0.028910 0.000000 1.719470 
# 
# From -- ./inp_files/49399.got.cif
#   From: 2010.06.25/outbox.cif.g09.slc.cpg/sg11_25_cif.got.tgz:49399.got - 2010.06.27 23:14:04.
