data_PCOD8072051
_publ_section_title
;
Structure prediction by ZEFSAII (Michael W. Deem and Ramdas Pophale) SiO2 
 PCOD8072051
Probable space group: P 21/M
;
_chemical_formula_sum "Si O2"
_cell_formula_units_Z 32
_cell_length_a 15.214126
_cell_length_b 8.787713
_cell_length_c 26.377665
_cell_angle_alpha 90.000000
_cell_angle_beta 153.766071
_cell_angle_gamma 90.000000
_cell_volume 1558.898898
_symmetry_space_group_name_H-M "P 21/M"
_symmetry_group_IT_number 11
_symmetry_cell_setting 'monoclinic'
loop_
_space_group_symop_operation_xyz
x,y,z
-x,1/2+y,-z
-x,-y,-z
x,1/2-y,z
loop_
_atom_site_type_symbol
_atom_site_label
_atom_site_fract_x
_atom_site_fract_y
_atom_site_fract_z
Si Si1 0.069836 0.569769 0.484180
Si Si2 0.520598 0.430741 0.353854
Si Si3 0.265235 0.071196 0.762113
Si Si4 0.321480 0.574795 0.065255
Si Si5 0.427036 0.931394 0.409105
Si Si6 0.211771 0.926081 0.120014
Si Si7 0.287857 0.072024 0.886208
Si Si8 0.022115 0.070063 0.839121
O O1 0.059778 0.750000 0.482447
O O2 0.290272 0.518012 0.581935
O O3 0.000000 0.500000 0.500000
O O4 0.913098 0.502785 0.362828
O O5 0.507262 0.250000 0.352476
O O6 0.550272 0.502683 0.425185
O O7 0.322620 0.492187 0.223909
O O8 0.282760 0.250000 0.761869
O O9 0.480032 0.001607 0.857253
O O10 0.203765 0.031477 0.787490
O O11 0.296780 0.750000 0.037121
O O12 0.341046 0.555004 0.135805
O O13 0.124318 0.489789 0.943302
O O14 0.446924 0.750000 0.421773
O O15 0.202357 0.987198 0.282486
O O16 0.500000 0.000000 0.500000
O O17 0.183430 0.750000 0.120117
O O18 0.000000 0.000000 0.000000
O O19 0.311061 0.250000 0.906179
O O20 0.141296 0.003198 0.852460
O O21 0.500000 0.000000 0.000000
O O22 0.027286 0.250000 0.842814
#
# Coordination Sequence:
#
# PCOD8072051 Si02
#       8
#     4   4   4   4   4   4   4   4
#     4  10  22  40  64  90 122 164 206 254 308 369
#     4  11  24  42  65  93 126 165 209 258 314 376
#     4   9  18  34  57  82 112 152 193 233 293 358
#     4  10  20  35  58  86 115 152 193 239 294 359
#     4  11  25  44  65  89 120 163 211 261 314 372
#     4  11  23  39  62  89 120 157 203 254 309 370
#     4  10  19  34  57  84 116 152 191 238 293 357
#     4  10  22  37  58  86 118 154 195 246 301 358
#
# _framework density 20.52731
#
# number of rings (size 3 to 8) (size 9 to 14) (size 15 to 20)
#    0.000    1.750    1.250    2.625    1.750    6.000 
#    0.000    1.250    0.000    0.000    0.000    0.000 
#    0.000    0.000    0.000    0.000    0.000    0.000 
#
# Total GULP energy -396822.531840 kJ/mol
# GULP energy per Si atom -12400.704120 kJ/mol
# Density = 2.048059 g / cm^3
# Si number density = 20.527310 Si / 1000 Ang^3
#
#
#
# Elastic Constant Matrix: (Units=GPa)
#
#
# Indices 1 2 3 4 5 6 
#
# 1 116.6963 36.8239 41.3214 0.0000 -7.9214 0.0000
# 2 36.8239 55.6439 36.5467 0.0000 -2.2373 0.0000
# 3 41.3214 36.5467 138.6567 0.0000 -9.0774 0.0000
# 4 0.0000 0.0000 0.0000 30.9735 0.0000 -4.5209
# 5 -7.9214 -2.2373 -9.0774 0.0000 39.2886 0.0000
# 6 0.0000 0.0000 0.0000 -4.5209 0.0000 31.1486
#
#
#
# Elastic Compliance Matrix: (Units=1/GPa)
#
#
# Indices 1 2 3 4 5 6 
#
# 1 0.011231 -0.006335 -0.001576 0.000000 0.001539 0.000000
# 2 -0.006335 0.025308 -0.004845 0.000000 -0.000956 0.000000
# 3 -0.001576 -0.004845 0.009057 0.000000 0.001499 0.000000
# 4 0.000000 0.000000 0.000000 0.032984 0.000000 0.004787
# 5 0.001539 -0.000956 0.001499 0.000000 0.026055 0.000000
# 6 0.000000 0.000000 0.000000 0.004787 0.000000 0.032799
#
#
# Mechanical properties :
#
#
# Convention : Reuss Voigt Hill
#
# Bulk Modulus (GPa) = 49.79488 60.04232 54.91860
# Shear Modulus (GPa) = 29.47388 33.36914 31.42151
#
# Velocity S-wave (km/s) = 3.79336 4.03624 3.91668
# Velocity P-wave (km/s) = 6.59519 7.14389 6.87502
#
# Compressibility (1/GPa) = 0.02008239
#
# Stress axis : x y z
#
# Youngs Moduli (GPa) = 89.03911 39.51357 110.41142
#
# Poissons Ratio (x) = 0.25033 0.17405
# Poissons Ratio (y) = 0.56408 0.53496
# Poissons Ratio (z) = 0.14036 0.19145
#
# Static dielectric constant tensor:
#      x y z
#    x 2.273910 0.000000 0.881390 
#    y 0.000000 3.563200 0.000000 
#    z 0.881390 0.000000 3.280210 
# 
# 
# High freq. dielectric constant tensor:
#      x y z
#    x 1.821440 0.000000 -0.003860 
#    y 0.000000 1.782170 0.000000 
#    z -0.003860 0.000000 1.809540 
# 
# From -- ./inp_files/69105.got.cif
#   From: 2010.06.25/outbox.cif.g09.slc.cpg/sg11_35_cif.got.tgz:69105.got - 2010.06.27 23:14:04.
