data_PCOD8072071
_publ_section_title
;
Structure prediction by ZEFSAII (Michael W. Deem and Ramdas Pophale) SiO2 
 PCOD8072071
Probable space group: P 21/M
;
_chemical_formula_sum "Si O2"
_cell_formula_units_Z 28
_cell_length_a 29.064081
_cell_length_b 8.561862
_cell_length_c 9.034489
_cell_angle_alpha 90.000000
_cell_angle_beta 141.023303
_cell_angle_gamma 90.000000
_cell_volume 1414.106117
_symmetry_space_group_name_H-M "P 21/M"
_symmetry_group_IT_number 11
_symmetry_cell_setting 'monoclinic'
loop_
_space_group_symop_operation_xyz
x,y,z
-x,1/2+y,-z
-x,-y,-z
x,1/2-y,z
loop_
_atom_site_type_symbol
_atom_site_label
_atom_site_fract_x
_atom_site_fract_y
_atom_site_fract_z
Si Si1 0.068983 0.433820 0.588196
Si Si2 0.502035 0.431107 0.345336
Si Si3 0.659709 0.433573 0.727133
Si Si4 0.071032 0.064314 0.257184
Si Si5 0.343588 0.433294 0.955134
Si Si6 0.211970 0.567400 0.448997
Si Si7 0.790863 0.567533 0.877751
O O1 0.062683 0.250000 0.573232
O O2 0.069873 0.495867 0.422825
O O3 0.000000 0.500000 0.500000
O O4 0.143086 0.488912 0.852641
O O5 0.500000 0.500000 0.500000
O O6 0.510612 0.250000 0.388200
O O7 0.578576 0.484959 0.460847
O O8 0.423004 0.472235 0.075200
O O9 0.675477 0.250000 0.743627
O O10 0.715635 0.535552 0.773506
O O11 0.667410 0.472552 0.920263
O O12 0.073314 0.250000 0.251630
O O13 0.141851 0.994620 0.358269
O O14 0.000000 0.000000 0.000000
O O15 0.337401 0.250000 0.976328
O O16 0.283569 0.480504 0.686481
O O17 0.220471 0.750000 0.497672
O O18 0.203615 0.533805 0.255548
O O19 0.796660 0.750000 0.852772
#
# Coordination Sequence:
#
# PCOD8072071 Si02
#       7
#     4   4   4   4   4   4   4
#     4  10  23  40  61  86 114 146 185 228 274 329
#     4   8  16  30  52  81 113 146 186 234 285 339
#     4  10  19  34  57  87 117 148 189 239 288 342
#     4  11  23  41  63  90 120 152 189 232 282 343
#     4  10  19  35  58  84 114 152 193 236 287 347
#     4  12  25  40  58  84 115 151 194 244 294 343
#     4  11  23  40  59  82 113 153 194 237 289 347
#
# _framework density 19.800494
#
# number of rings (size 3 to 8) (size 9 to 14) (size 15 to 20)
#    0.000    1.714    0.000    4.714    0.000    6.857 
#    0.000    0.714    0.000    0.000    0.000    0.000 
#    0.000    0.000    0.000    0.000    0.000    0.000 
#
# Total GULP energy -347075.981176 kJ/mol
# GULP energy per Si atom -12395.570756 kJ/mol
# Density = 1.975543 g / cm^3
# Si number density = 19.800494 Si / 1000 Ang^3
#
#
#
# Elastic Constant Matrix: (Units=GPa)
#
#
# Indices 1 2 3 4 5 6 
#
# 1 131.5766 15.3642 73.5868 0.0000 18.8366 0.0000
# 2 15.3642 26.1589 16.4684 0.0000 13.5059 0.0000
# 3 73.5868 16.4684 145.6699 0.0000 24.9690 0.0000
# 4 0.0000 0.0000 0.0000 31.2270 0.0000 0.4561
# 5 18.8366 13.5059 24.9690 0.0000 39.7013 0.0000
# 6 0.0000 0.0000 0.0000 0.4561 0.0000 32.4212
#
#
#
# Elastic Compliance Matrix: (Units=1/GPa)
#
#
# Indices 1 2 3 4 5 6 
#
# 1 0.010865 -0.002664 -0.004998 0.000000 -0.001105 0.000000
# 2 -0.002664 0.048103 -0.001686 0.000000 -0.014040 0.000000
# 3 -0.004998 -0.001686 0.010172 0.000000 -0.003453 0.000000
# 4 0.000000 0.000000 0.000000 0.032030 0.000000 -0.000451
# 5 -0.001105 -0.014040 -0.003453 0.000000 0.032660 0.000000
# 6 0.000000 0.000000 0.000000 -0.000451 0.000000 0.030850
#
#
# Mechanical properties :
#
#
# Convention : Reuss Voigt Hill
#
# Bulk Modulus (GPa) = 19.82408 57.13825 38.48117
# Shear Modulus (GPa) = 24.97632 33.86895 29.42264
#
# Velocity S-wave (km/s) = 3.55547 4.14032 3.85899
# Velocity P-wave (km/s) = 5.18544 7.19555 6.27155
#
# Compressibility (1/GPa) = 0.05044370
#
# Stress axis : x y z
#
# Youngs Moduli (GPa) = 92.04264 20.78886 98.31032
#
# Poissons Ratio (x) = 0.05539 0.49132
# Poissons Ratio (y) = 0.24522 0.16573
# Poissons Ratio (z) = 0.46000 0.03505
#
# Static dielectric constant tensor:
#      x y z
#    x 3.640870 0.000000 0.557580 
#    y 0.000000 3.648140 0.000000 
#    z 0.557580 0.000000 3.331010 
# 
# 
# High freq. dielectric constant tensor:
#      x y z
#    x 1.771050 0.000000 0.023750 
#    y 0.000000 1.778370 0.000000 
#    z 0.023750 0.000000 1.784420 
# 
# From -- ./inp_files/28532.got.cif
#   From: 2010.06.25/outbox.cif.g09.slc.cpg/sg11_15_cif.got.tgz:28532.got - 2010.06.27 23:14:04.
