data_PCOD8072970
_publ_section_title
;
Structure prediction by ZEFSAII (Michael W. Deem and Ramdas Pophale) SiO2 
 PCOD8072970
Probable space group: P 21/M
;
_chemical_formula_sum "Si O2"
_cell_formula_units_Z 32
_cell_length_a 26.636740
_cell_length_b 8.791407
_cell_length_c 21.115507
_cell_angle_alpha 90.000000
_cell_angle_beta 21.039756
_cell_angle_gamma 90.000000
_cell_volume 1775.228868
_symmetry_space_group_name_H-M "P 21/M"
_symmetry_group_IT_number 11
_symmetry_cell_setting 'monoclinic'
loop_
_space_group_symop_operation_xyz
x,y,z
-x,1/2+y,-z
-x,-y,-z
x,1/2-y,z
loop_
_atom_site_type_symbol
_atom_site_label
_atom_site_fract_x
_atom_site_fract_y
_atom_site_fract_z
Si Si1 0.228301 0.569663 0.446154
Si Si2 0.524986 0.570400 0.150367
Si Si3 0.599106 0.070063 0.573802
Si Si4 0.883700 0.429479 0.292801
Si Si5 0.602308 0.069673 0.430112
Si Si6 0.903202 0.930454 0.060352
Si Si7 0.918878 0.070077 0.505442
Si Si8 0.190557 0.928924 0.230051
O O1 0.224541 0.750000 0.447168
O O2 0.387881 0.518725 0.272065
O O3 0.126518 0.510386 0.622763
O O4 0.170368 0.502451 0.448339
O O5 0.549494 0.750000 0.115621
O O6 0.507044 0.520619 0.245335
O O7 0.655965 0.483083 0.968315
O O8 0.609493 0.250000 0.561496
O O9 0.753440 0.002167 0.406115
O O10 0.552174 0.014737 0.559241
O O11 0.864125 0.250000 0.317432
O O12 0.028697 0.472447 0.088174
O O13 0.601477 0.250000 0.425554
O O14 0.500000 0.000000 0.500000
O O15 0.755216 0.009601 0.235386
O O16 0.889903 0.750000 0.085413
O O17 0.000000 0.000000 0.000000
O O18 0.933072 0.250000 0.484086
O O19 0.839454 0.018906 0.662620
O O20 0.075189 0.002322 0.319611
O O21 0.180957 0.750000 0.233966
#
# Coordination Sequence:
#
# PCOD8072970 Si02
#       8
#     4   4   4   4   4   4   4   4
#     4   8  15  30  54  79  99 124 170 219 248 287
#     4   9  17  32  56  79  97 127 173 213 249 302
#     4   8  15  31  54  75  98 132 172 211 249 301
#     4   8  14  28  52  79 101 125 165 215 256 296
#     4  11  22  38  55  76 107 140 177 221 267 315
#     4  11  20  33  56  82 106 138 177 219 264 313
#     4   9  18  34  54  74  99 135 174 209 247 298
#     4  10  20  33  49  73 107 139 167 204 253 305
#
# _framework density 18.025845
#
# number of rings (size 3 to 8) (size 9 to 14) (size 15 to 20)
#    0.000    2.750    1.250    2.625    0.000    1.000 
#    2.250    1.875    0.000    0.750    0.000    0.000 
#    0.000    0.000    0.000    0.000    0.000    0.000 
#
# Total GULP energy -396587.577332 kJ/mol
# GULP energy per Si atom -12393.361792 kJ/mol
# Density = 1.798482 g / cm^3
# Si number density = 18.025845 Si / 1000 Ang^3
#
#
#
# Elastic Constant Matrix: (Units=GPa)
#
#
# Indices 1 2 3 4 5 6 
#
# 1 164.4013 31.2278 82.7167 0.0000 -2.3323 0.0000
# 2 31.2278 37.3871 28.1830 0.0000 -0.1539 0.0000
# 3 82.7167 28.1830 123.6455 0.0000 -0.0629 0.0000
# 4 0.0000 0.0000 0.0000 29.8589 0.0000 -2.3417
# 5 -2.3323 -0.1539 -0.0629 0.0000 23.8744 0.0000
# 6 0.0000 0.0000 0.0000 -2.3417 0.0000 21.4893
#
#
#
# Elastic Compliance Matrix: (Units=1/GPa)
#
#
# Indices 1 2 3 4 5 6 
#
# 1 0.009624 -0.003842 -0.005562 0.000000 0.000901 0.000000
# 2 -0.003842 0.033831 -0.005141 0.000000 -0.000171 0.000000
# 3 -0.005562 -0.005141 0.012980 0.000000 -0.000542 0.000000
# 4 0.000000 0.000000 0.000000 0.033780 0.000000 0.003681
# 5 0.000901 -0.000171 -0.000542 0.000000 0.041971 0.000000
# 6 0.000000 0.000000 0.000000 0.003681 0.000000 0.046936
#
#
# Mechanical properties :
#
#
# Convention : Reuss Voigt Hill
#
# Bulk Modulus (GPa) = 36.57008 67.74322 52.15665
# Shear Modulus (GPa) = 23.00691 27.26494 25.13593
#
# Velocity S-wave (km/s) = 3.57645 3.89337 3.73827
# Velocity P-wave (km/s) = 6.11443 7.60748 6.90145
#
# Compressibility (1/GPa) = 0.02734476
#
# Stress axis : x y z
#
# Youngs Moduli (GPa) = 103.91109 29.55875 77.04150
#
# Poissons Ratio (x) = 0.11356 0.42850
# Poissons Ratio (y) = 0.39921 0.39608
# Poissons Ratio (z) = 0.57794 0.15197
#
# Static dielectric constant tensor:
#      x y z
#    x 3.711770 0.000000 0.420790 
#    y 0.000000 3.024870 0.000000 
#    z 0.420790 0.000000 3.021630 
# 
# 
# High freq. dielectric constant tensor:
#      x y z
#    x 1.701450 0.000000 0.010120 
#    y 0.000000 1.665950 0.000000 
#    z 0.010120 0.000000 1.699740 
# 
# From -- ./inp_files/67055.got.cif
#   From: 2010.06.25/outbox.cif.g09.slc.cpg/sg11_34_cif.got.tgz:67055.got - 2010.06.27 23:14:04.
