data_PCOD8072647
_publ_section_title
;
Structure prediction by ZEFSAII (Michael W. Deem and Ramdas Pophale) SiO2 
 PCOD8072647
Probable space group: P 21/M
;
_chemical_formula_sum "Si O2"
_cell_formula_units_Z 28
_cell_length_a 20.275473
_cell_length_b 8.638053
_cell_length_c 23.306674
_cell_angle_alpha 90.000000
_cell_angle_beta 19.260437
_cell_angle_gamma 90.000000
_cell_volume 1346.481089
_symmetry_space_group_name_H-M "P 21/M"
_symmetry_group_IT_number 11
_symmetry_cell_setting 'monoclinic'
loop_
_space_group_symop_operation_xyz
x,y,z
-x,1/2+y,-z
-x,-y,-z
x,1/2-y,z
loop_
_atom_site_type_symbol
_atom_site_label
_atom_site_fract_x
_atom_site_fract_y
_atom_site_fract_z
Si Si1 0.360728 0.566718 0.842962
Si Si2 0.084112 0.933453 0.489295
Si Si3 0.547479 0.567319 0.113994
Si Si4 0.462877 0.070254 0.469167
Si Si5 0.122572 0.934273 0.229415
Si Si6 0.175553 0.432870 0.893431
Si Si7 0.758964 0.932707 0.453807
O O1 0.335598 0.750000 0.858147
O O2 0.342663 0.516573 0.923498
O O3 0.176186 0.485171 0.959675
O O4 0.573428 0.503325 0.644036
O O5 0.059780 0.750000 0.511433
O O6 0.316094 0.983445 0.302540
O O7 0.000000 0.000000 0.500000
O O8 0.953815 0.008760 0.646583
O O9 0.568369 0.750000 0.102645
O O10 0.662118 0.508903 0.962494
O O11 0.473905 0.250000 0.470768
O O12 0.262449 0.024540 0.597187
O O13 0.500000 0.000000 0.500000
O O14 0.630765 0.015483 0.288905
O O15 0.142239 0.750000 0.214331
O O16 0.965687 0.995747 0.309878
O O17 0.180667 0.250000 0.882455
O O18 0.000000 0.500000 0.000000
O O19 0.752785 0.750000 0.465661
#
# Coordination Sequence:
#
# PCOD8072647 Si02
#       7
#     4   4   4   4   4   4   4
#     4  10  19  37  62  87 118 160 208 260 317 378
#     4  11  25  45  69  96 131 171 212 263 321 383
#     4  11  24  41  63  97 133 168 212 261 316 382
#     4  10  20  36  55  81 116 159 207 257 314 375
#     4  11  22  40  67  97 127 167 216 265 316 377
#     4  11  22  37  56  82 116 159 208 259 317 377
#     4   8  17  34  58  84 114 154 204 255 309 371
#
# _framework density 20.794944000000001
#
# number of rings (size 3 to 8) (size 9 to 14) (size 15 to 20)
#    0.000    1.714    1.429    4.286    0.000    3.429 
#    0.000    6.429    0.000    0.000    0.000    0.000 
#    0.000    0.000    0.000    0.000    0.000    0.000 
#
# Total GULP energy -347016.602858 kJ/mol
# GULP energy per Si atom -12393.450102 kJ/mol
# Density = 2.074761 g / cm^3
# Si number density = 20.794944 Si / 1000 Ang^3
#
#
#
# Elastic Constant Matrix: (Units=GPa)
#
#
# Indices 1 2 3 4 5 6 
#
# 1 153.9232 53.7445 44.2297 0.0000 2.1120 0.0000
# 2 53.7445 172.3928 46.5290 0.0000 -7.1297 0.0000
# 3 44.2297 46.5290 92.1799 0.0000 10.3293 0.0000
# 4 0.0000 0.0000 0.0000 30.8875 0.0000 4.7253
# 5 2.1120 -7.1297 10.3293 0.0000 28.3662 0.0000
# 6 0.0000 0.0000 0.0000 4.7253 0.0000 39.1731
#
#
#
# Elastic Compliance Matrix: (Units=1/GPa)
#
#
# Indices 1 2 3 4 5 6 
#
# 1 0.007932 -0.001668 -0.002972 0.000000 0.000073 0.000000
# 2 -0.001668 0.007329 -0.003252 0.000000 0.003150 0.000000
# 3 -0.002972 -0.003252 0.014578 0.000000 -0.005904 0.000000
# 4 0.000000 0.000000 0.000000 0.032984 0.000000 -0.003979
# 5 0.000073 0.003150 -0.005904 0.000000 0.038190 0.000000
# 6 0.000000 0.000000 0.000000 -0.003979 0.000000 0.026008
#
#
# Mechanical properties :
#
#
# Convention : Reuss Voigt Hill
#
# Bulk Modulus (GPa) = 71.15257 78.61137 74.88197
# Shear Modulus (GPa) = 33.90084 37.95155 35.92619
#
# Velocity S-wave (km/s) = 4.04201 4.27668 4.16100
# Velocity P-wave (km/s) = 7.48828 7.89125 7.69240
#
# Compressibility (1/GPa) = 0.01405431
#
# Stress axis : x y z
#
# Youngs Moduli (GPa) = 126.06945 136.45108 68.59789
#
# Poissons Ratio (x) = 0.22755 0.20390
# Poissons Ratio (y) = 0.21024 0.22309
# Poissons Ratio (z) = 0.37472 0.44375
#
# Static dielectric constant tensor:
#      x y z
#    x 3.468610 0.000000 0.133770 
#    y 0.000000 3.641730 0.000000 
#    z 0.133770 0.000000 3.771710 
# 
# 
# High freq. dielectric constant tensor:
#      x y z
#    x 1.831360 0.000000 -0.002530 
#    y 0.000000 1.810760 0.000000 
#    z -0.002530 0.000000 1.802620 
# 
# From -- ./inp_files/69783.got.cif
#   From: 2010.06.25/outbox.cif.g09.slc.cpg/sg11_35_cif.got.tgz:69783.got - 2010.06.27 23:14:04.
