data_PCOD8072311
_publ_section_title
;
Structure prediction by ZEFSAII (Michael W. Deem and Ramdas Pophale) SiO2 
 PCOD8072311
Probable space group: P 21/M
;
_chemical_formula_sum "Si O2"
_cell_formula_units_Z 32
_cell_length_a 30.030816
_cell_length_b 8.746926
_cell_length_c 12.613272
_cell_angle_alpha 90.000000
_cell_angle_beta 151.441804
_cell_angle_gamma 90.000000
_cell_volume 1583.888858
_symmetry_space_group_name_H-M "P 21/M"
_symmetry_group_IT_number 11
_symmetry_cell_setting 'monoclinic'
loop_
_space_group_symop_operation_xyz
x,y,z
-x,1/2+y,-z
-x,-y,-z
x,1/2-y,z
loop_
_atom_site_type_symbol
_atom_site_label
_atom_site_fract_x
_atom_site_fract_y
_atom_site_fract_z
Si Si1 0.036559 0.932416 0.468417
Si Si2 0.129379 0.430349 0.022088
Si Si3 0.755728 0.069878 0.142771
Si Si4 0.667383 0.569116 0.595039
Si Si5 0.256358 0.927512 0.644750
Si Si6 0.594242 0.068264 0.651316
Si Si7 0.098874 0.070410 0.189764
Si Si8 0.598374 0.430230 0.232295
O O1 0.036125 0.750000 0.472601
O O2 0.140252 0.996315 0.660247
O O3 0.000000 0.000000 0.500000
O O4 0.963549 0.995307 0.227928
O O5 0.121158 0.250000 0.009044
O O6 0.224193 0.476321 0.158907
O O7 0.137518 0.493961 0.158641
O O8 0.760823 0.250000 0.140439
O O9 0.719004 0.025132 0.183203
O O10 0.681369 0.004563 0.902752
O O11 0.650932 0.750000 0.567230
O O12 0.605688 0.486634 0.554618
O O13 0.638426 0.512784 0.418838
O O14 0.230594 0.750000 0.584459
O O15 0.340162 0.969716 0.742117
O O16 0.165234 0.020763 0.423257
O O17 0.588297 0.250000 0.643010
O O18 0.500000 0.000000 0.500000
O O19 0.089670 0.250000 0.169122
O O20 0.000000 0.000000 0.000000
O O21 0.592102 0.250000 0.239934
O O22 0.500000 0.500000 0.000000
#
# Coordination Sequence:
#
# PCOD8072311 Si02
#       8
#     4   4   4   4   4   4   4   4
#     4  10  19  35  58  84 114 153 197 244 296 357
#     4   9  19  35  58  84 116 156 196 239 300 363
#     4   9  20  39  62  86 121 162 201 247 307 368
#     4  11  22  41  65  90 125 164 204 257 312 371
#     4  10  21  40  63  89 121 162 204 251 309 370
#     4  11  24  42  64  92 121 161 210 260 315 373
#     4  11  21  36  57  86 121 162 204 249 300 361
#     4  11  24  40  64  95 126 162 207 259 313 377
#
# _framework density 20.203437999999998
#
# number of rings (size 3 to 8) (size 9 to 14) (size 15 to 20)
#    0.000    1.750    1.250    3.000    1.750    2.500 
#    0.000    5.625    0.000    0.000    0.000    0.000 
#    0.000    0.000    0.000    0.000    0.000    0.000 
#
# Total GULP energy -396798.785280 kJ/mol
# GULP energy per Si atom -12399.962040 kJ/mol
# Density = 2.015745 g / cm^3
# Si number density = 20.203438 Si / 1000 Ang^3
#
#
#
# Elastic Constant Matrix: (Units=GPa)
#
#
# Indices 1 2 3 4 5 6 
#
# 1 151.2439 37.1151 54.8997 0.0000 5.2224 0.0000
# 2 37.1151 56.8762 32.0491 0.0000 6.2922 0.0000
# 3 54.8997 32.0491 133.1444 0.0000 10.4191 0.0000
# 4 0.0000 0.0000 0.0000 30.5760 0.0000 -0.1364
# 5 5.2224 6.2922 10.4191 0.0000 39.9359 0.0000
# 6 0.0000 0.0000 0.0000 -0.1364 0.0000 31.8068
#
#
#
# Elastic Compliance Matrix: (Units=1/GPa)
#
#
# Indices 1 2 3 4 5 6 
#
# 1 0.008549 -0.004172 -0.002537 0.000000 0.000201 0.000000
# 2 -0.004172 0.022529 -0.003540 0.000000 -0.002081 0.000000
# 3 -0.002537 -0.003540 0.009534 0.000000 -0.001598 0.000000
# 4 0.000000 0.000000 0.000000 0.032706 0.000000 0.000140
# 5 0.000201 -0.002081 -0.001598 0.000000 0.025759 0.000000
# 6 0.000000 0.000000 0.000000 0.000140 0.000000 0.031440
#
#
# Mechanical properties :
#
#
# Convention : Reuss Voigt Hill
#
# Bulk Modulus (GPa) = 49.71329 65.48803 57.60066
# Shear Modulus (GPa) = 31.70176 34.94378 33.32277
#
# Velocity S-wave (km/s) = 3.96552 4.16335 4.06564
# Velocity P-wave (km/s) = 6.75477 7.45627 7.11417
#
# Compressibility (1/GPa) = 0.02011535
#
# Stress axis : x y z
#
# Youngs Moduli (GPa) = 116.96627 44.38650 104.89021
#
# Poissons Ratio (x) = 0.18517 0.26608
# Poissons Ratio (y) = 0.48797 0.37131
# Poissons Ratio (z) = 0.29671 0.15713
#
# Static dielectric constant tensor:
#      x y z
#    x 3.874910 0.000000 -0.022030 
#    y 0.000000 3.452960 0.000000 
#    z -0.022030 0.000000 4.015470 
# 
# 
# High freq. dielectric constant tensor:
#      x y z
#    x 1.804740 0.000000 0.001020 
#    y 0.000000 1.766400 0.000000 
#    z 0.001020 0.000000 1.801580 
# 
# From -- ./inp_files/45248.got.cif
#   From: 2010.06.25/outbox.cif.g09.slc.cpg/sg11_23_cif.got.tgz:45248.got - 2010.06.27 23:14:04.
