data_PCOD8072186
_publ_section_title
;
Structure prediction by ZEFSAII (Michael W. Deem and Ramdas Pophale) SiO2 
 PCOD8072186
Probable space group: P 21/M
;
_chemical_formula_sum "Si O2"
_cell_formula_units_Z 32
_cell_length_a 14.640092
_cell_length_b 8.993016
_cell_length_c 18.978528
_cell_angle_alpha 90.000000
_cell_angle_beta 138.231053
_cell_angle_gamma 90.000000
_cell_volume 1664.445612
_symmetry_space_group_name_H-M "P 21/M"
_symmetry_group_IT_number 11
_symmetry_cell_setting 'monoclinic'
loop_
_space_group_symop_operation_xyz
x,y,z
-x,1/2+y,-z
-x,-y,-z
x,1/2-y,z
loop_
_atom_site_type_symbol
_atom_site_label
_atom_site_fract_x
_atom_site_fract_y
_atom_site_fract_z
Si Si1 0.133282 0.585115 0.095982
Si Si2 0.480739 0.920291 0.809673
Si Si3 0.111218 0.427250 0.815353
Si Si4 0.577914 0.424090 0.381677
Si Si5 0.632616 0.077670 0.110417
Si Si6 0.662352 0.427148 0.672656
Si Si7 0.194922 0.923557 0.384776
Si Si8 0.750239 0.417337 0.985903
O O1 0.087271 0.750000 0.089595
O O2 0.213640 0.513555 0.207138
O O3 0.234635 0.580700 0.088673
O O4 0.000000 0.500000 0.000000
O O5 0.529755 0.750000 0.829278
O O6 0.432535 0.981908 0.705217
O O7 0.363297 0.933853 0.801585
O O8 0.601363 0.015728 0.913968
O O9 0.122958 0.250000 0.817320
O O10 0.227340 0.500789 0.833822
O O11 0.960246 0.487128 0.705250
O O12 0.135391 0.481947 0.909534
O O13 0.546828 0.250000 0.367311
O O14 0.476540 0.501717 0.378483
O O15 0.732298 0.458390 0.498520
O O16 0.630644 0.250000 0.086077
O O17 0.500000 0.000000 0.000000
O O18 0.645154 0.250000 0.667834
O O19 0.704528 0.485296 0.619323
O O20 0.181035 0.750000 0.362076
O O21 0.758332 0.250000 0.020692
#
# Coordination Sequence:
#
# PCOD8072186 Si02
#       8
#     4   4   4   4   4   4   4   4
#     4  10  21  33  48  75 111 149 186 227 277 330
#     4  10  21  36  57  82 111 143 181 227 281 334
#     4  11  22  38  59  83 113 151 187 230 284 340
#     4  10  20  37  59  84 110 147 194 235 272 330
#     4  11  22  37  58  86 114 146 184 232 285 340
#     4  10  19  35  55  80 112 148 187 233 280 328
#     4   9  20  37  58  81 112 151 191 230 278 333
#     4  11  21  34  54  80 112 146 184 231 278 332
#
# _framework density 19.225622000000001
#
# number of rings (size 3 to 8) (size 9 to 14) (size 15 to 20)
#    0.000    1.750    2.500    2.250    0.000    3.000 
#    0.000    3.125    0.000    0.000    0.000    0.000 
#    0.000    0.000    0.000    0.000    0.000    0.000 
#
# Total GULP energy -396614.688739 kJ/mol
# GULP energy per Si atom -12394.209023 kJ/mol
# Density = 1.918186 g / cm^3
# Si number density = 19.225622 Si / 1000 Ang^3
#
#
#
# Elastic Constant Matrix: (Units=GPa)
#
#
# Indices 1 2 3 4 5 6 
#
# 1 92.3583 26.2824 46.5032 0.0000 -3.4183 0.0000
# 2 26.2824 67.0575 35.4289 0.0000 4.9448 0.0000
# 3 46.5032 35.4289 132.1091 0.0000 2.2571 0.0000
# 4 0.0000 0.0000 0.0000 19.0302 0.0000 3.3185
# 5 -3.4183 4.9448 2.2571 0.0000 23.8689 0.0000
# 6 0.0000 0.0000 0.0000 3.3185 0.0000 29.3344
#
#
#
# Elastic Compliance Matrix: (Units=1/GPa)
#
#
# Indices 1 2 3 4 5 6 
#
# 1 0.013986 -0.003592 -0.004013 0.000000 0.003127 0.000000
# 2 -0.003592 0.018539 -0.003639 0.000000 -0.004011 0.000000
# 3 -0.004013 -0.003639 0.009971 0.000000 -0.000764 0.000000
# 4 0.000000 0.000000 0.000000 0.053606 0.000000 -0.006064
# 5 0.003127 -0.004011 -0.000764 0.000000 0.043246 0.000000
# 6 0.000000 0.000000 0.000000 -0.006064 0.000000 0.034776
#
#
# Mechanical properties :
#
#
# Convention : Reuss Voigt Hill
#
# Bulk Modulus (GPa) = 49.98043 56.43934 53.20988
# Shear Modulus (GPa) = 24.59652 26.66737 25.63194
#
# Velocity S-wave (km/s) = 3.58070 3.72839 3.65529
# Velocity P-wave (km/s) = 6.56874 6.92492 6.74918
#
# Compressibility (1/GPa) = 0.02000783
#
# Stress axis : x y z
#
# Youngs Moduli (GPa) = 71.50013 53.94145 100.28969
#
# Poissons Ratio (x) = 0.19375 0.40249
# Poissons Ratio (y) = 0.25682 0.36493
# Poissons Ratio (z) = 0.28695 0.19628
#
# Static dielectric constant tensor:
#      x y z
#    x 8.229660 0.000000 -4.055140 
#    y 0.000000 3.401500 0.000000 
#    z -4.055140 0.000000 7.060310 
# 
# 
# High freq. dielectric constant tensor:
#      x y z
#    x 1.750480 0.000000 -0.009580 
#    y 0.000000 1.734190 0.000000 
#    z -0.009580 0.000000 1.747650 
# 
# From -- ./inp_files/42889.got.cif
#   From: 2010.06.25/outbox.cif.g09.slc.cpg/sg11_22_cif.got.tgz:42889.got - 2010.06.27 23:14:04.
