data_PCOD8072983
_publ_section_title
;
Structure prediction by ZEFSAII (Michael W. Deem and Ramdas Pophale) SiO2 
 PCOD8072983
Probable space group: P 21/M
;
_chemical_formula_sum "Si O2"
_cell_formula_units_Z 32
_cell_length_a 12.193090
_cell_length_b 9.053596
_cell_length_c 21.700870
_cell_angle_alpha 90.000000
_cell_angle_beta 46.629066
_cell_angle_gamma 90.000000
_cell_volume 1741.407966
_symmetry_space_group_name_H-M "P 21/M"
_symmetry_group_IT_number 11
_symmetry_cell_setting 'monoclinic'
loop_
_space_group_symop_operation_xyz
x,y,z
-x,1/2+y,-z
-x,-y,-z
x,1/2-y,z
loop_
_atom_site_type_symbol
_atom_site_label
_atom_site_fract_x
_atom_site_fract_y
_atom_site_fract_z
Si Si1 0.388018 0.079446 0.717329
Si Si2 0.769506 0.913483 0.765071
Si Si3 0.500947 0.577869 0.194451
Si Si4 0.952602 0.580619 0.150888
Si Si5 0.394497 0.575580 0.590098
Si Si6 0.241499 0.579608 0.980596
Si Si7 0.652268 0.914999 0.946977
Si Si8 0.052115 0.575510 0.721493
O O1 0.400400 0.250000 0.692561
O O2 0.495408 0.045456 0.734070
O O3 0.217328 0.038503 0.803378
O O4 0.441684 0.979254 0.639875
O O5 0.765497 0.750000 0.736010
O O6 0.722458 0.900903 0.853454
O O7 0.942548 0.974356 0.706119
O O8 0.657397 0.017124 0.770087
O O9 0.506477 0.750000 0.177831
O O10 0.652190 0.509293 0.106619
O O11 0.962716 0.750000 0.168163
O O12 0.001377 0.487201 0.192087
O O13 0.058382 0.557433 0.048276
O O14 0.500000 0.500000 0.500000
O O15 0.415567 0.750000 0.578936
O O16 0.223146 0.525975 0.640941
O O17 0.290540 0.750000 0.955744
O O18 0.254090 0.520063 0.044859
O O19 0.630970 0.750000 0.983453
O O20 0.500000 0.000000 0.000000
O O21 0.040691 0.750000 0.732825
#
# Coordination Sequence:
#
# PCOD8072983 Si02
#       8
#     4   4   4   4   4   4   4   4
#     4   9  20  39  56  76 106 138 174 216 261 312
#     4  10  20  33  50  72 103 138 176 221 263 305
#     4  11  23  35  50  71 102 145 186 221 261 308
#     4   9  18  32  51  72  99 135 176 225 271 306
#     4  10  20  36  63  92 113 133 159 199 254 315
#     4  11  21  31  46  70 100 138 184 229 268 308
#     4  11  20  30  46  67  96 135 179 230 271 301
#     4   9  18  33  53  80 108 134 167 210 261 308
#
# _framework density 18.375934000000001
#
# number of rings (size 3 to 8) (size 9 to 14) (size 15 to 20)
#    0.000    2.000    2.500    1.500    0.000    3.500 
#    0.000    0.000    0.000    0.750    0.000    0.000 
#    0.000    0.000    0.000    0.000    0.000    0.000 
#
# Total GULP energy -396435.616492 kJ/mol
# GULP energy per Si atom -12388.613015 kJ/mol
# Density = 1.833411 g / cm^3
# Si number density = 18.375934 Si / 1000 Ang^3
#
#
#
# Elastic Constant Matrix: (Units=GPa)
#
#
# Indices 1 2 3 4 5 6 
#
# 1 92.7525 43.2712 48.0921 0.0000 5.9071 0.0000
# 2 43.2712 82.3911 43.4614 0.0000 2.9754 0.0000
# 3 48.0921 43.4614 96.2015 0.0000 -5.6195 0.0000
# 4 0.0000 0.0000 0.0000 24.6176 0.0000 2.0565
# 5 5.9071 2.9754 -5.6195 0.0000 17.0293 0.0000
# 6 0.0000 0.0000 0.0000 2.0565 0.0000 25.1250
#
#
#
# Elastic Compliance Matrix: (Units=1/GPa)
#
#
# Indices 1 2 3 4 5 6 
#
# 1 0.017111 -0.005242 -0.006606 0.000000 -0.007200 0.000000
# 2 -0.005242 0.018016 -0.005707 0.000000 -0.003213 0.000000
# 3 -0.006606 -0.005707 0.016791 0.000000 0.008830 0.000000
# 4 0.000000 0.000000 0.000000 0.040901 0.000000 -0.003348
# 5 -0.007200 -0.003213 0.008830 0.000000 0.064695 0.000000
# 6 0.000000 0.000000 0.000000 -0.003348 0.000000 0.040075
#
#
# Mechanical properties :
#
#
# Convention : Reuss Voigt Hill
#
# Bulk Modulus (GPa) = 59.49133 60.11048 59.80090
# Shear Modulus (GPa) = 20.98183 22.45573 21.71878
#
# Velocity S-wave (km/s) = 3.38273 3.49953 3.44163
# Velocity P-wave (km/s) = 6.90667 7.00796 6.95750
#
# Compressibility (1/GPa) = 0.01680917
#
# Stress axis : x y z
#
# Youngs Moduli (GPa) = 58.44345 55.50504 59.55446
#
# Poissons Ratio (x) = 0.29093 0.39344
# Poissons Ratio (y) = 0.30633 0.33986
# Poissons Ratio (z) = 0.38610 0.31675
#
# Static dielectric constant tensor:
#      x y z
#    x 3.588440 0.000000 -0.239130 
#    y 0.000000 3.466830 0.000000 
#    z -0.239130 0.000000 3.152580 
# 
# 
# High freq. dielectric constant tensor:
#      x y z
#    x 1.712980 0.000000 -0.017350 
#    y 0.000000 1.718850 0.000000 
#    z -0.017350 0.000000 1.681400 
# 
# From -- ./inp_files/64342.got.cif
#   From: 2010.06.25/outbox.cif.g09.slc.cpg/sg11_33_cif.got.tgz:64342.got - 2010.06.27 23:14:04.
