data_PCOD8072683
_publ_section_title
;
Structure prediction by ZEFSAII (Michael W. Deem and Ramdas Pophale) SiO2 
 PCOD8072683
Probable space group: P 21/M
;
_chemical_formula_sum "Si O2"
_cell_formula_units_Z 32
_cell_length_a 11.601320
_cell_length_b 15.493898
_cell_length_c 17.522365
_cell_angle_alpha 90.000000
_cell_angle_beta 32.616123
_cell_angle_gamma 90.000000
_cell_volume 1697.680245
_symmetry_space_group_name_H-M "P 21/M"
_symmetry_group_IT_number 11
_symmetry_cell_setting 'monoclinic'
loop_
_space_group_symop_operation_xyz
x,y,z
-x,1/2+y,-z
-x,-y,-z
x,1/2-y,z
loop_
_atom_site_type_symbol
_atom_site_label
_atom_site_fract_x
_atom_site_fract_y
_atom_site_fract_z
Si Si1 0.149200 0.596356 0.337001
Si Si2 0.078517 0.921172 0.543975
Si Si3 0.622300 0.847802 0.063348
Si Si4 0.815070 0.995476 0.042282
Si Si5 0.498897 0.028975 0.337871
Si Si6 0.794259 0.652694 0.423992
Si Si7 0.999484 0.846046 0.744266
Si Si8 0.855182 0.514947 0.258882
O O1 0.101602 0.628194 0.450242
O O2 0.392780 0.609896 0.176307
O O3 0.103174 0.494478 0.358877
O O4 0.003538 0.649888 0.360092
O O5 0.304593 0.962920 0.439651
O O6 0.004278 0.854298 0.650008
O O7 0.594754 0.750000 0.106695
O O8 0.746490 0.897038 0.062207
O O9 0.755993 0.854406 0.910145
O O10 0.610015 0.044167 0.192888
O O11 0.914529 0.035831 0.909305
O O12 0.000000 0.000000 0.000000
O O13 0.664018 0.986271 0.304856
O O14 0.413238 0.121837 0.412739
O O15 0.756912 0.750000 0.416515
O O16 0.817741 0.590768 0.338780
O O17 0.087317 0.750000 0.716895
O O18 0.144050 0.921121 0.700982
#
# Coordination Sequence:
#
# PCOD8072683 Si02
#       8
#     4   4   4   4   4   4   4   4
#     4  10  20  37  59  80 115 151 190 237 289 337
#     4  10  20  36  57  87 109 148 191 242 283 347
#     4  10  20  35  57  86 113 147 195 237 284 347
#     4   9  19  37  61  82 113 152 186 239 290 337
#     4  10  19  38  60  83 114 148 194 236 290 347
#     4  11  23  38  57  84 118 156 194 235 292 349
#     4  10  21  36  55  85 115 145 191 239 286 339
#     4  10  20  39  59  84 117 151 188 243 287 345
#
# _framework density 18.849250000000001
#
# number of rings (size 3 to 8) (size 9 to 14) (size 15 to 20)
#    0.000    2.000    3.750    0.750    0.000    2.000 
#    0.000    5.000    0.000    0.000    0.000    0.000 
#    0.000    0.000    0.000    0.000    0.000    0.000 
#
# Total GULP energy -396619.949801 kJ/mol
# GULP energy per Si atom -12394.373431 kJ/mol
# Density = 1.880635 g / cm^3
# Si number density = 18.849250 Si / 1000 Ang^3
#
#
#
# Elastic Constant Matrix: (Units=GPa)
#
#
# Indices 1 2 3 4 5 6 
#
# 1 85.8363 33.2636 33.6731 0.0000 -4.0010 0.0000
# 2 33.2636 108.1312 47.2615 0.0000 -0.7951 0.0000
# 3 33.6731 47.2615 102.7703 0.0000 -5.0676 0.0000
# 4 0.0000 0.0000 0.0000 18.5927 0.0000 1.5978
# 5 -4.0010 -0.7951 -5.0676 0.0000 27.5383 0.0000
# 6 0.0000 0.0000 0.0000 1.5978 0.0000 13.0414
#
#
#
# Elastic Compliance Matrix: (Units=1/GPa)
#
#
# Indices 1 2 3 4 5 6 
#
# 1 0.014107 -0.002927 -0.003208 0.000000 0.001375 0.000000
# 2 -0.002927 0.012194 -0.004695 0.000000 -0.000937 0.000000
# 3 -0.003208 -0.004695 0.013029 0.000000 0.001796 0.000000
# 4 0.000000 0.000000 0.000000 0.054357 0.000000 -0.006660
# 5 0.001375 -0.000937 0.001796 0.000000 0.036816 0.000000
# 6 0.000000 0.000000 0.000000 -0.006660 0.000000 0.077495
#
#
# Mechanical properties :
#
#
# Convention : Reuss Voigt Hill
#
# Bulk Modulus (GPa) = 56.59474 58.34824 57.47149
# Shear Modulus (GPa) = 21.22713 24.00379 22.61546
#
# Velocity S-wave (km/s) = 3.35946 3.57243 3.46758
# Velocity P-wave (km/s) = 6.71849 6.93100 6.82557
#
# Compressibility (1/GPa) = 0.01766949
#
# Stress axis : x y z
#
# Youngs Moduli (GPa) = 70.88602 82.01074 76.75118
#
# Poissons Ratio (x) = 0.24007 0.24624
# Poissons Ratio (y) = 0.20751 0.36031
# Poissons Ratio (z) = 0.22742 0.38501
#
# Static dielectric constant tensor:
#      x y z
#    x 3.481040 0.000000 0.190440 
#    y 0.000000 3.328140 0.000000 
#    z 0.190440 0.000000 4.058610 
# 
# 
# High freq. dielectric constant tensor:
#      x y z
#    x 1.727140 0.000000 0.006450 
#    y 0.000000 1.706280 0.000000 
#    z 0.006450 0.000000 1.752320 
# 
# From -- ./inp_files/59446.got.cif
#   From: 2010.06.25/outbox.cif.g09.slc.cpg/sg11_30_cif.got.tgz:59446.got - 2010.06.27 23:14:04.
