data_PCOD8072234
_publ_section_title
;
Structure prediction by ZEFSAII (Michael W. Deem and Ramdas Pophale) SiO2 
 PCOD8072234
Probable space group: P 21/M
;
_chemical_formula_sum "Si O2"
_cell_formula_units_Z 32
_cell_length_a 12.192608
_cell_length_b 8.847802
_cell_length_c 15.304995
_cell_angle_alpha 90.000000
_cell_angle_beta 92.505211
_cell_angle_gamma 90.000000
_cell_volume 1649.490897
_symmetry_space_group_name_H-M "P 21/M"
_symmetry_group_IT_number 11
_symmetry_cell_setting 'monoclinic'
loop_
_space_group_symop_operation_xyz
x,y,z
-x,1/2+y,-z
-x,-y,-z
x,1/2-y,z
loop_
_atom_site_type_symbol
_atom_site_label
_atom_site_fract_x
_atom_site_fract_y
_atom_site_fract_z
Si Si1 0.452415 0.422586 0.881930
Si Si2 0.719149 0.571794 0.444686
Si Si3 0.058243 0.928777 0.585719
Si Si4 0.695061 0.928005 0.640223
Si Si5 0.677296 0.425994 0.976612
Si Si6 0.092462 0.429627 0.064478
Si Si7 0.909972 0.570855 0.738855
Si Si8 0.522102 0.577681 0.314215
O O1 0.433019 0.250000 0.911446
O O2 0.367042 0.529204 0.929212
O O3 0.426446 0.445156 0.779451
O O4 0.579796 0.466186 0.905031
O O5 0.743673 0.750000 0.442104
O O6 0.817518 0.482810 0.402784
O O7 0.704163 0.509382 0.542100
O O8 0.610468 0.527975 0.388522
O O9 0.049603 0.750000 0.575829
O O10 0.002049 0.984649 0.673838
O O11 0.000000 0.000000 0.500000
O O12 0.703500 0.750000 0.636278
O O13 0.793539 0.995687 0.701814
O O14 0.582086 0.972049 0.680464
O O15 0.707905 0.250000 0.976702
O O16 0.785810 0.519343 0.957965
O O17 0.086445 0.250000 0.056919
O O18 0.066785 0.487212 0.162245
O O19 0.000000 0.500000 0.000000
O O20 0.904240 0.750000 0.739713
O O21 0.484854 0.750000 0.327280
#
# Coordination Sequence:
#
# PCOD8072234 Si02
#       8
#     4   4   4   4   4   4   4   4
#     4   9  19  36  57  83 115 148 185 233 284 336
#     4  10  21  37  55  79 115 151 185 229 279 331
#     4  11  21  38  61  84 112 145 189 236 280 334
#     4  10  19  35  57  79 111 149 186 228 275 336
#     4  10  20  36  59  84 112 147 190 235 281 338
#     4  11  23  40  60  83 115 152 190 237 290 343
#     4   9  20  38  60  84 112 148 187 231 284 338
#     4  10  21  35  53  82 117 148 184 232 281 329
#
# _framework density 19.399926000000001
#
# number of rings (size 3 to 8) (size 9 to 14) (size 15 to 20)
#    0.000    2.000    1.250    2.250    0.000    3.000 
#    0.000    5.625    0.000    0.000    0.000    0.000 
#    0.000    0.000    0.000    0.000    0.000    0.000 
#
# Total GULP energy -396849.472395 kJ/mol
# GULP energy per Si atom -12401.546012 kJ/mol
# Density = 1.935577 g / cm^3
# Si number density = 19.399926 Si / 1000 Ang^3
#
#
#
# Elastic Constant Matrix: (Units=GPa)
#
#
# Indices 1 2 3 4 5 6 
#
# 1 85.8894 30.5867 56.5901 0.0000 -9.6371 0.0000
# 2 30.5867 47.5588 33.8173 0.0000 -1.3097 0.0000
# 3 56.5901 33.8173 148.4294 0.0000 6.6540 0.0000
# 4 0.0000 0.0000 0.0000 23.7540 0.0000 -3.2170
# 5 -9.6371 -1.3097 6.6540 0.0000 29.4347 0.0000
# 6 0.0000 0.0000 0.0000 -3.2170 0.0000 36.7086
#
#
#
# Elastic Compliance Matrix: (Units=1/GPa)
#
#
# Indices 1 2 3 4 5 6 
#
# 1 0.019107 -0.007971 -0.005792 0.000000 0.007210 0.000000
# 2 -0.007971 0.028591 -0.003450 0.000000 -0.000558 0.000000
# 3 -0.005792 -0.003450 0.009924 0.000000 -0.004293 0.000000
# 4 0.000000 0.000000 0.000000 0.042604 0.000000 0.003734
# 5 0.007210 -0.000558 -0.004293 0.000000 0.037280 0.000000
# 6 0.000000 0.000000 0.000000 0.003734 0.000000 0.027569
#
#
# Mechanical properties :
#
#
# Convention : Reuss Voigt Hill
#
# Bulk Modulus (GPa) = 43.11153 58.20733 50.65943
# Shear Modulus (GPa) = 24.12766 28.70503 26.41635
#
# Velocity S-wave (km/s) = 3.53044 3.85079 3.69409
# Velocity P-wave (km/s) = 6.23614 7.05978 6.66070
#
# Compressibility (1/GPa) = 0.02319565
#
# Stress axis : x y z
#
# Youngs Moduli (GPa) = 52.33812 34.97615 100.76805
#
# Poissons Ratio (x) = 0.27880 0.58361
# Poissons Ratio (y) = 0.41720 0.34764
# Poissons Ratio (z) = 0.30312 0.12066
#
# Static dielectric constant tensor:
#      x y z
#    x 3.546950 0.000000 0.019540 
#    y 0.000000 3.470490 0.000000 
#    z 0.019540 0.000000 3.803080 
# 
# 
# High freq. dielectric constant tensor:
#      x y z
#    x 1.758230 0.000000 -0.001520 
#    y 0.000000 1.740650 0.000000 
#    z -0.001520 0.000000 1.766270 
# 
# From -- ./inp_files/38288.got.cif
#   From: 2010.06.25/outbox.cif.g09.slc.cpg/sg11_20_cif.got.tgz:38288.got - 2010.06.27 23:14:04.
