data_PCOD8072765
_publ_section_title
;
Structure prediction by ZEFSAII (Michael W. Deem and Ramdas Pophale) SiO2 
 PCOD8072765
Probable space group: P 21/M
;
_chemical_formula_sum "Si O2"
_cell_formula_units_Z 32
_cell_length_a 28.764516
_cell_length_b 9.250453
_cell_length_c 15.559174
_cell_angle_alpha 90.000000
_cell_angle_beta 153.231813
_cell_angle_gamma 90.000000
_cell_volume 1864.607856
_symmetry_space_group_name_H-M "P 21/M"
_symmetry_group_IT_number 11
_symmetry_cell_setting 'monoclinic'
loop_
_space_group_symop_operation_xyz
x,y,z
-x,1/2+y,-z
-x,-y,-z
x,1/2-y,z
loop_
_atom_site_type_symbol
_atom_site_label
_atom_site_fract_x
_atom_site_fract_y
_atom_site_fract_z
Si Si1 0.394802 0.915030 0.829751
Si Si2 0.954552 0.082305 0.794235
Si Si3 0.069006 0.413663 0.417108
Si Si4 0.083740 0.917512 0.693366
Si Si5 0.857247 0.586110 0.787251
Si Si6 0.766397 0.580269 0.163671
Si Si7 0.361133 0.084674 0.618662
Si Si8 0.589612 0.415168 0.953187
O O1 0.410488 0.750000 0.827628
O O2 0.324234 0.994150 0.642194
O O3 0.354759 0.925736 0.861429
O O4 0.500000 0.000000 0.000000
O O5 0.928290 0.250000 0.743588
O O6 0.923760 0.015042 0.652921
O O7 0.886704 0.019364 0.758932
O O8 0.075675 0.052818 0.016585
O O9 0.086315 0.250000 0.414743
O O10 0.158024 0.456041 0.632027
O O11 0.954973 0.429676 0.271932
O O12 0.090609 0.750000 0.676372
O O13 0.192354 0.997869 0.854037
O O14 0.000000 0.000000 0.500000
O O15 0.880297 0.750000 0.794692
O O16 0.734616 0.568513 0.605931
O O17 0.760940 0.750000 0.135690
O O18 0.651889 0.520008 0.992723
O O19 0.378320 0.250000 0.676228
O O20 0.469784 0.030427 0.757773
O O21 0.594537 0.250000 0.927874
#
# Coordination Sequence:
#
# PCOD8072765 Si02
#       8
#     4   4   4   4   4   4   4   4
#     4   9  17  28  41  60  86 116 153 191 225 265
#     4  10  20  32  49  72  93 119 157 198 236 277
#     4   9  19  33  48  68  94 125 154 183 229 281
#     4   9  17  31  49  69  94 123 154 188 229 276
#     4   9  19  35  50  66  93 124 156 197 242 279
#     4  10  20  31  46  69  97 128 156 186 229 275
#     4   9  18  32  48  63  86 123 158 193 236 276
#     4   9  18  30  43  64  91 120 155 191 226 272
#
# _framework density 17.161784999999998
#
# number of rings (size 3 to 8) (size 9 to 14) (size 15 to 20)
#    0.000    2.750    0.000    3.000    1.750    6.500 
#    0.000    0.000    0.000    0.000    0.000    0.875 
#    0.000    0.000    0.000    0.000    0.000    0.000 
#
# Total GULP energy -396501.185679 kJ/mol
# GULP energy per Si atom -12390.662052 kJ/mol
# Density = 1.712272 g / cm^3
# Si number density = 17.161785 Si / 1000 Ang^3
#
#
#
# Elastic Constant Matrix: (Units=GPa)
#
#
# Indices 1 2 3 4 5 6 
#
# 1 45.3700 27.4891 10.9872 0.0000 13.0461 0.0000
# 2 27.4891 84.4146 15.1008 0.0000 7.5192 0.0000
# 3 10.9872 15.1008 62.4724 0.0000 14.9244 0.0000
# 4 0.0000 0.0000 0.0000 18.8437 0.0000 3.4183
# 5 13.0461 7.5192 14.9244 0.0000 22.9108 0.0000
# 6 0.0000 0.0000 0.0000 3.4183 0.0000 27.7322
#
#
#
# Elastic Compliance Matrix: (Units=1/GPa)
#
#
# Indices 1 2 3 4 5 6 
#
# 1 0.031882 -0.009060 0.000248 0.000000 -0.015343 0.000000
# 2 -0.009060 0.015079 -0.002489 0.000000 0.001832 0.000000
# 3 0.000248 -0.002489 0.019427 0.000000 -0.011979 0.000000
# 4 0.000000 0.000000 0.000000 0.054282 0.000000 -0.006691
# 5 -0.015343 0.001832 -0.011979 0.000000 0.059586 0.000000
# 6 0.000000 0.000000 0.000000 -0.006691 0.000000 0.036884
#
#
# Mechanical properties :
#
#
# Convention : Reuss Voigt Hill
#
# Bulk Modulus (GPa) = 22.83839 33.26793 28.05316
# Shear Modulus (GPa) = 19.65898 23.14267 21.40083
#
# Velocity S-wave (km/s) = 3.38821 3.67618 3.53513
# Velocity P-wave (km/s) = 5.35193 6.11931 5.74844
#
# Compressibility (1/GPa) = 0.04378592
#
# Stress axis : x y z
#
# Youngs Moduli (GPa) = 31.36565 66.31877 51.47513
#
# Poissons Ratio (x) = 0.60084 -0.01277
# Poissons Ratio (y) = 0.28417 0.12812
# Poissons Ratio (z) = -0.00778 0.16507
#
# Static dielectric constant tensor:
#      x y z
#    x 3.284640 0.000000 0.224400 
#    y 0.000000 3.461520 0.000000 
#    z 0.224400 0.000000 2.952230 
# 
# 
# High freq. dielectric constant tensor:
#      x y z
#    x 1.632850 0.000000 0.023320 
#    y 0.000000 1.675430 0.000000 
#    z 0.023320 0.000000 1.638500 
# 
# From -- ./inp_files/56193.got.cif
#   From: 2010.06.25/outbox.cif.g09.slc.cpg/sg11_29_cif.got.tgz:56193.got - 2010.06.27 23:14:04.
