data_PCOD8072367
_publ_section_title
;
Structure prediction by ZEFSAII (Michael W. Deem and Ramdas Pophale) SiO2 
 PCOD8072367
Probable space group: P 21/M
;
_chemical_formula_sum "Si O2"
_cell_formula_units_Z 32
_cell_length_a 9.283553
_cell_length_b 18.301731
_cell_length_c 12.047805
_cell_angle_alpha 90.000000
_cell_angle_beta 51.094463
_cell_angle_gamma 90.000000
_cell_volume 1592.926568
_symmetry_space_group_name_H-M "P 21/M"
_symmetry_group_IT_number 11
_symmetry_cell_setting 'monoclinic'
loop_
_space_group_symop_operation_xyz
x,y,z
-x,1/2+y,-z
-x,-y,-z
x,1/2-y,z
loop_
_atom_site_type_symbol
_atom_site_label
_atom_site_fract_x
_atom_site_fract_y
_atom_site_fract_z
Si Si1 0.011110 0.954001 0.222384
Si Si2 0.338714 0.054482 0.045244
Si Si3 0.086826 0.922222 0.432283
Si Si4 0.538774 0.668911 0.608054
Si Si5 0.347620 0.971239 0.655992
Si Si6 0.218322 0.335182 0.298372
Si Si7 0.479342 0.412342 0.749781
Si Si8 0.228664 0.331061 0.717834
O O1 0.939535 0.887700 0.177814
O O2 0.074093 0.915314 0.305828
O O3 0.845510 0.013089 0.311793
O O4 0.174822 0.999874 0.088133
O O5 0.272003 0.110885 0.171946
O O6 0.409922 0.102410 0.908049
O O7 0.500000 0.000000 0.000000
O O8 0.299621 0.917224 0.366809
O O9 0.975177 0.859452 0.551782
O O10 0.000000 0.000000 0.500000
O O11 0.456906 0.750000 0.634677
O O12 0.367863 0.614915 0.668059
O O13 0.618786 0.655745 0.691377
O O14 0.705918 0.656400 0.440483
O O15 0.500000 0.000000 0.500000
O O16 0.381146 0.013210 0.755612
O O17 0.201060 0.250000 0.268906
O O18 0.405317 0.345260 0.711292
O O19 0.153095 0.250000 0.774790
#
# Coordination Sequence:
#
# PCOD8072367 Si02
#       8
#     4   4   4   4   4   4   4   4
#     4  11  22  36  67  92 124 169 220 265 322 392
#     4  12  24  43  64  96 135 176 221 267 329 403
#     4  12  20  37  66  97 124 166 220 276 326 389
#     4  10  19  35  59  88 125 165 209 267 332 386
#     4  11  19  36  60  94 125 161 216 275 321 378
#     4  11  24  40  65  99 133 168 219 286 340 386
#     4  11  24  38  65  93 131 171 213 265 329 399
#     4  10  22  39  59  90 127 164 213 270 325 388
#
# _framework density 20.088809999999999
#
# number of rings (size 3 to 8) (size 9 to 14) (size 15 to 20)
#    0.000    1.000    6.250    2.250    0.000    3.000 
#    0.000    2.500    0.000    3.750    0.000    0.000 
#    0.000    0.000    0.000    0.000    0.000    0.000 
#
# Total GULP energy -396649.873670 kJ/mol
# GULP energy per Si atom -12395.308552 kJ/mol
# Density = 2.004309 g / cm^3
# Si number density = 20.088810 Si / 1000 Ang^3
#
#
#
# Elastic Constant Matrix: (Units=GPa)
#
#
# Indices 1 2 3 4 5 6 
#
# 1 99.3442 41.6352 26.3134 0.0000 -13.8557 0.0000
# 2 41.6352 146.2977 30.1814 0.0000 -11.5513 0.0000
# 3 26.3134 30.1814 82.7878 0.0000 -1.1948 0.0000
# 4 0.0000 0.0000 0.0000 22.0956 0.0000 -2.0228
# 5 -13.8557 -11.5513 -1.1948 0.0000 34.8914 0.0000
# 6 0.0000 0.0000 0.0000 -2.0228 0.0000 31.9638
#
#
#
# Elastic Compliance Matrix: (Units=1/GPa)
#
#
# Indices 1 2 3 4 5 6 
#
# 1 0.012511 -0.002635 -0.002958 0.000000 0.003995 0.000000
# 2 -0.002635 0.008145 -0.002109 0.000000 0.001578 0.000000
# 3 -0.002958 -0.002109 0.013768 0.000000 -0.001402 0.000000
# 4 0.000000 0.000000 0.000000 0.045522 0.000000 0.002881
# 5 0.003995 0.001578 -0.001402 0.000000 0.030721 0.000000
# 6 0.000000 0.000000 0.000000 0.002881 0.000000 0.031468
#
#
# Mechanical properties :
#
#
# Convention : Reuss Voigt Hill
#
# Bulk Modulus (GPa) = 52.57771 58.29885 55.43828
# Shear Modulus (GPa) = 30.51038 33.14347 31.82692
#
# Velocity S-wave (km/s) = 3.90137 4.06624 3.98466
# Velocity P-wave (km/s) = 6.82083 7.15047 6.98760
#
# Compressibility (1/GPa) = 0.01901947
#
# Stress axis : x y z
#
# Youngs Moduli (GPa) = 79.92985 122.77574 72.63204
#
# Poissons Ratio (x) = 0.32349 0.21487
# Poissons Ratio (y) = 0.21060 0.15319
# Poissons Ratio (z) = 0.23646 0.25895
#
# Static dielectric constant tensor:
#      x y z
#    x 4.392210 0.000000 0.610130 
#    y 0.000000 4.065980 0.000000 
#    z 0.610130 0.000000 3.693760 
# 
# 
# High freq. dielectric constant tensor:
#      x y z
#    x 1.793280 0.000000 0.006140 
#    y 0.000000 1.781970 0.000000 
#    z 0.006140 0.000000 1.762490 
# 
# From -- ./inp_files/32804.got.cif
#   From: 2010.06.25/outbox.cif.g09.slc.cpg/sg11_17_cif.got.tgz:32804.got - 2010.06.27 23:14:04.
