data_PCOD8072723
_publ_section_title
;
Structure prediction by ZEFSAII (Michael W. Deem and Ramdas Pophale) SiO2 
 PCOD8072723
Probable space group: P 21/M
;
_chemical_formula_sum "Si O2"
_cell_formula_units_Z 18
_cell_length_a 7.971611
_cell_length_b 14.150078
_cell_length_c 6.332074
_cell_angle_alpha 90.000000
_cell_angle_beta 72.694747
_cell_angle_gamma 90.000000
_cell_volume 681.919468
_symmetry_space_group_name_H-M "P 21/M"
_symmetry_group_IT_number 11
_symmetry_cell_setting 'monoclinic'
loop_
_space_group_symop_operation_xyz
x,y,z
-x,1/2+y,-z
-x,-y,-z
x,1/2-y,z
loop_
_atom_site_type_symbol
_atom_site_label
_atom_site_fract_x
_atom_site_fract_y
_atom_site_fract_z
Si Si1 0.113706 0.445720 0.257941
Si Si2 0.942551 0.250000 0.388334
Si Si3 0.506773 0.951172 0.772113
Si Si4 0.959436 0.750000 0.185887
Si Si5 0.804013 0.553718 0.243402
Si Si6 0.671961 0.250000 0.193285
O O1 0.281802 0.447243 0.359616
O O2 0.047693 0.339486 0.257307
O O3 0.945007 0.514791 0.368411
O O4 0.165073 0.486535 0.006645
O O5 0.933569 0.250000 0.639961
O O6 0.731266 0.250000 0.416484
O O7 0.395229 0.014101 0.642343
O O8 0.435984 0.843586 0.822994
O O9 0.500000 0.000000 0.000000
O O10 0.122121 0.750000 0.963774
O O11 0.819982 0.665419 0.226955
#
# Coordination Sequence:
#
# PCOD8072723 Si02
#       6
#     4   2   4   2   4   2
#     4  10  19  39  67  92 121 162 211 252 311 372
#     4  12  23  39  67  94 123 172 204 250 318 366
#     4  10  21  36  72  96 115 171 209 250 320 367
#     4  12  24  37  66  93 127 170 207 253 314 369
#     4  10  19  39  63  92 125 161 209 257 309 363
#     4  12  21  44  65  91 130 162 209 263 304 373
#
# _framework density 26.396080999999999
#
# number of rings (size 3 to 8) (size 9 to 14) (size 15 to 20)
#    0.000    1.333    4.444    3.333    0.000    3.556 
#    0.000    2.222   24.444    0.000    0.000    0.000 
#    0.000    0.000    0.000    0.000    0.000    0.000 
#
# Total GULP energy -223098.054586 kJ/mol
# GULP energy per Si atom -12394.336366 kJ/mol
# Density = 2.633600 g / cm^3
# Si number density = 26.396081 Si / 1000 Ang^3
#
#
#
# Elastic Constant Matrix: (Units=GPa)
#
#
# Indices 1 2 3 4 5 6 
#
# 1 273.0739 136.6720 70.9651 0.0000 23.4951 0.0000
# 2 136.6720 213.7022 21.7759 0.0000 3.8024 0.0000
# 3 70.9651 21.7759 52.4938 0.0000 16.5844 0.0000
# 4 0.0000 0.0000 0.0000 25.8327 0.0000 11.9364
# 5 23.4951 3.8024 16.5844 0.0000 62.6350 0.0000
# 6 0.0000 0.0000 0.0000 11.9364 0.0000 57.1413
#
#
#
# Elastic Compliance Matrix: (Units=1/GPa)
#
#
# Indices 1 2 3 4 5 6 
#
# 1 0.008276 -0.004342 -0.009265 0.000000 -0.000388 0.000000
# 2 -0.004342 0.007168 0.002749 0.000000 0.000466 0.000000
# 3 -0.009265 0.002749 0.032072 0.000000 -0.005183 0.000000
# 4 0.000000 0.000000 0.000000 0.042846 0.000000 -0.008950
# 5 -0.000388 0.000466 -0.005183 0.000000 0.017455 0.000000
# 6 0.000000 0.000000 0.000000 -0.008950 0.000000 0.019370
#
#
# Mechanical properties :
#
#
# Convention : Reuss Voigt Hill
#
# Bulk Modulus (GPa) = 38.75812 110.89955 74.82883
# Shear Modulus (GPa) = 31.74554 49.77892 40.76223
#
# Velocity S-wave (km/s) = 3.47170 4.34734 3.93396
# Velocity P-wave (km/s) = 5.54846 8.20390 7.00320
#
# Compressibility (1/GPa) = 0.02580104
#
# Stress axis : x y z
#
# Youngs Moduli (GPa) = 120.82830 139.51093 31.18014
#
# Poissons Ratio (x) = 0.60576 0.28887
# Poissons Ratio (y) = 0.52464 -0.08572
# Poissons Ratio (z) = 1.11944 -0.38356
#
# Static dielectric constant tensor:
#      x y z
#    x 5.847090 0.000000 0.197590 
#    y 0.000000 4.809850 0.000000 
#    z 0.197590 0.000000 5.121420 
# 
# 
# High freq. dielectric constant tensor:
#      x y z
#    x 2.091770 0.000000 0.014260 
#    y 0.000000 2.046770 0.000000 
#    z 0.014260 0.000000 2.117760 
# 
# From -- ./inp_files/11827.got.cif
#   From: 2010.06.25/outbox.cif.g09.slc.cpg/sg11_6_cif.got.tgz:11827.got - 2010.06.27 23:14:04.
