data_PCOD8072841
_publ_section_title
;
Structure prediction by ZEFSAII (Michael W. Deem and Ramdas Pophale) SiO2 
 PCOD8072841
Probable space group: P 21/M
;
_chemical_formula_sum "Si O2"
_cell_formula_units_Z 32
_cell_length_a 17.572633
_cell_length_b 9.044653
_cell_length_c 11.502785
_cell_angle_alpha 90.000000
_cell_angle_beta 90.035675
_cell_angle_gamma 90.000000
_cell_volume 1828.233518
_symmetry_space_group_name_H-M "P 21/M"
_symmetry_group_IT_number 11
_symmetry_cell_setting 'monoclinic'
loop_
_space_group_symop_operation_xyz
x,y,z
-x,1/2+y,-z
-x,-y,-z
x,1/2-y,z
loop_
_atom_site_type_symbol
_atom_site_label
_atom_site_fract_x
_atom_site_fract_y
_atom_site_fract_z
Si Si1 0.405536 0.417862 0.059438
Si Si2 0.050774 0.916737 0.836707
Si Si3 0.318985 0.417579 0.276692
Si Si4 0.827730 0.077899 0.742832
Si Si5 0.539027 0.582195 0.174145
Si Si6 0.517803 0.922396 0.619005
Si Si7 0.111624 0.416168 0.042469
Si Si8 0.015037 0.575744 0.377571
O O1 0.437854 0.250000 0.082170
O O2 0.329325 0.435175 0.136435
O O3 0.463670 0.542831 0.101607
O O4 0.391597 0.438324 0.919767
O O5 0.078339 0.750000 0.808795
O O6 0.972215 0.912665 0.905093
O O7 0.042596 0.007293 0.716983
O O8 0.112290 0.997731 0.919346
O O9 0.298028 0.250000 0.310167
O O10 0.249706 0.521114 0.318630
O O11 0.397142 0.465470 0.340075
O O12 0.822709 0.250000 0.768151
O O13 0.898217 0.040900 0.658831
O O14 0.833749 0.997131 0.866567
O O15 0.534530 0.750000 0.219101
O O16 0.544656 0.477498 0.286609
O O17 0.507626 0.750000 0.603084
O O18 0.500000 0.000000 0.500000
O O19 0.141604 0.250000 0.021638
O O20 0.999710 0.750000 0.385989
O O21 0.000000 0.500000 0.500000
#
# Coordination Sequence:
#
# PCOD8072841 Si02
#       8
#     4   4   4   4   4   4   4   4
#     4   8  15  27  43  66  94 121 150 186 229 279
#     4   9  16  27  45  69  95 121 151 190 234 279
#     4   9  18  32  49  70  97 127 159 199 247 299
#     4  10  20  32  48  72  99 126 160 204 249 294
#     4   9  15  25  44  68  93 120 150 188 233 276
#     4  10  20  33  49  71  98 129 168 208 245 290
#     4   9  16  27  45  68  94 123 152 185 231 284
#     4  10  20  33  49  71  98 129 168 209 248 292
#
# _framework density 17.503235
#
# number of rings (size 3 to 8) (size 9 to 14) (size 15 to 20)
#    0.000    2.750    0.000    3.000    0.000    7.500 
#    0.000    0.000    0.000    1.500    0.000    5.250 
#    0.000    0.000    0.000    0.000    0.000    0.000 
#
# Total GULP energy -396562.539404 kJ/mol
# GULP energy per Si atom -12392.579356 kJ/mol
# Density = 1.746340 g / cm^3
# Si number density = 17.503235 Si / 1000 Ang^3
#
#
#
# Elastic Constant Matrix: (Units=GPa)
#
#
# Indices 1 2 3 4 5 6 
#
# 1 50.2604 37.3919 33.9319 0.0000 1.3209 0.0000
# 2 37.3919 116.8266 66.5842 0.0000 2.9312 0.0000
# 3 33.9319 66.5842 136.4462 0.0000 1.4549 0.0000
# 4 0.0000 0.0000 0.0000 34.7052 0.0000 2.2338
# 5 1.3209 2.9312 1.4549 0.0000 13.7235 0.0000
# 6 0.0000 0.0000 0.0000 2.2338 0.0000 23.1503
#
#
#
# Elastic Compliance Matrix: (Units=1/GPa)
#
#
# Indices 1 2 3 4 5 6 
#
# 1 0.027275 -0.006716 -0.003497 0.000000 -0.000820 0.000000
# 2 -0.006716 0.013562 -0.004930 0.000000 -0.001728 0.000000
# 3 -0.003497 -0.004930 0.010601 0.000000 0.000266 0.000000
# 4 0.000000 0.000000 0.000000 0.028994 0.000000 -0.002798
# 5 -0.000820 -0.001728 0.000266 0.000000 0.073287 0.000000
# 6 0.000000 0.000000 0.000000 -0.002798 0.000000 0.043466
#
#
# Mechanical properties :
#
#
# Convention : Reuss Voigt Hill
#
# Bulk Modulus (GPa) = 47.27325 64.37214 55.82270
# Shear Modulus (GPa) = 21.31989 25.35747 23.33868
#
# Velocity S-wave (km/s) = 3.49385 3.81035 3.65553
# Velocity P-wave (km/s) = 6.58353 7.49770 7.05544
#
# Compressibility (1/GPa) = 0.02115361
#
# Stress axis : x y z
#
# Youngs Moduli (GPa) = 36.66313 73.73398 94.32892
#
# Poissons Ratio (x) = 0.49522 0.32984
# Poissons Ratio (y) = 0.24624 0.46500
# Poissons Ratio (z) = 0.12820 0.36348
#
# Static dielectric constant tensor:
#      x y z
#    x 2.932650 0.000000 -0.089040 
#    y 0.000000 3.410320 0.000000 
#    z -0.089040 0.000000 3.350200 
# 
# 
# High freq. dielectric constant tensor:
#      x y z
#    x 1.626300 0.000000 -0.003780 
#    y 0.000000 1.692870 0.000000 
#    z -0.003780 0.000000 1.670930 
# 
# From -- ./inp_files/40687.got.cif
#   From: 2010.06.25/outbox.cif.g09.slc.cpg/sg11_21_cif.got.tgz:40687.got - 2010.06.27 23:14:04.
