data_PCOD8072151
_publ_section_title
;
Structure prediction by ZEFSAII (Michael W. Deem and Ramdas Pophale) SiO2 
 PCOD8072151
Probable space group: P 21/M
;
_chemical_formula_sum "Si O2"
_cell_formula_units_Z 32
_cell_length_a 26.355945
_cell_length_b 8.802057
_cell_length_c 15.366421
_cell_angle_alpha 90.000000
_cell_angle_beta 153.578543
_cell_angle_gamma 90.000000
_cell_volume 1586.232348
_symmetry_space_group_name_H-M "P 21/M"
_symmetry_group_IT_number 11
_symmetry_cell_setting 'monoclinic'
loop_
_space_group_symop_operation_xyz
x,y,z
-x,1/2+y,-z
-x,-y,-z
x,1/2-y,z
loop_
_atom_site_type_symbol
_atom_site_label
_atom_site_fract_x
_atom_site_fract_y
_atom_site_fract_z
Si Si1 0.747553 0.570470 0.045303
Si Si2 0.860916 0.926288 0.543878
Si Si3 0.760813 0.426256 0.552818
Si Si4 0.505162 0.426268 0.101771
Si Si5 0.735186 0.430111 0.704994
Si Si6 0.123025 0.572102 0.913146
Si Si7 0.505829 0.570520 0.602909
Si Si8 0.714253 0.070665 0.170160
O O1 0.756482 0.750000 0.068328
O O2 0.620349 0.514694 0.826034
O O3 0.836462 0.515670 0.109882
O O4 0.780335 0.495194 0.187813
O O5 0.832152 0.750000 0.486372
O O6 0.990724 0.962790 0.721273
O O7 0.837977 0.972350 0.608276
O O8 0.780253 0.025447 0.358833
O O9 0.792969 0.250000 0.589226
O O10 0.627823 0.452927 0.331425
O O11 0.785412 0.483436 0.689194
O O12 0.474942 0.250000 0.046960
O O13 0.500000 0.500000 0.000000
O O14 0.413041 0.503168 0.023499
O O15 0.737673 0.250000 0.711239
O O16 0.604501 0.486236 0.513072
O O17 0.811134 0.493911 0.901104
O O18 0.148097 0.750000 0.939764
O O19 0.500000 0.500000 0.500000
O O20 0.506774 0.750000 0.594161
O O21 0.707958 0.250000 0.154849
#
# Coordination Sequence:
#
# PCOD8072151 Si02
#       8
#     4   4   4   4   4   4   4   4
#     4  11  23  39  62  93 124 156 196 248 302 357
#     4  11  24  41  61  86 118 156 203 257 302 351
#     4  10  21  38  62  89 120 160 198 237 297 360
#     4  11  21  36  61  92 126 159 195 241 296 358
#     4   9  18  36  61  87 120 158 194 237 290 356
#     4  10  22  41  63  86 117 160 203 247 302 356
#     4  10  19  34  60  90 122 157 191 235 295 354
#     4  12  25  41  63  89 119 161 202 245 302 361
#
# _framework density 20.173587999999999
#
# number of rings (size 3 to 8) (size 9 to 14) (size 15 to 20)
#    0.000    1.500    2.500    3.000    0.000    5.000 
#    0.000    1.250    0.000    0.000    0.000    0.000 
#    0.000    0.000    0.000    0.000    0.000    0.000 
#
# Total GULP energy -396913.817439 kJ/mol
# GULP energy per Si atom -12403.556795 kJ/mol
# Density = 2.012767 g / cm^3
# Si number density = 20.173588 Si / 1000 Ang^3
#
#
#
# Elastic Constant Matrix: (Units=GPa)
#
#
# Indices 1 2 3 4 5 6 
#
# 1 155.5589 48.6873 30.9188 0.0000 -1.9170 0.0000
# 2 48.6873 82.5973 27.2682 0.0000 11.8523 0.0000
# 3 30.9188 27.2682 44.3292 0.0000 14.4968 0.0000
# 4 0.0000 0.0000 0.0000 19.0641 0.0000 -0.7031
# 5 -1.9170 11.8523 14.4968 0.0000 30.7916 0.0000
# 6 0.0000 0.0000 0.0000 -0.7031 0.0000 37.2570
#
#
#
# Elastic Compliance Matrix: (Units=1/GPa)
#
#
# Indices 1 2 3 4 5 6 
#
# 1 0.008792 -0.004164 -0.005051 0.000000 0.004528 0.000000
# 2 -0.004164 0.017241 -0.006437 0.000000 -0.003865 0.000000
# 3 -0.005051 -0.006437 0.034672 0.000000 -0.014160 0.000000
# 4 0.000000 0.000000 0.000000 0.052491 0.000000 0.000991
# 5 0.004528 -0.003865 -0.014160 0.000000 0.040913 0.000000
# 6 0.000000 0.000000 0.000000 0.000991 0.000000 0.026859
#
#
# Mechanical properties :
#
#
# Convention : Reuss Voigt Hill
#
# Bulk Modulus (GPa) = 34.01400 55.13711 44.57555
# Shear Modulus (GPa) = 22.51503 29.12995 25.82249
#
# Velocity S-wave (km/s) = 3.34438 3.80408 3.58161
# Velocity P-wave (km/s) = 5.64007 6.83267 6.26481
#
# Compressibility (1/GPa) = 0.02939966
#
# Stress axis : x y z
#
# Youngs Moduli (GPa) = 113.74454 57.99978 28.84164
#
# Poissons Ratio (x) = 0.24154 0.14569
# Poissons Ratio (y) = 0.47369 0.18565
# Poissons Ratio (z) = 0.57455 0.37335
#
# Static dielectric constant tensor:
#      x y z
#    x 3.833220 0.000000 -0.084190 
#    y 0.000000 3.605850 0.000000 
#    z -0.084190 0.000000 3.881430 
# 
# 
# High freq. dielectric constant tensor:
#      x y z
#    x 1.805540 0.000000 -0.003400 
#    y 0.000000 1.774180 0.000000 
#    z -0.003400 0.000000 1.784320 
# 
# From -- ./inp_files/55671.got.cif
#   From: 2010.06.25/outbox.cif.g09.slc.cpg/sg11_28_cif.got.tgz:55671.got - 2010.06.27 23:14:04.
