data_PCOD8072041
_publ_section_title
;
Structure prediction by ZEFSAII (Michael W. Deem and Ramdas Pophale) SiO2 
 PCOD8072041
Probable space group: P 21/M
;
_chemical_formula_sum "Si O2"
_cell_formula_units_Z 32
_cell_length_a 8.044476
_cell_length_b 9.263402
_cell_length_c 27.301741
_cell_angle_alpha 90.000000
_cell_angle_beta 126.264724
_cell_angle_gamma 90.000000
_cell_volume 1640.405813
_symmetry_space_group_name_H-M "P 21/M"
_symmetry_group_IT_number 11
_symmetry_cell_setting 'monoclinic'
loop_
_space_group_symop_operation_xyz
x,y,z
-x,1/2+y,-z
-x,-y,-z
x,1/2-y,z
loop_
_atom_site_type_symbol
_atom_site_label
_atom_site_fract_x
_atom_site_fract_y
_atom_site_fract_z
Si Si1 0.018084 0.917063 0.355919
Si Si2 0.298254 0.417940 0.247260
Si Si3 0.673767 0.416216 0.245797
Si Si4 0.926473 0.087592 0.121724
Si Si5 0.531435 0.413517 0.116412
Si Si6 0.179277 0.922523 0.002728
Si Si7 0.394790 0.582982 0.358157
Si Si8 0.131424 0.079206 0.563450
O O1 0.961489 0.750000 0.342757
O O2 0.959608 0.973516 0.399991
O O3 0.260580 0.943523 0.384616
O O4 0.881464 0.995516 0.291028
O O5 0.248391 0.250000 0.247433
O O6 0.526229 0.442003 0.266272
O O7 0.279217 0.497987 0.295258
O O8 0.132441 0.485539 0.179964
O O9 0.736680 0.250000 0.250495
O O10 0.552068 0.466916 0.175963
O O11 0.986844 0.250000 0.117984
O O12 0.757833 0.080957 0.134138
O O13 0.842809 0.018384 0.056824
O O14 0.440400 0.250000 0.097875
O O15 0.393976 0.523967 0.062047
O O16 0.169349 0.750000 0.005702
O O17 0.000000 0.000000 0.000000
O O18 0.393850 0.750000 0.343368
O O19 0.631323 0.530418 0.404081
O O20 0.106060 0.250000 0.552854
O O21 0.000000 0.000000 0.500000
#
# Coordination Sequence:
#
# PCOD8072041 Si02
#       8
#     4   4   4   4   4   4   4   4
#     4  10  21  38  60  85 117 154 191 234 284 335
#     4  10  19  34  57  84 112 146 188 232 280 337
#     4  10  20  34  57  86 115 148 188 234 284 337
#     4   9  19  35  55  78 107 142 182 232 285 335
#     4  10  20  36  56  79 108 142 182 232 286 338
#     4  11  22  37  55  76 105 143 186 232 284 342
#     4  10  21  38  59  85 117 153 189 232 286 335
#     4  10  22  40  60  85 119 153 189 233 278 332
#
# _framework density 19.507368
#
# number of rings (size 3 to 8) (size 9 to 14) (size 15 to 20)
#    0.000    2.000    1.250    2.250    0.000    5.500 
#    0.000    3.750    0.000    0.000    0.000    0.000 
#    0.000    0.000    0.000    0.000    0.000    0.000 
#
# Total GULP energy -396737.380002 kJ/mol
# GULP energy per Si atom -12398.043125 kJ/mol
# Density = 1.946297 g / cm^3
# Si number density = 19.507368 Si / 1000 Ang^3
#
#
#
# Elastic Constant Matrix: (Units=GPa)
#
#
# Indices 1 2 3 4 5 6 
#
# 1 115.1105 31.5643 56.1554 0.0000 1.5820 0.0000
# 2 31.5643 49.4791 46.7060 0.0000 2.3359 0.0000
# 3 56.1554 46.7060 140.7051 0.0000 4.0702 0.0000
# 4 0.0000 0.0000 0.0000 35.5756 0.0000 2.0109
# 5 1.5820 2.3359 4.0702 0.0000 28.9154 0.0000
# 6 0.0000 0.0000 0.0000 2.0109 0.0000 24.5641
#
#
#
# Elastic Compliance Matrix: (Units=1/GPa)
#
#
# Indices 1 2 3 4 5 6 
#
# 1 0.011393 -0.004338 -0.003111 0.000000 0.000165 0.000000
# 2 -0.004338 0.031114 -0.008566 0.000000 -0.001070 0.000000
# 3 -0.003111 -0.008566 0.011213 0.000000 -0.000716 0.000000
# 4 0.000000 0.000000 0.000000 0.028240 0.000000 -0.002312
# 5 0.000165 -0.001070 -0.000716 0.000000 0.034762 0.000000
# 6 0.000000 0.000000 0.000000 -0.002312 0.000000 0.040899
#
#
# Mechanical properties :
#
#
# Convention : Reuss Voigt Hill
#
# Bulk Modulus (GPa) = 46.10716 63.79400 54.95058
# Shear Modulus (GPa) = 25.39600 29.20229 27.29914
#
# Velocity S-wave (km/s) = 3.61205 3.87329 3.74495
# Velocity P-wave (km/s) = 6.40960 7.26476 6.85054
#
# Compressibility (1/GPa) = 0.02168861
#
# Stress axis : x y z
#
# Youngs Moduli (GPa) = 87.77663 32.13943 89.18304
#
# Poissons Ratio (x) = 0.13943 0.27749
# Poissons Ratio (y) = 0.38081 0.76392
# Poissons Ratio (z) = 0.27311 0.27530
#
# Static dielectric constant tensor:
#      x y z
#    x 9.552140 0.000000 12.321540 
#    y 0.000000 3.240410 0.000000 
#    z 12.321540 0.000000 29.975500 
# 
# 
# High freq. dielectric constant tensor:
#      x y z
#    x 1.775670 0.000000 -0.001120 
#    y 0.000000 1.735010 0.000000 
#    z -0.001120 0.000000 1.760740 
# 
# From -- ./inp_files/70698.got.cif
#   From: 2010.06.25/outbox.cif.g09.slc.cpg/sg11_36_cif.got.tgz:70698.got - 2010.06.27 23:14:04.
