data_PCOD8072441
_publ_section_title
;
Structure prediction by ZEFSAII (Michael W. Deem and Ramdas Pophale) SiO2 
 PCOD8072441
Probable space group: P 21/M
;
_chemical_formula_sum "Si O2"
_cell_formula_units_Z 32
_cell_length_a 12.799428
_cell_length_b 8.629490
_cell_length_c 14.676093
_cell_angle_alpha 90.000000
_cell_angle_beta 89.288619
_cell_angle_gamma 90.000000
_cell_volume 1620.886747
_symmetry_space_group_name_H-M "P 21/M"
_symmetry_group_IT_number 11
_symmetry_cell_setting 'monoclinic'
loop_
_space_group_symop_operation_xyz
x,y,z
-x,1/2+y,-z
-x,-y,-z
x,1/2-y,z
loop_
_atom_site_type_symbol
_atom_site_label
_atom_site_fract_x
_atom_site_fract_y
_atom_site_fract_z
Si Si1 0.109972 0.066753 0.791709
Si Si2 0.285260 0.067051 0.656385
Si Si3 0.464247 0.076660 0.772265
Si Si4 0.681805 0.433817 0.717090
Si Si5 0.394000 0.424402 0.971549
Si Si6 0.118431 0.934123 0.178296
Si Si7 0.613019 0.932616 0.526937
Si Si8 0.180954 0.569730 0.981094
O O1 0.110958 0.250000 0.787703
O O2 0.182251 0.997706 0.708731
O O3 0.991227 0.006579 0.778001
O O4 0.148210 0.022805 0.892041
O O5 0.284919 0.250000 0.675269
O O6 0.390138 0.991723 0.699662
O O7 0.296603 0.030074 0.549511
O O8 0.485600 0.250000 0.736502
O O9 0.581077 0.004684 0.777126
O O10 0.396087 0.077310 0.863112
O O11 0.694277 0.250000 0.716014
O O12 0.785890 0.505659 0.763235
O O13 0.663058 0.492360 0.615429
O O14 0.381764 0.250000 0.010303
O O15 0.300886 0.533728 0.005328
O O16 0.500000 0.500000 0.000000
O O17 0.127832 0.750000 0.179829
O O18 0.118623 0.986336 0.071856
O O19 0.598807 0.750000 0.540011
O O20 0.500000 0.000000 0.500000
O O21 0.165835 0.750000 0.961517
#
# Coordination Sequence:
#
# PCOD8072441 Si02
#       8
#     4   4   4   4   4   4   4   4
#     4  10  19  37  60  80 104 144 195 230 263 323
#     4   9  17  32  55  79 103 136 176 217 267 326
#     4   9  16  30  52  74 102 142 175 208 262 326
#     4  10  19  36  57  78 107 142 180 221 266 325
#     4  11  21  34  52  77 110 148 186 223 268 324
#     4   9  20  36  57  80 107 148 189 225 271 328
#     4  11  21  35  56  83 109 139 175 219 274 329
#     4  11  21  35  54  82 113 144 183 229 277 323
#
# _framework density 19.742280000000001
#
# number of rings (size 3 to 8) (size 9 to 14) (size 15 to 20)
#    0.000    2.000    2.500    2.250    0.000    2.000 
#    0.000    8.125    0.000    0.000    0.000    0.000 
#    0.000    0.000    0.000    0.000    0.000    0.000 
#
# Total GULP energy -396466.776469 kJ/mol
# GULP energy per Si atom -12389.586765 kJ/mol
# Density = 1.969735 g / cm^3
# Si number density = 19.742280 Si / 1000 Ang^3
#
#
#
# Elastic Constant Matrix: (Units=GPa)
#
#
# Indices 1 2 3 4 5 6 
#
# 1 144.0858 8.7036 42.5482 0.0000 -18.1359 0.0000
# 2 8.7036 19.9459 5.6976 0.0000 -4.2828 0.0000
# 3 42.5482 5.6976 75.6025 0.0000 -14.5935 0.0000
# 4 0.0000 0.0000 0.0000 27.1230 0.0000 2.6671
# 5 -18.1359 -4.2828 -14.5935 0.0000 31.4556 0.0000
# 6 0.0000 0.0000 0.0000 2.6671 0.0000 17.1758
#
#
#
# Elastic Compliance Matrix: (Units=1/GPa)
#
#
# Indices 1 2 3 4 5 6 
#
# 1 0.008643 -0.001982 -0.004179 0.000000 0.002775 0.000000
# 2 -0.001982 0.052639 -0.001855 0.000000 0.005164 0.000000
# 3 -0.004179 -0.001855 0.016701 0.000000 0.005086 0.000000
# 4 0.000000 0.000000 0.000000 0.037441 0.000000 -0.005814
# 5 0.002775 0.005164 0.005086 0.000000 0.036453 0.000000
# 6 0.000000 0.000000 0.000000 -0.005814 0.000000 0.059124
#
#
# Mechanical properties :
#
#
# Convention : Reuss Voigt Hill
#
# Bulk Modulus (GPa) = 16.14189 39.28144 27.71166
# Shear Modulus (GPa) = 20.18696 27.32984 23.75840
#
# Velocity S-wave (km/s) = 3.20116 3.72470 3.47281
# Velocity P-wave (km/s) = 4.67518 6.19985 5.49069
#
# Compressibility (1/GPa) = 0.06195063
#
# Stress axis : x y z
#
# Youngs Moduli (GPa) = 115.69435 18.99728 59.87753
#
# Poissons Ratio (x) = 0.03765 0.25026
# Poissons Ratio (y) = 0.22931 0.11106
# Poissons Ratio (z) = 0.48354 0.03524
#
# Static dielectric constant tensor:
#      x y z
#    x 4.081820 0.000000 -0.259570 
#    y 0.000000 3.099530 0.000000 
#    z -0.259570 0.000000 3.861000 
# 
# 
# High freq. dielectric constant tensor:
#      x y z
#    x 1.779960 0.000000 -0.008880 
#    y 0.000000 1.728680 0.000000 
#    z -0.008880 0.000000 1.768220 
# 
# From -- ./inp_files/49396.got.cif
#   From: 2010.06.25/outbox.cif.g09.slc.cpg/sg11_25_cif.got.tgz:49396.got - 2010.06.27 23:14:04.
