data_PCOD8072119
_publ_section_title
;
Structure prediction by ZEFSAII (Michael W. Deem and Ramdas Pophale) SiO2 
 PCOD8072119
Probable space group: P 21/M
;
_chemical_formula_sum "Si O2"
_cell_formula_units_Z 28
_cell_length_a 21.364466
_cell_length_b 8.999782
_cell_length_c 14.364213
_cell_angle_alpha 90.000000
_cell_angle_beta 30.314006
_cell_angle_gamma 90.000000
_cell_volume 1394.031041
_symmetry_space_group_name_H-M "P 21/M"
_symmetry_group_IT_number 11
_symmetry_cell_setting 'monoclinic'
loop_
_space_group_symop_operation_xyz
x,y,z
-x,1/2+y,-z
-x,-y,-z
x,1/2-y,z
loop_
_atom_site_type_symbol
_atom_site_label
_atom_site_fract_x
_atom_site_fract_y
_atom_site_fract_z
Si Si1 0.946677 0.422059 0.157480
Si Si2 0.383113 0.924073 0.197262
Si Si3 0.331746 0.577626 0.471784
Si Si4 0.123730 0.923010 0.236550
Si Si5 0.837337 0.575845 0.624978
Si Si6 0.829944 0.921225 0.005068
Si Si7 0.395187 0.423749 0.574945
O O1 0.947361 0.250000 0.132867
O O2 0.809445 0.479358 0.356597
O O3 0.000000 0.500000 0.000000
O O4 0.031757 0.456240 0.137281
O O5 0.380717 0.750000 0.176754
O O6 0.398174 0.951132 0.288231
O O7 0.254832 0.994890 0.327393
O O8 0.500000 0.000000 0.000000
O O9 0.336753 0.750000 0.493210
O O10 0.400470 0.485466 0.463441
O O11 0.148177 0.750000 0.221661
O O12 0.977797 0.958368 0.413390
O O13 0.183627 0.012506 0.244798
O O14 0.194820 0.976563 0.052689
O O15 0.807701 0.750000 0.663537
O O16 0.814379 0.750000 0.995158
O O17 0.736068 0.961929 0.208736
O O18 0.500000 0.500000 0.500000
O O19 0.420822 0.250000 0.538234
#
# Coordination Sequence:
#
# PCOD8072119 Si02
#       7
#     4   4   4   4   4   4   4
#     4  10  19  34  58  88 120 152 189 237 292 351
#     4  11  24  42  64  89 120 160 204 251 301 356
#     4  10  22  40  63  89 120 156 194 243 302 355
#     4  10  21  36  60  91 120 155 197 245 301 358
#     4  10  21  39  61  88 121 156 197 248 302 357
#     4  10  21  37  57  86 121 157 194 239 298 356
#     4  11  24  41  61  84 116 157 200 243 290 350
#
# _framework density 20.085635
#
# number of rings (size 3 to 8) (size 9 to 14) (size 15 to 20)
#    0.000    1.714    1.429    2.571    0.000    6.857 
#    0.000    1.429    0.000    0.000    0.000    0.000 
#    0.000    0.000    0.000    0.000    0.000    0.000 
#
# Total GULP energy -347313.380804 kJ/mol
# GULP energy per Si atom -12404.049314 kJ/mol
# Density = 2.003992 g / cm^3
# Si number density = 20.085635 Si / 1000 Ang^3
#
#
#
# Elastic Constant Matrix: (Units=GPa)
#
#
# Indices 1 2 3 4 5 6 
#
# 1 129.3800 68.3938 43.3485 0.0000 5.9949 0.0000
# 2 68.3938 102.1499 42.9658 0.0000 6.2811 0.0000
# 3 43.3485 42.9658 74.4716 0.0000 8.5992 0.0000
# 4 0.0000 0.0000 0.0000 33.3279 0.0000 1.8372
# 5 5.9949 6.2811 8.5992 0.0000 37.5034 0.0000
# 6 0.0000 0.0000 0.0000 1.8372 0.0000 41.5191
#
#
#
# Elastic Compliance Matrix: (Units=1/GPa)
#
#
# Indices 1 2 3 4 5 6 
#
# 1 0.012529 -0.007025 -0.003230 0.000000 -0.000086 0.000000
# 2 -0.007025 0.016873 -0.005597 0.000000 -0.000420 0.000000
# 3 -0.003230 -0.005597 0.018869 0.000000 -0.002873 0.000000
# 4 0.000000 0.000000 0.000000 0.030078 0.000000 -0.001331
# 5 -0.000086 -0.000420 -0.002873 0.000000 0.027407 0.000000
# 6 0.000000 0.000000 0.000000 -0.001331 0.000000 0.024144
#
#
# Mechanical properties :
#
#
# Convention : Reuss Voigt Hill
#
# Bulk Modulus (GPa) = 60.36185 68.37975 64.37080
# Shear Modulus (GPa) = 29.91741 32.55632 31.23686
#
# Velocity S-wave (km/s) = 3.86358 4.03038 3.94786
# Velocity P-wave (km/s) = 7.07252 7.46837 7.27314
#
# Compressibility (1/GPa) = 0.01656676
#
# Stress axis : x y z
#
# Youngs Moduli (GPa) = 79.81609 59.26623 52.99651
#
# Poissons Ratio (x) = 0.41633 0.17118
# Poissons Ratio (y) = 0.56068 0.29664
# Poissons Ratio (z) = 0.25781 0.33173
#
# Static dielectric constant tensor:
#      x y z
#    x 3.626380 0.000000 -0.073490 
#    y 0.000000 3.657030 0.000000 
#    z -0.073490 0.000000 3.663050 
# 
# 
# High freq. dielectric constant tensor:
#      x y z
#    x 1.791850 0.000000 0.005140 
#    y 0.000000 1.787270 0.000000 
#    z 0.005140 0.000000 1.780020 
# 
# From -- ./inp_files/54464.got.cif
#   From: 2010.06.25/outbox.cif.g09.slc.cpg/sg11_28_cif.got.tgz:54464.got - 2010.06.27 23:14:04.
