data_PCOD8072318
_publ_section_title
;
Structure prediction by ZEFSAII (Michael W. Deem and Ramdas Pophale) SiO2 
 PCOD8072318
Probable space group: P 21/M
;
_chemical_formula_sum "Si O2"
_cell_formula_units_Z 32
_cell_length_a 11.823685
_cell_length_b 9.169464
_cell_length_c 33.448142
_cell_angle_alpha 90.000000
_cell_angle_beta 27.085984
_cell_angle_gamma 90.000000
_cell_volume 1651.172026
_symmetry_space_group_name_H-M "P 21/M"
_symmetry_group_IT_number 11
_symmetry_cell_setting 'monoclinic'
loop_
_space_group_symop_operation_xyz
x,y,z
-x,1/2+y,-z
-x,-y,-z
x,1/2-y,z
loop_
_atom_site_type_symbol
_atom_site_label
_atom_site_fract_x
_atom_site_fract_y
_atom_site_fract_z
Si Si1 0.516446 0.419761 0.587136
Si Si2 0.229598 0.421088 0.907819
Si Si3 0.874221 0.584197 0.353620
Si Si4 0.560562 0.077964 0.233001
Si Si5 0.005123 0.079480 0.392046
Si Si6 0.369077 0.584745 0.152693
Si Si7 0.335067 0.422625 0.084845
Si Si8 0.766679 0.079261 0.254409
O O1 0.475506 0.250000 0.609187
O O2 0.378688 0.462030 0.589053
O O3 0.806314 0.459781 0.489275
O O4 0.413471 0.507137 0.656852
O O5 0.175230 0.250000 0.920171
O O6 0.274908 0.490888 0.850440
O O7 0.468429 0.452549 0.859788
O O8 0.000000 0.500000 0.000000
O O9 0.867190 0.750000 0.371122
O O10 0.920876 0.485356 0.376754
O O11 0.084878 0.562130 0.253994
O O12 0.584326 0.250000 0.217080
O O13 0.667632 0.035079 0.242197
O O14 0.275255 0.023279 0.320589
O O15 0.011858 0.250000 0.382706
O O16 0.420674 0.750000 0.121849
O O17 0.435873 0.474320 0.096132
O O18 0.364248 0.250000 0.071645
O O19 0.050228 0.474169 0.169308
O O20 0.500000 0.500000 0.000000
O O21 0.750573 0.250000 0.266832
#
# Coordination Sequence:
#
# PCOD8072318 Si02
#       8
#     4   4   4   4   4   4   4   4
#     4  10  21  37  58  86 117 151 191 238 288 339
#     4  11  24  41  62  89 118 151 194 238 288 346
#     4  10  19  35  58  85 119 152 186 234 291 340
#     4  10  22  41  60  82 118 156 192 238 289 339
#     4  10  21  36  58  87 117 151 193 237 284 341
#     4  10  21  39  62  87 119 154 189 236 290 343
#     4  11  24  40  61  88 117 151 196 241 291 348
#     4  10  23  41  59  82 114 154 194 237 287 342
#
# _framework density 19.380172999999999
#
# number of rings (size 3 to 8) (size 9 to 14) (size 15 to 20)
#    0.000    1.750    2.500    1.125    1.750    4.000 
#    0.000    0.000    0.000    0.000    0.000    0.000 
#    0.000    0.000    0.000    0.000    0.000    0.000 
#
# Total GULP energy -396905.959864 kJ/mol
# GULP energy per Si atom -12403.311246 kJ/mol
# Density = 1.933606 g / cm^3
# Si number density = 19.380173 Si / 1000 Ang^3
#
#
#
# Elastic Constant Matrix: (Units=GPa)
#
#
# Indices 1 2 3 4 5 6 
#
# 1 89.4291 37.9999 49.7942 0.0000 16.1691 0.0000
# 2 37.9999 55.9948 48.8181 0.0000 9.5979 0.0000
# 3 49.7942 48.8181 113.5342 0.0000 7.3715 0.0000
# 4 0.0000 0.0000 0.0000 36.4736 0.0000 8.0261
# 5 16.1691 9.5979 7.3715 0.0000 29.9900 0.0000
# 6 0.0000 0.0000 0.0000 8.0261 0.0000 31.8936
#
#
#
# Elastic Compliance Matrix: (Units=1/GPa)
#
#
# Indices 1 2 3 4 5 6 
#
# 1 0.017770 -0.007282 -0.004259 0.000000 -0.006203 0.000000
# 2 -0.007282 0.032743 -0.010629 0.000000 -0.003940 0.000000
# 3 -0.004259 -0.010629 0.015118 0.000000 0.001982 0.000000
# 4 0.000000 0.000000 0.000000 0.029024 0.000000 -0.007304
# 5 -0.006203 -0.003940 0.001982 0.000000 0.037462 0.000000
# 6 0.000000 0.000000 0.000000 -0.007304 0.000000 0.033192
#
#
# Mechanical properties :
#
#
# Convention : Reuss Voigt Hill
#
# Bulk Modulus (GPa) = 46.97397 59.13139 53.05268
# Shear Modulus (GPa) = 23.06824 27.82784 25.44804
#
# Velocity S-wave (km/s) = 3.45382 3.79343 3.62760
# Velocity P-wave (km/s) = 6.34002 7.05438 6.70672
#
# Compressibility (1/GPa) = 0.02128838
#
# Stress axis : x y z
#
# Youngs Moduli (GPa) = 56.27596 30.54061 66.14701
#
# Poissons Ratio (x) = 0.22241 0.28175
# Poissons Ratio (y) = 0.40982 0.70311
# Poissons Ratio (z) = 0.23970 0.32463
#
# Static dielectric constant tensor:
#      x y z
#    x 3.636380 0.000000 -0.231250 
#    y 0.000000 3.529400 0.000000 
#    z -0.231250 0.000000 3.682280 
# 
# 
# High freq. dielectric constant tensor:
#      x y z
#    x 1.757370 0.000000 -0.004290 
#    y 0.000000 1.749590 0.000000 
#    z -0.004290 0.000000 1.766640 
# 
# From -- ./inp_files/73062.got.cif
#   From: 2010.06.25/outbox.cif.g09.slc.cpg/sg11_37_cif.got.tgz:73062.got - 2010.06.27 23:14:04.
