data_PCOD8072657
_publ_section_title
;
Structure prediction by ZEFSAII (Michael W. Deem and Ramdas Pophale) SiO2 
 PCOD8072657
Probable space group: P 21/M
;
_chemical_formula_sum "Si O2"
_cell_formula_units_Z 32
_cell_length_a 13.732346
_cell_length_b 19.977660
_cell_length_c 14.285824
_cell_angle_alpha 90.000000
_cell_angle_beta 21.722379
_cell_angle_gamma 90.000000
_cell_volume 1450.524415
_symmetry_space_group_name_H-M "P 21/M"
_symmetry_group_IT_number 11
_symmetry_cell_setting 'monoclinic'
loop_
_space_group_symop_operation_xyz
x,y,z
-x,1/2+y,-z
-x,-y,-z
x,1/2-y,z
loop_
_atom_site_type_symbol
_atom_site_label
_atom_site_fract_x
_atom_site_fract_y
_atom_site_fract_z
Si Si1 0.510802 0.671141 0.104296
Si Si2 0.650419 0.490021 0.961678
Si Si3 0.387178 0.672209 0.419738
Si Si4 0.195273 0.086556 0.468520
Si Si5 0.935198 0.671620 0.579093
Si Si6 0.307285 0.434238 0.757269
Si Si7 0.289657 0.458543 0.569301
Si Si8 0.945828 0.921045 0.826049
O O1 0.490026 0.750000 0.105711
O O2 0.574356 0.659793 0.160142
O O3 0.224644 0.639478 0.337313
O O4 0.731905 0.640956 0.837081
O O5 0.700657 0.560488 0.975008
O O6 0.926405 0.454631 0.692944
O O7 0.500000 0.500000 0.000000
O O8 0.459775 0.449304 0.198742
O O9 0.381412 0.750000 0.452846
O O10 0.479311 0.626274 0.424633
O O11 0.089885 0.647226 0.661462
O O12 0.163669 0.154402 0.437137
O O13 0.264232 0.102344 0.516913
O O14 0.950174 0.750000 0.578159
O O15 0.176927 0.433279 0.770152
O O16 0.422073 0.509383 0.670536
O O17 0.098140 0.417357 0.023086
O O18 0.134734 0.515087 0.649907
#
# Coordination Sequence:
#
# PCOD8072657 Si02
#       8
#     4   4   4   4   4   4   4   4
#     4   9  20  37  57  83 118 161 204 240 290 367
#     4  11  24  39  59  92 126 161 204 252 318 364
#     4  10  23  38  57  91 124 158 201 254 311 373
#     4  11  22  40  60  89 124 161 202 262 301 366
#     4  10  21  38  60  85 116 163 207 242 296 365
#     4  10  19  37  63  84 114 158 204 254 300 374
#     4   9  20  38  58  88 115 153 207 251 312 355
#     4  10  21  37  61  86 123 161 205 251 311 382
#
# _framework density 22.060987999999998
#
# number of rings (size 3 to 8) (size 9 to 14) (size 15 to 20)
#    0.000    2.000    1.250    1.500    3.500    1.500 
#    0.000    0.625    0.000    0.000    0.000    0.000 
#    0.000    0.000    0.000    0.000    0.000    0.000 
#
# Total GULP energy -396467.556694 kJ/mol
# GULP energy per Si atom -12389.611147 kJ/mol
# Density = 2.201078 g / cm^3
# Si number density = 22.060988 Si / 1000 Ang^3
#
#
#
# Elastic Constant Matrix: (Units=GPa)
#
#
# Indices 1 2 3 4 5 6 
#
# 1 148.1804 20.5615 20.2479 0.0000 13.7060 0.0000
# 2 20.5615 48.4375 15.8530 0.0000 -2.8690 0.0000
# 3 20.2479 15.8530 75.4410 0.0000 7.8173 0.0000
# 4 0.0000 0.0000 0.0000 21.5933 0.0000 3.6720
# 5 13.7060 -2.8690 7.8173 0.0000 29.4460 0.0000
# 6 0.0000 0.0000 0.0000 3.6720 0.0000 32.9427
#
#
#
# Elastic Compliance Matrix: (Units=1/GPa)
#
#
# Indices 1 2 3 4 5 6 
#
# 1 0.007655 -0.003127 -0.001025 0.000000 -0.003596 0.000000
# 2 -0.003127 0.023802 -0.004682 0.000000 0.005018 0.000000
# 3 -0.001025 -0.004682 0.014923 0.000000 -0.003941 0.000000
# 4 0.000000 0.000000 0.000000 0.047205 0.000000 -0.005262
# 5 -0.003596 0.005018 -0.003941 0.000000 0.037169 0.000000
# 6 0.000000 0.000000 0.000000 -0.005262 0.000000 0.030942
#
#
# Mechanical properties :
#
#
# Convention : Reuss Voigt Hill
#
# Bulk Modulus (GPa) = 34.82936 42.82041 38.82489
# Shear Modulus (GPa) = 26.46397 31.15618 28.81007
#
# Velocity S-wave (km/s) = 3.46726 3.76210 3.61768
# Velocity P-wave (km/s) = 5.64369 6.19059 5.92345
#
# Compressibility (1/GPa) = 0.02871141
#
# Stress axis : x y z
#
# Youngs Moduli (GPa) = 130.63217 42.01278 67.01179
#
# Poissons Ratio (x) = 0.13138 0.06868
# Poissons Ratio (y) = 0.40850 0.31378
# Poissons Ratio (z) = 0.13388 0.19672
#
# Static dielectric constant tensor:
#      x y z
#    x 4.322670 0.000000 0.015750 
#    y 0.000000 3.869390 0.000000 
#    z 0.015750 0.000000 4.352640 
# 
# 
# High freq. dielectric constant tensor:
#      x y z
#    x 1.871240 0.000000 0.003010 
#    y 0.000000 1.840510 0.000000 
#    z 0.003010 0.000000 1.883750 
# 
# From -- ./inp_files/52703.got.cif
#   From: 2010.06.25/outbox.cif.g09.slc.cpg/sg11_27_cif.got.tgz:52703.got - 2010.06.27 23:14:04.
