data_PCOD8072578
_publ_section_title
;
Structure prediction by ZEFSAII (Michael W. Deem and Ramdas Pophale) SiO2 
 PCOD8072578
Probable space group: P 21/M
;
_chemical_formula_sum "Si O2"
_cell_formula_units_Z 28
_cell_length_a 13.462244
_cell_length_b 16.863342
_cell_length_c 8.886803
_cell_angle_alpha 90.000000
_cell_angle_beta 137.572229
_cell_angle_gamma 90.000000
_cell_volume 1361.105445
_symmetry_space_group_name_H-M "P 21/M"
_symmetry_group_IT_number 11
_symmetry_cell_setting 'monoclinic'
loop_
_space_group_symop_operation_xyz
x,y,z
-x,1/2+y,-z
-x,-y,-z
x,1/2-y,z
loop_
_atom_site_type_symbol
_atom_site_label
_atom_site_fract_x
_atom_site_fract_y
_atom_site_fract_z
Si Si1 0.394821 0.656161 0.771641
Si Si2 0.080237 0.993579 0.748422
Si Si3 0.385026 0.442001 0.166050
Si Si4 0.855783 0.076926 0.694369
Si Si5 0.844306 0.342133 0.999477
Si Si6 0.645762 0.559086 0.538545
Si Si7 0.450187 0.839799 0.160681
O O1 0.389894 0.750000 0.754558
O O2 0.539302 0.626705 0.845233
O O3 0.245387 0.623242 0.535073
O O4 0.400148 0.620515 0.946857
O O5 0.009645 0.055703 0.788237
O O6 0.249755 0.020370 0.922159
O O7 0.000000 0.000000 0.500000
O O8 0.067603 0.902144 0.791927
O O9 0.496078 0.511582 0.334152
O O10 0.334734 0.407871 0.271020
O O11 0.875271 0.131293 0.863188
O O12 0.788188 0.991465 0.659338
O O13 0.894071 0.250000 0.078687
O O14 0.670566 0.351675 0.841565
O O15 0.614845 0.634205 0.396587
O O16 0.467484 0.750000 0.134814
#
# Coordination Sequence:
#
# PCOD8072578 Si02
#       7
#     4   4   4   4   4   4   4
#     4  10  22  39  61  95 128 166 215 272 324 379
#     4  12  25  42  65  98 130 177 213 265 325 398
#     4  10  21  38  62  89 124 159 211 261 316 375
#     4  11  23  38  67  91 125 167 216 263 323 390
#     4  11  22  42  66  91 126 169 218 269 318 382
#     4  10  19  36  62  91 118 156 211 269 303 373
#     4  10  20  35  61  92 125 163 210 265 325 374
#
# _framework density 20.571514000000001
#
# number of rings (size 3 to 8) (size 9 to 14) (size 15 to 20)
#    0.000    1.429    2.857    3.429    2.000    2.857 
#    0.000    3.571    0.000    0.000    0.000    0.000 
#    0.000    0.000    0.000    0.000    0.000    0.000 
#
# Total GULP energy -347031.699899 kJ/mol
# GULP energy per Si atom -12393.989282 kJ/mol
# Density = 2.052469 g / cm^3
# Si number density = 20.571514 Si / 1000 Ang^3
#
#
#
# Elastic Constant Matrix: (Units=GPa)
#
#
# Indices 1 2 3 4 5 6 
#
# 1 66.5662 33.3411 5.6256 0.0000 -6.1424 0.0000
# 2 33.3411 83.2926 22.4124 0.0000 -2.5110 0.0000
# 3 5.6256 22.4124 81.1875 0.0000 -14.5953 0.0000
# 4 0.0000 0.0000 0.0000 35.9605 0.0000 -2.4843
# 5 -6.1424 -2.5110 -14.5953 0.0000 32.7867 0.0000
# 6 0.0000 0.0000 0.0000 -2.4843 0.0000 28.3629
#
#
#
# Elastic Compliance Matrix: (Units=1/GPa)
#
#
# Indices 1 2 3 4 5 6 
#
# 1 0.019241 -0.008005 0.001537 0.000000 0.003676 0.000000
# 2 -0.008005 0.016312 -0.004341 0.000000 -0.002183 0.000000
# 3 0.001537 -0.004341 0.014567 0.000000 0.006440 0.000000
# 4 0.000000 0.000000 0.000000 0.027978 0.000000 0.002451
# 5 0.003676 -0.002183 0.006440 0.000000 0.033889 0.000000
# 6 0.000000 0.000000 0.000000 0.002451 0.000000 0.035472
#
#
# Mechanical properties :
#
#
# Convention : Reuss Voigt Hill
#
# Bulk Modulus (GPa) = 35.08322 39.31162 37.19742
# Shear Modulus (GPa) = 27.99916 30.73317 29.36617
#
# Velocity S-wave (km/s) = 3.69326 3.86938 3.78235
# Velocity P-wave (km/s) = 5.93955 6.25412 6.09886
#
# Compressibility (1/GPa) = 0.02850366
#
# Stress axis : x y z
#
# Youngs Moduli (GPa) = 51.97121 61.30294 68.64958
#
# Poissons Ratio (x) = 0.49073 -0.10554
# Poissons Ratio (y) = 0.41603 0.29800
# Poissons Ratio (z) = -0.07990 0.26611
#
# Static dielectric constant tensor:
#      x y z
#    x 3.747640 0.000000 -0.196070 
#    y 0.000000 3.806000 0.000000 
#    z -0.196070 0.000000 3.996020 
# 
# 
# High freq. dielectric constant tensor:
#      x y z
#    x 1.798530 0.000000 -0.017810 
#    y 0.000000 1.798890 0.000000 
#    z -0.017810 0.000000 1.806420 
# 
# From -- ./inp_files/22769.got.cif
#   From: 2010.06.25/outbox.cif.g09.slc.cpg/sg11_12_cif.got.tgz:22769.got - 2010.06.27 23:14:04.
