data_PCOD8072885
_publ_section_title
;
Structure prediction by ZEFSAII (Michael W. Deem and Ramdas Pophale) SiO2 
 PCOD8072885
Probable space group: P 21/M
;
_chemical_formula_sum "Si O2"
_cell_formula_units_Z 22
_cell_length_a 10.783435
_cell_length_b 10.087835
_cell_length_c 13.549994
_cell_angle_alpha 90.000000
_cell_angle_beta 109.551140
_cell_angle_gamma 90.000000
_cell_volume 1389.003328
_symmetry_space_group_name_H-M "P 21/M"
_symmetry_group_IT_number 11
_symmetry_cell_setting 'monoclinic'
loop_
_space_group_symop_operation_xyz
x,y,z
-x,1/2+y,-z
-x,-y,-z
x,1/2-y,z
loop_
_atom_site_type_symbol
_atom_site_label
_atom_site_fract_x
_atom_site_fract_y
_atom_site_fract_z
Si Si1 0.871866 0.250000 0.739422
Si Si2 0.147440 0.750000 0.046668
Si Si3 0.886165 0.750000 0.076587
Si Si4 0.527486 0.401681 0.364301
Si Si5 0.287198 0.991191 0.982265
Si Si6 0.662638 0.396668 0.595858
Si Si7 0.542556 0.403684 0.146232
O O1 0.798120 0.250000 0.826799
O O2 0.818488 0.381261 0.665687
O O3 0.029020 0.250000 0.797455
O O4 0.987036 0.750000 0.010293
O O5 0.194430 0.620517 0.002277
O O6 0.796017 0.622944 0.049797
O O7 0.479098 0.250000 0.357458
O O8 0.642228 0.433294 0.474764
O O9 0.401514 0.492913 0.352142
O O10 0.582390 0.432174 0.270041
O O11 0.334156 0.948926 0.886111
O O12 0.413068 0.012006 0.085709
O O13 0.597530 0.250000 0.597595
O O14 0.511273 0.250000 0.118075
#
# Coordination Sequence:
#
# PCOD8072885 Si02
#       7
#     2   2   2   4   4   4   4
#     4   8  18  30  50  70  92 130 163 199 248 282
#     4  10  20  33  54  69 102 133 170 207 244 291
#     4  10  22  35  52  69 102 135 175 206 244 291
#     4   9  16  28  49  74 100 127 157 203 255 288
#     4  11  20  36  49  75 105 132 174 201 248 303
#     4   8  15  30  47  74  99 124 161 204 244 302
#     4  10  20  32  52  76 104 135 159 211 251 305
#
# _framework density 15.838696000000001
#
# number of rings (size 3 to 8) (size 9 to 14) (size 15 to 20)
#    1.091    1.455    1.818    1.636    0.000    0.000 
#    1.636    0.000    0.000    1.091    0.000    0.000 
#    0.000    0.000    0.000    0.000    0.000    0.000 
#
# Total GULP energy -272549.490375 kJ/mol
# GULP energy per Si atom -12388.613199 kJ/mol
# Density = 1.580265 g / cm^3
# Si number density = 15.838696 Si / 1000 Ang^3
#
#
#
# Elastic Constant Matrix: (Units=GPa)
#
#
# Indices 1 2 3 4 5 6 
#
# 1 43.6795 6.5146 29.9188 0.0000 -5.3291 0.0000
# 2 6.5146 59.4321 27.1870 0.0000 -10.1649 0.0000
# 3 29.9188 27.1870 89.9272 0.0000 -8.6483 0.0000
# 4 0.0000 0.0000 0.0000 21.9421 0.0000 -0.2487
# 5 -5.3291 -10.1649 -8.6483 0.0000 23.8198 0.0000
# 6 0.0000 0.0000 0.0000 -0.2487 0.0000 30.4638
#
#
#
# Elastic Compliance Matrix: (Units=1/GPa)
#
#
# Indices 1 2 3 4 5 6 
#
# 1 0.030088 0.002060 -0.010259 0.000000 0.003885 0.000000
# 2 0.002060 0.020661 -0.006258 0.000000 0.007006 0.000000
# 3 -0.010259 -0.006258 0.016525 0.000000 0.001034 0.000000
# 4 0.000000 0.000000 0.000000 0.045579 0.000000 0.000372
# 5 0.003885 0.007006 0.001034 0.000000 0.046216 0.000000
# 6 0.000000 0.000000 0.000000 0.000372 0.000000 0.032829
#
#
# Mechanical properties :
#
#
# Convention : Reuss Voigt Hill
#
# Bulk Modulus (GPa) = 26.06971 35.58664 30.82817
# Shear Modulus (GPa) = 21.40423 23.87304 22.63864
#
# Velocity S-wave (km/s) = 3.68011 3.88656 3.78474
# Velocity P-wave (km/s) = 5.87817 6.53126 6.21330
#
# Compressibility (1/GPa) = 0.03835870
#
# Stress axis : x y z
#
# Youngs Moduli (GPa) = 33.23569 48.40046 60.51558
#
# Poissons Ratio (x) = -0.09968 0.62085
# Poissons Ratio (y) = -0.06845 0.37869
# Poissons Ratio (z) = 0.34098 0.30288
#
# Static dielectric constant tensor:
#      x y z
#    x 2.746080 0.000000 -0.005110 
#    y 0.000000 2.695850 0.000000 
#    z -0.005110 0.000000 3.124880 
# 
# 
# High freq. dielectric constant tensor:
#      x y z
#    x 1.572780 0.000000 0.001790 
#    y 0.000000 1.613570 0.000000 
#    z 0.001790 0.000000 1.613850 
# 
# From -- ./inp_files/48640.got.cif
#   From: 2010.06.25/outbox.cif.g09.slc.cpg/sg11_25_cif.got.tgz:48640.got - 2010.06.27 23:14:04.
