data_PCOD8072912
_publ_section_title
;
Structure prediction by ZEFSAII (Michael W. Deem and Ramdas Pophale) SiO2 
 PCOD8072912
Probable space group: P 21/M
;
_chemical_formula_sum "Si O2"
_cell_formula_units_Z 32
_cell_length_a 13.898203
_cell_length_b 9.194727
_cell_length_c 26.040860
_cell_angle_alpha 90.000000
_cell_angle_beta 145.580748
_cell_angle_gamma 90.000000
_cell_volume 1881.000633
_symmetry_space_group_name_H-M "P 21/M"
_symmetry_group_IT_number 11
_symmetry_cell_setting 'monoclinic'
loop_
_space_group_symop_operation_xyz
x,y,z
-x,1/2+y,-z
-x,-y,-z
x,1/2-y,z
loop_
_atom_site_type_symbol
_atom_site_label
_atom_site_fract_x
_atom_site_fract_y
_atom_site_fract_z
Si Si1 0.654679 0.915155 0.283353
Si Si2 0.969081 0.418177 0.538746
Si Si3 0.348558 0.081507 0.961046
Si Si4 0.863120 0.079445 0.205090
Si Si5 0.752844 0.916808 0.604604
Si Si6 0.436948 0.915840 0.851597
Si Si7 0.504731 0.082750 0.422122
Si Si8 0.643507 0.577262 0.395931
O O1 0.593916 0.750000 0.254957
O O2 0.623945 0.972928 0.328038
O O3 0.852251 0.930057 0.352328
O O4 0.541165 0.000518 0.192405
O O5 0.920501 0.250000 0.507940
O O6 0.812962 0.503941 0.496453
O O7 0.000000 0.500000 0.500000
O O8 0.347714 0.250000 0.944796
O O9 0.174120 0.005818 0.865026
O O10 0.386466 0.064897 0.038753
O O11 0.500000 0.000000 0.000000
O O12 0.846731 0.250000 0.186378
O O13 0.725756 0.028271 0.187178
O O14 0.050371 0.037169 0.306639
O O15 0.731000 0.750000 0.576089
O O16 0.673243 0.934365 0.626449
O O17 0.659165 0.023837 0.524692
O O18 0.404224 0.750000 0.822640
O O19 0.542857 0.250000 0.425361
O O20 0.490842 0.988055 0.363335
O O21 0.656540 0.750000 0.406307
#
# Coordination Sequence:
#
# PCOD8072912 Si02
#       8
#     4   4   4   4   4   4   4   4
#     4   9  19  31  43  64  91 120 157 192 227 274
#     4   9  17  29  42  61  87 117 155 194 228 271
#     4   9  17  30  46  68  95 124 155 189 229 277
#     4   9  18  32  49  70  94 125 157 187 232 284
#     4   9  19  35  51  70  97 124 155 196 240 286
#     4   9  18  29  44  68  97 125 153 184 226 276
#     4  10  20  33  50  71  94 123 160 200 239 280
#     4  10  20  33  47  63  89 126 160 197 240 278
#
# _framework density 17.012222000000001
#
# number of rings (size 3 to 8) (size 9 to 14) (size 15 to 20)
#    0.000    2.750    0.000    3.000    1.750    6.500 
#    0.000    0.000    0.000    0.000    0.000    0.875 
#    0.000    0.000    0.000    0.000    0.000    0.000 
#
# Total GULP energy -396555.320710 kJ/mol
# GULP energy per Si atom -12392.353772 kJ/mol
# Density = 1.697350 g / cm^3
# Si number density = 17.012222 Si / 1000 Ang^3
#
#
#
# Elastic Constant Matrix: (Units=GPa)
#
#
# Indices 1 2 3 4 5 6 
#
# 1 63.7231 26.1518 20.1061 0.0000 -14.2570 0.0000
# 2 26.1518 78.2580 27.0418 0.0000 -13.5547 0.0000
# 3 20.1061 27.0418 60.8550 0.0000 -12.8628 0.0000
# 4 0.0000 0.0000 0.0000 28.5852 0.0000 -5.3722
# 5 -14.2570 -13.5547 -12.8628 0.0000 21.3516 0.0000
# 6 0.0000 0.0000 0.0000 -5.3722 0.0000 26.5735
#
#
#
# Elastic Compliance Matrix: (Units=1/GPa)
#
#
# Indices 1 2 3 4 5 6 
#
# 1 0.020401 -0.004216 -0.002926 0.000000 0.009183 0.000000
# 2 -0.004216 0.016758 -0.005042 0.000000 0.004786 0.000000
# 3 -0.002926 -0.005042 0.021257 0.000000 0.007651 0.000000
# 4 0.000000 0.000000 0.000000 0.036365 0.000000 0.007352
# 5 0.009183 0.004786 0.007651 0.000000 0.060614 0.000000
# 6 0.000000 0.000000 0.000000 0.007352 0.000000 0.039118
#
#
# Mechanical properties :
#
#
# Convention : Reuss Voigt Hill
#
# Bulk Modulus (GPa) = 29.37014 38.82617 34.09816
# Shear Modulus (GPa) = 21.71734 23.93782 22.82758
#
# Velocity S-wave (km/s) = 3.57679 3.75520 3.66708
# Velocity P-wave (km/s) = 5.86170 6.45555 6.16578
#
# Compressibility (1/GPa) = 0.03404819
#
# Stress axis : x y z
#
# Youngs Moduli (GPa) = 49.01754 59.67154 47.04324
#
# Poissons Ratio (x) = 0.25157 0.13764
# Poissons Ratio (y) = 0.20665 0.23721
# Poissons Ratio (z) = 0.14342 0.30088
#
# Static dielectric constant tensor:
#      x y z
#    x 3.077290 0.000000 -0.066300 
#    y 0.000000 3.321320 0.000000 
#    z -0.066300 0.000000 3.308900 
# 
# 
# High freq. dielectric constant tensor:
#      x y z
#    x 1.631480 0.000000 -0.016160 
#    y 0.000000 1.666550 0.000000 
#    z -0.016160 0.000000 1.631460 
# 
# From -- ./inp_files/71644.got.cif
#   From: 2010.06.25/outbox.cif.g09.slc.cpg/sg11_36_cif.got.tgz:71644.got - 2010.06.27 23:14:04.
