data_PCOD8072739
_publ_section_title
;
Structure prediction by ZEFSAII (Michael W. Deem and Ramdas Pophale) SiO2 
 PCOD8072739
Probable space group: P 21/M
;
_chemical_formula_sum "Si O2"
_cell_formula_units_Z 26
_cell_length_a 8.598050
_cell_length_b 20.011936
_cell_length_c 9.701858
_cell_angle_alpha 90.000000
_cell_angle_beta 51.465389
_cell_angle_gamma 90.000000
_cell_volume 1305.808665
_symmetry_space_group_name_H-M "P 21/M"
_symmetry_group_IT_number 11
_symmetry_cell_setting 'monoclinic'
loop_
_space_group_symop_operation_xyz
x,y,z
-x,1/2+y,-z
-x,-y,-z
x,1/2-y,z
loop_
_atom_site_type_symbol
_atom_site_label
_atom_site_fract_x
_atom_site_fract_y
_atom_site_fract_z
Si Si1 0.132141 0.385326 0.903226
Si Si2 0.218252 0.250000 0.756396
Si Si3 0.813985 0.045786 0.580240
Si Si4 0.778458 0.106715 0.894142
Si Si5 0.602932 0.483695 0.217317
Si Si6 0.201740 0.616017 0.688596
Si Si7 0.745029 0.250000 0.988177
Si Si8 0.412559 0.750000 0.620653
O O1 0.267016 0.318454 0.813093
O O2 0.269356 0.448811 0.851372
O O3 0.998833 0.396154 0.839404
O O4 0.992718 0.374382 0.111625
O O5 0.350759 0.250000 0.543776
O O6 0.983006 0.250000 0.863385
O O7 0.776787 0.088652 0.736309
O O8 0.627595 0.999814 0.646011
O O9 0.864126 0.094239 0.426298
O O10 0.000000 0.000000 0.500000
O O11 0.683065 0.181240 0.948811
O O12 0.640057 0.055768 0.054847
O O13 0.654438 0.438514 0.320588
O O14 0.315896 0.685114 0.605985
O O15 0.628315 0.250000 0.195727
#
# Coordination Sequence:
#
# PCOD8072739 Si02
#       8
#     4   2   4   4   4   4   2   2
#     4  10  19  40  63  90 120 163 215 255 314 371
#     4  10  20  34  63  94 121 160 203 264 315 364
#     4  12  25  38  57  94 133 161 209 266 321 375
#     4  10  21  40  63  87 127 169 196 265 323 370
#     4  11  21  38  64  87 120 170 214 250 313 377
#     4  11  22  39  65  94 124 161 212 269 302 373
#     4  10  20  43  62  90 130 160 215 257 316 379
#     4  12  20  39  67  96 121 162 218 265 303 375
#
# _framework density 19.911033
#
# number of rings (size 3 to 8) (size 9 to 14) (size 15 to 20)
#    0.000    1.231    4.615    5.538    0.000    3.077 
#    0.000    0.769    0.000    3.692    0.000    0.000 
#    0.000    0.000    0.000    0.000    0.000    0.000 
#
# Total GULP energy -322376.330059 kJ/mol
# GULP energy per Si atom -12399.089618 kJ/mol
# Density = 1.986572 g / cm^3
# Si number density = 19.911033 Si / 1000 Ang^3
#
#
#
# Elastic Constant Matrix: (Units=GPa)
#
#
# Indices 1 2 3 4 5 6 
#
# 1 51.5218 27.9987 52.3757 0.0000 4.1216 0.0000
# 2 27.9987 153.0106 53.8200 0.0000 -1.5550 0.0000
# 3 52.3757 53.8200 127.0579 0.0000 7.8538 0.0000
# 4 0.0000 0.0000 0.0000 -424.1850 0.0000 135.3553
# 5 4.1216 -1.5550 7.8538 0.0000 45.5454 0.0000
# 6 0.0000 0.0000 0.0000 135.3553 0.0000 -20.0620
#
#
#
# Elastic Compliance Matrix: (Units=1/GPa)
#
#
# Indices 1 2 3 4 5 6 
#
# 1 0.033733 -0.001537 -0.013203 0.000000 -0.000828 0.000000
# 2 -0.001537 0.007781 -0.002716 0.000000 0.000873 0.000000
# 3 -0.013203 -0.002716 0.014551 0.000000 -0.001407 0.000000
# 4 0.000000 0.000000 0.000000 0.002045 0.000000 0.013796
# 5 -0.000828 0.000873 -0.001407 0.000000 0.022304 0.000000
# 6 0.000000 0.000000 0.000000 0.013796 0.000000 0.043235
#
#
# Mechanical properties :
#
#
# Convention : Reuss Voigt Hill
#
# Bulk Modulus (GPa) = 47.27784 66.66435 56.97110
# Shear Modulus (GPa) = 30.19126 -66.58060 -18.19467
#
# Velocity S-wave (km/s) = 3.89820 -5.78892 -3.02619
# Velocity P-wave (km/s) = 6.63758 3.33592 4.05765
#
# Compressibility (1/GPa) = 0.02115156
#
# Stress axis : x y z
#
# Youngs Moduli (GPa) = 29.64500 128.51710 68.72610
#
# Poissons Ratio (x) = 0.19753 0.90739
# Poissons Ratio (y) = 0.04556 0.18668
# Poissons Ratio (z) = 0.39140 0.34910
#
# Static dielectric constant tensor:
#      x y z
#    x 3.478660 0.000000 -0.056800 
#    y 0.000000 4.417970 0.000000 
#    z -0.056800 0.000000 3.674630 
# 
# 
# High freq. dielectric constant tensor:
#      x y z
#    x 1.741760 0.000000 -0.003780 
#    y 0.000000 1.802990 0.000000 
#    z -0.003780 0.000000 1.790360 
# 
# From -- ./inp_files/14262.got.cif
#   From: 2010.06.25/outbox.cif.g09.slc.cpg/sg11_8_cif.got.tgz:14262.got - 2010.06.27 23:14:04.
