data_PCOD8072851
_publ_section_title
;
Structure prediction by ZEFSAII (Michael W. Deem and Ramdas Pophale) SiO2 
 PCOD8072851
Probable space group: P 21/M
;
_chemical_formula_sum "Si O2"
_cell_formula_units_Z 32
_cell_length_a 22.970569
_cell_length_b 9.044965
_cell_length_c 28.247882
_cell_angle_alpha 90.000000
_cell_angle_beta 162.335066
_cell_angle_gamma 90.000000
_cell_volume 1780.949550
_symmetry_space_group_name_H-M "P 21/M"
_symmetry_group_IT_number 11
_symmetry_cell_setting 'monoclinic'
loop_
_space_group_symop_operation_xyz
x,y,z
-x,1/2+y,-z
-x,-y,-z
x,1/2-y,z
loop_
_atom_site_type_symbol
_atom_site_label
_atom_site_fract_x
_atom_site_fract_y
_atom_site_fract_z
Si Si1 0.207860 0.416820 0.892186
Si Si2 0.556626 0.413263 0.235333
Si Si3 0.469066 0.576545 0.025759
Si Si4 0.196898 0.420862 0.641817
Si Si5 0.302933 0.080547 0.355343
Si Si6 0.261477 0.424314 0.079078
Si Si7 0.034788 0.573860 0.976979
Si Si8 0.984238 0.577772 0.790866
O O1 0.158122 0.250000 0.838005
O O2 0.016128 0.492224 0.765822
O O3 0.371674 0.420020 0.058503
O O4 0.277503 0.508471 0.900579
O O5 0.648873 0.250000 0.304467
O O6 0.717976 0.527147 0.342880
O O7 0.481078 0.446861 0.230283
O O8 0.437974 0.750000 0.994783
O O9 0.653467 0.541421 0.200841
O O10 0.500000 0.500000 0.000000
O O11 0.153169 0.250000 0.603756
O O12 0.000000 0.500000 0.500000
O O13 0.346196 0.250000 0.379943
O O14 0.144604 0.027919 0.194836
O O15 0.228167 0.053992 0.351489
O O16 0.500000 0.000000 0.500000
O O17 0.209177 0.250000 0.038624
O O18 0.227754 0.497914 0.104491
O O19 0.127901 0.515575 0.940777
O O20 0.062923 0.750000 0.002756
O O21 0.000000 0.500000 0.000000
O O22 0.029124 0.750000 0.817590
#
# Coordination Sequence:
#
# PCOD8072851 Si02
#       8
#     4   4   4   4   4   4   4   4
#     4   9  16  27  45  69  94 123 158 197 239 282
#     4   8  15  27  44  67  94 121 154 195 236 277
#     4  10  20  33  50  73  99 129 161 197 240 287
#     4  10  20  32  49  72  98 128 161 195 237 284
#     4   9  19  32  48  71  98 127 160 196 237 283
#     4   9  16  27  45  69  94 123 157 196 240 283
#     4  10  20  33  49  72  99 128 161 198 239 287
#     4   9  16  27  43  67  96 123 156 200 240 279
#
# _framework density 17.967943000000002
#
# number of rings (size 3 to 8) (size 9 to 14) (size 15 to 20)
#    0.000    2.750    0.000    3.750    0.000    8.000 
#    0.000    0.000    0.000    1.500    0.000    8.750 
#    0.000    0.000    0.000    0.000    0.000    0.000 
#
# Total GULP energy -396558.829884 kJ/mol
# GULP energy per Si atom -12392.463434 kJ/mol
# Density = 1.792705 g / cm^3
# Si number density = 17.967943 Si / 1000 Ang^3
#
#
#
# Elastic Constant Matrix: (Units=GPa)
#
#
# Indices 1 2 3 4 5 6 
#
# 1 159.3396 76.7290 44.3047 0.0000 35.2271 0.0000
# 2 76.7290 121.3745 46.0657 0.0000 23.6818 0.0000
# 3 44.3047 46.0657 50.7624 0.0000 24.3460 0.0000
# 4 0.0000 0.0000 0.0000 25.3323 0.0000 8.8815
# 5 35.2271 23.6818 24.3460 0.0000 26.2902 0.0000
# 6 0.0000 0.0000 0.0000 8.8815 0.0000 39.0757
#
#
#
# Elastic Compliance Matrix: (Units=1/GPa)
#
#
# Indices 1 2 3 4 5 6 
#
# 1 0.010885 -0.004799 -0.000402 0.000000 -0.009890 0.000000
# 2 -0.004799 0.014710 -0.010596 0.000000 0.002991 0.000000
# 3 -0.000402 -0.010596 0.044669 0.000000 -0.031283 0.000000
# 4 0.000000 0.000000 0.000000 0.042893 0.000000 -0.009749
# 5 -0.009890 0.002991 -0.031283 0.000000 0.077564 0.000000
# 6 0.000000 0.000000 0.000000 -0.009749 0.000000 0.027807
#
#
# Mechanical properties :
#
#
# Convention : Reuss Voigt Hill
#
# Bulk Modulus (GPa) = 25.85876 73.96390 49.91133
# Shear Modulus (GPa) = 19.01047 29.09814 24.05431
#
# Velocity S-wave (km/s) = 3.25625 4.02860 3.66284
# Velocity P-wave (km/s) = 5.34420 7.93053 6.76216
#
# Compressibility (1/GPa) = 0.03867162
#
# Stress axis : x y z
#
# Youngs Moduli (GPa) = 91.86846 67.97902 22.38676
#
# Poissons Ratio (x) = 0.32623 0.00900
# Poissons Ratio (y) = 0.44087 0.23720
# Poissons Ratio (z) = 0.03694 0.72028
#
# Static dielectric constant tensor:
#      x y z
#    x 3.804320 0.000000 0.518960 
#    y 0.000000 3.526280 0.000000 
#    z 0.518960 0.000000 2.959980 
# 
# 
# High freq. dielectric constant tensor:
#      x y z
#    x 1.705540 0.000000 0.038950 
#    y 0.000000 1.711990 0.000000 
#    z 0.038950 0.000000 1.639340 
# 
# From -- ./inp_files/42515.got.cif
#   From: 2010.06.25/outbox.cif.g09.slc.cpg/sg11_22_cif.got.tgz:42515.got - 2010.06.27 23:14:04.
