data_PCOD8072648
_publ_section_title
;
Structure prediction by ZEFSAII (Michael W. Deem and Ramdas Pophale) SiO2 
 PCOD8072648
Probable space group: P 21/M
;
_chemical_formula_sum "Si O2"
_cell_formula_units_Z 32
_cell_length_a 12.265018
_cell_length_b 18.203560
_cell_length_c 9.291285
_cell_angle_alpha 90.000000
_cell_angle_beta 130.780826
_cell_angle_gamma 90.000000
_cell_volume 1570.792260
_symmetry_space_group_name_H-M "P 21/M"
_symmetry_group_IT_number 11
_symmetry_cell_setting 'monoclinic'
loop_
_space_group_symop_operation_xyz
x,y,z
-x,1/2+y,-z
-x,-y,-z
x,1/2-y,z
loop_
_atom_site_type_symbol
_atom_site_label
_atom_site_fract_x
_atom_site_fract_y
_atom_site_fract_z
Si Si1 0.211457 0.555581 0.971004
Si Si2 0.112089 0.666217 0.110443
Si Si3 0.661678 0.976854 0.658049
Si Si4 0.951977 0.942445 0.343299
Si Si5 0.707676 0.832969 0.132875
Si Si6 0.429689 0.920872 0.912191
Si Si7 0.757789 0.087707 0.527740
Si Si8 0.781980 0.667868 0.868747
O O1 0.103784 0.490152 0.837820
O O2 0.297687 0.588035 0.908669
O O3 0.128395 0.621864 0.976085
O O4 0.314229 0.515415 0.169804
O O5 0.131739 0.750000 0.085226
O O6 0.236758 0.646970 0.336373
O O7 0.951560 0.648947 0.031448
O O8 0.753583 0.008391 0.603089
O O9 0.500000 0.000000 0.500000
O O10 0.696944 0.889894 0.694391
O O11 0.831732 0.886558 0.302460
O O12 0.092860 0.897157 0.423693
O O13 0.000000 0.000000 0.500000
O O14 0.732043 0.750000 0.210826
O O15 0.551106 0.860268 0.049538
O O16 0.712527 0.836062 0.965436
O O17 0.372964 0.907163 0.699329
O O18 0.500000 0.000000 0.000000
O O19 0.761959 0.750000 0.786175
#
# Coordination Sequence:
#
# PCOD8072648 Si02
#       8
#     4   4   4   4   4   4   4   4
#     4  11  22  38  64  90 130 166 213 271 324 383
#     4  10  22  40  62  93 129 166 213 275 328 381
#     4  11  21  37  60  95 124 164 217 264 316 384
#     4  12  21  39  65  97 123 166 224 273 321 385
#     4  11  23  39  62  92 129 168 211 269 331 388
#     4  12  22  41  63  94 132 173 217 265 327 398
#     4  11  22  35  66  94 124 169 221 274 313 385
#     4  10  19  37  62  87 123 164 208 261 325 385
#
# _framework density 20.371884999999999
#
# number of rings (size 3 to 8) (size 9 to 14) (size 15 to 20)
#    0.000    1.000    5.000    2.250    0.000    3.000 
#    0.000    4.375    0.000    9.000    0.000    0.000 
#    0.000    0.000    0.000    0.000    0.000    0.000 
#
# Total GULP energy -396599.452630 kJ/mol
# GULP energy per Si atom -12393.732895 kJ/mol
# Density = 2.032552 g / cm^3
# Si number density = 20.371885 Si / 1000 Ang^3
#
#
#
# Elastic Constant Matrix: (Units=GPa)
#
#
# Indices 1 2 3 4 5 6 
#
# 1 69.7983 24.7608 7.8706 0.0000 7.9177 0.0000
# 2 24.7608 139.8212 42.5636 0.0000 14.6495 0.0000
# 3 7.8706 42.5636 100.8115 0.0000 14.2589 0.0000
# 4 0.0000 0.0000 0.0000 30.3856 0.0000 5.3766
# 5 7.9177 14.6495 14.2589 0.0000 30.6640 0.0000
# 6 0.0000 0.0000 0.0000 5.3766 0.0000 32.0887
#
#
#
# Elastic Compliance Matrix: (Units=1/GPa)
#
#
# Indices 1 2 3 4 5 6 
#
# 1 0.015524 -0.002524 0.000268 0.000000 -0.002927 0.000000
# 2 -0.002524 0.008796 -0.003227 0.000000 -0.002050 0.000000
# 3 0.000268 -0.003227 0.011831 0.000000 -0.004029 0.000000
# 4 0.000000 0.000000 0.000000 0.033916 0.000000 -0.005683
# 5 -0.002927 -0.002050 -0.004029 0.000000 0.036220 0.000000
# 6 0.000000 0.000000 0.000000 -0.005683 0.000000 0.032116
#
#
# Mechanical properties :
#
#
# Convention : Reuss Voigt Hill
#
# Bulk Modulus (GPa) = 39.70625 51.20233 45.45429
# Shear Modulus (GPa) = 31.69291 34.31008 33.00149
#
# Velocity S-wave (km/s) = 3.94854 4.10834 4.02923
# Velocity P-wave (km/s) = 6.34988 6.90601 6.63377
#
# Compressibility (1/GPa) = 0.02518495
#
# Stress axis : x y z
#
# Youngs Moduli (GPa) = 64.41546 113.68785 84.52496
#
# Poissons Ratio (x) = 0.28694 -0.02262
# Poissons Ratio (y) = 0.16258 0.27274
# Poissons Ratio (z) = -0.01724 0.36684
#
# Static dielectric constant tensor:
#      x y z
#    x 3.156710 0.000000 0.641240 
#    y 0.000000 3.843590 0.000000 
#    z 0.641240 0.000000 3.101340 
# 
# 
# High freq. dielectric constant tensor:
#      x y z
#    x 1.798080 0.000000 0.008260 
#    y 0.000000 1.790780 0.000000 
#    z 0.008260 0.000000 1.790530 
# 
# From -- ./inp_files/19411.got.cif
#   From: 2010.06.25/outbox.cif.g09.slc.cpg/sg11_10_cif.got.tgz:19411.got - 2010.06.27 23:14:04.
