data_PCOD8072946
_publ_section_title
;
Structure prediction by ZEFSAII (Michael W. Deem and Ramdas Pophale) SiO2 
 PCOD8072946
Probable space group: P 21/M
;
_chemical_formula_sum "Si O2"
_cell_formula_units_Z 32
_cell_length_a 17.771866
_cell_length_b 9.210777
_cell_length_c 23.973998
_cell_angle_alpha 90.000000
_cell_angle_beta 151.845714
_cell_angle_gamma 90.000000
_cell_volume 1851.703222
_symmetry_space_group_name_H-M "P 21/M"
_symmetry_group_IT_number 11
_symmetry_cell_setting 'monoclinic'
loop_
_space_group_symop_operation_xyz
x,y,z
-x,1/2+y,-z
-x,-y,-z
x,1/2-y,z
loop_
_atom_site_type_symbol
_atom_site_label
_atom_site_fract_x
_atom_site_fract_y
_atom_site_fract_z
Si Si1 0.952555 0.578380 0.525049
Si Si2 0.528117 0.578850 0.885746
Si Si3 0.569019 0.417161 0.415528
Si Si4 0.366959 0.582229 0.665448
Si Si5 0.202362 0.922589 0.878974
Si Si6 0.632953 0.583181 0.619223
Si Si7 0.257583 0.920751 0.791677
Si Si8 0.156479 0.420423 0.338964
O O1 0.945036 0.750000 0.510101
O O2 0.785044 0.520749 0.436944
O O3 0.000000 0.500000 0.500000
O O4 0.083404 0.534265 0.656358
O O5 0.552104 0.750000 0.909075
O O6 0.477722 0.539418 0.789859
O O7 0.395442 0.514432 0.841923
O O8 0.694061 0.498150 0.005399
O O9 0.615855 0.250000 0.455536
O O10 0.538020 0.447303 0.329910
O O11 0.399115 0.453383 0.336119
O O12 0.717735 0.507702 0.536612
O O13 0.312529 0.750000 0.635754
O O14 0.211290 0.750000 0.891897
O O15 0.272849 0.974860 0.865292
O O16 0.021077 0.979086 0.766178
O O17 0.500000 0.500000 0.500000
O O18 0.599598 0.750000 0.586430
O O19 0.801450 0.544142 0.699363
O O20 0.274682 0.750000 0.800098
O O21 0.162435 0.250000 0.355530
#
# Coordination Sequence:
#
# PCOD8072946 Si02
#       8
#     4   4   4   4   4   4   4   4
#     4  11  20  33  52  73  98 127 156 191 237 287
#     4  10  20  35  49  62  89 127 160 198 242 277
#     4   9  17  29  49  75  99 123 157 193 227 284
#     4  10  20  34  49  69  98 128 159 196 237 281
#     4  10  20  33  49  69  90 119 161 201 234 277
#     4   8  14  26  45  70  97 125 151 183 233 285
#     4   9  18  33  50  67  92 121 152 194 240 277
#     4   9  17  30  48  71 101 127 150 190 244 289
#
# _framework density 17.281386000000001
#
# number of rings (size 3 to 8) (size 9 to 14) (size 15 to 20)
#    0.000    2.500    1.250    1.500    0.000    2.500 
#    0.000    1.250    0.000    0.750    0.000    0.000 
#    0.000    0.000    0.000    0.000    0.000    0.000 
#
# Total GULP energy -396507.561346 kJ/mol
# GULP energy per Si atom -12390.861292 kJ/mol
# Density = 1.724205 g / cm^3
# Si number density = 17.281386 Si / 1000 Ang^3
#
#
#
# Elastic Constant Matrix: (Units=GPa)
#
#
# Indices 1 2 3 4 5 6 
#
# 1 143.9915 23.6039 53.0305 0.0000 -5.0195 0.0000
# 2 23.6039 32.5329 25.2665 0.0000 -2.1154 0.0000
# 3 53.0305 25.2665 93.0132 0.0000 -8.3286 0.0000
# 4 0.0000 0.0000 0.0000 25.6371 0.0000 0.8061
# 5 -5.0195 -2.1154 -8.3286 0.0000 18.5599 0.0000
# 6 0.0000 0.0000 0.0000 0.8061 0.0000 18.4013
#
#
#
# Elastic Compliance Matrix: (Units=1/GPa)
#
#
# Indices 1 2 3 4 5 6 
#
# 1 0.009053 -0.003245 -0.004265 0.000000 0.000165 0.000000
# 2 -0.003245 0.040122 -0.009083 0.000000 -0.000381 0.000000
# 3 -0.004265 -0.009083 0.016101 0.000000 0.005037 0.000000
# 4 0.000000 0.000000 0.000000 0.039060 0.000000 -0.001711
# 5 0.000165 -0.000381 0.005037 0.000000 0.056141 0.000000
# 6 0.000000 0.000000 0.000000 -0.001711 0.000000 0.054419
#
#
# Mechanical properties :
#
#
# Convention : Reuss Voigt Hill
#
# Bulk Modulus (GPa) = 31.16243 52.59327 41.87785
# Shear Modulus (GPa) = 19.32144 23.69544 21.50844
#
# Velocity S-wave (km/s) = 3.34735 3.70693 3.53172
# Velocity P-wave (km/s) = 5.74554 6.98722 6.39658
#
# Compressibility (1/GPa) = 0.03208993
#
# Stress axis : x y z
#
# Youngs Moduli (GPa) = 110.45464 24.92398 62.10656
#
# Poissons Ratio (x) = 0.08088 0.26491
# Poissons Ratio (y) = 0.35845 0.56410
# Poissons Ratio (z) = 0.47114 0.22638
#
# Static dielectric constant tensor:
#      x y z
#    x 4.055880 0.000000 0.075260 
#    y 0.000000 3.172950 0.000000 
#    z 0.075260 0.000000 2.923710 
# 
# 
# High freq. dielectric constant tensor:
#      x y z
#    x 1.684320 0.000000 -0.001280 
#    y 0.000000 1.655330 0.000000 
#    z -0.001280 0.000000 1.637340 
# 
# From -- ./inp_files/43796.got.cif
#   From: 2010.06.25/outbox.cif.g09.slc.cpg/sg11_22_cif.got.tgz:43796.got - 2010.06.27 23:14:04.
