data_PCOD8072286
_publ_section_title
;
Structure prediction by ZEFSAII (Michael W. Deem and Ramdas Pophale) SiO2 
 PCOD8072286
Probable space group: P 21/M
;
_chemical_formula_sum "Si O2"
_cell_formula_units_Z 32
_cell_length_a 21.690860
_cell_length_b 8.675108
_cell_length_c 27.976665
_cell_angle_alpha 90.000000
_cell_angle_beta 18.685999
_cell_angle_gamma 90.000000
_cell_volume 1686.611503
_symmetry_space_group_name_H-M "P 21/M"
_symmetry_group_IT_number 11
_symmetry_cell_setting 'monoclinic'
loop_
_space_group_symop_operation_xyz
x,y,z
-x,1/2+y,-z
-x,-y,-z
x,1/2-y,z
loop_
_atom_site_type_symbol
_atom_site_label
_atom_site_fract_x
_atom_site_fract_y
_atom_site_fract_z
Si Si1 0.787395 0.931214 0.867319
Si Si2 0.702978 0.568589 0.635723
Si Si3 0.392927 0.431653 0.188262
Si Si4 0.494763 0.065938 0.556560
Si Si5 0.504736 0.929195 0.295413
Si Si6 0.788959 0.432328 0.159276
Si Si7 0.891724 0.568752 0.684292
Si Si8 0.191144 0.929339 0.602658
O O1 0.774552 0.750000 0.884886
O O2 0.791612 0.969725 0.808056
O O3 0.978682 0.001767 0.752583
O O4 0.606904 0.009122 0.024120
O O5 0.675515 0.750000 0.651379
O O6 0.683658 0.511189 0.704373
O O7 0.532294 0.487840 0.731017
O O8 0.909854 0.521479 0.464374
O O9 0.397437 0.250000 0.181547
O O10 0.249762 0.495844 0.252820
O O11 0.484288 0.250000 0.563775
O O12 0.689424 0.005026 0.439878
O O13 0.500000 0.000000 0.500000
O O14 0.311006 0.004128 0.720386
O O15 0.561742 0.750000 0.253734
O O16 0.308229 0.960834 0.468305
O O17 0.676865 0.023628 0.193217
O O18 0.796685 0.250000 0.159480
O O19 0.000000 0.500000 0.000000
O O20 0.935272 0.750000 0.647058
O O21 0.164191 0.750000 0.630349
#
# Coordination Sequence:
#
# PCOD8072286 Si02
#       8
#     4   4   4   4   4   4   4   4
#     4  10  19  35  58  82 106 143 190 233 280 339
#     4  11  22  36  55  82 115 148 189 235 283 339
#     4  10  23  38  51  79 118 149 180 234 292 339
#     4  10  20  37  60  87 120 157 197 241 289 342
#     4  10  19  37  62  85 113 151 192 236 284 336
#     4  11  22  39  62  91 122 154 194 238 289 346
#     4  10  20  37  60  80 106 145 191 236 285 343
#     4   8  16  33  57  82 108 141 187 235 274 328
#
# _framework density 18.972953
#
# number of rings (size 3 to 8) (size 9 to 14) (size 15 to 20)
#    0.000    2.000    1.250    3.750    0.000    2.000 
#    2.250    1.250    0.000    0.000    0.000    0.000 
#    0.000    0.000    0.000    0.000    0.000    0.000 
#
# Total GULP energy -396805.197488 kJ/mol
# GULP energy per Si atom -12400.162421 kJ/mol
# Density = 1.892977 g / cm^3
# Si number density = 18.972953 Si / 1000 Ang^3
#
#
#
# Elastic Constant Matrix: (Units=GPa)
#
#
# Indices 1 2 3 4 5 6 
#
# 1 134.2390 22.4394 36.6351 0.0000 -35.3803 0.0000
# 2 22.4394 87.2477 34.3832 0.0000 48.8906 0.0000
# 3 36.6351 34.3832 91.4250 0.0000 3.9939 0.0000
# 4 0.0000 0.0000 0.0000 33.0031 0.0000 -1.2534
# 5 -35.3803 48.8906 3.9939 0.0000 113.8861 0.0000
# 6 0.0000 0.0000 0.0000 -1.2534 0.0000 28.8597
#
#
#
# Elastic Compliance Matrix: (Units=1/GPa)
#
#
# Indices 1 2 3 4 5 6 
#
# 1 0.010319 -0.004552 -0.002652 0.000000 0.005253 0.000000
# 2 -0.004552 0.020334 -0.005388 0.000000 -0.009954 0.000000
# 3 -0.002652 -0.005388 0.013984 0.000000 0.000999 0.000000
# 4 0.000000 0.000000 0.000000 0.030350 0.000000 0.001318
# 5 0.005253 -0.009954 0.000999 0.000000 0.014651 0.000000
# 6 0.000000 0.000000 0.000000 0.001318 0.000000 0.034708
#
#
# Mechanical properties :
#
#
# Convention : Reuss Voigt Hill
#
# Bulk Modulus (GPa) = 51.41194 55.53633 53.47414
# Shear Modulus (GPa) = 32.04842 49.78005 40.91424
#
# Velocity S-wave (km/s) = 4.11440 5.12780 4.64880
# Velocity P-wave (km/s) = 7.05176 8.02459 7.55385
#
# Compressibility (1/GPa) = 0.01945074
#
# Stress axis : x y z
#
# Youngs Moduli (GPa) = 96.91215 49.17877 71.51279
#
# Poissons Ratio (x) = 0.22387 0.18967
# Poissons Ratio (y) = 0.44116 0.38533
# Poissons Ratio (z) = 0.25704 0.26499
#
# Static dielectric constant tensor:
#      x y z
#    x 3.951930 0.000000 -0.296070 
#    y 0.000000 3.375530 0.000000 
#    z -0.296070 0.000000 3.527780 
# 
# 
# High freq. dielectric constant tensor:
#      x y z
#    x 1.750680 0.000000 -0.010580 
#    y 0.000000 1.727430 0.000000 
#    z -0.010580 0.000000 1.731990 
# 
# From -- ./inp_files/72098.got.cif
#   From: 2010.06.25/outbox.cif.g09.slc.cpg/sg11_37_cif.got.tgz:72098.got - 2010.06.27 23:14:04.
