data_PCOD8072788
_publ_section_title
;
Structure prediction by ZEFSAII (Michael W. Deem and Ramdas Pophale) SiO2 
 PCOD8072788
Probable space group: P 21/M
;
_chemical_formula_sum "Si O2"
_cell_formula_units_Z 32
_cell_length_a 12.700364
_cell_length_b 8.956495
_cell_length_c 25.530094
_cell_angle_alpha 90.000000
_cell_angle_beta 34.773449
_cell_angle_gamma 90.000000
_cell_volume 1656.285343
_symmetry_space_group_name_H-M "P 21/M"
_symmetry_group_IT_number 11
_symmetry_cell_setting 'monoclinic'
loop_
_space_group_symop_operation_xyz
x,y,z
-x,1/2+y,-z
-x,-y,-z
x,1/2-y,z
loop_
_atom_site_type_symbol
_atom_site_label
_atom_site_fract_x
_atom_site_fract_y
_atom_site_fract_z
Si Si1 0.980669 0.586546 0.733144
Si Si2 0.656077 0.583927 0.296193
Si Si3 0.107874 0.924807 0.382117
Si Si4 0.331250 0.574226 0.189096
Si Si5 0.321774 0.084912 0.589526
Si Si6 0.990989 0.585325 0.849290
Si Si7 0.249376 0.574417 0.437963
Si Si8 0.394972 0.571950 0.992962
O O1 0.940108 0.750000 0.724357
O O2 0.809928 0.473586 0.798875
O O3 0.031417 0.610008 0.772191
O O4 0.152289 0.507759 0.634184
O O5 0.662331 0.750000 0.268593
O O6 0.691298 0.595979 0.343113
O O7 0.453944 0.511768 0.367861
O O8 0.822544 0.487616 0.202121
O O9 0.073576 0.750000 0.391357
O O10 0.243319 0.979306 0.280139
O O11 0.209042 0.968976 0.394436
O O12 0.906824 0.001814 0.461003
O O13 0.369962 0.750000 0.171819
O O14 0.516631 0.485270 0.098133
O O15 0.319915 0.250000 0.565429
O O16 0.500000 0.000000 0.500000
O O17 0.955855 0.750000 0.889115
O O18 0.816926 0.476461 0.926242
O O19 0.242011 0.750000 0.451051
O O20 0.410756 0.750000 0.991585
O O21 0.500000 0.500000 0.000000
#
# Coordination Sequence:
#
# PCOD8072788 Si02
#       8
#     4   4   4   4   4   4   4   4
#     4  10  20  33  49  70 101 140 180 216 259 314
#     4   9  19  34  53  76 102 139 180 220 268 321
#     4   9  20  36  55  82 111 141 181 227 275 321
#     4  11  22  35  53  79 110 144 179 224 272 320
#     4  10  20  32  45  68 102 139 177 217 262 316
#     4  10  20  35  54  78 107 140 178 221 262 315
#     4   9  18  36  59  81 108 143 182 226 274 324
#     4  12  23  36  56  80 109 146 183 222 267 322
#
# _framework density 19.320342
#
# number of rings (size 3 to 8) (size 9 to 14) (size 15 to 20)
#    0.000    2.000    1.250    2.625    1.750    3.000 
#    0.000    0.000    0.000    0.750    0.000    0.000 
#    0.000    0.000    0.000    0.000    0.000    0.000 
#
# Total GULP energy -396620.293359 kJ/mol
# GULP energy per Si atom -12394.384167 kJ/mol
# Density = 1.927637 g / cm^3
# Si number density = 19.320342 Si / 1000 Ang^3
#
#
#
# Elastic Constant Matrix: (Units=GPa)
#
#
# Indices 1 2 3 4 5 6 
#
# 1 41.5250 23.5162 30.2253 0.0000 -11.4184 0.0000
# 2 23.5162 119.8429 67.7263 0.0000 -9.0113 0.0000
# 3 30.2253 67.7263 137.7632 0.0000 -19.0910 0.0000
# 4 0.0000 0.0000 0.0000 37.5804 0.0000 -5.9493
# 5 -11.4184 -9.0113 -19.0910 0.0000 30.1611 0.0000
# 6 0.0000 0.0000 0.0000 -5.9493 0.0000 19.3167
#
#
#
# Elastic Compliance Matrix: (Units=1/GPa)
#
#
# Indices 1 2 3 4 5 6 
#
# 1 0.031145 -0.003151 -0.004144 0.000000 0.008226 0.000000
# 2 -0.003151 0.011874 -0.005283 0.000000 -0.000989 0.000000
# 3 -0.004144 -0.005283 0.011322 0.000000 0.004019 0.000000
# 4 0.000000 0.000000 0.000000 0.027974 0.000000 0.008615
# 5 0.008226 -0.000989 0.004019 0.000000 0.038518 0.000000
# 6 0.000000 0.000000 0.000000 0.008615 0.000000 0.054422
#
#
# Mechanical properties :
#
#
# Convention : Reuss Voigt Hill
#
# Bulk Modulus (GPa) = 34.26469 60.22964 47.24716
# Shear Modulus (GPa) = 23.79376 29.25585 26.52481
#
# Velocity S-wave (km/s) = 3.51314 3.89556 3.70928
# Velocity P-wave (km/s) = 5.85062 7.17466 6.54620
#
# Compressibility (1/GPa) = 0.02918456
#
# Stress axis : x y z
#
# Youngs Moduli (GPa) = 32.10810 84.21929 88.32123
#
# Poissons Ratio (x) = 0.26536 0.36602
# Poissons Ratio (y) = 0.10117 0.46661
# Poissons Ratio (z) = 0.13306 0.44494
#
# Static dielectric constant tensor:
#      x y z
#    x 3.199380 0.000000 -0.116510 
#    y 0.000000 3.693570 0.000000 
#    z -0.116510 0.000000 3.591040 
# 
# 
# High freq. dielectric constant tensor:
#      x y z
#    x 1.710940 0.000000 -0.020600 
#    y 0.000000 1.760930 0.000000 
#    z -0.020600 0.000000 1.755880 
# 
# From -- ./inp_files/73298.got.cif
#   From: 2010.06.25/outbox.cif.g09.slc.cpg/sg11_37_cif.got.tgz:73298.got - 2010.06.27 23:14:04.
