data_PCOD8072402
_publ_section_title
;
Structure prediction by ZEFSAII (Michael W. Deem and Ramdas Pophale) SiO2 
 PCOD8072402
Probable space group: P 21/M
;
_chemical_formula_sum "Si O2"
_cell_formula_units_Z 20
_cell_length_a 7.400401
_cell_length_b 19.075296
_cell_length_c 7.371660
_cell_angle_alpha 90.000000
_cell_angle_beta 121.651628
_cell_angle_gamma 90.000000
_cell_volume 885.831711
_symmetry_space_group_name_H-M "P 21/M"
_symmetry_group_IT_number 11
_symmetry_cell_setting 'monoclinic'
loop_
_space_group_symop_operation_xyz
x,y,z
-x,1/2+y,-z
-x,-y,-z
x,1/2-y,z
loop_
_atom_site_type_symbol
_atom_site_label
_atom_site_fract_x
_atom_site_fract_y
_atom_site_fract_z
Si Si1 0.328318 0.028796 0.769699
Si Si2 0.022927 0.829827 0.076443
Si Si3 0.881111 0.432421 0.588472
Si Si4 0.872225 0.171556 0.270936
Si Si5 0.603834 0.673164 0.080107
O O1 0.379341 0.111191 0.760961
O O2 0.092459 0.020567 0.735741
O O3 0.317246 0.981972 0.578338
O O4 0.500000 0.000000 0.000000
O O5 0.108941 0.750000 0.145906
O O6 0.783015 0.837248 0.021033
O O7 0.175196 0.884595 0.266303
O O8 0.032109 0.851655 0.872022
O O9 0.957804 0.379484 0.469853
O O10 0.947978 0.250000 0.359340
O O11 0.618042 0.166943 0.139400
O O12 0.623513 0.750000 0.184798
#
# Coordination Sequence:
#
# PCOD8072402 Si02
#       5
#     4   4   4   4   4
#     4  10  19  36  59  85 120 152 196 244 289 353
#     4   9  19  36  58  88 120 152 199 245 285 347
#     4  10  20  35  61  84 117 163 190 240 303 340
#     4  10  19  35  61  88 117 155 199 242 287 347
#     4   9  18  35  59  80 113 155 186 241 297 332
#
# _framework density 22.577653000000002
#
# number of rings (size 3 to 8) (size 9 to 14) (size 15 to 20)
#    0.000    2.400    2.000    0.600    0.000    0.800 
#    0.000   14.000    0.000   16.800    0.000    0.000 
#    0.000    0.000    0.000    0.000    0.000    0.000 
#
# Total GULP energy -247781.658399 kJ/mol
# GULP energy per Si atom -12389.082920 kJ/mol
# Density = 2.252627 g / cm^3
# Si number density = 22.577653 Si / 1000 Ang^3
#
#
#
# Elastic Constant Matrix: (Units=GPa)
#
#
# Indices 1 2 3 4 5 6 
#
# 1 61.8233 22.7233 26.2044 0.0000 -4.9085 0.0000
# 2 22.7233 117.7630 37.0632 0.0000 -4.7974 0.0000
# 3 26.2044 37.0632 92.7872 0.0000 9.7828 0.0000
# 4 0.0000 0.0000 0.0000 36.8578 0.0000 0.9796
# 5 -4.9085 -4.7974 9.7828 0.0000 35.0494 0.0000
# 6 0.0000 0.0000 0.0000 0.9796 0.0000 11.7994
#
#
#
# Elastic Compliance Matrix: (Units=1/GPa)
#
#
# Indices 1 2 3 4 5 6 
#
# 1 0.019364 -0.001979 -0.005085 0.000000 0.003860 0.000000
# 2 -0.001979 0.010130 -0.003714 0.000000 0.002146 0.000000
# 3 -0.005085 -0.003714 0.014245 0.000000 -0.005196 0.000000
# 4 0.000000 0.000000 0.000000 0.027191 0.000000 -0.002257
# 5 0.003860 0.002146 -0.005196 0.000000 0.030816 0.000000
# 6 0.000000 0.000000 0.000000 -0.002257 0.000000 0.084937
#
#
# Mechanical properties :
#
#
# Convention : Reuss Voigt Hill
#
# Bulk Modulus (GPa) = 45.07898 49.37282 47.22590
# Shear Modulus (GPa) = 23.18750 29.16682 26.17716
#
# Velocity S-wave (km/s) = 3.20818 3.59812 3.40873
# Velocity P-wave (km/s) = 5.80799 6.25919 6.03781
#
# Compressibility (1/GPa) = 0.02218329
#
# Stress axis : x y z
#
# Youngs Moduli (GPa) = 51.64109 98.72016 70.20108
#
# Poissons Ratio (x) = 0.19534 0.35700
# Poissons Ratio (y) = 0.10218 0.26070
# Poissons Ratio (z) = 0.26262 0.36661
#
# Static dielectric constant tensor:
#      x y z
#    x 3.676410 0.000000 0.215780 
#    y 0.000000 4.821100 0.000000 
#    z 0.215780 0.000000 3.925150 
# 
# 
# High freq. dielectric constant tensor:
#      x y z
#    x 1.846350 0.000000 0.023510 
#    y 0.000000 1.919030 0.000000 
#    z 0.023510 0.000000 1.875840 
# 
# From -- ./inp_files/13625.got.cif
#   From: 2010.06.25/outbox.cif.g09.slc.cpg/sg11_7_cif.got.tgz:13625.got - 2010.06.27 23:14:04.
