data_PCOD8072436
_publ_section_title
;
Structure prediction by ZEFSAII (Michael W. Deem and Ramdas Pophale) SiO2 
 PCOD8072436
Probable space group: P 21/M
;
_chemical_formula_sum "Si O2"
_cell_formula_units_Z 24
_cell_length_a 9.263559
_cell_length_b 13.988308
_cell_length_c 17.906600
_cell_angle_alpha 90.000000
_cell_angle_beta 147.367187
_cell_angle_gamma 90.000000
_cell_volume 1251.263837
_symmetry_space_group_name_H-M "P 21/M"
_symmetry_group_IT_number 11
_symmetry_cell_setting 'monoclinic'
loop_
_space_group_symop_operation_xyz
x,y,z
-x,1/2+y,-z
-x,-y,-z
x,1/2-y,z
loop_
_atom_site_type_symbol
_atom_site_label
_atom_site_fract_x
_atom_site_fract_y
_atom_site_fract_z
Si Si1 0.536458 0.972768 0.930846
Si Si2 0.081597 0.859732 0.151909
Si Si3 0.522738 0.968055 0.425852
Si Si4 0.990915 0.139498 0.315173
Si Si5 0.245097 0.642148 0.056039
Si Si6 0.756534 0.643344 0.737310
O O1 0.300214 0.904947 0.799578
O O2 0.535536 0.070002 0.881837
O O3 0.813452 0.919436 0.040144
O O4 0.500000 0.000000 0.000000
O O5 0.008915 0.750000 0.134332
O O6 0.287978 0.893222 0.305181
O O7 0.219831 0.876469 0.132571
O O8 0.808496 0.916008 0.540657
O O9 0.500000 0.000000 0.500000
O O10 0.482525 0.065246 0.359330
O O11 0.983031 0.250000 0.335412
O O12 0.079020 0.127908 0.267557
O O13 0.343963 0.750000 0.082347
O O14 0.955914 0.625277 0.892586
O O15 0.632444 0.750000 0.686295
#
# Coordination Sequence:
#
# PCOD8072436 Si02
#       6
#     4   4   4   4   4   4
#     4  12  21  36  58  91 117 151 194 244 294 349
#     4  11  23  38  62  88 116 153 202 244 287 350
#     4  10  19  36  56  84 112 154 197 237 286 350
#     4  10  20  34  54  82 120 152 185 239 300 344
#     4  10  21  38  60  87 119 156 195 246 296 345
#     4   9  17  33  57  82 112 153 194 237 290 344
#
# _framework density 19.180606999999998
#
# number of rings (size 3 to 8) (size 9 to 14) (size 15 to 20)
#    0.000    1.667    3.333    2.500    0.000    1.333 
#    0.000    1.667    0.000    0.000    0.000    0.000 
#    0.000    0.000    0.000    0.000    0.000    0.000 
#
# Total GULP energy -297574.229273 kJ/mol
# GULP energy per Si atom -12398.926220 kJ/mol
# Density = 1.913695 g / cm^3
# Si number density = 19.180607 Si / 1000 Ang^3
#
#
#
# Elastic Constant Matrix: (Units=GPa)
#
#
# Indices 1 2 3 4 5 6 
#
# 1 50.7583 50.6695 25.9571 0.0000 2.9775 0.0000
# 2 50.6695 150.6375 50.3385 0.0000 4.2886 0.0000
# 3 25.9571 50.3385 105.0633 0.0000 6.6977 0.0000
# 4 0.0000 0.0000 0.0000 41.0025 0.0000 4.3530
# 5 2.9775 4.2886 6.6977 0.0000 23.7334 0.0000
# 6 0.0000 0.0000 0.0000 4.3530 0.0000 30.5765
#
#
#
# Elastic Compliance Matrix: (Units=1/GPa)
#
#
# Indices 1 2 3 4 5 6 
#
# 1 0.030535 -0.009216 -0.003045 0.000000 -0.001306 0.000000
# 2 -0.009216 0.010689 -0.002846 0.000000 0.000028 0.000000
# 3 -0.003045 -0.002846 0.011789 0.000000 -0.002431 0.000000
# 4 0.000000 0.000000 0.000000 0.024763 0.000000 -0.003525
# 5 -0.001306 0.000028 -0.002431 0.000000 0.042979 0.000000
# 6 0.000000 0.000000 0.000000 -0.003525 0.000000 0.033207
#
#
# Mechanical properties :
#
#
# Convention : Reuss Voigt Hill
#
# Bulk Modulus (GPa) = 43.86325 62.26550 53.06438
# Shear Modulus (GPa) = 26.07205 31.02876 28.55041
#
# Velocity S-wave (km/s) = 3.69086 4.02645 3.86230
# Velocity P-wave (km/s) = 6.40948 7.35864 6.90040
#
# Compressibility (1/GPa) = 0.02279813
#
# Stress axis : x y z
#
# Youngs Moduli (GPa) = 32.74913 93.55602 84.82519
#
# Poissons Ratio (x) = 0.86224 0.25830
# Poissons Ratio (y) = 0.30183 0.24142
# Poissons Ratio (z) = 0.09972 0.26627
#
# Static dielectric constant tensor:
#      x y z
#    x 3.117000 0.000000 -0.189970 
#    y 0.000000 3.050250 0.000000 
#    z -0.189970 0.000000 3.735560 
# 
# 
# High freq. dielectric constant tensor:
#      x y z
#    x 1.708180 0.000000 -0.016390 
#    y 0.000000 1.775360 0.000000 
#    z -0.016390 0.000000 1.743230 
# 
# From -- ./inp_files/21988.got.cif
#   From: 2010.06.25/outbox.cif.g09.slc.cpg/sg11_11_cif.got.tgz:21988.got - 2010.06.27 23:14:04.
