data_PCOD8072366
_publ_section_title
;
Structure prediction by ZEFSAII (Michael W. Deem and Ramdas Pophale) SiO2 
 PCOD8072366
Probable space group: P 21/M
;
_chemical_formula_sum "Si O2"
_cell_formula_units_Z 24
_cell_length_a 12.143718
_cell_length_b 9.186023
_cell_length_c 24.415608
_cell_angle_alpha 90.000000
_cell_angle_beta 25.829517
_cell_angle_gamma 90.000000
_cell_volume 1186.667860
_symmetry_space_group_name_H-M "P 21/M"
_symmetry_group_IT_number 11
_symmetry_cell_setting 'monoclinic'
loop_
_space_group_symop_operation_xyz
x,y,z
-x,1/2+y,-z
-x,-y,-z
x,1/2-y,z
loop_
_atom_site_type_symbol
_atom_site_label
_atom_site_fract_x
_atom_site_fract_y
_atom_site_fract_z
Si Si1 0.259836 0.085114 0.125315
Si Si2 0.180938 0.078299 0.875312
Si Si3 0.412554 0.911173 0.487388
Si Si4 0.088151 0.411170 0.795492
Si Si5 0.115970 0.082784 0.312595
Si Si6 0.239978 0.922995 0.362498
O O1 0.281579 0.250000 0.096626
O O2 0.253314 0.069563 0.193230
O O3 0.020863 0.019746 0.200774
O O4 0.500000 0.000000 0.000000
O O5 0.162992 0.250000 0.894084
O O6 0.060436 0.035497 0.870375
O O7 0.478943 0.032134 0.741876
O O8 0.000000 0.000000 0.000000
O O9 0.340104 0.750000 0.541774
O O10 0.615342 0.902427 0.348771
O O11 0.166928 0.978667 0.568812
O O12 0.500000 0.000000 0.500000
O O13 0.965381 0.250000 0.843598
O O14 0.119289 0.250000 0.332584
O O15 0.248761 0.976159 0.295856
O O16 0.199351 0.750000 0.384794
O O17 0.000000 0.000000 0.500000
#
# Coordination Sequence:
#
# PCOD8072366 Si02
#       6
#     4   4   4   4   4   4
#     4  11  24  40  60  88 124 162 204 251 304 366
#     4  10  24  44  65  92 125 164 211 263 315 370
#     4  10  19  35  59  88 122 155 194 245 300 363
#     4  10  21  39  63  88 121 159 198 250 310 366
#     4  10  22  40  62  90 126 163 201 252 307 364
#     4  11  24  43  67  95 128 167 213 262 312 375
#
# _framework density 20.224699000000001
#
# number of rings (size 3 to 8) (size 9 to 14) (size 15 to 20)
#    0.000    1.667    1.667    2.000    2.333    6.667 
#    0.000    1.667    0.000    0.000    0.000    0.000 
#    0.000    0.000    0.000    0.000    0.000    0.000 
#
# Total GULP energy -297488.235262 kJ/mol
# GULP energy per Si atom -12395.343136 kJ/mol
# Density = 2.017867 g / cm^3
# Si number density = 20.224699 Si / 1000 Ang^3
#
#
#
# Elastic Constant Matrix: (Units=GPa)
#
#
# Indices 1 2 3 4 5 6 
#
# 1 94.5157 44.9211 18.0144 0.0000 7.8792 0.0000
# 2 44.9211 90.3431 36.8801 0.0000 2.9448 0.0000
# 3 18.0144 36.8801 98.8022 0.0000 -0.3601 0.0000
# 4 0.0000 0.0000 0.0000 34.9424 0.0000 2.3871
# 5 7.8792 2.9448 -0.3601 0.0000 34.2087 0.0000
# 6 0.0000 0.0000 0.0000 2.3871 0.0000 35.6971
#
#
#
# Elastic Compliance Matrix: (Units=1/GPa)
#
#
# Indices 1 2 3 4 5 6 
#
# 1 0.014090 -0.006922 0.000005 0.000000 -0.002649 0.000000
# 2 -0.006922 0.016506 -0.004899 0.000000 0.000122 0.000000
# 3 0.000005 -0.004899 0.011951 0.000000 0.000546 0.000000
# 4 0.000000 0.000000 0.000000 0.028750 0.000000 -0.001923
# 5 -0.002649 0.000122 0.000546 0.000000 0.029838 0.000000
# 6 0.000000 0.000000 0.000000 -0.001923 0.000000 0.028142
#
#
# Mechanical properties :
#
#
# Convention : Reuss Voigt Hill
#
# Bulk Modulus (GPa) = 52.86477 53.69913 53.28195
# Shear Modulus (GPa) = 31.40444 33.22600 32.31522
#
# Velocity S-wave (km/s) = 3.94480 4.05760 4.00160
# Velocity P-wave (km/s) = 6.85158 6.96857 6.91032
#
# Compressibility (1/GPa) = 0.01891619
#
# Stress axis : x y z
#
# Youngs Moduli (GPa) = 70.97332 60.58272 83.67533
#
# Poissons Ratio (x) = 0.41932 -0.00042
# Poissons Ratio (y) = 0.49124 0.40992
# Poissons Ratio (z) = -0.00035 0.29679
#
# Static dielectric constant tensor:
#      x y z
#    x 4.562900 0.000000 -0.232890 
#    y 0.000000 3.631660 0.000000 
#    z -0.232890 0.000000 3.796000 
# 
# 
# High freq. dielectric constant tensor:
#      x y z
#    x 1.796380 0.000000 0.000410 
#    y 0.000000 1.783480 0.000000 
#    z 0.000410 0.000000 1.802830 
# 
# From -- ./inp_files/68367.got.cif
#   From: 2010.06.25/outbox.cif.g09.slc.cpg/sg11_35_cif.got.tgz:68367.got - 2010.06.27 23:14:04.
