data_PCOD8072961
_publ_section_title
;
Structure prediction by ZEFSAII (Michael W. Deem and Ramdas Pophale) SiO2 
 PCOD8072961
Probable space group: P 21/M
;
_chemical_formula_sum "Si O2"
_cell_formula_units_Z 32
_cell_length_a 23.140024
_cell_length_b 9.128012
_cell_length_c 16.386785
_cell_angle_alpha 90.000000
_cell_angle_beta 31.228027
_cell_angle_gamma 90.000000
_cell_volume 1794.472285
_symmetry_space_group_name_H-M "P 21/M"
_symmetry_group_IT_number 11
_symmetry_cell_setting 'monoclinic'
loop_
_space_group_symop_operation_xyz
x,y,z
-x,1/2+y,-z
-x,-y,-z
x,1/2-y,z
loop_
_atom_site_type_symbol
_atom_site_label
_atom_site_fract_x
_atom_site_fract_y
_atom_site_fract_z
Si Si1 0.856495 0.582768 0.838788
Si Si2 0.667580 0.420980 0.161071
Si Si3 0.755534 0.419967 0.465608
Si Si4 0.885871 0.581454 0.623472
Si Si5 0.430959 0.082654 0.391263
Si Si6 0.116259 0.577592 0.529728
Si Si7 0.116660 0.922205 0.853624
Si Si8 0.309639 0.422612 0.703076
O O1 0.839172 0.750000 0.889226
O O2 0.818119 0.567485 0.790230
O O3 0.985509 0.536979 0.696031
O O4 0.780982 0.476048 0.983257
O O5 0.679216 0.250000 0.168627
O O6 0.563323 0.447306 0.225730
O O7 0.638818 0.510880 0.277198
O O8 0.732803 0.250000 0.502411
O O9 0.634400 0.492454 0.599097
O O10 0.817297 0.480043 0.471504
O O11 0.834417 0.456019 0.294413
O O12 0.908765 0.750000 0.574503
O O13 0.827676 0.503727 0.616084
O O14 0.000000 0.500000 0.500000
O O15 0.401431 0.250000 0.409709
O O16 0.391832 0.039158 0.529526
O O17 0.129849 0.750000 0.500230
O O18 0.105954 0.750000 0.883685
O O19 0.192270 0.996438 0.831278
O O20 0.000000 0.000000 0.000000
O O21 0.289999 0.250000 0.736813
#
# Coordination Sequence:
#
# PCOD8072961 Si02
#       8
#     4   4   4   4   4   4   4   4
#     4   9  19  33  50  75 107 137 164 199 254 309
#     4  11  22  34  51  77 104 130 170 219 259 301
#     4   9  19  34  53  75 100 133 171 209 249 301
#     4   9  17  31  51  75 103 135 166 202 247 301
#     4   9  20  37  53  72 100 133 172 218 259 297
#     4   9  18  33  53  78 106 134 165 205 249 303
#     4  10  20  33  49  72 103 138 171 208 253 300
#     4  10  20  35  53  71  96 135 175 213 259 304
#
# _framework density 17.832540000000002
#
# number of rings (size 3 to 8) (size 9 to 14) (size 15 to 20)
#    0.000    2.500    0.000    2.625    1.750    5.000 
#    0.000    0.000    0.000    0.750    0.000    0.000 
#    0.000    0.000    0.000    0.000    0.000    0.000 
#
# Total GULP energy -396728.462023 kJ/mol
# GULP energy per Si atom -12397.764438 kJ/mol
# Density = 1.779195 g / cm^3
# Si number density = 17.832540 Si / 1000 Ang^3
#
#
#
# Elastic Constant Matrix: (Units=GPa)
#
#
# Indices 1 2 3 4 5 6 
#
# 1 125.7122 46.6287 29.7604 0.0000 -2.6498 0.0000
# 2 46.6287 76.3009 21.9353 0.0000 -0.6602 0.0000
# 3 29.7604 21.9353 37.9203 0.0000 -6.5568 0.0000
# 4 0.0000 0.0000 0.0000 26.5026 0.0000 0.2872
# 5 -2.6498 -0.6602 -6.5568 0.0000 21.9398 0.0000
# 6 0.0000 0.0000 0.0000 0.2872 0.0000 34.6777
#
#
#
# Elastic Compliance Matrix: (Units=1/GPa)
#
#
# Indices 1 2 3 4 5 6 
#
# 1 0.011274 -0.005185 -0.005948 0.000000 -0.000572 0.000000
# 2 -0.005185 0.018222 -0.006839 0.000000 -0.002122 0.000000
# 3 -0.005948 -0.006839 0.036733 0.000000 0.010054 0.000000
# 4 0.000000 0.000000 0.000000 0.037736 0.000000 -0.000313
# 5 -0.000572 -0.002122 0.010054 0.000000 0.048451 0.000000
# 6 0.000000 0.000000 0.000000 -0.000313 0.000000 0.028840
#
#
# Mechanical properties :
#
#
# Convention : Reuss Voigt Hill
#
# Bulk Modulus (GPa) = 33.01715 48.50913 40.76314
# Shear Modulus (GPa) = 21.99812 26.06460 24.03136
#
# Velocity S-wave (km/s) = 3.51607 3.82728 3.67497
# Velocity P-wave (km/s) = 5.91937 6.84050 6.39653
#
# Compressibility (1/GPa) = 0.03028729
#
# Stress axis : x y z
#
# Youngs Moduli (GPa) = 88.70215 54.87852 27.22344
#
# Poissons Ratio (x) = 0.28453 0.16191
# Poissons Ratio (y) = 0.45989 0.18617
# Poissons Ratio (z) = 0.52756 0.37529
#
# Static dielectric constant tensor:
#      x y z
#    x 3.593650 0.000000 -0.069810 
#    y 0.000000 3.379330 0.000000 
#    z -0.069810 0.000000 3.099960 
# 
# 
# High freq. dielectric constant tensor:
#      x y z
#    x 1.691020 0.000000 -0.000440 
#    y 0.000000 1.697500 0.000000 
#    z -0.000440 0.000000 1.661510 
# 
# From -- ./inp_files/61731.got.cif
#   From: 2010.06.25/outbox.cif.g09.slc.cpg/sg11_31_cif.got.tgz:61731.got - 2010.06.27 23:14:04.
