data_PCOD8072112
_publ_section_title
;
Structure prediction by ZEFSAII (Michael W. Deem and Ramdas Pophale) SiO2 
 PCOD8072112
Probable space group: P 21/M
;
_chemical_formula_sum "Si O2"
_cell_formula_units_Z 32
_cell_length_a 23.541706
_cell_length_b 8.917036
_cell_length_c 25.026134
_cell_angle_alpha 90.000000
_cell_angle_beta 17.550396
_cell_angle_gamma 90.000000
_cell_volume 1584.176989
_symmetry_space_group_name_H-M "P 21/M"
_symmetry_group_IT_number 11
_symmetry_cell_setting 'monoclinic'
loop_
_space_group_symop_operation_xyz
x,y,z
-x,1/2+y,-z
-x,-y,-z
x,1/2-y,z
loop_
_atom_site_type_symbol
_atom_site_label
_atom_site_fract_x
_atom_site_fract_y
_atom_site_fract_z
Si Si1 0.637691 0.574264 0.802886
Si Si2 0.668148 0.424071 0.280252
Si Si3 0.245782 0.076278 0.693219
Si Si4 0.229153 0.574247 0.211207
Si Si5 0.026136 0.573457 0.157693
Si Si6 0.647537 0.572892 0.189083
Si Si7 0.852240 0.423994 0.516378
Si Si8 0.766847 0.422480 0.471236
O O1 0.681390 0.750000 0.763000
O O2 0.757645 0.501020 0.742717
O O3 0.702255 0.500776 0.689937
O O4 0.416313 0.541217 0.008971
O O5 0.710540 0.250000 0.233983
O O6 0.792505 0.484249 0.218153
O O7 0.451148 0.459656 0.486273
O O8 0.725977 0.508271 0.174421
O O9 0.222383 0.250000 0.728146
O O10 0.100526 0.022177 0.778829
O O11 0.195937 0.750000 0.249098
O O12 0.054974 0.502691 0.336383
O O13 0.053782 0.750000 0.135234
O O14 0.930997 0.520859 0.297845
O O15 0.228068 0.494544 0.970559
O O16 0.666196 0.750000 0.172107
O O17 0.433594 0.520972 0.371207
O O18 0.874785 0.250000 0.511141
O O19 0.768625 0.446378 0.532770
O O20 0.801194 0.250000 0.424995
#
# Coordination Sequence:
#
# PCOD8072112 Si02
#       8
#     4   4   4   4   4   4   4   4
#     4  10  21  38  61  90 124 160 197 239 289 345
#     4  10  19  34  58  87 116 149 190 237 291 349
#     4   9  19  35  56  85 117 149 186 234 294 354
#     4  10  21  38  61  91 125 159 197 241 291 344
#     4  11  23  40  63  88 116 150 193 244 297 351
#     4  11  23  40  62  86 116 154 196 241 293 353
#     4  11  23  39  61  87 118 158 200 244 292 345
#     4  10  24  44  62  83 115 156 201 245 291 345
#
# _framework density 20.199763000000001
#
# number of rings (size 3 to 8) (size 9 to 14) (size 15 to 20)
#    0.000    1.750    1.250    2.625    0.000    6.000 
#    0.000    3.750    0.000    0.000    0.000    0.000 
#    0.000    0.000    0.000    0.000    0.000    0.000 
#
# Total GULP energy -396989.080030 kJ/mol
# GULP energy per Si atom -12405.908751 kJ/mol
# Density = 2.015379 g / cm^3
# Si number density = 20.199763 Si / 1000 Ang^3
#
#
#
# Elastic Constant Matrix: (Units=GPa)
#
#
# Indices 1 2 3 4 5 6 
#
# 1 78.3010 41.9522 30.9940 0.0000 13.9348 0.0000
# 2 41.9522 105.2780 47.0351 0.0000 11.7325 0.0000
# 3 30.9940 47.0351 95.9983 0.0000 22.3717 0.0000
# 4 0.0000 0.0000 0.0000 36.7175 0.0000 4.3053
# 5 13.9348 11.7325 22.3717 0.0000 21.8219 0.0000
# 6 0.0000 0.0000 0.0000 4.3053 0.0000 33.1679
#
#
#
# Elastic Compliance Matrix: (Units=1/GPa)
#
#
# Indices 1 2 3 4 5 6 
#
# 1 0.017523 -0.005640 -0.001305 0.000000 -0.006820 0.000000
# 2 -0.005640 0.013981 -0.005409 0.000000 0.001630 0.000000
# 3 -0.001305 -0.005409 0.016577 0.000000 -0.013253 0.000000
# 4 0.000000 0.000000 0.000000 0.027656 0.000000 -0.003590
# 5 -0.006820 0.001630 -0.013253 0.000000 0.062891 0.000000
# 6 0.000000 0.000000 0.000000 -0.003590 0.000000 0.030616
#
#
# Mechanical properties :
#
#
# Convention : Reuss Voigt Hill
#
# Bulk Modulus (GPa) = 42.78368 57.72667 50.25517
# Shear Modulus (GPa) = 24.78406 28.98119 26.88262
#
# Velocity S-wave (km/s) = 3.50658 3.79189 3.65202
# Velocity P-wave (km/s) = 6.13360 6.91456 6.53576
#
# Compressibility (1/GPa) = 0.02337340
#
# Stress axis : x y z
#
# Youngs Moduli (GPa) = 57.06752 71.52549 60.32466
#
# Poissons Ratio (x) = 0.40339 0.07872
# Poissons Ratio (y) = 0.32185 0.32630
# Poissons Ratio (z) = 0.07447 0.38689
#
# Static dielectric constant tensor:
#      x y z
#    x 3.590270 0.000000 -0.016680 
#    y 0.000000 3.682310 0.000000 
#    z -0.016680 0.000000 3.715700 
# 
# 
# High freq. dielectric constant tensor:
#      x y z
#    x 1.781850 0.000000 0.003810 
#    y 0.000000 1.796850 0.000000 
#    z 0.003810 0.000000 1.797380 
# 
# From -- ./inp_files/69972.got.cif
#   From: 2010.06.25/outbox.cif.g09.slc.cpg/sg11_35_cif.got.tgz:69972.got - 2010.06.27 23:14:04.
