data_PCOD8072980
_publ_section_title
;
Structure prediction by ZEFSAII (Michael W. Deem and Ramdas Pophale) SiO2 
 PCOD8072980
Probable space group: P 21/M
;
_chemical_formula_sum "Si O2"
_cell_formula_units_Z 28
_cell_length_a 18.713208
_cell_length_b 9.497045
_cell_length_c 23.667376
_cell_angle_alpha 90.000000
_cell_angle_beta 21.765588
_cell_angle_gamma 90.000000
_cell_volume 1559.690498
_symmetry_space_group_name_H-M "P 21/M"
_symmetry_group_IT_number 11
_symmetry_cell_setting 'monoclinic'
loop_
_space_group_symop_operation_xyz
x,y,z
-x,1/2+y,-z
-x,-y,-z
x,1/2-y,z
loop_
_atom_site_type_symbol
_atom_site_label
_atom_site_fract_x
_atom_site_fract_y
_atom_site_fract_z
Si Si1 0.078865 0.093427 0.356167
Si Si2 0.374976 0.408558 0.049460
Si Si3 0.628384 0.412520 0.361624
Si Si4 0.402843 0.915768 0.746474
Si Si5 0.044857 0.416464 0.023579
Si Si6 0.718563 0.593961 0.600140
Si Si7 0.435369 0.408006 0.168444
O O1 0.017394 0.250000 0.419280
O O2 0.160117 0.092630 0.232258
O O3 0.234300 0.036927 0.287918
O O4 0.890411 0.001983 0.493750
O O5 0.455123 0.250000 0.984624
O O6 0.500000 0.500000 0.000000
O O7 0.390039 0.488315 0.978210
O O8 0.500000 0.500000 0.500000
O O9 0.576087 0.250000 0.410061
O O10 0.579472 0.455654 0.332722
O O11 0.859720 0.437220 0.201260
O O12 0.352276 0.750000 0.790740
O O13 0.607100 0.954092 0.625493
O O14 0.243232 0.009324 0.897865
O O15 0.076238 0.250000 0.989168
O O16 0.000000 0.500000 0.000000
O O17 0.802524 0.750000 0.529479
O O18 0.565759 0.591780 0.763413
O O19 0.472406 0.250000 0.117561
#
# Coordination Sequence:
#
# PCOD8072980 Si02
#       7
#     4   4   4   4   4   4   4
#     4   9  18  31  47  70  98 126 164 209 250 293
#     4   9  17  30  48  69  92 120 157 204 251 296
#     4   9  18  32  52  77 101 124 157 196 234 282
#     4   9  19  35  51  72 101 131 165 203 242 290
#     4   9  17  31  52  76  99 126 159 194 233 285
#     4  10  20  33  50  71  98 131 166 205 248 293
#     4   9  18  32  49  71  96 126 168 211 249 297
#
# _framework density 17.952278
#
# number of rings (size 3 to 8) (size 9 to 14) (size 15 to 20)
#    0.000    2.857    0.000    3.000    0.000    6.857 
#    0.000    1.429    0.000    8.571    0.000    0.000 
#    0.000    0.000    0.000    0.000    0.000    0.000 
#
# Total GULP energy -346866.124417 kJ/mol
# GULP energy per Si atom -12388.075872 kJ/mol
# Density = 1.791142 g / cm^3
# Si number density = 17.952278 Si / 1000 Ang^3
#
#
#
# Elastic Constant Matrix: (Units=GPa)
#
#
# Indices 1 2 3 4 5 6 
#
# 1 63.7113 21.9277 24.4104 0.0000 4.8518 0.0000
# 2 21.9277 87.9670 40.1978 0.0000 9.4952 0.0000
# 3 24.4104 40.1978 64.4606 0.0000 14.6278 0.0000
# 4 0.0000 0.0000 0.0000 37.4858 0.0000 5.2194
# 5 4.8518 9.4952 14.6278 0.0000 17.5222 0.0000
# 6 0.0000 0.0000 0.0000 5.2194 0.0000 19.0453
#
#
#
# Elastic Compliance Matrix: (Units=1/GPa)
#
#
# Indices 1 2 3 4 5 6 
#
# 1 0.018617 -0.001990 -0.006025 0.000000 0.000954 0.000000
# 2 -0.001990 0.016114 -0.009177 0.000000 -0.000520 0.000000
# 3 -0.006025 -0.009177 0.027155 0.000000 -0.016028 0.000000
# 4 0.000000 0.000000 0.000000 0.027735 0.000000 -0.007601
# 5 0.000954 -0.000520 -0.016028 0.000000 0.070469 0.000000
# 6 0.000000 0.000000 0.000000 -0.007601 0.000000 0.054589
#
#
# Mechanical properties :
#
#
# Convention : Reuss Voigt Hill
#
# Bulk Modulus (GPa) = 36.36269 43.24563 39.80416
# Shear Modulus (GPa) = 19.36260 23.45086 21.40673
#
# Velocity S-wave (km/s) = 3.28771 3.61818 3.45690
# Velocity P-wave (km/s) = 5.89162 6.44954 6.17688
#
# Compressibility (1/GPa) = 0.02750071
#
# Stress axis : x y z
#
# Youngs Moduli (GPa) = 53.71539 62.05928 36.82578
#
# Poissons Ratio (x) = 0.12351 0.22188
# Poissons Ratio (y) = 0.10691 0.33794
# Poissons Ratio (z) = 0.32364 0.56951
#
# Static dielectric constant tensor:
#      x y z
#    x 3.349280 0.000000 0.170340 
#    y 0.000000 3.603980 0.000000 
#    z 0.170340 0.000000 3.617760 
# 
# 
# High freq. dielectric constant tensor:
#      x y z
#    x 1.665370 0.000000 0.010640 
#    y 0.000000 1.702470 0.000000 
#    z 0.010640 0.000000 1.683880 
# 
# From -- ./inp_files/71930.got.cif
#   From: 2010.06.25/outbox.cif.g09.slc.cpg/sg11_36_cif.got.tgz:71930.got - 2010.06.27 23:14:04.
