data_PCOD8072706
_publ_section_title
;
Structure prediction by ZEFSAII (Michael W. Deem and Ramdas Pophale) SiO2 
 PCOD8072706
Probable space group: P 21/M
;
_chemical_formula_sum "Si O2"
_cell_formula_units_Z 32
_cell_length_a 29.851648
_cell_length_b 9.112891
_cell_length_c 12.844506
_cell_angle_alpha 90.000000
_cell_angle_beta 152.078793
_cell_angle_gamma 90.000000
_cell_volume 1636.161133
_symmetry_space_group_name_H-M "P 21/M"
_symmetry_group_IT_number 11
_symmetry_cell_setting 'monoclinic'
loop_
_space_group_symop_operation_xyz
x,y,z
-x,1/2+y,-z
-x,-y,-z
x,1/2-y,z
loop_
_atom_site_type_symbol
_atom_site_label
_atom_site_fract_x
_atom_site_fract_y
_atom_site_fract_z
Si Si1 0.117418 0.924358 0.446073
Si Si2 0.771225 0.580613 0.910447
Si Si3 0.098830 0.076178 0.010349
Si Si4 0.775174 0.919124 0.153879
Si Si5 0.559445 0.917360 0.708517
Si Si6 0.603471 0.081765 0.473438
Si Si7 0.792965 0.918596 0.562568
Si Si8 0.411286 0.418198 0.768684
O O1 0.122037 0.750000 0.455695
O O2 0.009243 0.983177 0.210795
O O3 0.156691 0.982462 0.635903
O O4 0.180216 0.984250 0.480725
O O5 0.745212 0.750000 0.833645
O O6 0.675441 0.483803 0.706961
O O7 0.848517 0.519894 0.986141
O O8 0.811806 0.563521 0.110434
O O9 0.100150 0.250000 0.013118
O O10 0.153461 0.018035 0.225133
O O11 0.781007 0.750000 0.202631
O O12 0.666496 0.979298 0.941970
O O13 0.566859 0.750000 0.685774
O O14 0.504729 0.930861 0.706293
O O15 0.500000 0.000000 0.500000
O O16 0.629704 0.250000 0.503752
O O17 0.617027 0.987598 0.398548
O O18 0.822860 0.750000 0.604253
O O19 0.679154 0.931899 0.341160
O O20 0.439780 0.250000 0.809481
O O21 0.500000 0.500000 0.000000
#
# Coordination Sequence:
#
# PCOD8072706 Si02
#       8
#     4   4   4   4   4   4   4   4
#     4  11  24  39  59  88 122 154 194 251 303 349
#     4  10  19  38  65  87 114 159 205 243 292 354
#     4   9  19  39  64  89 114 149 197 250 303 352
#     4  10  22  39  59  85 120 161 201 238 290 361
#     4  10  21  36  57  84 115 153 194 235 280 338
#     4  11  22  36  57  89 123 153 193 245 293 349
#     4  10  21  41  66  86 115 157 198 240 293 358
#     4  11  24  41  62  88 120 158 195 239 294 352
#
# _framework density 19.557974999999999
#
# number of rings (size 3 to 8) (size 9 to 14) (size 15 to 20)
#    0.000    1.750    2.500    1.500    1.750    3.000 
#    0.000    1.875    0.000    0.000    0.000    0.000 
#    0.000    0.000    0.000    0.000    0.000    0.000 
#
# Total GULP energy -396900.623607 kJ/mol
# GULP energy per Si atom -12403.144488 kJ/mol
# Density = 1.951346 g / cm^3
# Si number density = 19.557975 Si / 1000 Ang^3
#
#
#
# Elastic Constant Matrix: (Units=GPa)
#
#
# Indices 1 2 3 4 5 6 
#
# 1 96.8472 37.5967 33.4276 0.0000 -8.4112 0.0000
# 2 37.5967 86.1007 45.2514 0.0000 -3.1352 0.0000
# 3 33.4276 45.2514 116.9901 0.0000 -3.4690 0.0000
# 4 0.0000 0.0000 0.0000 33.1076 0.0000 -2.7035
# 5 -8.4112 -3.1352 -3.4690 0.0000 29.0798 0.0000
# 6 0.0000 0.0000 0.0000 -2.7035 0.0000 24.5563
#
#
#
# Elastic Compliance Matrix: (Units=1/GPa)
#
#
# Indices 1 2 3 4 5 6 
#
# 1 0.013014 -0.004600 -0.001849 0.000000 0.003048 0.000000
# 2 -0.004600 0.016227 -0.004967 0.000000 -0.000174 0.000000
# 3 -0.001849 -0.004967 0.011005 0.000000 0.000242 0.000000
# 4 0.000000 0.000000 0.000000 0.030479 0.000000 0.003355
# 5 0.003048 -0.000174 0.000242 0.000000 0.035280 0.000000
# 6 0.000000 0.000000 0.000000 0.003355 0.000000 0.041092
#
#
# Mechanical properties :
#
#
# Convention : Reuss Voigt Hill
#
# Bulk Modulus (GPa) = 57.42733 59.16549 58.29641
# Shear Modulus (GPa) = 28.45209 29.59290 29.02249
#
# Velocity S-wave (km/s) = 3.81826 3.89406 3.85635
# Velocity P-wave (km/s) = 6.99037 7.10882 7.04984
#
# Compressibility (1/GPa) = 0.01741331
#
# Stress axis : x y z
#
# Youngs Moduli (GPa) = 76.83925 61.62429 90.87112
#
# Poissons Ratio (x) = 0.28348 0.16801
# Poissons Ratio (y) = 0.35347 0.45140
# Poissons Ratio (z) = 0.14207 0.30612
#
# Static dielectric constant tensor:
#      x y z
#    x 3.727700 0.000000 0.060840 
#    y 0.000000 3.443190 0.000000 
#    z 0.060840 0.000000 3.682320 
# 
# 
# High freq. dielectric constant tensor:
#      x y z
#    x 1.773840 0.000000 0.000620 
#    y 0.000000 1.748120 0.000000 
#    z 0.000620 0.000000 1.761230 
# 
# From -- ./inp_files/45257.got.cif
#   From: 2010.06.25/outbox.cif.g09.slc.cpg/sg11_23_cif.got.tgz:45257.got - 2010.06.27 23:14:04.
