data_PCOD8072219
_publ_section_title
;
Structure prediction by ZEFSAII (Michael W. Deem and Ramdas Pophale) SiO2 
 PCOD8072219
Probable space group: P 21/M
;
_chemical_formula_sum "Si O2"
_cell_formula_units_Z 28
_cell_length_a 15.608883
_cell_length_b 8.862822
_cell_length_c 11.923831
_cell_angle_alpha 90.000000
_cell_angle_beta 60.865057
_cell_angle_gamma 90.000000
_cell_volume 1440.822136
_symmetry_space_group_name_H-M "P 21/M"
_symmetry_group_IT_number 11
_symmetry_cell_setting 'monoclinic'
loop_
_space_group_symop_operation_xyz
x,y,z
-x,1/2+y,-z
-x,-y,-z
x,1/2-y,z
loop_
_atom_site_type_symbol
_atom_site_label
_atom_site_fract_x
_atom_site_fract_y
_atom_site_fract_z
Si Si1 0.509930 0.571987 0.322272
Si Si2 0.031639 0.569295 0.098194
Si Si3 0.895608 0.572898 0.577756
Si Si4 0.853661 0.572440 0.360244
Si Si5 0.644921 0.928293 0.436717
Si Si6 0.199994 0.429384 0.130846
Si Si7 0.424515 0.428472 0.962149
O O1 0.498258 0.750000 0.333079
O O2 0.406662 0.498306 0.420943
O O3 0.592648 0.516454 0.356939
O O4 0.542439 0.514164 0.180631
O O5 0.035555 0.750000 0.086627
O O6 0.137165 0.507356 0.071775
O O7 0.951699 0.507910 0.239672
O O8 0.000000 0.500000 0.000000
O O9 0.909584 0.750000 0.578617
O O10 0.840016 0.526214 0.499044
O O11 0.837901 0.513459 0.723567
O O12 0.000000 0.500000 0.500000
O O13 0.861259 0.750000 0.343774
O O14 0.756706 0.512734 0.358735
O O15 0.641162 0.750000 0.453455
O O16 0.191244 0.250000 0.121432
O O17 0.312831 0.482853 0.052017
O O18 0.430846 0.250000 0.969730
O O19 0.500000 0.500000 0.000000
#
# Coordination Sequence:
#
# PCOD8072219 Si02
#       7
#     4   4   4   4   4   4   4
#     4   9  19  36  55  80 111 142 180 231 287 333
#     4  11  23  39  60  86 119 154 193 235 283 344
#     4  10  19  35  56  82 112 142 184 229 275 330
#     4   9  19  34  57  84 109 145 185 225 277 337
#     4   9  18  34  59  82 105 142 185 227 275 335
#     4  10  22  39  61  85 114 153 194 238 286 341
#     4  10  23  40  59  83 114 152 194 238 287 342
#
# _framework density 19.433349
#
# number of rings (size 3 to 8) (size 9 to 14) (size 15 to 20)
#    0.000    2.286    1.429    0.429    4.000    1.143 
#    0.000    2.143    0.000    0.000    0.000    0.000 
#    0.000    0.000    0.000    0.000    0.000    0.000 
#
# Total GULP energy -347130.834565 kJ/mol
# GULP energy per Si atom -12397.529806 kJ/mol
# Density = 1.938912 g / cm^3
# Si number density = 19.433349 Si / 1000 Ang^3
#
#
#
# Elastic Constant Matrix: (Units=GPa)
#
#
# Indices 1 2 3 4 5 6 
#
# 1 157.3201 31.3398 77.5882 0.0000 -7.5936 0.0000
# 2 31.3398 27.5555 30.1167 0.0000 3.1813 0.0000
# 3 77.5882 30.1167 147.0261 0.0000 3.9334 0.0000
# 4 0.0000 0.0000 0.0000 27.8165 0.0000 0.2406
# 5 -7.5936 3.1813 3.9334 0.0000 34.3363 0.0000
# 6 0.0000 0.0000 0.0000 0.2406 0.0000 31.3322
#
#
#
# Elastic Compliance Matrix: (Units=1/GPa)
#
#
# Indices 1 2 3 4 5 6 
#
# 1 0.009862 -0.007490 -0.003758 0.000000 0.003305 0.000000
# 2 -0.007490 0.052810 -0.006710 0.000000 -0.005781 0.000000
# 3 -0.003758 -0.006710 0.010196 0.000000 -0.001377 0.000000
# 4 0.000000 0.000000 0.000000 0.035952 0.000000 -0.000276
# 5 0.003305 -0.005781 -0.001377 0.000000 0.030548 0.000000
# 6 0.000000 0.000000 0.000000 -0.000276 0.000000 0.031918
#
#
# Mechanical properties :
#
#
# Convention : Reuss Voigt Hill
#
# Bulk Modulus (GPa) = 27.06290 67.77680 47.41985
# Shear Modulus (GPa) = 22.77681 31.55412 27.16547
#
# Velocity S-wave (km/s) = 3.42723 4.03390 3.74288
# Velocity P-wave (km/s) = 5.44219 7.52653 6.56758
#
# Compressibility (1/GPa) = 0.03695096
#
# Stress axis : x y z
#
# Youngs Moduli (GPa) = 101.40264 18.93563 98.07492
#
# Poissons Ratio (x) = 0.14183 0.36860
# Poissons Ratio (y) = 0.75950 0.65813
# Poissons Ratio (z) = 0.38111 0.12707
#
# Static dielectric constant tensor:
#      x y z
#    x 3.991580 0.000000 0.329820 
#    y 0.000000 3.256250 0.000000 
#    z 0.329820 0.000000 4.355900 
# 
# 
# High freq. dielectric constant tensor:
#      x y z
#    x 1.767920 0.000000 0.001230 
#    y 0.000000 1.730740 0.000000 
#    z 0.001230 0.000000 1.766180 
# 
# From -- ./inp_files/37704.got.cif
#   From: 2010.06.25/outbox.cif.g09.slc.cpg/sg11_19_cif.got.tgz:37704.got - 2010.06.27 23:14:04.
