data_PCOD8072426
_publ_section_title
;
Structure prediction by ZEFSAII (Michael W. Deem and Ramdas Pophale) SiO2 
 PCOD8072426
Probable space group: P 21/M
;
_chemical_formula_sum "Si O2"
_cell_formula_units_Z 32
_cell_length_a 10.717772
_cell_length_b 17.492049
_cell_length_c 15.797295
_cell_angle_alpha 90.000000
_cell_angle_beta 145.106645
_cell_angle_gamma 90.000000
_cell_volume 1694.191457
_symmetry_space_group_name_H-M "P 21/M"
_symmetry_group_IT_number 11
_symmetry_cell_setting 'monoclinic'
loop_
_space_group_symop_operation_xyz
x,y,z
-x,1/2+y,-z
-x,-y,-z
x,1/2-y,z
loop_
_atom_site_type_symbol
_atom_site_label
_atom_site_fract_x
_atom_site_fract_y
_atom_site_fract_z
Si Si1 0.001612 0.339939 0.740131
Si Si2 0.350063 0.511984 0.209511
Si Si3 0.415847 0.333886 0.863080
Si Si4 0.038651 0.588768 0.607753
Si Si5 0.195259 0.931248 0.516701
Si Si6 0.608659 0.663444 0.339383
Si Si7 0.705750 0.447261 0.096420
Si Si8 0.960602 0.964438 0.111486
O O1 0.952851 0.250000 0.722156
O O2 0.827177 0.375957 0.577093
O O3 0.996393 0.377517 0.831511
O O4 0.238889 0.357831 0.834053
O O5 0.559332 0.462335 0.348391
O O6 0.411994 0.602405 0.239504
O O7 0.176860 0.502610 0.188531
O O8 0.245937 0.476417 0.065874
O O9 0.503289 0.250000 0.930484
O O10 0.307912 0.339551 0.710848
O O11 0.627243 0.386763 0.983099
O O12 0.147877 0.612329 0.578980
O O13 0.222620 0.600396 0.781150
O O14 0.980197 0.499253 0.581814
O O15 0.825027 0.639447 0.511442
O O16 0.532681 0.750000 0.322491
O O17 0.913576 0.490368 0.172422
O O18 0.500000 0.500000 0.000000
#
# Coordination Sequence:
#
# PCOD8072426 Si02
#       8
#     4   4   4   4   4   4   4   4
#     4  11  22  38  59  85 118 151 187 240 299 348
#     4  10  23  38  61  83 114 155 199 238 285 340
#     4  10  20  34  55  84 115 147 184 234 296 346
#     4  10  20  31  57  86 113 146 187 239 281 335
#     4  10  19  36  54  84 114 147 187 230 285 343
#     4  10  20  37  58  85 117 152 192 233 290 350
#     4  12  20  34  59  86 111 148 190 244 288 341
#     4  11  22  39  58  88 113 148 200 244 282 347
#
# _framework density 18.888066999999999
#
# number of rings (size 3 to 8) (size 9 to 14) (size 15 to 20)
#    0.000    1.500    5.000    0.750    1.750    1.500 
#    0.000    0.625    0.000    1.500    0.000    0.000 
#    0.000    0.000    0.000    0.000    0.000    0.000 
#
# Total GULP energy -396625.417536 kJ/mol
# GULP energy per Si atom -12394.544298 kJ/mol
# Density = 1.884508 g / cm^3
# Si number density = 18.888067 Si / 1000 Ang^3
#
#
#
# Elastic Constant Matrix: (Units=GPa)
#
#
# Indices 1 2 3 4 5 6 
#
# 1 80.4939 32.9378 31.0530 0.0000 0.8392 0.0000
# 2 32.9378 97.5451 57.5256 0.0000 -4.0506 0.0000
# 3 31.0530 57.5256 109.1206 0.0000 -7.0102 0.0000
# 4 0.0000 0.0000 0.0000 26.3900 0.0000 -4.6364
# 5 0.8392 -4.0506 -7.0102 0.0000 26.3497 0.0000
# 6 0.0000 0.0000 0.0000 -4.6364 0.0000 22.7766
#
#
#
# Elastic Compliance Matrix: (Units=1/GPa)
#
#
# Indices 1 2 3 4 5 6 
#
# 1 0.014871 -0.003674 -0.002403 0.000000 -0.001678 0.000000
# 2 -0.003674 0.015786 -0.007236 0.000000 0.000618 0.000000
# 3 -0.002403 -0.007236 0.013833 0.000000 0.002644 0.000000
# 4 0.000000 0.000000 0.000000 0.039299 0.000000 0.008000
# 5 -0.001678 0.000618 0.002644 0.000000 0.038803 0.000000
# 6 0.000000 0.000000 0.000000 0.008000 0.000000 0.045533
#
#
# Mechanical properties :
#
#
# Convention : Reuss Voigt Hill
#
# Bulk Modulus (GPa) = 55.98289 58.91028 57.44658
# Shear Modulus (GPa) = 24.91216 26.14615 25.52916
#
# Velocity S-wave (km/s) = 3.63566 3.72461 3.68040
# Velocity P-wave (km/s) = 6.87951 7.05364 6.96712
#
# Compressibility (1/GPa) = 0.01786260
#
# Stress axis : x y z
#
# Youngs Moduli (GPa) = 67.24405 63.34901 72.29242
#
# Poissons Ratio (x) = 0.23275 0.17371
# Poissons Ratio (y) = 0.24707 0.52314
# Poissons Ratio (z) = 0.16158 0.45842
#
# Static dielectric constant tensor:
#      x y z
#    x 3.333240 0.000000 -0.121690 
#    y 0.000000 3.210220 0.000000 
#    z -0.121690 0.000000 3.418270 
# 
# 
# High freq. dielectric constant tensor:
#      x y z
#    x 1.718980 0.000000 -0.008280 
#    y 0.000000 1.722540 0.000000 
#    z -0.008280 0.000000 1.734720 
# 
# From -- ./inp_files/41858.got.cif
#   From: 2010.06.25/outbox.cif.g09.slc.cpg/sg11_21_cif.got.tgz:41858.got - 2010.06.27 23:14:04.
