data_PCOD8072273
_publ_section_title
;
Structure prediction by ZEFSAII (Michael W. Deem and Ramdas Pophale) SiO2 
 PCOD8072273
Probable space group: P 21/M
;
_chemical_formula_sum "Si O2"
_cell_formula_units_Z 24
_cell_length_a 6.611514
_cell_length_b 13.718184
_cell_length_c 13.893159
_cell_angle_alpha 90.000000
_cell_angle_beta 94.719641
_cell_angle_gamma 90.000000
_cell_volume 1255.808623
_symmetry_space_group_name_H-M "P 21/M"
_symmetry_group_IT_number 11
_symmetry_cell_setting 'monoclinic'
loop_
_space_group_symop_operation_xyz
x,y,z
-x,1/2+y,-z
-x,-y,-z
x,1/2-y,z
loop_
_atom_site_type_symbol
_atom_site_label
_atom_site_fract_x
_atom_site_fract_y
_atom_site_fract_z
Si Si1 0.422140 0.141990 0.936865
Si Si2 0.727737 0.860515 0.282281
Si Si3 0.665308 0.532525 0.891621
Si Si4 0.051511 0.484340 0.272739
Si Si5 0.536095 0.510519 0.613217
Si Si6 0.336871 0.636372 0.746349
O O1 0.503246 0.250000 0.962525
O O2 0.303170 0.140027 0.832748
O O3 0.615078 0.070959 0.938739
O O4 0.277471 0.106977 0.019773
O O5 0.744463 0.750000 0.322979
O O6 0.545491 0.915591 0.331226
O O7 0.938766 0.917471 0.303017
O O8 0.853369 0.512163 0.829807
O O9 0.467391 0.574307 0.828096
O O10 0.225951 0.471637 0.359057
O O11 0.899386 0.392767 0.261437
O O12 0.500000 0.500000 0.500000
O O13 0.419470 0.607646 0.643884
O O14 0.362543 0.750000 0.767627
#
# Coordination Sequence:
#
# PCOD8072273 Si02
#       6
#     4   4   4   4   4   4
#     4  10  19  35  57  84 118 154 190 229 275 332
#     4  10  21  38  57  86 117 146 187 234 279 334
#     4  10  20  37  58  81 120 155 188 229 279 327
#     4  10  20  38  58  83 109 152 183 234 280 335
#     4  10  22  41  60  81 112 149 186 234 291 340
#     4  10  21  38  57  85 115 147 191 235 278 335
#
# _framework density 19.111193
#
# number of rings (size 3 to 8) (size 9 to 14) (size 15 to 20)
#    0.000    2.000    5.000    0.500    0.000    8.667 
#    0.000    1.667    0.000    0.000    0.000    0.000 
#    0.000    0.000    0.000    0.000    0.000    0.000 
#
# Total GULP energy -297453.976207 kJ/mol
# GULP energy per Si atom -12393.915675 kJ/mol
# Density = 1.906770 g / cm^3
# Si number density = 19.111193 Si / 1000 Ang^3
#
#
#
# Elastic Constant Matrix: (Units=GPa)
#
#
# Indices 1 2 3 4 5 6 
#
# 1 96.5599 30.8948 12.0694 0.0000 -5.3279 0.0000
# 2 30.8948 142.3764 10.5878 0.0000 -5.4059 0.0000
# 3 12.0694 10.5878 86.3863 0.0000 -3.3168 0.0000
# 4 0.0000 0.0000 0.0000 21.1319 0.0000 -2.0126
# 5 -5.3279 -5.4059 -3.3168 0.0000 12.9297 0.0000
# 6 0.0000 0.0000 0.0000 -2.0126 0.0000 15.8853
#
#
#
# Elastic Compliance Matrix: (Units=1/GPa)
#
#
# Indices 1 2 3 4 5 6 
#
# 1 0.011418 -0.002258 -0.001186 0.000000 0.003457 0.000000
# 2 -0.002258 0.007634 -0.000539 0.000000 0.002123 0.000000
# 3 -0.001186 -0.000539 0.011897 0.000000 0.002338 0.000000
# 4 0.000000 0.000000 0.000000 0.047900 0.000000 0.006069
# 5 0.003457 0.002123 0.002338 0.000000 0.080253 0.000000
# 6 0.000000 0.000000 0.000000 0.006069 0.000000 0.063720
#
#
# Mechanical properties :
#
#
# Convention : Reuss Voigt Hill
#
# Bulk Modulus (GPa) = 43.50800 48.04740 45.77770
# Shear Modulus (GPa) = 20.96882 28.10741 24.53811
#
# Velocity S-wave (km/s) = 3.31600 3.83917 3.58713
# Velocity P-wave (km/s) = 6.12178 6.69685 6.41577
#
# Compressibility (1/GPa) = 0.02298428
#
# Stress axis : x y z
#
# Youngs Moduli (GPa) = 87.58318 130.98750 84.05217
#
# Poissons Ratio (x) = 0.29579 0.09966
# Poissons Ratio (y) = 0.19778 0.04528
# Poissons Ratio (z) = 0.10385 0.07056
#
# Static dielectric constant tensor:
#      x y z
#    x 3.344040 0.000000 -0.139080 
#    y 0.000000 3.754190 0.000000 
#    z -0.139080 0.000000 3.529390 
# 
# 
# High freq. dielectric constant tensor:
#      x y z
#    x 1.728830 0.000000 -0.008400 
#    y 0.000000 1.745920 0.000000 
#    z -0.008400 0.000000 1.742110 
# 
# From -- ./inp_files/6434.got.cif
#   From: 2010.06.25/outbox.cif.g09.slc.cpg/sg11_4_cif.got.tgz:6434.got - 2010.06.27 23:14:04.
