data_PCOD8072934
_publ_section_title
;
Structure prediction by ZEFSAII (Michael W. Deem and Ramdas Pophale) SiO2 
 PCOD8072934
Probable space group: P 21/M
;
_chemical_formula_sum "Si O2"
_cell_formula_units_Z 32
_cell_length_a 20.494426
_cell_length_b 9.017090
_cell_length_c 14.757265
_cell_angle_alpha 90.000000
_cell_angle_beta 136.908916
_cell_angle_gamma 90.000000
_cell_volume 1863.075952
_symmetry_space_group_name_H-M "P 21/M"
_symmetry_group_IT_number 11
_symmetry_cell_setting 'monoclinic'
loop_
_space_group_symop_operation_xyz
x,y,z
-x,1/2+y,-z
-x,-y,-z
x,1/2-y,z
loop_
_atom_site_type_symbol
_atom_site_label
_atom_site_fract_x
_atom_site_fract_y
_atom_site_fract_z
Si Si1 0.971325 0.923638 0.339568
Si Si2 0.190888 0.416890 0.699118
Si Si3 0.834960 0.420681 0.063358
Si Si4 0.880099 0.925135 0.621165
Si Si5 0.489390 0.575017 0.892333
Si Si6 0.280609 0.922898 0.627311
Si Si7 0.010951 0.581005 0.917297
Si Si8 0.320575 0.082826 0.007687
O O1 0.994484 0.750000 0.352355
O O2 0.918938 0.955263 0.382964
O O3 0.067984 0.017447 0.419357
O O4 0.896819 0.971363 0.187544
O O5 0.196190 0.250000 0.662897
O O6 0.229031 0.538565 0.669040
O O7 0.257633 0.424974 0.854124
O O8 0.842473 0.250000 0.104074
O O9 0.725418 0.478066 0.960227
O O10 0.879644 0.434374 0.007635
O O11 0.878854 0.750000 0.617694
O O12 0.936172 0.983443 0.766776
O O13 0.772477 0.990120 0.508748
O O14 0.493595 0.750000 0.913944
O O15 0.390728 0.527088 0.744244
O O16 0.573689 0.524240 0.910087
O O17 0.500000 0.500000 0.000000
O O18 0.270931 0.750000 0.598621
O O19 0.984138 0.750000 0.907978
O O20 0.000000 0.500000 0.000000
O O21 0.325499 0.250000 0.050698
#
# Coordination Sequence:
#
# PCOD8072934 Si02
#       8
#     4   4   4   4   4   4   4   4
#     4   9  17  30  47  66  91 125 164 200 238 282
#     4   9  17  29  45  64  90 126 164 204 247 283
#     4   9  17  29  46  73 103 127 157 194 237 289
#     4  10  21  36  50  68  97 128 158 195 239 290
#     4  10  20  33  48  69  95 127 173 219 253 287
#     4  11  22  32  46  68  93 127 169 208 247 287
#     4   9  19  34  54  79 102 125 152 187 234 293
#     4   9  17  30  47  67  95 130 168 209 249 285
#
# _framework density 17.175896000000002
#
# number of rings (size 3 to 8) (size 9 to 14) (size 15 to 20)
#    0.000    2.500    1.250    3.000    0.000    7.000 
#    0.000    0.000    0.000    0.000    0.000    0.875 
#    0.000    0.000    0.000    0.000    0.000    0.000 
#
# Total GULP energy -396573.636603 kJ/mol
# GULP energy per Si atom -12392.926144 kJ/mol
# Density = 1.713680 g / cm^3
# Si number density = 17.175896 Si / 1000 Ang^3
#
#
#
# Elastic Constant Matrix: (Units=GPa)
#
#
# Indices 1 2 3 4 5 6 
#
# 1 96.5546 32.0012 49.2904 0.0000 18.0599 0.0000
# 2 32.0012 51.3845 23.8350 0.0000 13.2039 0.0000
# 3 49.2904 23.8350 65.2629 0.0000 23.5154 0.0000
# 4 0.0000 0.0000 0.0000 19.7438 0.0000 0.3679
# 5 18.0599 13.2039 23.5154 0.0000 27.8289 0.0000
# 6 0.0000 0.0000 0.0000 0.3679 0.0000 29.2277
#
#
#
# Elastic Compliance Matrix: (Units=1/GPa)
#
#
# Indices 1 2 3 4 5 6 
#
# 1 0.018296 -0.006129 -0.012004 0.000000 0.001178 0.000000
# 2 -0.006129 0.026104 -0.002696 0.000000 -0.006130 0.000000
# 3 -0.012004 -0.002696 0.031782 0.000000 -0.017787 0.000000
# 4 0.000000 0.000000 0.000000 0.050661 0.000000 -0.000638
# 5 0.001178 -0.006130 -0.017787 0.000000 0.053107 0.000000
# 6 0.000000 0.000000 0.000000 -0.000638 0.000000 0.034222
#
#
# Mechanical properties :
#
#
# Convention : Reuss Voigt Hill
#
# Bulk Modulus (GPa) = 28.96538 47.05057 38.00797
# Shear Modulus (GPa) = 18.70291 22.56510 20.63401
#
# Velocity S-wave (km/s) = 3.30344 3.62852 3.46979
# Velocity P-wave (km/s) = 5.60810 6.70878 6.18298
#
# Compressibility (1/GPa) = 0.03452397
#
# Stress axis : x y z
#
# Youngs Moduli (GPa) = 54.65736 38.30880 31.46397
#
# Poissons Ratio (x) = 0.23478 0.37770
# Poissons Ratio (y) = 0.33498 0.08482
# Poissons Ratio (z) = 0.65612 0.10328
#
# Static dielectric constant tensor:
#      x y z
#    x 3.465090 0.000000 0.412540 
#    y 0.000000 3.679790 0.000000 
#    z 0.412540 0.000000 3.194180 
# 
# 
# High freq. dielectric constant tensor:
#      x y z
#    x 1.647920 0.000000 0.026650 
#    y 0.000000 1.668240 0.000000 
#    z 0.026650 0.000000 1.634190 
# 
# From -- ./inp_files/51177.got.cif
#   From: 2010.06.25/outbox.cif.g09.slc.cpg/sg11_26_cif.got.tgz:51177.got - 2010.06.27 23:14:04.
