data_PCOD8072757
_publ_section_title
;
Structure prediction by ZEFSAII (Michael W. Deem and Ramdas Pophale) SiO2 
 PCOD8072757
Probable space group: P 21/M
;
_chemical_formula_sum "Si O2"
_cell_formula_units_Z 32
_cell_length_a 22.934939
_cell_length_b 9.261074
_cell_length_c 12.261500
_cell_angle_alpha 90.000000
_cell_angle_beta 46.559440
_cell_angle_gamma 90.000000
_cell_volume 1891.001455
_symmetry_space_group_name_H-M "P 21/M"
_symmetry_group_IT_number 11
_symmetry_cell_setting 'monoclinic'
loop_
_space_group_symop_operation_xyz
x,y,z
-x,1/2+y,-z
-x,-y,-z
x,1/2-y,z
loop_
_atom_site_type_symbol
_atom_site_label
_atom_site_fract_x
_atom_site_fract_y
_atom_site_fract_z
Si Si1 0.679720 0.579358 0.146124
Si Si2 0.995661 0.581795 0.618733
Si Si3 0.143070 0.080938 0.471894
Si Si4 0.819867 0.582772 0.817817
Si Si5 0.555361 0.085372 0.847339
Si Si6 0.503906 0.585719 0.319358
Si Si7 0.352149 0.082012 0.576154
Si Si8 0.295387 0.417679 0.415294
O O1 0.680949 0.750000 0.127425
O O2 0.592180 0.518925 0.225868
O O3 0.696956 0.540722 0.251127
O O4 0.748484 0.508280 0.980259
O O5 0.016637 0.750000 0.577931
O O6 0.062048 0.505790 0.610813
O O7 0.000000 0.500000 0.500000
O O8 0.903561 0.561322 0.777207
O O9 0.122132 0.250000 0.490692
O O10 0.175002 0.022150 0.313002
O O11 0.207050 0.048268 0.484074
O O12 0.799619 0.750000 0.832010
O O13 0.565517 0.250000 0.873103
O O14 0.513049 0.075294 0.786042
O O15 0.642468 0.011766 0.733773
O O16 0.500000 0.000000 0.000000
O O17 0.499790 0.750000 0.366642
O O18 0.437830 0.496658 0.470665
O O19 0.372620 0.250000 0.547381
O O20 0.299494 0.038331 0.537951
O O21 0.317284 0.250000 0.370044
#
# Coordination Sequence:
#
# PCOD8072757 Si02
#       8
#     4   4   4   4   4   4   4   4
#     4   9  16  27  46  68  88 114 153 191 223 267
#     4   9  16  28  46  68  94 120 148 184 226 273
#     4   9  17  29  48  68  89 120 153 184 221 276
#     4   8  15  26  43  67  89 113 146 181 220 267
#     4  10  20  31  44  64  92 124 154 187 230 274
#     4   9  18  30  46  65  86 119 157 188 222 271
#     4   9  17  30  47  66  89 116 150 195 231 258
#     4   9  18  31  47  67  90 119 154 188 227 271
#
# _framework density 16.922250999999999
#
# number of rings (size 3 to 8) (size 9 to 14) (size 15 to 20)
#    0.000    3.000    0.000    1.875    1.750    1.000 
#    0.000    0.000    0.000    6.000    0.000    0.000 
#    0.000    0.000    0.000    0.000    0.000    0.500 
#
# Total GULP energy -396573.899710 kJ/mol
# GULP energy per Si atom -12392.934366 kJ/mol
# Density = 1.688374 g / cm^3
# Si number density = 16.922251 Si / 1000 Ang^3
#
#
#
# Elastic Constant Matrix: (Units=GPa)
#
#
# Indices 1 2 3 4 5 6 
#
# 1 112.8705 30.8674 42.5397 0.0000 -18.1159 0.0000
# 2 30.8674 48.8520 17.2276 0.0000 -7.9930 0.0000
# 3 42.5397 17.2276 74.2972 0.0000 -10.3774 0.0000
# 4 0.0000 0.0000 0.0000 18.4178 0.0000 -6.1721
# 5 -18.1159 -7.9930 -10.3774 0.0000 16.9303 0.0000
# 6 0.0000 0.0000 0.0000 -6.1721 0.0000 23.0273
#
#
#
# Elastic Compliance Matrix: (Units=1/GPa)
#
#
# Indices 1 2 3 4 5 6 
#
# 1 0.013793 -0.005348 -0.005412 0.000000 0.008917 0.000000
# 2 -0.005348 0.025415 -0.002138 0.000000 0.004966 0.000000
# 3 -0.005412 -0.002138 0.017612 0.000000 0.003995 0.000000
# 4 0.000000 0.000000 0.000000 0.059653 0.000000 0.015989
# 5 0.008917 0.004966 0.003995 0.000000 0.073401 0.000000
# 6 0.000000 0.000000 0.000000 0.015989 0.000000 0.047712
#
#
# Mechanical properties :
#
#
# Convention : Reuss Voigt Hill
#
# Bulk Modulus (GPa) = 32.23130 46.36546 39.29838
# Shear Modulus (GPa) = 18.26663 21.36741 19.81702
#
# Velocity S-wave (km/s) = 3.28905 3.55728 3.42579
# Velocity P-wave (km/s) = 5.78895 6.65814 6.23870
#
# Compressibility (1/GPa) = 0.03102575
#
# Stress axis : x y z
#
# Youngs Moduli (GPa) = 72.50011 39.34627 56.78027
#
# Poissons Ratio (x) = 0.21041 0.30729
# Poissons Ratio (y) = 0.38771 0.12137
# Poissons Ratio (z) = 0.39236 0.08411
#
# Static dielectric constant tensor:
#      x y z
#    x 3.547220 0.000000 -0.133640 
#    y 0.000000 3.143910 0.000000 
#    z -0.133640 0.000000 3.289870 
# 
# 
# High freq. dielectric constant tensor:
#      x y z
#    x 1.653950 0.000000 -0.005770 
#    y 0.000000 1.631370 0.000000 
#    z -0.005770 0.000000 1.633830 
# 
# From -- ./inp_files/43760.got.cif
#   From: 2010.06.25/outbox.cif.g09.slc.cpg/sg11_22_cif.got.tgz:43760.got - 2010.06.27 23:14:04.
