data_PCOD8072110
_publ_section_title
;
Structure prediction by ZEFSAII (Michael W. Deem and Ramdas Pophale) SiO2 
 PCOD8072110
Probable space group: P 21/M
;
_chemical_formula_sum "Si O2"
_cell_formula_units_Z 32
_cell_length_a 8.662762
_cell_length_b 14.690135
_cell_length_c 11.802795
_cell_angle_alpha 90.000000
_cell_angle_beta 96.441573
_cell_angle_gamma 90.000000
_cell_volume 1492.507577
_symmetry_space_group_name_H-M "P 21/M"
_symmetry_group_IT_number 11
_symmetry_cell_setting 'monoclinic'
loop_
_space_group_symop_operation_xyz
x,y,z
-x,1/2+y,-z
-x,-y,-z
x,1/2-y,z
loop_
_atom_site_type_symbol
_atom_site_label
_atom_site_fract_x
_atom_site_fract_y
_atom_site_fract_z
Si Si1 0.876781 0.080101 0.490090
Si Si2 0.610338 0.006361 0.341653
Si Si3 0.402392 0.145111 0.034877
Si Si4 0.103339 0.853491 0.258443
Si Si5 0.982079 0.850377 0.720637
Si Si6 0.746274 0.644761 0.211368
Si Si7 0.293018 0.648330 0.834107
Si Si8 0.285146 0.477071 0.231952
O O1 0.701221 0.039570 0.461098
O O2 0.878500 0.137193 0.604938
O O3 0.920025 0.144443 0.387763
O O4 0.000000 0.000000 0.500000
O O5 0.645261 0.074793 0.245107
O O6 0.423742 0.008401 0.334680
O O7 0.674230 0.907089 0.312567
O O8 0.349402 0.250000 0.054223
O O9 0.341849 0.111549 0.908934
O O10 0.592039 0.138301 0.047497
O O11 0.328534 0.078362 0.122950
O O12 0.145468 0.750000 0.226950
O O13 0.927166 0.877501 0.210303
O O14 0.215826 0.922434 0.198946
O O15 0.907691 0.750000 0.725001
O O16 0.847586 0.924282 0.710061
O O17 0.106630 0.866752 0.835240
O O18 0.717590 0.750000 0.234131
O O19 0.316205 0.750000 0.785631
#
# Coordination Sequence:
#
# PCOD8072110 Si02
#       8
#     4   4   4   4   4   4   4   4
#     4  11  19  39  63  80 107 148 197 235 275 341
#     4  10  21  36  61  85 113 146 191 238 291 332
#     4   9  19  37  60  86 115 150 192 239 287 331
#     4  11  23  40  59  83 117 156 192 235 286 340
#     4  10  19  34  58  87 114 147 191 239 288 339
#     4  10  21  39  61  83 111 153 200 237 276 339
#     4   8  16  32  55  80 108 144 189 233 273 327
#     4  11  22  36  57  87 124 148 183 238 290 347
#
# _framework density 21.440427
#
# number of rings (size 3 to 8) (size 9 to 14) (size 15 to 20)
#    0.000    2.000    2.500    1.500    0.000    4.500 
#    0.000    1.250    0.000    5.250    0.000    0.000 
#    0.000    0.000    0.000    0.000    0.000    0.000 
#
# Total GULP energy -396497.732846 kJ/mol
# GULP energy per Si atom -12390.554151 kJ/mol
# Density = 2.139163 g / cm^3
# Si number density = 21.440427 Si / 1000 Ang^3
#
#
#
# Elastic Constant Matrix: (Units=GPa)
#
#
# Indices 1 2 3 4 5 6 
#
# 1 119.9552 53.1148 18.7890 0.0000 32.9765 0.0000
# 2 53.1148 102.7950 13.0053 0.0000 6.7087 0.0000
# 3 18.7890 13.0053 44.2258 0.0000 20.5734 0.0000
# 4 0.0000 0.0000 0.0000 33.5810 0.0000 -9.8414
# 5 32.9765 6.7087 20.5734 0.0000 37.7775 0.0000
# 6 0.0000 0.0000 0.0000 -9.8414 0.0000 48.6396
#
#
#
# Elastic Compliance Matrix: (Units=1/GPa)
#
#
# Indices 1 2 3 4 5 6 
#
# 1 0.014534 -0.006907 0.001591 0.000000 -0.012327 0.000000
# 2 -0.006907 0.013388 -0.003618 0.000000 0.005622 0.000000
# 3 0.001591 -0.003618 0.031268 0.000000 -0.017774 0.000000
# 4 0.000000 0.000000 0.000000 0.031656 0.000000 0.006405
# 5 -0.012327 0.005622 -0.017774 0.000000 0.045913 0.000000
# 6 0.000000 0.000000 0.000000 0.006405 0.000000 0.021855
#
#
# Mechanical properties :
#
#
# Convention : Reuss Voigt Hill
#
# Bulk Modulus (GPa) = 24.20018 48.53268 36.36643
# Shear Modulus (GPa) = 26.28053 36.13743 31.20898
#
# Velocity S-wave (km/s) = 3.50486 4.10991 3.81939
# Velocity P-wave (km/s) = 5.26217 6.72362 6.03728
#
# Compressibility (1/GPa) = 0.04132201
#
# Stress axis : x y z
#
# Youngs Moduli (GPa) = 68.80309 74.69584 31.98177
#
# Poissons Ratio (x) = 0.51590 -0.05087
# Poissons Ratio (y) = 0.47520 0.11570
# Poissons Ratio (z) = -0.10944 0.27023
#
# Static dielectric constant tensor:
#      x y z
#    x 4.412530 0.000000 0.540750 
#    y 0.000000 4.351260 0.000000 
#    z 0.540750 0.000000 3.725310 
# 
# 
# High freq. dielectric constant tensor:
#      x y z
#    x 1.848080 0.000000 0.037120 
#    y 0.000000 1.857000 0.000000 
#    z 0.037120 0.000000 1.806920 
# 
# From -- ./inp_files/31903.got.cif
#   From: 2010.06.25/outbox.cif.g09.slc.cpg/sg11_16_cif.got.tgz:31903.got - 2010.06.27 23:14:04.
