data_PCOD8072040
_publ_section_title
;
Structure prediction by ZEFSAII (Michael W. Deem and Ramdas Pophale) SiO2 
 PCOD8072040
Probable space group: P 21/M
;
_chemical_formula_sum "Si O2"
_cell_formula_units_Z 32
_cell_length_a 22.123634
_cell_length_b 8.921951
_cell_length_c 13.006963
_cell_angle_alpha 90.000000
_cell_angle_beta 38.175910
_cell_angle_gamma 90.000000
_cell_volume 1586.848399
_symmetry_space_group_name_H-M "P 21/M"
_symmetry_group_IT_number 11
_symmetry_cell_setting 'monoclinic'
loop_
_space_group_symop_operation_xyz
x,y,z
-x,1/2+y,-z
-x,-y,-z
x,1/2-y,z
loop_
_atom_site_type_symbol
_atom_site_label
_atom_site_fract_x
_atom_site_fract_y
_atom_site_fract_z
Si Si1 0.642203 0.921031 0.609015
Si Si2 0.300061 0.077839 0.021836
Si Si3 0.721020 0.082740 0.312896
Si Si4 0.828773 0.921095 0.477935
Si Si5 0.105019 0.070654 0.386120
Si Si6 0.402365 0.073938 0.679718
Si Si7 0.472900 0.076008 0.930972
Si Si8 0.087465 0.917722 0.831950
O O1 0.641602 0.750000 0.568876
O O2 0.710715 0.933666 0.619646
O O3 0.678894 0.038452 0.478254
O O4 0.533110 0.977632 0.770201
O O5 0.286806 0.250000 0.009847
O O6 0.364087 0.007972 0.841577
O O7 0.359980 0.060120 0.048479
O O8 0.190144 0.013908 0.191749
O O9 0.684650 0.250000 0.331268
O O10 0.836237 0.078783 0.175880
O O11 0.688613 0.962041 0.272246
O O12 0.862401 0.750000 0.424416
O O13 0.861455 0.984433 0.545191
O O14 0.881259 0.006759 0.315906
O O15 0.097071 0.250000 0.392848
O O16 0.000000 0.000000 0.500000
O O17 0.423272 0.250000 0.658771
O O18 0.500000 0.000000 0.500000
O O19 0.504732 0.250000 0.890282
O O20 0.500000 0.000000 0.000000
O O21 0.058504 0.750000 0.840756
O O22 0.000000 0.000000 0.000000
#
# Coordination Sequence:
#
# PCOD8072040 Si02
#       8
#     4   4   4   4   4   4   4   4
#     4  10  19  34  57  84 111 144 183 225 278 343
#     4   9  21  40  59  80 113 154 194 234 286 347
#     4  10  21  37  55  80 113 148 185 231 284 343
#     4   9  19  36  58  81 112 150 188 233 291 352
#     4  10  21  40  61  82 110 149 196 245 292 344
#     4  11  22  38  61  87 117 158 200 242 292 351
#     4  11  21  35  56  82 112 146 182 227 280 337
#     4  10  21  36  57  84 116 149 188 239 295 353
#
# _framework density 20.165758
#
# number of rings (size 3 to 8) (size 9 to 14) (size 15 to 20)
#    0.000    2.000    0.000    3.375    0.000    6.500 
#    0.000    8.125    0.000    0.000    0.000    0.000 
#    0.000    0.000    0.000    0.000    0.000    0.000 
#
# Total GULP energy -396431.064242 kJ/mol
# GULP energy per Si atom -12388.470758 kJ/mol
# Density = 2.011986 g / cm^3
# Si number density = 20.165758 Si / 1000 Ang^3
#
#
#
# Elastic Constant Matrix: (Units=GPa)
#
#
# Indices 1 2 3 4 5 6 
#
# 1 105.6111 26.0127 46.7364 0.0000 4.9866 0.0000
# 2 26.0127 63.6453 43.6229 0.0000 -5.3121 0.0000
# 3 46.7364 43.6229 135.4860 0.0000 -8.0537 0.0000
# 4 0.0000 0.0000 0.0000 28.6655 0.0000 -2.7378
# 5 4.9866 -5.3121 -8.0537 0.0000 23.2588 0.0000
# 6 0.0000 0.0000 0.0000 -2.7378 0.0000 32.6086
#
#
#
# Elastic Compliance Matrix: (Units=1/GPa)
#
#
# Indices 1 2 3 4 5 6 
#
# 1 0.011909 -0.002874 -0.003444 0.000000 -0.004402 0.000000
# 2 -0.002874 0.020988 -0.005559 0.000000 0.003485 0.000000
# 3 -0.003444 -0.005559 0.010544 0.000000 0.003120 0.000000
# 4 0.000000 0.000000 0.000000 0.035167 0.000000 0.002953
# 5 -0.004402 0.003485 0.003120 0.000000 0.045815 0.000000
# 6 0.000000 0.000000 0.000000 0.002953 0.000000 0.030915
#
#
# Mechanical properties :
#
#
# Convention : Reuss Voigt Hill
#
# Bulk Modulus (GPa) = 50.79688 59.72070 55.25879
# Shear Modulus (GPa) = 26.93191 29.46460 28.19825
#
# Velocity S-wave (km/s) = 3.65845 3.82661 3.74347
# Velocity P-wave (km/s) = 6.56430 7.01449 6.79313
#
# Compressibility (1/GPa) = 0.01968625
#
# Stress axis : x y z
#
# Youngs Moduli (GPa) = 83.97275 47.64693 94.83838
#
# Poissons Ratio (x) = 0.13693 0.32665
# Poissons Ratio (y) = 0.24133 0.52720
# Poissons Ratio (z) = 0.28923 0.26487
#
# Static dielectric constant tensor:
#      x y z
#    x 6.051810 0.000000 -0.851920 
#    y 0.000000 3.608380 0.000000 
#    z -0.851920 0.000000 4.061380 
# 
# 
# High freq. dielectric constant tensor:
#      x y z
#    x 1.789380 0.000000 -0.001720 
#    y 0.000000 1.777020 0.000000 
#    z -0.001720 0.000000 1.791370 
# 
# From -- ./inp_files/55653.got.cif
#   From: 2010.06.25/outbox.cif.g09.slc.cpg/sg11_28_cif.got.tgz:55653.got - 2010.06.27 23:14:04.
