data_PCOD8072595
_publ_section_title
;
Structure prediction by ZEFSAII (Michael W. Deem and Ramdas Pophale) SiO2 
 PCOD8072595
Probable space group: P 21/M
;
_chemical_formula_sum "Si O2"
_cell_formula_units_Z 24
_cell_length_a 17.079824
_cell_length_b 13.865275
_cell_length_c 10.028974
_cell_angle_alpha 90.000000
_cell_angle_beta 33.051727
_cell_angle_gamma 90.000000
_cell_volume 1295.329657
_symmetry_space_group_name_H-M "P 21/M"
_symmetry_group_IT_number 11
_symmetry_cell_setting 'monoclinic'
loop_
_space_group_symop_operation_xyz
x,y,z
-x,1/2+y,-z
-x,-y,-z
x,1/2-y,z
loop_
_atom_site_type_symbol
_atom_site_label
_atom_site_fract_x
_atom_site_fract_y
_atom_site_fract_z
Si Si1 0.231293 0.859418 0.874924
Si Si2 0.059633 0.055400 0.789005
Si Si3 0.351301 0.358823 0.370879
Si Si4 0.430054 0.858842 0.342790
Si Si5 0.706192 0.463759 0.697443
Si Si6 0.603047 0.456963 0.130475
O O1 0.249481 0.750000 0.900419
O O2 0.300699 0.873719 0.631450
O O3 0.304839 0.932826 0.872151
O O4 0.063255 0.883341 0.107229
O O5 0.187564 0.127183 0.655918
O O6 0.127701 0.980201 0.584199
O O7 0.000000 0.000000 0.000000
O O8 0.377619 0.250000 0.284956
O O9 0.381119 0.434693 0.206445
O O10 0.461728 0.388343 0.330681
O O11 0.490466 0.750000 0.260254
O O12 0.363689 0.879981 0.292485
O O13 0.559139 0.930593 0.198275
O O14 0.698734 0.435713 0.862426
#
# Coordination Sequence:
#
# PCOD8072595 Si02
#       6
#     4   4   4   4   4   4
#     4  11  22  36  58  83 114 150 183 227 286 340
#     4  10  19  37  58  78 112 145 192 226 275 330
#     4   9  18  33  57  82 110 146 190 230 274 334
#     4  10  20  36  58  82 109 149 193 231 278 333
#     4   9  21  34  57  83 109 146 189 233 280 328
#     4  11  21  36  55  87 117 144 184 236 289 328
#
# _framework density 18.528100999999999
#
# number of rings (size 3 to 8) (size 9 to 14) (size 15 to 20)
#    1.000    1.000    1.667    3.500    0.000    4.000 
#    0.000    0.000    0.000    2.000    0.000    0.000 
#    0.000    0.000    0.000    0.000    0.000    0.000 
#
# Total GULP energy -297476.527494 kJ/mol
# GULP energy per Si atom -12394.855312 kJ/mol
# Density = 1.848593 g / cm^3
# Si number density = 18.528101 Si / 1000 Ang^3
#
#
#
# Elastic Constant Matrix: (Units=GPa)
#
#
# Indices 1 2 3 4 5 6 
#
# 1 74.1672 40.3050 45.4058 0.0000 -6.8151 0.0000
# 2 40.3050 118.8611 36.9340 0.0000 -0.1257 0.0000
# 3 45.4058 36.9340 89.6169 0.0000 -6.1809 0.0000
# 4 0.0000 0.0000 0.0000 20.4082 0.0000 -4.7967
# 5 -6.8151 -0.1257 -6.1809 0.0000 24.3745 0.0000
# 6 0.0000 0.0000 0.0000 -4.7967 0.0000 21.5559
#
#
#
# Elastic Compliance Matrix: (Units=1/GPa)
#
#
# Indices 1 2 3 4 5 6 
#
# 1 0.021773 -0.004625 -0.008862 0.000000 0.003817 0.000000
# 2 -0.004625 0.010654 -0.002171 0.000000 -0.001789 0.000000
# 3 -0.008862 -0.002171 0.016663 0.000000 0.001736 0.000000
# 4 0.000000 0.000000 0.000000 0.051704 0.000000 0.011506
# 5 0.003817 -0.001789 0.001736 0.000000 0.042525 0.000000
# 6 0.000000 0.000000 0.000000 0.011506 0.000000 0.048951
#
#
# Mechanical properties :
#
#
# Convention : Reuss Voigt Hill
#
# Bulk Modulus (GPa) = 56.26263 58.65941 57.46102
# Shear Modulus (GPa) = 21.78544 23.93441 22.85993
#
# Velocity S-wave (km/s) = 3.43272 3.59805 3.51636
# Velocity P-wave (km/s) = 6.79290 6.99926 6.89685
#
# Compressibility (1/GPa) = 0.01777379
#
# Stress axis : x y z
#
# Youngs Moduli (GPa) = 45.92919 93.85946 60.01265
#
# Poissons Ratio (x) = 0.43412 0.53183
# Poissons Ratio (y) = 0.21243 0.13028
# Poissons Ratio (z) = 0.40703 0.20376
#
# Static dielectric constant tensor:
#      x y z
#    x 3.107830 0.000000 -0.117710 
#    y 0.000000 3.347470 0.000000 
#    z -0.117710 0.000000 3.442320 
# 
# 
# High freq. dielectric constant tensor:
#      x y z
#    x 1.691950 0.000000 -0.003000 
#    y 0.000000 1.715530 0.000000 
#    z -0.003000 0.000000 1.722670 
# 
# From -- ./inp_files/21985.got.cif
#   From: 2010.06.25/outbox.cif.g09.slc.cpg/sg11_11_cif.got.tgz:21985.got - 2010.06.27 23:14:04.
