data_PCOD8072478
_publ_section_title
;
Structure prediction by ZEFSAII (Michael W. Deem and Ramdas Pophale) SiO2 
 PCOD8072478
Probable space group: P 21/M
;
_chemical_formula_sum "Si O2"
_cell_formula_units_Z 28
_cell_length_a 18.914039
_cell_length_b 13.224354
_cell_length_c 9.265237
_cell_angle_alpha 90.000000
_cell_angle_beta 41.905251
_cell_angle_gamma 90.000000
_cell_volume 1547.844119
_symmetry_space_group_name_H-M "P 21/M"
_symmetry_group_IT_number 11
_symmetry_cell_setting 'monoclinic'
loop_
_space_group_symop_operation_xyz
x,y,z
-x,1/2+y,-z
-x,-y,-z
x,1/2-y,z
loop_
_atom_site_type_symbol
_atom_site_label
_atom_site_fract_x
_atom_site_fract_y
_atom_site_fract_z
Si Si1 0.670321 0.634300 0.930073
Si Si2 0.390283 0.023610 0.238966
Si Si3 0.213051 0.864918 0.538668
Si Si4 0.467316 0.549784 0.401366
Si Si5 0.745692 0.362188 0.206483
Si Si6 0.962379 0.131451 0.419399
Si Si7 0.842359 0.502285 0.824276
O O1 0.698973 0.750000 0.917485
O O2 0.655859 0.620371 0.777757
O O3 0.766524 0.564248 0.833824
O O4 0.565108 0.604588 0.176779
O O5 0.309503 0.931763 0.334117
O O6 0.414068 0.035463 0.374695
O O7 0.500000 0.000000 0.000000
O O8 0.246984 0.750000 0.454234
O O9 0.189627 0.881367 0.743877
O O10 0.104819 0.892204 0.621569
O O11 0.500000 0.500000 0.500000
O O12 0.379156 0.633932 0.568051
O O13 0.770731 0.250000 0.107269
O O14 0.773671 0.449062 0.051603
O O15 0.978258 0.250000 0.422178
O O16 0.076065 0.079468 0.225192
O O17 0.903841 0.085426 0.646840
#
# Coordination Sequence:
#
# PCOD8072478 Si02
#       7
#     4   4   4   4   4   4   4
#     4  11  21  36  55  80 116 154 183 221 277 328
#     4   9  19  33  54  80 110 145 185 220 268 324
#     4   9  18  35  58  80 107 141 181 225 276 325
#     4  10  19  36  59  81 113 145 181 230 277 325
#     4  10  20  35  57  83 110 144 182 226 278 333
#     4  10  21  37  57  81 106 141 189 231 273 325
#     4  11  21  35  57  82 110 144 183 233 274 323
#
# _framework density 18.089676999999998
#
# number of rings (size 3 to 8) (size 9 to 14) (size 15 to 20)
#    0.000    2.000    2.857    1.286    0.000    4.000 
#    0.000    1.429    0.000    0.000    0.000    0.000 
#    0.000    0.000    0.000    0.000    0.000    0.000 
#
# Total GULP energy -347046.125079 kJ/mol
# GULP energy per Si atom -12394.504467 kJ/mol
# Density = 1.804850 g / cm^3
# Si number density = 18.089677 Si / 1000 Ang^3
#
#
#
# Elastic Constant Matrix: (Units=GPa)
#
#
# Indices 1 2 3 4 5 6 
#
# 1 133.1508 51.4827 33.2481 0.0000 4.5729 0.0000
# 2 51.4827 97.8862 34.5586 0.0000 3.5487 0.0000
# 3 33.2481 34.5586 60.6707 0.0000 -3.1812 0.0000
# 4 0.0000 0.0000 0.0000 24.0722 0.0000 -0.3970
# 5 4.5729 3.5487 -3.1812 0.0000 29.3734 0.0000
# 6 0.0000 0.0000 0.0000 -0.3970 0.0000 22.9316
#
#
#
# Elastic Compliance Matrix: (Units=1/GPa)
#
#
# Indices 1 2 3 4 5 6 
#
# 1 0.009920 -0.004032 -0.003213 0.000000 -0.001405 0.000000
# 2 -0.004032 0.014589 -0.006195 0.000000 -0.001806 0.000000
# 3 -0.003213 -0.006195 0.021962 0.000000 0.003627 0.000000
# 4 0.000000 0.000000 0.000000 0.041554 0.000000 0.000719
# 5 -0.001405 -0.001806 0.003627 0.000000 0.034874 0.000000
# 6 0.000000 0.000000 0.000000 0.000719 0.000000 0.043620
#
#
# Mechanical properties :
#
#
# Convention : Reuss Voigt Hill
#
# Bulk Modulus (GPa) = 51.04504 58.92073 54.98289
# Shear Modulus (GPa) = 25.00866 26.76998 25.88932
#
# Velocity S-wave (km/s) = 3.72221 3.85105 3.78718
# Velocity P-wave (km/s) = 6.83755 7.23991 7.04161
#
# Compressibility (1/GPa) = 0.01959054
#
# Stress axis : x y z
#
# Youngs Moduli (GPa) = 100.80810 68.54372 45.53236
#
# Poissons Ratio (x) = 0.27636 0.14631
# Poissons Ratio (y) = 0.40645 0.28209
# Poissons Ratio (z) = 0.32392 0.42465
#
# Static dielectric constant tensor:
#      x y z
#    x 3.672810 0.000000 0.033110 
#    y 0.000000 3.469450 0.000000 
#    z 0.033110 0.000000 3.232440 
# 
# 
# High freq. dielectric constant tensor:
#      x y z
#    x 1.720680 0.000000 -0.003330 
#    y 0.000000 1.688190 0.000000 
#    z -0.003330 0.000000 1.689110 
# 
# From -- ./inp_files/21192.got.cif
#   From: 2010.06.25/outbox.cif.g09.slc.cpg/sg11_11_cif.got.tgz:21192.got - 2010.06.27 23:14:04.
