data_PCOD8072675
_publ_section_title
;
Structure prediction by ZEFSAII (Michael W. Deem and Ramdas Pophale) SiO2 
 PCOD8072675
Probable space group: P 21/M
;
_chemical_formula_sum "Si O2"
_cell_formula_units_Z 32
_cell_length_a 18.055521
_cell_length_b 14.405999
_cell_length_c 12.515018
_cell_angle_alpha 90.000000
_cell_angle_beta 150.818796
_cell_angle_gamma 90.000000
_cell_volume 1587.174843
_symmetry_space_group_name_H-M "P 21/M"
_symmetry_group_IT_number 11
_symmetry_cell_setting 'monoclinic'
loop_
_space_group_symop_operation_xyz
x,y,z
-x,1/2+y,-z
-x,-y,-z
x,1/2-y,z
loop_
_atom_site_type_symbol
_atom_site_label
_atom_site_fract_x
_atom_site_fract_y
_atom_site_fract_z
Si Si1 0.288855 0.647795 0.656282
Si Si2 0.170599 0.969369 0.698788
Si Si3 0.847641 0.857667 0.848978
Si Si4 0.202535 0.642492 0.314164
Si Si5 0.326259 0.861389 0.076452
Si Si6 0.349605 0.357861 0.597026
Si Si7 0.325105 0.522752 0.281937
Si Si8 0.400372 0.088591 0.894250
O O1 0.216142 0.750000 0.575601
O O2 0.198059 0.580648 0.620590
O O3 0.257336 0.607960 0.498998
O O4 0.471545 0.661308 0.905992
O O5 0.274061 0.063883 0.825603
O O6 0.211274 0.895726 0.841067
O O7 0.000000 0.000000 0.500000
O O8 0.808462 0.750000 0.827456
O O9 0.788706 0.885117 0.655673
O O10 0.767880 0.925395 0.834784
O O11 0.025219 0.876395 0.074573
O O12 0.242507 0.750000 0.346257
O O13 0.296291 0.581048 0.351378
O O14 0.313841 0.750000 0.074999
O O15 0.492962 0.897843 0.252088
O O16 0.276259 0.913041 0.121331
O O17 0.374086 0.250000 0.628695
O O18 0.316723 0.386946 0.677513
O O19 0.500000 0.500000 0.500000
O O20 0.500000 0.000000 0.000000
#
# Coordination Sequence:
#
# PCOD8072675 Si02
#       8
#     4   4   4   4   4   4   4   4
#     4  10  21  41  67  87 122 171 214 261 318 386
#     4  11  25  39  62  96 132 163 209 268 336 394
#     4  10  23  42  63  92 128 171 218 269 324 383
#     4  10  24  43  63  93 129 168 218 266 322 390
#     4  11  23  42  64  92 131 176 219 264 327 395
#     4  10  19  37  65  92 122 165 219 265 311 379
#     4  12  25  37  66  94 131 167 214 269 328 378
#     4  10  20  35  63  88 117 157 216 260 306 378
#
# _framework density 20.16161
#
# number of rings (size 3 to 8) (size 9 to 14) (size 15 to 20)
#    0.000    1.500    3.750    1.500    7.000    1.500 
#    0.000    3.750    0.000    0.000    0.000    0.000 
#    0.000    0.000    0.000    0.000    0.000    0.000 
#
# Total GULP energy -396665.919847 kJ/mol
# GULP energy per Si atom -12395.809995 kJ/mol
# Density = 2.011572 g / cm^3
# Si number density = 20.161610 Si / 1000 Ang^3
#
#
#
# Elastic Constant Matrix: (Units=GPa)
#
#
# Indices 1 2 3 4 5 6 
#
# 1 127.3055 61.6608 72.3505 0.0000 -0.4371 0.0000
# 2 61.6608 75.8345 48.5434 0.0000 -0.2880 0.0000
# 3 72.3505 48.5434 125.3916 0.0000 -6.9291 0.0000
# 4 0.0000 0.0000 0.0000 30.6204 0.0000 -7.6381
# 5 -0.4371 -0.2880 -6.9291 0.0000 40.7866 0.0000
# 6 0.0000 0.0000 0.0000 -7.6381 0.0000 34.0341
#
#
#
# Elastic Compliance Matrix: (Units=1/GPa)
#
#
# Indices 1 2 3 4 5 6 
#
# 1 0.015246 -0.008960 -0.005373 0.000000 -0.000813 0.000000
# 2 -0.008960 0.022841 -0.003704 0.000000 -0.000564 0.000000
# 3 -0.005373 -0.003704 0.012623 0.000000 0.002061 0.000000
# 4 0.000000 0.000000 0.000000 0.034595 0.000000 0.007764
# 5 -0.000813 -0.000564 0.002061 0.000000 0.024855 0.000000
# 6 0.000000 0.000000 0.000000 0.007764 0.000000 0.031125
#
#
# Mechanical properties :
#
#
# Convention : Reuss Voigt Hill
#
# Bulk Modulus (GPa) = 68.32448 77.07121 72.69785
# Shear Modulus (GPa) = 27.43703 30.82001 29.12852
#
# Velocity S-wave (km/s) = 3.69298 3.91403 3.80511
# Velocity P-wave (km/s) = 7.22123 7.66394 7.44587
#
# Compressibility (1/GPa) = 0.01463604
#
# Stress axis : x y z
#
# Youngs Moduli (GPa) = 65.59252 43.78168 79.22147
#
# Poissons Ratio (x) = 0.39228 0.42565
# Poissons Ratio (y) = 0.58771 0.29341
# Poissons Ratio (z) = 0.35242 0.16215
#
# Static dielectric constant tensor:
#      x y z
#    x 3.902740 0.000000 0.197790 
#    y 0.000000 4.944010 0.000000 
#    z 0.197790 0.000000 4.192820 
# 
# 
# High freq. dielectric constant tensor:
#      x y z
#    x 1.772900 0.000000 -0.009700 
#    y 0.000000 1.799890 0.000000 
#    z -0.009700 0.000000 1.790560 
# 
# From -- ./inp_files/41720.got.cif
#   From: 2010.06.25/outbox.cif.g09.slc.cpg/sg11_21_cif.got.tgz:41720.got - 2010.06.27 23:14:04.
