data_PCOD8072331
_publ_section_title
;
Structure prediction by ZEFSAII (Michael W. Deem and Ramdas Pophale) SiO2 
 PCOD8072331
Probable space group: P 21/M
;
_chemical_formula_sum "Si O2"
_cell_formula_units_Z 32
_cell_length_a 20.599379
_cell_length_b 14.692612
_cell_length_c 15.984152
_cell_angle_alpha 90.000000
_cell_angle_beta 161.448231
_cell_angle_gamma 90.000000
_cell_volume 1539.182770
_symmetry_space_group_name_H-M "P 21/M"
_symmetry_group_IT_number 11
_symmetry_cell_setting 'monoclinic'
loop_
_space_group_symop_operation_xyz
x,y,z
-x,1/2+y,-z
-x,-y,-z
x,1/2-y,z
loop_
_atom_site_type_symbol
_atom_site_label
_atom_site_fract_x
_atom_site_fract_y
_atom_site_fract_z
Si Si1 0.238230 0.026990 0.935952
Si Si2 0.661986 0.045397 0.357291
Si Si3 0.483835 0.984575 0.577800
Si Si4 0.816228 0.143020 0.704704
Si Si5 0.724476 0.847132 0.454356
Si Si6 0.745002 0.348601 0.120970
Si Si7 0.844250 0.355616 0.431153
Si Si8 0.218451 0.349980 0.294316
O O1 0.429968 0.044752 0.107573
O O2 0.302551 0.030532 0.112351
O O3 0.068636 0.102410 0.714455
O O4 0.145591 0.927192 0.800031
O O5 0.803298 0.091740 0.600428
O O6 0.679346 0.102814 0.293880
O O7 0.752993 0.944603 0.443758
O O8 0.394927 0.076311 0.507797
O O9 0.500000 0.000000 0.500000
O O10 0.345979 0.896479 0.427466
O O11 0.774824 0.250000 0.642914
O O12 0.038018 0.121306 0.012080
O O13 0.776054 0.750000 0.468763
O O14 0.857584 0.847631 0.702334
O O15 0.488182 0.842384 0.192463
O O16 0.851957 0.250000 0.235906
O O17 0.755526 0.374740 0.231431
O O18 0.866600 0.250000 0.478377
O O19 0.300438 0.250000 0.367787
#
# Coordination Sequence:
#
# PCOD8072331 Si02
#       8
#     4   4   4   4   4   4   4   4
#     4  10  22  40  60  88 117 160 193 245 300 353
#     4  10  21  39  61  85 120 158 189 242 299 348
#     4  11  23  36  55  84 118 152 192 244 293 347
#     4  10  21  36  55  80 114 156 195 236 287 349
#     4   9  17  33  59  85 110 148 194 238 292 348
#     4   9  18  38  62  86 118 152 195 250 299 352
#     4  11  24  38  60  90 117 154 203 245 291 357
#     4  10  19  35  59  81 105 149 196 232 285 350
#
# _framework density 20.790254000000001
#
# number of rings (size 3 to 8) (size 9 to 14) (size 15 to 20)
#    0.000    2.000    3.750    1.125    1.750    5.000 
#    0.000    0.625    0.000    5.250    0.000    0.000 
#    0.000    0.000    0.000    0.000    0.000    0.000 
#
# Total GULP energy -396501.979928 kJ/mol
# GULP energy per Si atom -12390.686873 kJ/mol
# Density = 2.074293 g / cm^3
# Si number density = 20.790254 Si / 1000 Ang^3
#
#
#
# Elastic Constant Matrix: (Units=GPa)
#
#
# Indices 1 2 3 4 5 6 
#
# 1 67.3850 28.2254 20.6996 0.0000 -13.5299 0.0000
# 2 28.2254 147.6311 27.3177 0.0000 -7.2301 0.0000
# 3 20.6996 27.3177 62.5876 0.0000 -11.8705 0.0000
# 4 0.0000 0.0000 0.0000 27.9852 0.0000 -3.5800
# 5 -13.5299 -7.2301 -11.8705 0.0000 19.4352 0.0000
# 6 0.0000 0.0000 0.0000 -3.5800 0.0000 26.5799
#
#
#
# Elastic Compliance Matrix: (Units=1/GPa)
#
#
# Indices 1 2 3 4 5 6 
#
# 1 0.018951 -0.002525 -0.003214 0.000000 0.010291 0.000000
# 2 -0.002525 0.007718 -0.002627 0.000000 -0.000491 0.000000
# 3 -0.003214 -0.002627 0.019880 0.000000 0.008928 0.000000
# 4 0.000000 0.000000 0.000000 0.036360 0.000000 0.004897
# 5 0.010291 -0.000491 0.008928 0.000000 0.063887 0.000000
# 6 0.000000 0.000000 0.000000 0.004897 0.000000 0.038282
#
#
# Mechanical properties :
#
#
# Convention : Reuss Voigt Hill
#
# Bulk Modulus (GPa) = 33.53589 47.78769 40.66179
# Shear Modulus (GPa) = 23.61279 28.22412 25.91845
#
# Velocity S-wave (km/s) = 3.37376 3.68851 3.53464
# Velocity P-wave (km/s) = 5.59839 6.41683 6.02153
#
# Compressibility (1/GPa) = 0.02981880
#
# Stress axis : x y z
#
# Youngs Moduli (GPa) = 52.76747 129.56109 50.30070
#
# Poissons Ratio (x) = 0.32708 0.16167
# Poissons Ratio (y) = 0.13321 0.13214
# Poissons Ratio (z) = 0.16960 0.34035
#
# Static dielectric constant tensor:
#      x y z
#    x 3.633480 0.000000 -0.338000 
#    y 0.000000 4.647020 0.000000 
#    z -0.338000 0.000000 3.696450 
# 
# 
# High freq. dielectric constant tensor:
#      x y z
#    x 1.773810 0.000000 -0.029550 
#    y 0.000000 1.842380 0.000000 
#    z -0.029550 0.000000 1.811430 
# 
# From -- ./inp_files/55048.got.cif
#   From: 2010.06.25/outbox.cif.g09.slc.cpg/sg11_28_cif.got.tgz:55048.got - 2010.06.27 23:14:04.
