data_PCOD8072533
_publ_section_title
;
Structure prediction by ZEFSAII (Michael W. Deem and Ramdas Pophale) SiO2 
 PCOD8072533
Probable space group: P 21/M
;
_chemical_formula_sum "Si O2"
_cell_formula_units_Z 28
_cell_length_a 31.229506
_cell_length_b 8.418204
_cell_length_c 31.242615
_cell_angle_alpha 90.000000
_cell_angle_beta 9.438154
_cell_angle_gamma 90.000000
_cell_volume 1346.884926
_symmetry_space_group_name_H-M "P 21/M"
_symmetry_group_IT_number 11
_symmetry_cell_setting 'monoclinic'
loop_
_space_group_symop_operation_xyz
x,y,z
-x,1/2+y,-z
-x,-y,-z
x,1/2-y,z
loop_
_atom_site_type_symbol
_atom_site_label
_atom_site_fract_x
_atom_site_fract_y
_atom_site_fract_z
Si Si1 0.761952 0.934458 0.261251
Si Si2 0.023202 0.562492 0.569722
Si Si3 0.813802 0.064208 0.303960
Si Si4 0.116401 0.563733 0.572904
Si Si5 0.661259 0.064136 0.173941
Si Si6 0.349082 0.062103 0.909388
Si Si7 0.500103 0.563425 0.952174
O O1 0.758643 0.750000 0.258042
O O2 0.500000 0.000000 0.500000
O O3 0.787196 0.973211 0.285944
O O4 0.000000 0.000000 0.000000
O O5 0.074362 0.750000 0.516076
O O6 0.075403 0.494485 0.565881
O O7 0.217990 0.472923 0.345800
O O8 0.724658 0.525387 0.852651
O O9 0.810254 0.250000 0.297895
O O10 0.579605 0.019197 0.565805
O O11 0.078577 0.017599 0.065999
O O12 0.073706 0.750000 0.612499
O O13 0.401464 0.517421 0.308137
O O14 0.901307 0.497350 0.817965
O O15 0.664480 0.250000 0.181375
O O16 0.634426 0.036657 0.150147
O O17 0.336126 0.250000 0.911945
O O18 0.445865 0.750000 0.005311
O O19 0.500000 0.500000 0.000000
#
# Coordination Sequence:
#
# PCOD8072533 Si02
#       7
#     4   4   4   4   4   4   4
#     4  12  25  44  67  96 130 167 208 257 310 369
#     4  11  22  41  66  93 122 160 205 254 305 364
#     4  12  25  44  67  93 124 167 213 257 308 371
#     4   9  19  35  60  88 118 156 203 248 297 360
#     4  12  25  42  63  94 129 164 205 260 317 366
#     4  10  19  36  60  88 119 160 206 248 294 362
#     4  12  25  42  62  90 124 162 203 252 307 366
#
# _framework density 20.788709000000001
#
# number of rings (size 3 to 8) (size 9 to 14) (size 15 to 20)
#    0.000    0.857    0.000    8.571    0.000    3.429 
#    0.000    4.286    0.000    0.000    0.000    0.000 
#    0.000    0.000    0.000    0.000    0.000    0.000 
#
# Total GULP energy -347387.045784 kJ/mol
# GULP energy per Si atom -12406.680207 kJ/mol
# Density = 2.074139 g / cm^3
# Si number density = 20.788709 Si / 1000 Ang^3
#
#
#
# Elastic Constant Matrix: (Units=GPa)
#
#
# Indices 1 2 3 4 5 6 
#
# 1 110.8367 22.4133 20.5829 0.0000 6.3834 0.0000
# 2 22.4133 101.9169 30.1243 0.0000 1.0104 0.0000
# 3 20.5829 30.1243 125.0562 0.0000 11.0137 0.0000
# 4 0.0000 0.0000 0.0000 33.1880 0.0000 0.7755
# 5 6.3834 1.0104 11.0137 0.0000 52.3843 0.0000
# 6 0.0000 0.0000 0.0000 0.7755 0.0000 30.6158
#
#
#
# Elastic Compliance Matrix: (Units=1/GPa)
#
#
# Indices 1 2 3 4 5 6 
#
# 1 0.009637 -0.001793 -0.001074 0.000000 -0.000914 0.000000
# 2 -0.001793 0.010903 -0.002376 0.000000 0.000508 0.000000
# 3 -0.001074 -0.002376 0.008895 0.000000 -0.001693 0.000000
# 4 0.000000 0.000000 0.000000 0.030149 0.000000 -0.000764
# 5 -0.000914 0.000508 -0.001693 0.000000 0.019547 0.000000
# 6 0.000000 0.000000 0.000000 -0.000764 0.000000 0.032682
#
#
# Mechanical properties :
#
#
# Convention : Reuss Voigt Hill
#
# Bulk Modulus (GPa) = 52.77182 53.78341 53.27762
# Shear Modulus (GPa) = 38.87549 40.88358 39.87953
#
# Velocity S-wave (km/s) = 4.32907 4.43947 4.38462
# Velocity P-wave (km/s) = 7.10125 7.22539 7.16359
#
# Compressibility (1/GPa) = 0.01894951
#
# Stress axis : x y z
#
# Youngs Moduli (GPa) = 103.76804 91.71370 112.42711
#
# Poissons Ratio (x) = 0.16443 0.12072
# Poissons Ratio (y) = 0.18604 0.26714
# Poissons Ratio (z) = 0.11142 0.21792
#
# Static dielectric constant tensor:
#      x y z
#    x 4.028330 0.000000 0.038840 
#    y 0.000000 3.750340 0.000000 
#    z 0.038840 0.000000 4.011840 
# 
# 
# High freq. dielectric constant tensor:
#      x y z
#    x 1.834170 0.000000 0.000670 
#    y 0.000000 1.810250 0.000000 
#    z 0.000670 0.000000 1.835690 
# 
# From -- ./inp_files/73838.got.cif
#   From: 2010.06.25/outbox.cif.g09.slc.cpg/sg11_37_cif.got.tgz:73838.got - 2010.06.27 23:14:04.
