data_PCOD8072887
_publ_section_title
;
Structure prediction by ZEFSAII (Michael W. Deem and Ramdas Pophale) SiO2 
 PCOD8072887
Probable space group: P 21/M
;
_chemical_formula_sum "Si O2"
_cell_formula_units_Z 28
_cell_length_a 22.303688
_cell_length_b 11.479732
_cell_length_c 12.903135
_cell_angle_alpha 90.000000
_cell_angle_beta 152.971938
_cell_angle_gamma 90.000000
_cell_volume 1501.300550
_symmetry_space_group_name_H-M "P 21/M"
_symmetry_group_IT_number 11
_symmetry_cell_setting 'monoclinic'
loop_
_space_group_symop_operation_xyz
x,y,z
-x,1/2+y,-z
-x,-y,-z
x,1/2-y,z
loop_
_atom_site_type_symbol
_atom_site_label
_atom_site_fract_x
_atom_site_fract_y
_atom_site_fract_z
Si Si1 0.817943 0.504094 0.318989
Si Si2 0.727615 0.888297 0.593644
Si Si3 0.569501 0.380579 0.864342
Si Si4 0.916766 0.618785 0.273960
Si Si5 0.884756 0.884667 0.637479
Si Si6 0.832353 0.475491 0.946617
Si Si7 0.581582 0.380429 0.645891
O O1 0.840211 0.600576 0.264410
O O2 0.830413 0.555641 0.451735
O O3 0.927330 0.403921 0.469819
O O4 0.670187 0.455057 0.087430
O O5 0.729260 0.750000 0.603204
O O6 0.577407 0.934843 0.354835
O O7 0.807584 0.936210 0.617812
O O8 0.795961 0.932069 0.803099
O O9 0.567915 0.250000 0.906837
O O10 0.620861 0.381927 0.826077
O O11 0.896474 0.750000 0.206632
O O12 0.856039 0.538263 0.092140
O O13 0.853992 0.750000 0.579857
O O14 0.039737 0.904874 0.892291
O O15 0.713266 0.384835 0.779530
O O16 0.500000 0.500000 0.500000
O O17 0.515142 0.250000 0.520370
#
# Coordination Sequence:
#
# PCOD8072887 Si02
#       7
#     4   4   4   4   4   4   4
#     4  10  20  35  53  80 109 149 189 232 283 342
#     4  10  21  37  58  82 111 149 192 235 285 346
#     4  10  20  36  57  82 114 149 186 229 286 347
#     4  10  20  32  52  82 114 144 184 239 293 341
#     4  10  22  38  56  79 110 151 193 237 285 338
#     4  11  20  36  58  84 112 147 186 237 288 346
#     4  11  22  37  58  88 122 154 190 236 293 352
#
# _framework density 18.650497000000001
#
# number of rings (size 3 to 8) (size 9 to 14) (size 15 to 20)
#    0.000    1.714    2.857    2.143    0.000    1.143 
#    0.000    0.000    0.000    2.571    0.000    0.000 
#    0.000    0.000    0.000    0.000    0.000    0.000 
#
# Total GULP energy -347117.807733 kJ/mol
# GULP energy per Si atom -12397.064562 kJ/mol
# Density = 1.860805 g / cm^3
# Si number density = 18.650497 Si / 1000 Ang^3
#
#
#
# Elastic Constant Matrix: (Units=GPa)
#
#
# Indices 1 2 3 4 5 6 
#
# 1 121.4933 17.2368 42.6056 0.0000 7.0020 0.0000
# 2 17.2368 80.9873 27.4292 0.0000 1.2427 0.0000
# 3 42.6056 27.4292 102.9390 0.0000 3.8307 0.0000
# 4 0.0000 0.0000 0.0000 24.4627 0.0000 -0.9950
# 5 7.0020 1.2427 3.8307 0.0000 23.8788 0.0000
# 6 0.0000 0.0000 0.0000 -0.9950 0.0000 22.6482
#
#
#
# Elastic Compliance Matrix: (Units=1/GPa)
#
#
# Indices 1 2 3 4 5 6 
#
# 1 0.009788 -0.000775 -0.003762 0.000000 -0.002226 0.000000
# 2 -0.000775 0.013634 -0.003314 0.000000 0.000049 0.000000
# 3 -0.003762 -0.003314 0.012180 0.000000 -0.000678 0.000000
# 4 0.000000 0.000000 0.000000 0.040952 0.000000 0.001799
# 5 -0.002226 0.000049 -0.000678 0.000000 0.042637 0.000000
# 6 0.000000 0.000000 0.000000 0.001799 0.000000 0.044233
#
#
# Mechanical properties :
#
#
# Convention : Reuss Voigt Hill
#
# Bulk Modulus (GPa) = 50.25021 53.32920 51.78970
# Shear Modulus (GPa) = 26.91651 28.74116 27.82883
#
# Velocity S-wave (km/s) = 3.80308 3.92987 3.86699
# Velocity P-wave (km/s) = 6.80339 7.01768 6.91137
#
# Compressibility (1/GPa) = 0.01990041
#
# Stress axis : x y z
#
# Youngs Moduli (GPa) = 102.16126 73.34490 82.10279
#
# Poissons Ratio (x) = 0.05684 0.30887
# Poissons Ratio (y) = 0.07918 0.27209
# Poissons Ratio (z) = 0.38433 0.24307
#
# Static dielectric constant tensor:
#      x y z
#    x 3.610210 0.000000 0.161100 
#    y 0.000000 3.361810 0.000000 
#    z 0.161100 0.000000 3.427860 
# 
# 
# High freq. dielectric constant tensor:
#      x y z
#    x 1.726860 0.000000 0.004780 
#    y 0.000000 1.714440 0.000000 
#    z 0.004780 0.000000 1.723680 
# 
# From -- ./inp_files/43190.got.cif
#   From: 2010.06.25/outbox.cif.g09.slc.cpg/sg11_22_cif.got.tgz:43190.got - 2010.06.27 23:14:04.
