data_PCOD8072642
_publ_section_title
;
Structure prediction by ZEFSAII (Michael W. Deem and Ramdas Pophale) SiO2 
 PCOD8072642
Probable space group: P 21/M
;
_chemical_formula_sum "Si O2"
_cell_formula_units_Z 32
_cell_length_a 12.048876
_cell_length_b 11.002673
_cell_length_c 12.261514
_cell_angle_alpha 90.000000
_cell_angle_beta 92.099963
_cell_angle_gamma 90.000000
_cell_volume 1624.415319
_symmetry_space_group_name_H-M "P 21/M"
_symmetry_group_IT_number 11
_symmetry_cell_setting 'monoclinic'
loop_
_space_group_symop_operation_xyz
x,y,z
-x,1/2+y,-z
-x,-y,-z
x,1/2-y,z
loop_
_atom_site_type_symbol
_atom_site_label
_atom_site_fract_x
_atom_site_fract_y
_atom_site_fract_z
Si Si1 0.943809 0.609062 0.564323
Si Si2 0.607242 0.889164 0.306437
Si Si3 0.410069 0.452117 0.248723
Si Si4 0.022055 0.887221 0.811757
Si Si5 0.453395 0.618948 0.936450
Si Si6 0.789756 0.889683 0.891437
Si Si7 0.245621 0.015579 0.878178
Si Si8 0.693091 0.611478 0.532939
O O1 0.956271 0.750000 0.518154
O O2 0.815934 0.565905 0.568137
O O3 0.000000 0.500000 0.500000
O O4 0.998730 0.607027 0.683717
O O5 0.593812 0.750000 0.329592
O O6 0.701456 0.911081 0.219656
O O7 0.644595 0.954653 0.422028
O O8 0.485173 0.928082 0.261826
O O9 0.482016 0.361829 0.175505
O O10 0.293070 0.474730 0.182512
O O11 0.390102 0.402057 0.368817
O O12 0.050503 0.750000 0.848955
O O13 0.914741 0.935038 0.874372
O O14 0.123239 0.974150 0.843125
O O15 0.467226 0.750000 0.999304
O O16 0.323016 0.600028 0.908871
O O17 0.500000 0.500000 0.000000
O O18 0.776264 0.750000 0.850369
O O19 0.760664 0.896585 0.017615
O O20 0.705322 0.750000 0.501802
#
# Coordination Sequence:
#
# PCOD8072642 Si02
#       8
#     4   4   4   4   4   4   4   4
#     4  10  20  36  62  90 119 160 205 252 301 360
#     4  10  23  38  57  88 122 159 196 248 310 361
#     4  11  21  37  60  87 115 154 204 250 290 355
#     4  10  21  38  60  87 119 155 205 253 298 358
#     4  11  23  37  58  86 117 155 199 246 298 354
#     4  11  21  37  61  88 117 159 205 246 296 361
#     4  11  22  38  58  87 121 157 194 248 301 357
#     4  10  19  37  62  85 116 156 203 246 294 361
#
# _framework density 19.699397000000001
#
# number of rings (size 3 to 8) (size 9 to 14) (size 15 to 20)
#    0.000    1.500    2.500    3.375    0.000    2.000 
#    0.000    1.250    0.000    8.250    0.000    0.000 
#    0.000    0.000    0.000    0.000    0.000    0.000 
#
# Total GULP energy -396502.199296 kJ/mol
# GULP energy per Si atom -12390.693728 kJ/mol
# Density = 1.965456 g / cm^3
# Si number density = 19.699397 Si / 1000 Ang^3
#
#
#
# Elastic Constant Matrix: (Units=GPa)
#
#
# Indices 1 2 3 4 5 6 
#
# 1 147.2474 40.8706 45.1019 0.0000 5.3276 0.0000
# 2 40.8706 80.6041 30.3170 0.0000 2.5109 0.0000
# 3 45.1019 30.3170 119.2422 0.0000 -1.1863 0.0000
# 4 0.0000 0.0000 0.0000 22.3250 0.0000 9.1463
# 5 5.3276 2.5109 -1.1863 0.0000 37.0755 0.0000
# 6 0.0000 0.0000 0.0000 9.1463 0.0000 2.5029
#
#
#
# Elastic Compliance Matrix: (Units=1/GPa)
#
#
# Indices 1 2 3 4 5 6 
#
# 1 0.008493 -0.003385 -0.002362 0.000000 -0.001067 0.000000
# 2 -0.003385 0.015107 -0.002567 0.000000 -0.000619 0.000000
# 3 -0.002362 -0.002567 0.009941 0.000000 0.000831 0.000000
# 4 0.000000 0.000000 0.000000 -0.090109 0.000000 0.329280
# 5 -0.001067 -0.000619 0.000831 0.000000 0.027194 0.000000
# 6 0.000000 0.000000 0.000000 0.329280 0.000000 -0.803736
#
#
# Mechanical properties :
#
#
# Convention : Reuss Voigt Hill
#
# Bulk Modulus (GPa) = 59.12613 64.40810 61.76711
# Shear Modulus (GPa) = -6.16641 27.76763 10.80061
#
# Velocity S-wave (km/s) = -1.77117 3.75849 2.34406
# Velocity P-wave (km/s) = 5.08887 7.18342 6.22487
#
# Compressibility (1/GPa) = 0.01691300
#
# Stress axis : x y z
#
# Youngs Moduli (GPa) = 117.74474 66.19335 100.59580
#
# Poissons Ratio (x) = 0.22404 0.23765
# Poissons Ratio (y) = 0.39852 0.25823
# Poissons Ratio (z) = 0.27817 0.16992
#
# Static dielectric constant tensor:
#      x y z
#    x 3.859080 0.000000 0.070990 
#    y 0.000000 3.452790 0.000000 
#    z 0.070990 0.000000 3.783590 
# 
# 
# High freq. dielectric constant tensor:
#      x y z
#    x 1.781480 0.000000 0.001170 
#    y 0.000000 1.739290 0.000000 
#    z 0.001170 0.000000 1.777540 
# 
# From -- ./inp_files/34784.got.cif
#   From: 2010.06.25/outbox.cif.g09.slc.cpg/sg11_18_cif.got.tgz:34784.got - 2010.06.27 23:14:04.
