data_PCOD8072193
_publ_section_title
;
Structure prediction by ZEFSAII (Michael W. Deem and Ramdas Pophale) SiO2 
 PCOD8072193
Probable space group: P 21/M
;
_chemical_formula_sum "Si O2"
_cell_formula_units_Z 24
_cell_length_a 18.182325
_cell_length_b 8.786896
_cell_length_c 24.113513
_cell_angle_alpha 90.000000
_cell_angle_beta 19.176854
_cell_angle_gamma 90.000000
_cell_volume 1265.496897
_symmetry_space_group_name_H-M "P 21/M"
_symmetry_group_IT_number 11
_symmetry_cell_setting 'monoclinic'
loop_
_space_group_symop_operation_xyz
x,y,z
-x,1/2+y,-z
-x,-y,-z
x,1/2-y,z
loop_
_atom_site_type_symbol
_atom_site_label
_atom_site_fract_x
_atom_site_fract_y
_atom_site_fract_z
Si Si1 0.344706 0.930511 0.996051
Si Si2 0.151552 0.069115 0.344455
Si Si3 0.012008 0.931580 0.328006
Si Si4 0.482634 0.071725 0.340096
Si Si5 0.142538 0.928404 0.849750
Si Si6 0.185163 0.930805 0.991221
O O1 0.341095 0.750000 0.996925
O O2 0.190002 0.990419 0.156106
O O3 0.595726 0.990181 0.826503
O O4 0.249499 0.994454 0.005832
O O5 0.138188 0.250000 0.356308
O O6 0.065977 0.009780 0.347108
O O7 0.000000 0.000000 0.500000
O O8 0.019209 0.750000 0.329767
O O9 0.768742 0.992697 0.481686
O O10 0.470459 0.250000 0.338818
O O11 0.598407 0.036442 0.317628
O O12 0.629614 0.005955 0.184217
O O13 0.098394 0.750000 0.878035
O O14 0.000000 0.000000 0.000000
O O15 0.061620 0.004978 0.849835
O O16 0.171182 0.750000 0.000636
#
# Coordination Sequence:
#
# PCOD8072193 Si02
#       6
#     4   4   4   4   4   4
#     4   9  19  34  54  76 103 136 169 202 250 308
#     4  11  22  37  55  78 103 131 167 210 252 298
#     4  10  19  35  56  77 101 135 170 205 249 302
#     4   8  15  28  49  71  97 131 167 202 246 297
#     4   9  16  28  46  71  98 128 164 208 252 292
#     4   9  16  30  49  71  97 131 170 207 242 291
#
# _framework density 18.964880999999998
#
# number of rings (size 3 to 8) (size 9 to 14) (size 15 to 20)
#    0.000    2.667    0.000    3.500    0.000    2.667 
#    0.000   11.667    0.000    0.000    0.000    0.000 
#    0.000    0.000    0.000    0.000    0.000    0.000 
#
# Total GULP energy -297454.623258 kJ/mol
# GULP energy per Si atom -12393.942636 kJ/mol
# Density = 1.892172 g / cm^3
# Si number density = 18.964881 Si / 1000 Ang^3
#
#
#
# Elastic Constant Matrix: (Units=GPa)
#
#
# Indices 1 2 3 4 5 6 
#
# 1 144.7274 30.8468 111.9431 0.0000 -33.6606 0.0000
# 2 30.8468 40.3403 32.3716 0.0000 -8.0843 0.0000
# 3 111.9431 32.3716 144.6152 0.0000 -10.1017 0.0000
# 4 0.0000 0.0000 0.0000 18.5112 0.0000 -3.7526
# 5 -33.6606 -8.0843 -10.1017 0.0000 34.2609 0.0000
# 6 0.0000 0.0000 0.0000 -3.7526 0.0000 31.9214
#
#
#
# Elastic Compliance Matrix: (Units=1/GPa)
#
#
# Indices 1 2 3 4 5 6 
#
# 1 0.026232 -0.001066 -0.018669 0.000000 0.020016 0.000000
# 2 -0.001066 0.031212 -0.005840 0.000000 0.004595 0.000000
# 3 -0.018669 -0.005840 0.021743 0.000000 -0.013308 0.000000
# 4 0.000000 0.000000 0.000000 0.055340 0.000000 0.006506
# 5 0.020016 0.004595 -0.013308 0.000000 0.046013 0.000000
# 6 0.000000 0.000000 0.000000 0.006506 0.000000 0.032092
#
#
# Mechanical properties :
#
#
# Convention : Reuss Voigt Hill
#
# Bulk Modulus (GPa) = 35.66723 75.55621 55.61172
# Shear Modulus (GPa) = 18.30637 27.24012 22.77325
#
# Velocity S-wave (km/s) = 3.11026 3.79403 3.46903
# Velocity P-wave (km/s) = 5.63437 7.68891 6.74038
#
# Compressibility (1/GPa) = 0.02803694
#
# Stress axis : x y z
#
# Youngs Moduli (GPa) = 38.12164 32.03892 45.99086
#
# Poissons Ratio (x) = 0.03417 0.85858
# Poissons Ratio (y) = 0.04065 0.26860
# Poissons Ratio (z) = 0.71167 0.18712
#
# Static dielectric constant tensor:
#      x y z
#    x 3.806740 0.000000 -0.365510 
#    y 0.000000 3.303610 0.000000 
#    z -0.365510 0.000000 3.737330 
# 
# 
# High freq. dielectric constant tensor:
#      x y z
#    x 1.751920 0.000000 -0.021300 
#    y 0.000000 1.703320 0.000000 
#    z -0.021300 0.000000 1.728440 
# 
# From -- ./inp_files/20639.got.cif
#   From: 2010.06.25/outbox.cif.g09.slc.cpg/sg11_11_cif.got.tgz:20639.got - 2010.06.27 23:14:04.
