data_PCOD8072945
_publ_section_title
;
Structure prediction by ZEFSAII (Michael W. Deem and Ramdas Pophale) SiO2 
 PCOD8072945
Probable space group: P 21/M
;
_chemical_formula_sum "Si O2"
_cell_formula_units_Z 32
_cell_length_a 15.664872
_cell_length_b 8.878036
_cell_length_c 14.117522
_cell_angle_alpha 90.000000
_cell_angle_beta 89.039186
_cell_angle_gamma 90.000000
_cell_volume 1963.094283
_symmetry_space_group_name_H-M "P 21/M"
_symmetry_group_IT_number 11
_symmetry_cell_setting 'monoclinic'
loop_
_space_group_symop_operation_xyz
x,y,z
-x,1/2+y,-z
-x,-y,-z
x,1/2-y,z
loop_
_atom_site_type_symbol
_atom_site_label
_atom_site_fract_x
_atom_site_fract_y
_atom_site_fract_z
Si Si1 0.665997 0.424948 0.273281
Si Si2 0.345683 0.571095 0.287216
Si Si3 0.997983 0.926083 0.398145
Si Si4 0.585713 0.924358 0.105020
Si Si5 0.815900 0.426110 0.597325
Si Si6 0.168531 0.572026 0.616100
Si Si7 0.405754 0.076040 0.108930
Si Si8 0.500324 0.926314 0.602283
O O1 0.668549 0.250000 0.245395
O O2 0.656597 0.523030 0.178400
O O3 0.754219 0.478338 0.318582
O O4 0.590866 0.458110 0.348717
O O5 0.350724 0.750000 0.292505
O O6 0.260641 0.504908 0.338938
O O7 0.343132 0.518574 0.177865
O O8 0.428097 0.501956 0.335055
O O9 0.980888 0.750000 0.407838
O O10 0.092572 0.957662 0.352689
O O11 0.919860 0.000694 0.341192
O O12 0.000000 0.000000 0.500000
O O13 0.561558 0.750000 0.120485
O O14 0.502560 0.024407 0.123525
O O15 0.622626 0.951238 0.998907
O O16 0.799337 0.250000 0.588848
O O17 0.813893 0.491750 0.490317
O O18 0.157415 0.750000 0.614462
O O19 0.400712 0.250000 0.137911
O O20 0.518846 0.750000 0.592316
O O21 0.500000 0.000000 0.500000
#
# Coordination Sequence:
#
# PCOD8072945 Si02
#       8
#     4   4   4   4   4   4   4   4
#     4  10  20  33  49  68  97 129 158 195 242 282
#     4  11  20  32  50  71  93 125 163 197 234 285
#     4   9  16  29  47  67  92 123 156 197 237 276
#     4  10  20  33  51  70  91 122 161 200 238 284
#     4   8  16  30  47  67  95 126 157 190 234 281
#     4   9  17  31  48  68  95 128 158 192 234 281
#     4  10  20  34  49  69  95 122 155 200 247 283
#     4  11  22  34  46  64  94 132 164 195 229 274
#
# _framework density 16.300796999999999
#
# number of rings (size 3 to 8) (size 9 to 14) (size 15 to 20)
#    0.000    2.250    1.250    3.375    0.000    4.500 
#    0.000    8.750    0.000    0.000    0.000    0.875 
#    0.000    0.000    0.000    0.000    0.000    0.000 
#
# Total GULP energy -396701.569681 kJ/mol
# GULP energy per Si atom -12396.924053 kJ/mol
# Density = 1.626370 g / cm^3
# Si number density = 16.300797 Si / 1000 Ang^3
#
#
#
# Elastic Constant Matrix: (Units=GPa)
#
#
# Indices 1 2 3 4 5 6 
#
# 1 108.0213 40.8509 43.1565 0.0000 16.0287 0.0000
# 2 40.8509 64.6409 36.4678 0.0000 4.8217 0.0000
# 3 43.1565 36.4678 90.2304 0.0000 10.0326 0.0000
# 4 0.0000 0.0000 0.0000 26.8811 0.0000 2.2395
# 5 16.0287 4.8217 10.0326 0.0000 15.2238 0.0000
# 6 0.0000 0.0000 0.0000 2.2395 0.0000 24.8516
#
#
#
# Elastic Compliance Matrix: (Units=1/GPa)
#
#
# Indices 1 2 3 4 5 6 
#
# 1 0.014702 -0.006723 -0.003054 0.000000 -0.011338 0.000000
# 2 -0.006723 0.023130 -0.006588 0.000000 0.004094 0.000000
# 3 -0.003054 -0.006588 0.015772 0.000000 -0.005092 0.000000
# 4 0.000000 0.000000 0.000000 0.037482 0.000000 -0.003378
# 5 -0.011338 0.004094 -0.005092 0.000000 0.079683 0.000000
# 6 0.000000 0.000000 0.000000 -0.003378 0.000000 0.040543
#
#
# Mechanical properties :
#
#
# Convention : Reuss Voigt Hill
#
# Bulk Modulus (GPa) = 47.90509 55.98256 51.94383
# Shear Modulus (GPa) = 19.92020 22.88578 21.40299
#
# Velocity S-wave (km/s) = 3.49956 3.75102 3.62747
# Velocity P-wave (km/s) = 6.76618 7.29234 7.03418
#
# Compressibility (1/GPa) = 0.02087461
#
# Stress axis : x y z
#
# Youngs Moduli (GPa) = 68.01629 43.23408 63.40163
#
# Poissons Ratio (x) = 0.29064 0.19365
# Poissons Ratio (y) = 0.45724 0.41770
# Poissons Ratio (z) = 0.20775 0.28483
#
# Static dielectric constant tensor:
#      x y z
#    x 3.332220 0.000000 0.016680 
#    y 0.000000 3.135140 0.000000 
#    z 0.016680 0.000000 2.933150 
# 
# 
# High freq. dielectric constant tensor:
#      x y z
#    x 1.619170 0.000000 0.002540 
#    y 0.000000 1.629780 0.000000 
#    z 0.002540 0.000000 1.606580 
# 
# From -- ./inp_files/51344.got.cif
#   From: 2010.06.25/outbox.cif.g09.slc.cpg/sg11_26_cif.got.tgz:51344.got - 2010.06.27 23:14:04.
