data_PCOD8072631
_publ_section_title
;
Structure prediction by ZEFSAII (Michael W. Deem and Ramdas Pophale) SiO2 
 PCOD8072631
Probable space group: P 21/M
;
_chemical_formula_sum "Si O2"
_cell_formula_units_Z 32
_cell_length_a 8.974431
_cell_length_b 14.185915
_cell_length_c 21.758974
_cell_angle_alpha 90.000000
_cell_angle_beta 32.266798
_cell_angle_gamma 90.000000
_cell_volume 1478.877016
_symmetry_space_group_name_H-M "P 21/M"
_symmetry_group_IT_number 11
_symmetry_cell_setting 'monoclinic'
loop_
_space_group_symop_operation_xyz
x,y,z
-x,1/2+y,-z
-x,-y,-z
x,1/2-y,z
loop_
_atom_site_type_symbol
_atom_site_label
_atom_site_fract_x
_atom_site_fract_y
_atom_site_fract_z
Si Si1 0.044999 0.392245 0.498543
Si Si2 0.587246 0.645895 0.268896
Si Si3 0.035037 0.646058 0.803970
Si Si4 0.071587 0.139620 0.620729
Si Si5 0.481624 0.039344 0.823568
Si Si6 0.490248 0.082137 0.954995
Si Si7 0.525948 0.146842 0.244142
Si Si8 0.106181 0.446701 0.728388
O O1 0.223432 0.347790 0.381851
O O2 0.000000 0.500000 0.500000
O O3 0.745956 0.342502 0.609035
O O4 0.215419 0.375214 0.503683
O O5 0.720536 0.750000 0.225526
O O6 0.685005 0.597848 0.170661
O O7 0.692134 0.580280 0.286964
O O8 0.104725 0.750000 0.750760
O O9 0.246265 0.619353 0.784572
O O10 0.051990 0.560501 0.748186
O O11 0.723955 0.657324 0.941695
O O12 0.023761 0.250000 0.651440
O O13 0.790301 0.079768 0.714627
O O14 0.245140 0.089237 0.615662
O O15 0.357847 0.051715 0.935003
O O16 0.474970 0.928528 0.810238
O O17 0.813673 0.113174 0.834740
O O18 0.500000 0.000000 0.000000
O O19 0.588364 0.250000 0.193864
#
# Coordination Sequence:
#
# PCOD8072631 Si02
#       8
#     4   4   4   4   4   4   4   4
#     4  11  19  37  62  86 119 165 201 250 298 349
#     4  11  21  35  59  92 123 152 203 256 299 352
#     4  10  21  39  62  88 119 161 201 243 297 365
#     4  10  20  35  60  88 120 159 202 243 301 361
#     4  10  19  37  61  87 117 150 201 251 303 351
#     4   9  21  39  63  82 115 156 198 244 304 357
#     4  11  21  37  61  88 121 160 202 247 299 356
#     4  10  20  40  60  91 123 157 196 258 302 354
#
# _framework density 21.63804
#
# number of rings (size 3 to 8) (size 9 to 14) (size 15 to 20)
#    0.000    1.750    3.750    2.625    0.000    3.500 
#    0.000    8.125    0.000    2.250    0.000    0.000 
#    0.000    0.000    0.000    0.000    0.000    0.000 
#
# Total GULP energy -396445.841653 kJ/mol
# GULP energy per Si atom -12388.932552 kJ/mol
# Density = 2.158879 g / cm^3
# Si number density = 21.638040 Si / 1000 Ang^3
#
#
#
# Elastic Constant Matrix: (Units=GPa)
#
#
# Indices 1 2 3 4 5 6 
#
# 1 93.6201 26.5427 9.6613 0.0000 20.0853 0.0000
# 2 26.5427 151.5724 5.2064 0.0000 15.5200 0.0000
# 3 9.6613 5.2064 32.2555 0.0000 3.9176 0.0000
# 4 0.0000 0.0000 0.0000 19.9390 0.0000 -0.6791
# 5 20.0853 15.5200 3.9176 0.0000 31.3830 0.0000
# 6 0.0000 0.0000 0.0000 -0.6791 0.0000 21.5332
#
#
#
# Elastic Compliance Matrix: (Units=1/GPa)
#
#
# Indices 1 2 3 4 5 6 
#
# 1 0.012920 -0.001429 -0.002763 0.000000 -0.007218 0.000000
# 2 -0.001429 0.007124 -0.000411 0.000000 -0.002557 0.000000
# 3 -0.002763 -0.000411 0.032144 0.000000 -0.002041 0.000000
# 4 0.000000 0.000000 0.000000 0.050207 0.000000 0.001584
# 5 -0.007218 -0.002557 -0.002041 0.000000 0.038003 0.000000
# 6 0.000000 0.000000 0.000000 0.001584 0.000000 0.046490
#
#
# Mechanical properties :
#
#
# Convention : Reuss Voigt Hill
#
# Bulk Modulus (GPa) = 23.26516 40.02988 31.64752
# Shear Modulus (GPa) = 23.76196 30.30688 27.03442
#
# Velocity S-wave (km/s) = 3.31744 3.74656 3.53851
# Velocity P-wave (km/s) = 5.04472 6.10373 5.59932
#
# Compressibility (1/GPa) = 0.04298272
#
# Stress axis : x y z
#
# Youngs Moduli (GPa) = 77.39918 140.37743 31.10981
#
# Poissons Ratio (x) = 0.20054 0.08595
# Poissons Ratio (y) = 0.11057 0.01280
# Poissons Ratio (z) = 0.21383 0.05775
#
# Static dielectric constant tensor:
#      x y z
#    x 4.289050 0.000000 0.263280 
#    y 0.000000 3.923870 0.000000 
#    z 0.263280 0.000000 4.592050 
# 
# 
# High freq. dielectric constant tensor:
#      x y z
#    x 1.844170 0.000000 0.008540 
#    y 0.000000 1.856280 0.000000 
#    z 0.008540 0.000000 1.825160 
# 
# From -- ./inp_files/63809.got.cif
#   From: 2010.06.25/outbox.cif.g09.slc.cpg/sg11_32_cif.got.tgz:63809.got - 2010.06.27 23:14:04.
