data_PCOD8072661
_publ_section_title
;
Structure prediction by ZEFSAII (Michael W. Deem and Ramdas Pophale) SiO2 
 PCOD8072661
Probable space group: P 21/M
;
_chemical_formula_sum "Si O2"
_cell_formula_units_Z 28
_cell_length_a 15.203948
_cell_length_b 11.537424
_cell_length_c 8.469541
_cell_angle_alpha 90.000000
_cell_angle_beta 115.610298
_cell_angle_gamma 90.000000
_cell_volume 1339.718612
_symmetry_space_group_name_H-M "P 21/M"
_symmetry_group_IT_number 11
_symmetry_cell_setting 'monoclinic'
loop_
_space_group_symop_operation_xyz
x,y,z
-x,1/2+y,-z
-x,-y,-z
x,1/2-y,z
loop_
_atom_site_type_symbol
_atom_site_label
_atom_site_fract_x
_atom_site_fract_y
_atom_site_fract_z
Si Si1 0.737669 0.384125 0.918913
Si Si2 0.250316 0.378714 0.681515
Si Si3 0.409308 0.041224 0.028504
Si Si4 0.066163 0.626282 0.386733
Si Si5 0.097833 0.962039 0.737282
Si Si6 0.516222 0.119586 0.410499
Si Si7 0.272108 0.552947 0.434765
O O1 0.718495 0.250000 0.861992
O O2 0.653653 0.428178 0.971070
O O3 0.732921 0.462873 0.758216
O O4 0.844181 0.396906 0.079858
O O5 0.214895 0.250000 0.621129
O O6 0.162874 0.442520 0.700539
O O7 0.274912 0.431002 0.528401
O O8 0.344815 0.377393 0.866842
O O9 0.444646 0.114086 0.206146
O O10 0.500000 0.000000 0.000000
O O11 0.024136 0.750000 0.298082
O O12 0.063254 0.626391 0.575773
O O13 0.177292 0.622241 0.415450
O O14 0.997579 0.525067 0.262018
O O15 0.497276 0.250000 0.474500
O O16 0.628972 0.121030 0.443071
O O17 0.500000 0.000000 0.500000
#
# Coordination Sequence:
#
# PCOD8072661 Si02
#       7
#     4   4   4   4   4   4   4
#     4  11  23  41  63  90 127 164 204 257 312 374
#     4  10  21  40  61  86 125 163 206 262 310 363
#     4  11  23  42  60  94 120 162 212 261 311 370
#     4  10  19  37  63  88 119 159 201 255 306 364
#     4   9  21  37  60  92 121 155 209 249 309 372
#     4  12  25  43  65  93 129 170 211 259 315 377
#     4  11  23  40  61  92 123 162 210 250 308 373
#
# _framework density 20.899913000000002
#
# number of rings (size 3 to 8) (size 9 to 14) (size 15 to 20)
#    0.000    1.429    2.857    2.571    0.000    2.286 
#    0.000    2.143    0.000    0.000    0.000    0.000 
#    0.000    0.000    0.000    0.000    0.000    0.000 
#
# Total GULP energy -346999.809982 kJ/mol
# GULP energy per Si atom -12392.850357 kJ/mol
# Density = 2.085234 g / cm^3
# Si number density = 20.899913 Si / 1000 Ang^3
#
#
#
# Elastic Constant Matrix: (Units=GPa)
#
#
# Indices 1 2 3 4 5 6 
#
# 1 96.5977 33.1014 16.5833 0.0000 11.0948 0.0000
# 2 33.1014 127.2049 21.7986 0.0000 -9.1980 0.0000
# 3 16.5833 21.7986 101.5403 0.0000 2.5088 0.0000
# 4 0.0000 0.0000 0.0000 20.9625 0.0000 -2.7425
# 5 11.0948 -9.1980 2.5088 0.0000 34.1270 0.0000
# 6 0.0000 0.0000 0.0000 -2.7425 0.0000 11.1314
#
#
#
# Elastic Compliance Matrix: (Units=1/GPa)
#
#
# Indices 1 2 3 4 5 6 
#
# 1 0.012245 -0.003333 -0.001166 0.000000 -0.004794 0.000000
# 2 -0.003333 0.009259 -0.001534 0.000000 0.003692 0.000000
# 3 -0.001166 -0.001534 0.010388 0.000000 -0.000798 0.000000
# 4 0.000000 0.000000 0.000000 0.049293 0.000000 0.012145
# 5 -0.004794 0.003692 -0.000798 0.000000 0.031914 0.000000
# 6 0.000000 0.000000 0.000000 0.012145 0.000000 0.092828
#
#
# Mechanical properties :
#
#
# Convention : Reuss Voigt Hill
#
# Bulk Modulus (GPa) = 50.44268 52.03439 51.23854
# Shear Modulus (GPa) = 22.26157 30.16817 26.21487
#
# Velocity S-wave (km/s) = 3.26721 3.80341 3.54546
# Velocity P-wave (km/s) = 6.19844 6.65123 6.42882
#
# Compressibility (1/GPa) = 0.01982448
#
# Stress axis : x y z
#
# Youngs Moduli (GPa) = 81.66492 108.00731 96.26633
#
# Poissons Ratio (x) = 0.36002 0.11223
# Poissons Ratio (y) = 0.27221 0.14772
# Poissons Ratio (z) = 0.09521 0.16573
#
# Static dielectric constant tensor:
#      x y z
#    x 3.909990 0.000000 0.421260 
#    y 0.000000 3.891960 0.000000 
#    z 0.421260 0.000000 4.618110 
# 
# 
# High freq. dielectric constant tensor:
#      x y z
#    x 1.817480 0.000000 0.019240 
#    y 0.000000 1.811010 0.000000 
#    z 0.019240 0.000000 1.818300 
# 
# From -- ./inp_files/21627.got.cif
#   From: 2010.06.25/outbox.cif.g09.slc.cpg/sg11_11_cif.got.tgz:21627.got - 2010.06.27 23:14:04.
