data_PCOD8072960
_publ_section_title
;
Structure prediction by ZEFSAII (Michael W. Deem and Ramdas Pophale) SiO2 
 PCOD8072960
Probable space group: P 21/M
;
_chemical_formula_sum "Si O2"
_cell_formula_units_Z 28
_cell_length_a 20.235783
_cell_length_b 8.817049
_cell_length_c 17.060367
_cell_angle_alpha 90.000000
_cell_angle_beta 151.873376
_cell_angle_gamma 90.000000
_cell_volume 1434.964768
_symmetry_space_group_name_H-M "P 21/M"
_symmetry_group_IT_number 11
_symmetry_cell_setting 'monoclinic'
loop_
_space_group_symop_operation_xyz
x,y,z
-x,1/2+y,-z
-x,-y,-z
x,1/2-y,z
loop_
_atom_site_type_symbol
_atom_site_label
_atom_site_fract_x
_atom_site_fract_y
_atom_site_fract_z
Si Si1 0.143487 0.426276 0.128798
Si Si2 0.949919 0.429423 0.367290
Si Si3 0.877052 0.074784 0.590892
Si Si4 0.855365 0.576420 0.038248
Si Si5 0.420417 0.927678 0.658921
Si Si6 0.296054 0.071730 0.971051
Si Si7 0.572636 0.927086 0.500171
O O1 0.114262 0.250000 0.086507
O O2 0.261245 0.457615 0.316420
O O3 0.187249 0.496389 0.089714
O O4 0.000000 0.500000 0.000000
O O5 0.951953 0.250000 0.374771
O O6 0.788223 0.484718 0.185365
O O7 0.000000 0.500000 0.500000
O O8 0.058066 0.481982 0.413234
O O9 0.863889 0.250000 0.550806
O O10 0.725670 0.008744 0.458972
O O11 0.978255 0.058093 0.772011
O O12 0.808148 0.750000 0.989200
O O13 0.767730 0.499894 0.015891
O O14 0.407901 0.750000 0.628325
O O15 0.467748 0.002545 0.626017
O O16 0.537320 0.960129 0.848815
O O17 0.263835 0.250000 0.927126
O O18 0.536396 0.750000 0.461971
O O19 0.500000 0.000000 0.500000
#
# Coordination Sequence:
#
# PCOD8072960 Si02
#       7
#     4   4   4   4   4   4   4
#     4  10  20  33  49  72 101 137 181 230 279 325
#     4  11  22  38  61  87 114 144 179 220 266 321
#     4   9  18  34  57  84 111 144 183 224 274 331
#     4   8  14  28  49  69  97 136 177 217 260 314
#     4  10  20  36  59  83 111 147 185 226 278 334
#     4   9  18  35  58  82 107 139 179 221 267 324
#     4  11  23  36  52  77 111 149 192 238 284 331
#
# _framework density 19.512674000000001
#
# number of rings (size 3 to 8) (size 9 to 14) (size 15 to 20)
#    0.000    2.286    0.000    4.286    0.000    5.714 
#    0.000    5.000    0.000    0.000    0.000    0.000 
#    0.000    0.000    0.000    0.000    0.000    0.000 
#
# Total GULP energy -346988.823694 kJ/mol
# GULP energy per Si atom -12392.457989 kJ/mol
# Density = 1.946826 g / cm^3
# Si number density = 19.512674 Si / 1000 Ang^3
#
#
#
# Elastic Constant Matrix: (Units=GPa)
#
#
# Indices 1 2 3 4 5 6 
#
# 1 55.4740 27.1267 26.0880 0.0000 -6.4050 0.0000
# 2 27.1267 81.3702 38.0498 0.0000 -5.2012 0.0000
# 3 26.0880 38.0498 99.8642 0.0000 -6.2875 0.0000
# 4 0.0000 0.0000 0.0000 26.5240 0.0000 -1.2345
# 5 -6.4050 -5.2012 -6.2875 0.0000 38.4072 0.0000
# 6 0.0000 0.0000 0.0000 -1.2345 0.0000 28.3879
#
#
#
# Elastic Compliance Matrix: (Units=1/GPa)
#
#
# Indices 1 2 3 4 5 6 
#
# 1 0.022825 -0.005764 -0.003613 0.000000 0.002434 0.000000
# 2 -0.005764 0.016456 -0.004733 0.000000 0.000492 0.000000
# 3 -0.003613 -0.004733 0.012815 0.000000 0.000854 0.000000
# 4 0.000000 0.000000 0.000000 0.037778 0.000000 0.001643
# 5 0.002434 0.000492 0.000854 0.000000 0.026649 0.000000
# 6 0.000000 0.000000 0.000000 0.001643 0.000000 0.035298
#
#
# Mechanical properties :
#
#
# Convention : Reuss Voigt Hill
#
# Bulk Modulus (GPa) = 41.88512 46.58191 44.23352
# Shear Modulus (GPa) = 26.59565 28.36009 27.47787
#
# Velocity S-wave (km/s) = 3.69588 3.81651 3.75668
# Velocity P-wave (km/s) = 6.30277 6.58373 6.44478
#
# Compressibility (1/GPa) = 0.02387483
#
# Stress axis : x y z
#
# Youngs Moduli (GPa) = 43.81074 60.76849 78.03537
#
# Poissons Ratio (x) = 0.35028 0.28196
# Poissons Ratio (y) = 0.25253 0.36935
# Poissons Ratio (z) = 0.15830 0.28763
#
# Static dielectric constant tensor:
#      x y z
#    x 3.648490 0.000000 -0.064600 
#    y 0.000000 -0.156420 0.000000 
#    z -0.064600 0.000000 3.878810 
# 
# 
# High freq. dielectric constant tensor:
#      x y z
#    x 1.743870 0.000000 0.002260 
#    y 0.000000 1.735890 0.000000 
#    z 0.002260 0.000000 1.774820 
# 
# From -- ./inp_files/61292.got.cif
#   From: 2010.06.25/outbox.cif.g09.slc.cpg/sg11_31_cif.got.tgz:61292.got - 2010.06.27 23:14:04.
