data_PCOD8072897
_publ_section_title
;
Structure prediction by ZEFSAII (Michael W. Deem and Ramdas Pophale) SiO2 
 PCOD8072897
Probable space group: P 21/M
;
_chemical_formula_sum "Si O2"
_cell_formula_units_Z 32
_cell_length_a 15.311929
_cell_length_b 8.878105
_cell_length_c 22.314044
_cell_angle_alpha 90.000000
_cell_angle_beta 147.676925
_cell_angle_gamma 90.000000
_cell_volume 1621.932372
_symmetry_space_group_name_H-M "P 21/M"
_symmetry_group_IT_number 11
_symmetry_cell_setting 'monoclinic'
loop_
_space_group_symop_operation_xyz
x,y,z
-x,1/2+y,-z
-x,-y,-z
x,1/2-y,z
loop_
_atom_site_type_symbol
_atom_site_label
_atom_site_fract_x
_atom_site_fract_y
_atom_site_fract_z
Si Si1 0.884438 0.072203 0.292660
Si Si2 0.001081 0.072830 0.875252
Si Si3 0.658252 0.573637 0.245979
Si Si4 0.273963 0.424700 0.209270
Si Si5 0.682901 0.427757 0.893311
Si Si6 0.920505 0.074389 0.694888
Si Si7 0.815302 0.927256 0.456318
Si Si8 0.375237 0.577491 0.556105
O O1 0.876716 0.250000 0.283918
O O2 0.017126 0.011215 0.418068
O O3 0.709452 0.010003 0.213982
O O4 0.934797 0.009900 0.256902
O O5 0.036892 0.250000 0.901867
O O6 0.927904 0.028320 0.768365
O O7 0.872456 0.025614 0.851219
O O8 0.164968 0.977980 0.978316
O O9 0.672935 0.750000 0.243026
O O10 0.475929 0.529633 0.159722
O O11 0.784953 0.517182 0.371038
O O12 0.220262 0.250000 0.175830
O O13 0.317604 0.478883 0.168185
O O14 0.431853 0.445828 0.344509
O O15 0.688797 0.250000 0.882741
O O16 0.951933 0.250000 0.704322
O O17 0.739749 0.026555 0.566213
O O18 0.812442 0.750000 0.456375
O O19 0.663543 0.980801 0.407933
O O20 0.337881 0.750000 0.550266
#
# Coordination Sequence:
#
# PCOD8072897 Si02
#       8
#     4   4   4   4   4   4   4   4
#     4  10  20  32  54  85 115 147 185 230 275 331
#     4  11  24  41  61  82 109 150 194 236 282 334
#     4  10  20  34  54  80 113 150 185 225 279 338
#     4  11  22  37  60  89 118 145 182 232 285 340
#     4  11  23  40  61  84 114 149 189 236 282 331
#     4   9  20  40  60  80 113 153 191 230 278 332
#     4   9  17  31  50  79 116 150 183 221 276 333
#     4   9  18  33  56  85 115 148 183 226 278 333
#
# _framework density 19.729552999999999
#
# number of rings (size 3 to 8) (size 9 to 14) (size 15 to 20)
#    0.000    2.000    1.250    2.250    0.000    4.000 
#    0.000    0.625    0.000    0.000    0.000    0.000 
#    0.000    0.000    0.000    0.000    0.000    0.000 
#
# Total GULP energy -396752.495418 kJ/mol
# GULP energy per Si atom -12398.515482 kJ/mol
# Density = 1.968465 g / cm^3
# Si number density = 19.729553 Si / 1000 Ang^3
#
#
#
# Elastic Constant Matrix: (Units=GPa)
#
#
# Indices 1 2 3 4 5 6 
#
# 1 65.6316 29.1546 34.2054 0.0000 13.7691 0.0000
# 2 29.1546 32.3356 23.5080 0.0000 4.2324 0.0000
# 3 34.2054 23.5080 68.1971 0.0000 3.8261 0.0000
# 4 0.0000 0.0000 0.0000 24.8656 0.0000 1.5018
# 5 13.7691 4.2324 3.8261 0.0000 27.6516 0.0000
# 6 0.0000 0.0000 0.0000 1.5018 0.0000 31.2508
#
#
#
# Elastic Compliance Matrix: (Units=1/GPa)
#
#
# Indices 1 2 3 4 5 6 
#
# 1 0.030755 -0.020705 -0.007667 0.000000 -0.011085 0.000000
# 2 -0.020705 0.055740 -0.008999 0.000000 0.003024 0.000000
# 3 -0.007667 -0.008999 0.021486 0.000000 0.002222 0.000000
# 4 0.000000 0.000000 0.000000 0.040333 0.000000 -0.001938
# 5 -0.011085 0.003024 0.002222 0.000000 0.040914 0.000000
# 6 0.000000 0.000000 0.000000 -0.001938 0.000000 0.032092
#
#
# Mechanical properties :
#
#
# Convention : Reuss Voigt Hill
#
# Bulk Modulus (GPa) = 30.08382 37.76670 33.92526
# Shear Modulus (GPa) = 16.27910 22.04001 19.15955
#
# Velocity S-wave (km/s) = 2.87559 3.34594 3.11964
# Velocity P-wave (km/s) = 5.12899 5.84045 5.49625
#
# Compressibility (1/GPa) = 0.03324046
#
# Stress axis : x y z
#
# Youngs Moduli (GPa) = 32.51473 17.94029 46.54197
#
# Poissons Ratio (x) = 0.37146 0.35682
# Poissons Ratio (y) = 0.67323 0.41882
# Poissons Ratio (z) = 0.24928 0.16144
#
# Static dielectric constant tensor:
#      x y z
#    x 3.493460 0.000000 0.008050 
#    y 0.000000 3.519280 0.000000 
#    z 0.008050 0.000000 3.796760 
# 
# 
# High freq. dielectric constant tensor:
#      x y z
#    x 1.761720 0.000000 0.009300 
#    y 0.000000 1.768770 0.000000 
#    z 0.009300 0.000000 1.764040 
# 
# From -- ./inp_files/69073.got.cif
#   From: 2010.06.25/outbox.cif.g09.slc.cpg/sg11_35_cif.got.tgz:69073.got - 2010.06.27 23:14:04.
