data_PCOD8072627
_publ_section_title
;
Structure prediction by ZEFSAII (Michael W. Deem and Ramdas Pophale) SiO2 
 PCOD8072627
Probable space group: P 21/M
;
_chemical_formula_sum "Si O2"
_cell_formula_units_Z 32
_cell_length_a 19.926728
_cell_length_b 8.766949
_cell_length_c 25.469965
_cell_angle_alpha 90.000000
_cell_angle_beta 21.889776
_cell_angle_gamma 90.000000
_cell_volume 1658.878578
_symmetry_space_group_name_H-M "P 21/M"
_symmetry_group_IT_number 11
_symmetry_cell_setting 'monoclinic'
loop_
_space_group_symop_operation_xyz
x,y,z
-x,1/2+y,-z
-x,-y,-z
x,1/2-y,z
loop_
_atom_site_type_symbol
_atom_site_label
_atom_site_fract_x
_atom_site_fract_y
_atom_site_fract_z
Si Si1 0.534802 0.070217 0.617666
Si Si2 0.839299 0.431225 0.084593
Si Si3 0.424537 0.430797 0.107430
Si Si4 0.665433 0.427742 0.636799
Si Si5 0.032710 0.071507 0.420501
Si Si6 0.344931 0.431458 0.575947
Si Si7 0.399447 0.569308 0.913567
Si Si8 0.051609 0.569984 0.109995
O O1 0.536864 0.250000 0.605208
O O2 0.633378 0.025582 0.600006
O O3 0.332968 0.011597 0.766223
O O4 0.635223 0.983574 0.498214
O O5 0.825698 0.250000 0.100945
O O6 0.866575 0.482104 0.004814
O O7 0.000000 0.500000 0.000000
O O8 0.436326 0.250000 0.095621
O O9 0.219667 0.489399 0.261090
O O10 0.538206 0.493075 0.074937
O O11 0.500000 0.500000 0.000000
O O12 0.629954 0.250000 0.671855
O O13 0.533011 0.516526 0.771116
O O14 0.871318 0.473830 0.498814
O O15 0.045468 0.250000 0.420019
O O16 0.000000 0.000000 0.500000
O O17 0.500000 0.500000 0.500000
O O18 0.355679 0.250000 0.572291
O O19 0.149172 0.496196 0.736039
O O20 0.407830 0.750000 0.906944
O O21 0.194971 0.512566 0.049993
O O22 0.035422 0.750000 0.123970
#
# Coordination Sequence:
#
# PCOD8072627 Si02
#       8
#     4   4   4   4   4   4   4   4
#     4  11  23  39  57  85 121 156 196 243 291 351
#     4  11  21  36  60  88 116 151 192 243 297 349
#     4  10  22  37  57  85 119 155 193 239 290 350
#     4  10  21  36  58  87 120 153 193 248 299 343
#     4  10  20  36  58  86 116 154 200 245 296 348
#     4  11  23  41  62  86 117 157 197 244 301 357
#     4  10  19  37  61  85 114 151 194 243 294 348
#     4   9  20  37  59  84 113 147 192 242 292 347
#
# _framework density 19.290139
#
# number of rings (size 3 to 8) (size 9 to 14) (size 15 to 20)
#    0.000    1.750    2.500    1.875    0.000    3.500 
#    0.000    3.125    0.000    0.000    0.000    0.000 
#    0.000    0.000    0.000    0.000    0.000    0.000 
#
# Total GULP energy -396802.015635 kJ/mol
# GULP energy per Si atom -12400.062989 kJ/mol
# Density = 1.924623 g / cm^3
# Si number density = 19.290139 Si / 1000 Ang^3
#
#
#
# Elastic Constant Matrix: (Units=GPa)
#
#
# Indices 1 2 3 4 5 6 
#
# 1 131.9017 28.2462 51.3401 0.0000 -10.8505 0.0000
# 2 28.2462 34.2089 21.9571 0.0000 -1.9163 0.0000
# 3 51.3401 21.9571 129.7666 0.0000 -6.7886 0.0000
# 4 0.0000 0.0000 0.0000 27.6825 0.0000 4.1800
# 5 -10.8505 -1.9163 -6.7886 0.0000 42.4736 0.0000
# 6 0.0000 0.0000 0.0000 4.1800 0.0000 29.4007
#
#
#
# Elastic Compliance Matrix: (Units=1/GPa)
#
#
# Indices 1 2 3 4 5 6 
#
# 1 0.010241 -0.006522 -0.002851 0.000000 0.001866 0.000000
# 2 -0.006522 0.036962 -0.003705 0.000000 -0.000591 0.000000
# 3 -0.002851 -0.003705 0.009493 0.000000 0.000622 0.000000
# 4 0.000000 0.000000 0.000000 0.036916 0.000000 -0.005248
# 5 0.001866 -0.000591 0.000622 0.000000 0.024094 0.000000
# 6 0.000000 0.000000 0.000000 -0.005248 0.000000 0.034759
#
#
# Mechanical properties :
#
#
# Convention : Reuss Voigt Hill
#
# Bulk Modulus (GPa) = 32.74168 55.44043 44.09106
# Shear Modulus (GPa) = 26.48299 32.86696 29.67498
#
# Velocity S-wave (km/s) = 3.70926 4.13222 3.92643
# Velocity P-wave (km/s) = 5.94600 7.18120 6.59259
#
# Compressibility (1/GPa) = 0.03054211
#
# Stress axis : x y z
#
# Youngs Moduli (GPa) = 97.64598 27.05478 105.33721
#
# Poissons Ratio (x) = 0.17645 0.30027
# Poissons Ratio (y) = 0.63683 0.39025
# Poissons Ratio (z) = 0.27835 0.10023
#
# Static dielectric constant tensor:
#      x y z
#    x 2.533610 0.000000 -0.372470 
#    y 0.000000 3.374140 0.000000 
#    z -0.372470 0.000000 3.794740 
# 
# 
# High freq. dielectric constant tensor:
#      x y z
#    x 1.765770 0.000000 -0.010050 
#    y 0.000000 1.736620 0.000000 
#    z -0.010050 0.000000 1.760640 
# 
# From -- ./inp_files/72056.got.cif
#   From: 2010.06.25/outbox.cif.g09.slc.cpg/sg11_37_cif.got.tgz:72056.got - 2010.06.27 23:14:04.
