data_PCOD8072253
_publ_section_title
;
Structure prediction by ZEFSAII (Michael W. Deem and Ramdas Pophale) SiO2 
 PCOD8072253
Probable space group: P 21/M
;
_chemical_formula_sum "Si O2"
_cell_formula_units_Z 24
_cell_length_a 16.614361
_cell_length_b 14.506488
_cell_length_c 8.825529
_cell_angle_alpha 90.000000
_cell_angle_beta 40.948575
_cell_angle_gamma 90.000000
_cell_volume 1394.057781
_symmetry_space_group_name_H-M "P 21/M"
_symmetry_group_IT_number 11
_symmetry_cell_setting 'monoclinic'
loop_
_space_group_symop_operation_xyz
x,y,z
-x,1/2+y,-z
-x,-y,-z
x,1/2-y,z
loop_
_atom_site_type_symbol
_atom_site_label
_atom_site_fract_x
_atom_site_fract_y
_atom_site_fract_z
Si Si1 0.642774 0.854221 0.114784
Si Si2 0.933029 0.858914 0.086113
Si Si3 0.193025 0.003606 0.234059
Si Si4 0.008711 0.509879 0.234917
Si Si5 0.346226 0.353135 0.544936
Si Si6 0.462536 0.985130 0.882710
O O1 0.619372 0.750000 0.099291
O O2 0.654083 0.868444 0.276441
O O3 0.529372 0.915913 0.214646
O O4 0.769642 0.889931 0.856642
O O5 0.965162 0.750000 0.023256
O O6 0.006230 0.904608 0.121683
O O7 0.789336 0.873853 0.324650
O O8 0.968523 0.912579 0.881667
O O9 0.119681 0.999063 0.494809
O O10 0.114731 0.964481 0.204555
O O11 0.321595 0.946790 0.069503
O O12 0.385546 0.250000 0.447796
O O13 0.443842 0.417276 0.327755
O O14 0.500000 0.000000 0.000000
#
# Coordination Sequence:
#
# PCOD8072253 Si02
#       6
#     4   4   4   4   4   4
#     4   9  19  34  56  83 106 138 185 221 264 325
#     4  10  20  34  57  83 107 145 188 225 268 322
#     4   9  20  34  55  79 112 145 179 220 280 318
#     4  10  19  36  55  81 114 142 183 228 269 326
#     4  10  19  35  57  82 108 143 186 225 265 323
#     4  10  20  34  54  82 112 142 179 226 278 313
#
# _framework density 17.215928999999999
#
# number of rings (size 3 to 8) (size 9 to 14) (size 15 to 20)
#    1.000    1.333    1.667    1.500    0.000    1.333 
#    0.000    4.167    0.000   12.000    0.000    0.000 
#    0.000    0.000    0.000    0.000    0.000    0.000 
#
# Total GULP energy -297400.631363 kJ/mol
# GULP energy per Si atom -12391.692973 kJ/mol
# Density = 1.717674 g / cm^3
# Si number density = 17.215929 Si / 1000 Ang^3
#
#
#
# Elastic Constant Matrix: (Units=GPa)
#
#
# Indices 1 2 3 4 5 6 
#
# 1 91.6110 42.4695 29.8597 0.0000 -3.4352 0.0000
# 2 42.4695 108.5671 56.4275 0.0000 -2.6021 0.0000
# 3 29.8597 56.4275 112.7546 0.0000 -4.6232 0.0000
# 4 0.0000 0.0000 0.0000 20.7453 0.0000 -10.3380
# 5 -3.4352 -2.6021 -4.6232 0.0000 15.0979 0.0000
# 6 0.0000 0.0000 0.0000 -10.3380 0.0000 15.4316
#
#
#
# Elastic Compliance Matrix: (Units=1/GPa)
#
#
# Indices 1 2 3 4 5 6 
#
# 1 0.013519 -0.004626 -0.001187 0.000000 0.001915 0.000000
# 2 -0.004626 0.014033 -0.005815 0.000000 -0.000414 0.000000
# 3 -0.001187 -0.005815 0.012194 0.000000 0.002462 0.000000
# 4 0.000000 0.000000 0.000000 0.072361 0.000000 0.048476
# 5 0.001915 -0.000414 0.002462 0.000000 0.067353 0.000000
# 6 0.000000 0.000000 0.000000 0.048476 0.000000 0.097277
#
#
# Mechanical properties :
#
#
# Convention : Reuss Voigt Hill
#
# Bulk Modulus (GPa) = 60.63731 63.38290 62.01010
# Shear Modulus (GPa) = 16.36734 22.53336 19.45035
#
# Velocity S-wave (km/s) = 3.08670 3.62175 3.36488
# Velocity P-wave (km/s) = 6.92833 7.37467 7.15498
#
# Compressibility (1/GPa) = 0.01649150
#
# Stress axis : x y z
#
# Youngs Moduli (GPa) = 73.97169 71.26306 82.00855
#
# Poissons Ratio (x) = 0.32964 0.09731
# Poissons Ratio (y) = 0.34217 0.47684
# Poissons Ratio (z) = 0.08778 0.41436
#
# Static dielectric constant tensor:
#      x y z
#    x 3.297090 0.000000 -0.039170 
#    y 0.000000 3.085140 0.000000 
#    z -0.039170 0.000000 3.005560 
# 
# 
# High freq. dielectric constant tensor:
#      x y z
#    x 1.678050 0.000000 0.007880 
#    y 0.000000 1.646640 0.000000 
#    z 0.007880 0.000000 1.661150 
# 
# From -- ./inp_files/22005.got.cif
#   From: 2010.06.25/outbox.cif.g09.slc.cpg/sg11_12_cif.got.tgz:22005.got - 2010.06.27 23:14:04.
