data_PCOD8072444
_publ_section_title
;
Structure prediction by ZEFSAII (Michael W. Deem and Ramdas Pophale) SiO2 
 PCOD8072444
Probable space group: P 21/M
;
_chemical_formula_sum "Si O2"
_cell_formula_units_Z 20
_cell_length_a 8.701333
_cell_length_b 22.847215
_cell_length_c 9.758559
_cell_angle_alpha 90.000000
_cell_angle_beta 147.892816
_cell_angle_gamma 90.000000
_cell_volume 1031.126466
_symmetry_space_group_name_H-M "P 21/M"
_symmetry_group_IT_number 11
_symmetry_cell_setting 'monoclinic'
loop_
_space_group_symop_operation_xyz
x,y,z
-x,1/2+y,-z
-x,-y,-z
x,1/2-y,z
loop_
_atom_site_type_symbol
_atom_site_label
_atom_site_fract_x
_atom_site_fract_y
_atom_site_fract_z
Si Si1 0.308832 0.182455 0.106809
Si Si2 0.576769 0.912599 0.329661
Si Si3 0.362634 0.817588 0.370295
Si Si4 0.131949 0.526392 0.830655
Si Si5 0.385265 0.088076 0.944533
O O1 0.354031 0.250000 0.102152
O O2 0.976171 0.168909 0.887516
O O3 0.503772 0.164396 0.383080
O O4 0.417904 0.145690 0.059817
O O5 0.516969 0.854178 0.368655
O O6 0.801008 0.953615 0.580121
O O7 0.283242 0.950465 0.085311
O O8 0.707491 0.893569 0.280177
O O9 0.428115 0.750000 0.387621
O O10 0.305138 0.554063 0.830303
O O11 0.149405 0.455929 0.833639
#
# Coordination Sequence:
#
# PCOD8072444 Si02
#       5
#     4   4   4   4   4
#     4  10  22  38  56  79 108 145 180 222 273 317
#     4  10  19  36  57  80 106 143 183 214 266 329
#     4  10  22  39  55  77 114 145 176 226 276 312
#     4   9  20  34  58  82 110 140 175 225 276 306
#     4   9  21  35  61  77 114 138 183 221 268 318
#
# _framework density 19.396262
#
# number of rings (size 3 to 8) (size 9 to 14) (size 15 to 20)
#    1.200    1.200    0.000    1.800    2.800    0.800 
#    0.000    7.000    0.000    0.000    0.000    0.000 
#    0.000    0.000    0.000    0.000    0.000    0.000 
#
# Total GULP energy -247918.489928 kJ/mol
# GULP energy per Si atom -12395.924496 kJ/mol
# Density = 1.935212 g / cm^3
# Si number density = 19.396262 Si / 1000 Ang^3
#
#
#
# Elastic Constant Matrix: (Units=GPa)
#
#
# Indices 1 2 3 4 5 6 
#
# 1 25.8793 33.2925 10.5725 0.0000 -7.9091 0.0000
# 2 33.2925 88.6770 22.9720 0.0000 -16.9096 0.0000
# 3 10.5725 22.9720 97.0885 0.0000 -0.1922 0.0000
# 4 0.0000 0.0000 0.0000 19.3934 0.0000 -5.9957
# 5 -7.9091 -16.9096 -0.1922 0.0000 17.9062 0.0000
# 6 0.0000 0.0000 0.0000 -5.9957 0.0000 31.4031
#
#
#
# Elastic Compliance Matrix: (Units=1/GPa)
#
#
# Indices 1 2 3 4 5 6 
#
# 1 0.076042 -0.026373 -0.002023 0.000000 0.008660 0.000000
# 2 -0.026373 0.023993 -0.002783 0.000000 0.010978 0.000000
# 3 -0.002023 -0.002783 0.011172 0.000000 -0.003402 0.000000
# 4 0.000000 0.000000 0.000000 0.054799 0.000000 0.010462
# 5 0.008660 0.010978 -0.003402 0.000000 0.070003 0.000000
# 6 0.000000 0.000000 0.000000 0.010462 0.000000 0.033842
#
#
# Mechanical properties :
#
#
# Convention : Reuss Voigt Hill
#
# Bulk Modulus (GPa) = 20.47196 38.36874 29.42035
# Shear Modulus (GPa) = 14.34751 23.39439 18.87095
#
# Velocity S-wave (km/s) = 2.72270 3.47670 3.12255
# Velocity P-wave (km/s) = 4.52346 5.99509 5.31050
#
# Compressibility (1/GPa) = 0.04884731
#
# Stress axis : x y z
#
# Youngs Moduli (GPa) = 13.15056 41.67909 89.50933
#
# Poissons Ratio (x) = 1.09922 0.18111
# Poissons Ratio (y) = 0.34682 0.24913
# Poissons Ratio (z) = 0.02661 0.11600
#
# Static dielectric constant tensor:
#      x y z
#    x 3.108750 0.000000 0.027980 
#    y 0.000000 3.436370 0.000000 
#    z 0.027980 0.000000 3.604890 
# 
# 
# High freq. dielectric constant tensor:
#      x y z
#    x 1.723860 0.000000 0.001240 
#    y 0.000000 1.751280 0.000000 
#    z 0.001240 0.000000 1.764770 
# 
# From -- ./inp_files/2000.got.cif
#   From: 2010.06.25/outbox.cif.g09.slc.cpg/sg11_1_cif.got.tgz:2000.got - 2010.06.27 23:14:04.
