data_PCOD8072395
_publ_section_title
;
Structure prediction by ZEFSAII (Michael W. Deem and Ramdas Pophale) SiO2 
 PCOD8072395
Probable space group: P 21/M
;
_chemical_formula_sum "Si O2"
_cell_formula_units_Z 32
_cell_length_a 14.472487
_cell_length_b 16.418019
_cell_length_c 7.001099
_cell_angle_alpha 90.000000
_cell_angle_beta 93.090962
_cell_angle_gamma 90.000000
_cell_volume 1661.107979
_symmetry_space_group_name_H-M "P 21/M"
_symmetry_group_IT_number 11
_symmetry_cell_setting 'monoclinic'
loop_
_space_group_symop_operation_xyz
x,y,z
-x,1/2+y,-z
-x,-y,-z
x,1/2-y,z
loop_
_atom_site_type_symbol
_atom_site_label
_atom_site_fract_x
_atom_site_fract_y
_atom_site_fract_z
Si Si1 0.348465 0.544592 0.102953
Si Si2 0.397596 0.840613 0.772989
Si Si3 0.169564 0.450632 0.093736
Si Si4 0.095121 0.564608 0.397261
Si Si5 0.257205 0.346101 0.423405
Si Si6 0.274963 0.658828 0.409332
Si Si7 0.444236 0.432068 0.377194
Si Si8 0.889781 0.576608 0.327668
O O1 0.250153 0.509691 0.025366
O O2 0.336815 0.599771 0.289158
O O3 0.415434 0.471112 0.170859
O O4 0.394583 0.594400 0.939919
O O5 0.403333 0.750000 0.860187
O O6 0.307157 0.849347 0.631450
O O7 0.488909 0.856218 0.657041
O O8 0.099735 0.501502 0.220004
O O9 0.211944 0.375475 0.219106
O O10 0.117110 0.417889 0.902009
O O11 0.167067 0.637549 0.383278
O O12 0.121357 0.515361 0.593454
O O13 0.993636 0.604881 0.396470
O O14 0.277601 0.250000 0.414804
O O15 0.352475 0.396747 0.473247
O O16 0.186864 0.364050 0.589130
O O17 0.288234 0.750000 0.333370
O O18 0.500000 0.500000 0.500000
#
# Coordination Sequence:
#
# PCOD8072395 Si02
#       8
#     4   4   4   4   4   4   4   4
#     4  10  20  36  58  82 109 141 188 230 272 337
#     4  11  22  36  57  83 114 147 182 231 289 335
#     4   9  19  34  60  82 113 151 189 233 279 333
#     4   9  19  34  55  88 114 145 190 236 267 333
#     4  10  23  40  55  82 118 148 189 243 289 339
#     4  10  20  35  53  79 115 145 175 224 280 328
#     4  11  22  39  62  80 109 149 193 233 283 339
#     4  10  19  35  61  83 111 150 192 228 282 332
#
# _framework density 19.264250000000001
#
# number of rings (size 3 to 8) (size 9 to 14) (size 15 to 20)
#    0.000    2.000    1.250    3.000    1.750    1.000 
#    0.000    0.000    0.000    0.000    0.000    0.000 
#    0.000    0.000    0.000    0.000    0.000    0.000 
#
# Total GULP energy -396764.429696 kJ/mol
# GULP energy per Si atom -12398.888428 kJ/mol
# Density = 1.922040 g / cm^3
# Si number density = 19.264250 Si / 1000 Ang^3
#
#
#
# Elastic Constant Matrix: (Units=GPa)
#
#
# Indices 1 2 3 4 5 6 
#
# 1 108.5116 40.2585 28.4442 0.0000 -7.4002 0.0000
# 2 40.2585 89.2714 21.5062 0.0000 2.8860 0.0000
# 3 28.4442 21.5062 76.3627 0.0000 1.4068 0.0000
# 4 0.0000 0.0000 0.0000 20.5188 0.0000 4.2976
# 5 -7.4002 2.8860 1.4068 0.0000 23.7468 0.0000
# 6 0.0000 0.0000 0.0000 4.2976 0.0000 5.1311
#
#
#
# Elastic Compliance Matrix: (Units=1/GPa)
#
#
# Indices 1 2 3 4 5 6 
#
# 1 0.012184 -0.004858 -0.003254 0.000000 0.004580 0.000000
# 2 -0.004858 0.013992 -0.002074 0.000000 -0.003092 0.000000
# 3 -0.003254 -0.002074 0.014922 0.000000 -0.001646 0.000000
# 4 0.000000 0.000000 0.000000 0.059104 0.000000 -0.049504
# 5 0.004580 -0.003092 -0.001646 0.000000 0.044011 0.000000
# 6 0.000000 0.000000 0.000000 -0.049504 0.000000 0.236353
#
#
# Mechanical properties :
#
#
# Convention : Reuss Voigt Hill
#
# Bulk Modulus (GPa) = 48.25236 50.50705 49.37971
# Shear Modulus (GPa) = 12.25945 22.14179 17.20062
#
# Velocity S-wave (km/s) = 2.52540 3.39392 2.99135
# Velocity P-wave (km/s) = 5.79703 6.45238 6.13346
#
# Compressibility (1/GPa) = 0.02072438
#
# Stress axis : x y z
#
# Youngs Moduli (GPa) = 82.07808 71.46734 67.01507
#
# Poissons Ratio (x) = 0.34722 0.21809
# Poissons Ratio (y) = 0.39877 0.13899
# Poissons Ratio (z) = 0.26711 0.14823
#
# Static dielectric constant tensor:
#      x y z
#    x 3.595060 0.000000 -0.019280 
#    y 0.000000 3.389170 0.000000 
#    z -0.019280 0.000000 3.320020 
# 
# 
# High freq. dielectric constant tensor:
#      x y z
#    x 1.759290 0.000000 -0.000660 
#    y 0.000000 1.736500 0.000000 
#    z -0.000660 0.000000 1.738910 
# 
# From -- ./inp_files/6852.got.cif
#   From: 2010.06.25/outbox.cif.g09.slc.cpg/sg11_4_cif.got.tgz:6852.got - 2010.06.27 23:14:04.
