data_PCOD8072973
_publ_section_title
;
Structure prediction by ZEFSAII (Michael W. Deem and Ramdas Pophale) SiO2 
 PCOD8072973
Probable space group: P 21/M
;
_chemical_formula_sum "Si O2"
_cell_formula_units_Z 32
_cell_length_a 21.131298
_cell_length_b 8.807387
_cell_length_c 21.150466
_cell_angle_alpha 90.000000
_cell_angle_beta 26.868657
_cell_angle_gamma 90.000000
_cell_volume 1779.018666
_symmetry_space_group_name_H-M "P 21/M"
_symmetry_group_IT_number 11
_symmetry_cell_setting 'monoclinic'
loop_
_space_group_symop_operation_xyz
x,y,z
-x,1/2+y,-z
-x,-y,-z
x,1/2-y,z
loop_
_atom_site_type_symbol
_atom_site_label
_atom_site_fract_x
_atom_site_fract_y
_atom_site_fract_z
Si Si1 0.235472 0.573979 0.561530
Si Si2 0.926961 0.569288 0.625623
Si Si3 0.405558 0.075380 0.658910
Si Si4 0.447930 0.422159 0.757456
Si Si5 0.632232 0.428365 0.915619
Si Si6 0.308509 0.422597 0.617104
Si Si7 0.999629 0.069944 0.689166
Si Si8 0.300100 0.575011 0.004906
O O1 0.199359 0.750000 0.584838
O O2 0.391689 0.532071 0.399810
O O3 0.218598 0.530799 0.651060
O O4 0.131512 0.472204 0.613816
O O5 0.929107 0.750000 0.620870
O O6 0.768634 0.510371 0.767363
O O7 0.013104 0.512148 0.609756
O O8 0.000000 0.500000 0.500000
O O9 0.463284 0.250000 0.602353
O O10 0.355070 0.049902 0.776432
O O11 0.281499 0.050828 0.717113
O O12 0.526989 0.954500 0.537606
O O13 0.440791 0.250000 0.785878
O O14 0.386943 0.514625 0.869169
O O15 0.643226 0.250000 0.891160
O O16 0.500000 0.500000 0.000000
O O17 0.617254 0.459113 0.003904
O O18 0.274964 0.250000 0.627787
O O19 0.993211 0.250000 0.683283
O O20 0.857831 0.009009 0.849581
O O21 0.284703 0.750000 0.006012
#
# Coordination Sequence:
#
# PCOD8072973 Si02
#       8
#     4   4   4   4   4   4   4   4
#     4  10  20  33  49  75 106 134 170 214 256 303
#     4  11  22  38  59  82 107 138 174 214 260 310
#     4   8  15  27  42  66  99 130 164 208 255 303
#     4   9  18  31  49  74 103 132 166 208 251 300
#     4  10  21  38  57  80 108 138 174 216 261 310
#     4   9  15  25  44  68  96 131 166 206 257 304
#     4  10  21  38  56  76 103 136 173 212 256 307
#     4   9  20  36  53  74 102 133 167 207 251 302
#
# _framework density 17.987445000000001
#
# number of rings (size 3 to 8) (size 9 to 14) (size 15 to 20)
#    0.000    2.500    0.000    4.125    0.000    7.000 
#    0.000    2.500    0.000    0.750    0.000    0.000 
#    0.000    0.000    0.000    0.000    0.000    0.000 
#
# Total GULP energy -396581.894682 kJ/mol
# GULP energy per Si atom -12393.184209 kJ/mol
# Density = 1.794650 g / cm^3
# Si number density = 17.987445 Si / 1000 Ang^3
#
#
#
# Elastic Constant Matrix: (Units=GPa)
#
#
# Indices 1 2 3 4 5 6 
#
# 1 141.5327 52.5539 58.9364 0.0000 8.4435 0.0000
# 2 52.5539 84.3359 35.2891 0.0000 8.0824 0.0000
# 3 58.9364 35.2891 58.4260 0.0000 10.9131 0.0000
# 4 0.0000 0.0000 0.0000 27.4337 0.0000 1.9466
# 5 8.4435 8.0824 10.9131 0.0000 19.3767 0.0000
# 6 0.0000 0.0000 0.0000 1.9466 0.0000 34.7986
#
#
#
# Elastic Compliance Matrix: (Units=1/GPa)
#
#
# Indices 1 2 3 4 5 6 
#
# 1 0.012985 -0.003546 -0.011372 0.000000 0.002226 0.000000
# 2 -0.003546 0.016869 -0.006242 0.000000 -0.001975 0.000000
# 3 -0.011372 -0.006242 0.034584 0.000000 -0.011919 0.000000
# 4 0.000000 0.000000 0.000000 0.036597 0.000000 -0.002047
# 5 0.002226 -0.001975 -0.011919 0.000000 0.058175 0.000000
# 6 0.000000 0.000000 0.000000 -0.002047 0.000000 0.028851
#
#
# Mechanical properties :
#
#
# Convention : Reuss Voigt Hill
#
# Bulk Modulus (GPa) = 45.21692 64.20593 54.71143
# Shear Modulus (GPa) = 21.03010 25.48948 23.25979
#
# Velocity S-wave (km/s) = 3.42300 3.76848 3.59989
# Velocity P-wave (km/s) = 6.38868 7.39646 6.91096
#
# Compressibility (1/GPa) = 0.02211561
#
# Stress axis : x y z
#
# Youngs Moduli (GPa) = 77.01065 59.28191 28.91526
#
# Poissons Ratio (x) = 0.21024 0.32884
# Poissons Ratio (y) = 0.27312 0.18049
# Poissons Ratio (z) = 0.87579 0.37005
#
# Static dielectric constant tensor:
#      x y z
#    x 3.630270 0.000000 0.165660 
#    y 0.000000 2.496420 0.000000 
#    z 0.165660 0.000000 3.207020 
# 
# 
# High freq. dielectric constant tensor:
#      x y z
#    x 1.714310 0.000000 0.014020 
#    y 0.000000 1.706180 0.000000 
#    z 0.014020 0.000000 1.656540 
# 
# From -- ./inp_files/66397.got.cif
#   From: 2010.06.25/outbox.cif.g09.slc.cpg/sg11_34_cif.got.tgz:66397.got - 2010.06.27 23:14:04.
