data_PCOD8072921
_publ_section_title
;
Structure prediction by ZEFSAII (Michael W. Deem and Ramdas Pophale) SiO2 
 PCOD8072921
Probable space group: P 21/M
;
_chemical_formula_sum "Si O2"
_cell_formula_units_Z 32
_cell_length_a 18.489594
_cell_length_b 8.495758
_cell_length_c 13.558486
_cell_angle_alpha 90.000000
_cell_angle_beta 68.675882
_cell_angle_gamma 90.000000
_cell_volume 1983.998740
_symmetry_space_group_name_H-M "P 21/M"
_symmetry_group_IT_number 11
_symmetry_cell_setting 'monoclinic'
loop_
_space_group_symop_operation_xyz
x,y,z
-x,1/2+y,-z
-x,-y,-z
x,1/2-y,z
loop_
_atom_site_type_symbol
_atom_site_label
_atom_site_fract_x
_atom_site_fract_y
_atom_site_fract_z
Si Si1 0.386496 0.567170 0.586274
Si Si2 0.913097 0.429357 0.157604
Si Si3 0.920041 0.565665 0.941559
Si Si4 0.464373 0.067784 0.366348
Si Si5 0.379495 0.432012 0.019997
Si Si6 0.461226 0.932224 0.157635
Si Si7 0.764908 0.065999 0.011631
Si Si8 0.243641 0.068177 0.765907
O O1 0.394477 0.750000 0.556508
O O2 0.451403 0.517385 0.633977
O O3 0.398833 0.469114 0.480057
O O4 0.302307 0.531161 0.670735
O O5 0.889110 0.250000 0.190048
O O6 0.843616 0.538186 0.233536
O O7 0.999572 0.465191 0.159675
O O8 0.921011 0.456139 0.037206
O O9 0.914368 0.750000 0.973228
O O10 0.842504 0.509915 0.922231
O O11 0.462052 0.250000 0.338710
O O12 0.446293 0.966317 0.279061
O O13 0.357975 0.250000 0.018574
O O14 0.400581 0.468159 0.122839
O O15 0.451150 0.481316 0.914351
O O16 0.306199 0.535972 0.025857
O O17 0.447341 0.750000 0.141216
O O18 0.776066 0.250000 0.022716
O O19 0.749470 0.984340 0.124395
O O20 0.265134 0.250000 0.746316
#
# Coordination Sequence:
#
# PCOD8072921 Si02
#       8
#     4   4   4   4   4   4   4   4
#     4  10  20  33  48  66  89 116 149 186 221 261
#     4   9  16  26  40  58  82 113 147 180 216 259
#     4   9  16  26  40  58  82 113 147 180 216 259
#     4  10  20  33  49  67  88 116 148 183 224 265
#     4  10  20  33  48  66  89 116 149 186 221 261
#     4  10  20  33  49  67  88 116 148 183 224 265
#     4  11  20  29  43  63  89 119 151 185 221 262
#     4  11  20  29  43  63  89 119 151 185 221 262
#
# _framework density 16.129041999999998
#
# number of rings (size 3 to 8) (size 9 to 14) (size 15 to 20)
#    0.000    2.000    0.000    6.750    0.000    6.500 
#    0.000    0.000    0.000    0.000    0.000    0.000 
#    0.000    1.000    0.000    3.750    0.000    6.250 
#
# Total GULP energy -396733.337354 kJ/mol
# GULP energy per Si atom -12397.916792 kJ/mol
# Density = 1.609233 g / cm^3
# Si number density = 16.129042 Si / 1000 Ang^3
#
#
#
# Elastic Constant Matrix: (Units=GPa)
#
#
# Indices 1 2 3 4 5 6 
#
# 1 99.1317 18.9695 35.4796 0.0000 -14.8668 0.0000
# 2 18.9695 55.7423 7.9205 0.0000 -0.0052 0.0000
# 3 35.4796 7.9205 60.4824 0.0000 -3.5020 0.0000
# 4 0.0000 0.0000 0.0000 22.2303 0.0000 -1.3965
# 5 -14.8668 -0.0052 -3.5020 0.0000 21.6070 0.0000
# 6 0.0000 0.0000 0.0000 -1.3965 0.0000 26.3290
#
#
#
# Elastic Compliance Matrix: (Units=1/GPa)
#
#
# Indices 1 2 3 4 5 6 
#
# 1 0.014980 -0.003997 -0.007740 0.000000 0.009052 0.000000
# 2 -0.003997 0.019350 -0.000351 0.000000 -0.002803 0.000000
# 3 -0.007740 -0.000351 0.021009 0.000000 -0.001921 0.000000
# 4 0.000000 0.000000 0.000000 0.045134 0.000000 0.002394
# 5 0.009052 -0.002803 -0.001921 0.000000 0.052197 0.000000
# 6 0.000000 0.000000 0.000000 0.002394 0.000000 0.038108
#
#
# Mechanical properties :
#
#
# Convention : Reuss Voigt Hill
#
# Bulk Modulus (GPa) = 32.09084 37.78839 34.93962
# Shear Modulus (GPa) = 22.18846 24.23238 23.21042
#
# Velocity S-wave (km/s) = 3.71305 3.88029 3.79759
# Velocity P-wave (km/s) = 6.19046 6.59964 6.39832
#
# Compressibility (1/GPa) = 0.03116154
#
# Stress axis : x y z
#
# Youngs Moduli (GPa) = 66.75508 51.68050 47.59895
#
# Poissons Ratio (x) = 0.20658 0.36841
# Poissons Ratio (y) = 0.26684 0.01673
# Poissons Ratio (z) = 0.51668 0.01816
#
# Static dielectric constant tensor:
#      x y z
#    x 3.368630 0.000000 -0.282030 
#    y 0.000000 3.100640 0.000000 
#    z -0.282030 0.000000 2.728090 
# 
# 
# High freq. dielectric constant tensor:
#      x y z
#    x 1.617570 0.000000 -0.022960 
#    y 0.000000 1.639260 0.000000 
#    z -0.022960 0.000000 1.571090 
# 
# From -- ./inp_files/52938.got.cif
#   From: 2010.06.25/outbox.cif.g09.slc.cpg/sg11_27_cif.got.tgz:52938.got - 2010.06.27 23:14:04.
