data_PCOD8072124
_publ_section_title
;
Structure prediction by ZEFSAII (Michael W. Deem and Ramdas Pophale) SiO2 
 PCOD8072124
Probable space group: P 21/M
;
_chemical_formula_sum "Si O2"
_cell_formula_units_Z 28
_cell_length_a 29.613409
_cell_length_b 8.593886
_cell_length_c 10.006274
_cell_angle_alpha 90.000000
_cell_angle_beta 33.815446
_cell_angle_gamma 90.000000
_cell_volume 1417.199075
_symmetry_space_group_name_H-M "P 21/M"
_symmetry_group_IT_number 11
_symmetry_cell_setting 'monoclinic'
loop_
_space_group_symop_operation_xyz
x,y,z
-x,1/2+y,-z
-x,-y,-z
x,1/2-y,z
loop_
_atom_site_type_symbol
_atom_site_label
_atom_site_fract_x
_atom_site_fract_y
_atom_site_fract_z
Si Si1 0.243304 0.569980 0.914459
Si Si2 0.162643 0.431543 0.368400
Si Si3 0.999972 0.433137 0.148000
Si Si4 0.824220 0.569573 0.178722
Si Si5 0.416469 0.571082 0.842687
Si Si6 0.744891 0.070931 0.618730
Si Si7 0.596985 0.571159 0.406390
O O1 0.229020 0.750000 0.921231
O O2 0.191815 0.472058 0.935158
O O3 0.339099 0.531582 0.667688
O O4 0.213882 0.526884 0.134663
O O5 0.168360 0.250000 0.321979
O O6 0.198896 0.465234 0.425439
O O7 0.069511 0.485571 0.593254
O O8 0.984254 0.250000 0.180590
O O9 0.083778 0.475828 0.013778
O O10 0.000000 0.500000 0.000000
O O11 0.808237 0.750000 0.243385
O O12 0.762188 0.473083 0.423439
O O13 0.414475 0.750000 0.797636
O O14 0.505846 0.531441 0.680842
O O15 0.395872 0.461805 0.768846
O O16 0.350388 0.540158 0.120120
O O17 0.767452 0.250000 0.589895
O O18 0.619406 0.750000 0.375821
#
# Coordination Sequence:
#
# PCOD8072124 Si02
#       7
#     4   4   4   4   4   4   4
#     4  12  25  42  62  88 123 163 204 251 311 367
#     4  12  24  39  63  92 122 160 205 251 301 360
#     4  11  23  40  64  92 124 158 201 252 305 360
#     4  11  25  43  63  89 122 161 203 249 306 366
#     4   9  19  34  57  90 123 158 201 249 298 355
#     4  11  21  37  62  92 124 159 203 249 299 359
#     4  10  19  34  58  88 123 159 200 250 302 357
#
# _framework density 19.757280000000002
#
# number of rings (size 3 to 8) (size 9 to 14) (size 15 to 20)
#    0.000    1.143    2.857    4.286    0.000    3.429 
#    0.000    0.714    0.000    0.000    0.000    0.000 
#    0.000    0.000    0.000    0.000    0.000    0.000 
#
# Total GULP energy -347368.642945 kJ/mol
# GULP energy per Si atom -12406.022962 kJ/mol
# Density = 1.971231 g / cm^3
# Si number density = 19.757280 Si / 1000 Ang^3
#
#
#
# Elastic Constant Matrix: (Units=GPa)
#
#
# Indices 1 2 3 4 5 6 
#
# 1 89.4345 24.7637 26.7648 0.0000 -15.5552 0.0000
# 2 24.7637 75.6519 35.6464 0.0000 -16.3524 0.0000
# 3 26.7648 35.6464 100.2837 0.0000 -21.5936 0.0000
# 4 0.0000 0.0000 0.0000 31.5766 0.0000 0.7346
# 5 -15.5552 -16.3524 -21.5936 0.0000 30.4200 0.0000
# 6 0.0000 0.0000 0.0000 0.7346 0.0000 32.6227
#
#
#
# Elastic Compliance Matrix: (Units=1/GPa)
#
#
# Indices 1 2 3 4 5 6 
#
# 1 0.013125 -0.002612 -0.001690 0.000000 0.004108 0.000000
# 2 -0.002612 0.017170 -0.004375 0.000000 0.004789 0.000000
# 3 -0.001690 -0.004375 0.013322 0.000000 0.006240 0.000000
# 4 0.000000 0.000000 0.000000 0.031686 0.000000 -0.000713
# 5 0.004108 0.004789 0.006240 0.000000 0.041977 0.000000
# 6 0.000000 0.000000 0.000000 -0.000713 0.000000 0.030670
#
#
# Mechanical properties :
#
#
# Convention : Reuss Voigt Hill
#
# Bulk Modulus (GPa) = 38.07723 48.85779 43.46751
# Shear Modulus (GPa) = 28.72623 30.80353 29.76488
#
# Velocity S-wave (km/s) = 3.81722 3.95282 3.88561
# Velocity P-wave (km/s) = 6.22435 6.75395 6.49455
#
# Compressibility (1/GPa) = 0.02626241
#
# Stress axis : x y z
#
# Youngs Moduli (GPa) = 76.19166 58.24125 75.06637
#
# Poissons Ratio (x) = 0.15213 0.12686
# Poissons Ratio (y) = 0.19902 0.32841
# Poissons Ratio (z) = 0.12876 0.25480
#
# Static dielectric constant tensor:
#      x y z
#    x 3.484640 0.000000 -0.330900 
#    y 0.000000 3.652010 0.000000 
#    z -0.330900 0.000000 3.753140 
# 
# 
# High freq. dielectric constant tensor:
#      x y z
#    x 1.753360 0.000000 -0.020280 
#    y 0.000000 1.781400 0.000000 
#    z -0.020280 0.000000 1.776460 
# 
# From -- ./inp_files/28276.got.cif
#   From: 2010.06.25/outbox.cif.g09.slc.cpg/sg11_15_cif.got.tgz:28276.got - 2010.06.27 23:14:04.
