data_PCOD8072479
_publ_section_title
;
Structure prediction by ZEFSAII (Michael W. Deem and Ramdas Pophale) SiO2 
 PCOD8072479
Probable space group: P 21/M
;
_chemical_formula_sum "Si O2"
_cell_formula_units_Z 28
_cell_length_a 9.109008
_cell_length_b 8.640936
_cell_length_c 29.304637
_cell_angle_alpha 90.000000
_cell_angle_beta 38.710336
_cell_angle_gamma 90.000000
_cell_volume 1442.495911
_symmetry_space_group_name_H-M "P 21/M"
_symmetry_group_IT_number 11
_symmetry_cell_setting 'monoclinic'
loop_
_space_group_symop_operation_xyz
x,y,z
-x,1/2+y,-z
-x,-y,-z
x,1/2-y,z
loop_
_atom_site_type_symbol
_atom_site_label
_atom_site_fract_x
_atom_site_fract_y
_atom_site_fract_z
Si Si1 0.433185 0.565320 0.295606
Si Si2 0.889109 0.066435 0.708816
Si Si3 0.349615 0.568605 0.995887
Si Si4 0.703208 0.066452 0.849537
Si Si5 0.955404 0.931866 0.154373
Si Si6 0.742409 0.933103 0.567661
Si Si7 0.581324 0.934004 0.432478
O O1 0.423698 0.750000 0.304614
O O2 0.691470 0.503956 0.218937
O O3 0.363978 0.481784 0.358544
O O4 0.256305 0.507401 0.299421
O O5 0.883978 0.250000 0.711688
O O6 0.154916 0.006726 0.640747
O O7 0.771459 0.999808 0.783430
O O8 0.390019 0.750000 0.982854
O O9 0.440252 0.491900 0.926787
O O10 0.500000 0.500000 0.000000
O O11 0.078613 0.529589 0.075412
O O12 0.699395 0.250000 0.850146
O O13 0.893014 0.000714 0.839997
O O14 0.945674 0.750000 0.163972
O O15 0.752053 0.750000 0.560709
O O16 0.582678 0.001417 0.566922
O O17 0.000000 0.000000 0.500000
O O18 0.567227 0.750000 0.436565
O O19 0.500000 0.000000 0.500000
#
# Coordination Sequence:
#
# PCOD8072479 Si02
#       7
#     4   4   4   4   4   4   4
#     4  10  19  36  59  82 108 144 184 226 272 327
#     4   9  19  34  56  81 108 142 181 219 269 330
#     4   9  16  28  46  72 101 135 176 222 270 319
#     4   9  16  30  49  73 102 138 180 222 265 320
#     4   8  15  28  50  74 102 138 177 218 270 328
#     4  12  25  41  60  85 113 146 184 227 276 328
#     4  11  22  39  61  87 116 147 182 226 274 330
#
# _framework density 19.410799000000001
#
# number of rings (size 3 to 8) (size 9 to 14) (size 15 to 20)
#    0.000    2.286    0.000    4.714    0.000    3.429 
#    0.000   10.000    0.000    0.000    0.000    0.000 
#    0.000    0.000    0.000    0.000    0.000    0.000 
#
# Total GULP energy -347074.950563 kJ/mol
# GULP energy per Si atom -12395.533949 kJ/mol
# Density = 1.936662 g / cm^3
# Si number density = 19.410799 Si / 1000 Ang^3
#
#
#
# Elastic Constant Matrix: (Units=GPa)
#
#
# Indices 1 2 3 4 5 6 
#
# 1 140.2144 31.4763 91.5946 0.0000 1.9601 0.0000
# 2 31.4763 59.0753 44.2602 0.0000 0.1293 0.0000
# 3 91.5946 44.2602 210.9345 0.0000 2.7536 0.0000
# 4 0.0000 0.0000 0.0000 32.9477 0.0000 3.3480
# 5 1.9601 0.1293 2.7536 0.0000 35.7516 0.0000
# 6 0.0000 0.0000 0.0000 3.3480 0.0000 21.0839
#
#
#
# Elastic Compliance Matrix: (Units=1/GPa)
#
#
# Indices 1 2 3 4 5 6 
#
# 1 0.010267 -0.002530 -0.003924 0.000000 -0.000251 0.000000
# 2 -0.002530 0.020711 -0.003251 0.000000 0.000314 0.000000
# 3 -0.003924 -0.003251 0.007131 0.000000 -0.000322 0.000000
# 4 0.000000 0.000000 0.000000 0.030849 0.000000 -0.004899
# 5 -0.000251 0.000314 -0.000322 0.000000 0.028008 0.000000
# 6 0.000000 0.000000 0.000000 -0.004899 0.000000 0.048207
#
#
# Mechanical properties :
#
#
# Convention : Reuss Voigt Hill
#
# Bulk Modulus (GPa) = 53.48062 82.76516 68.12289
# Shear Modulus (GPa) = 29.27123 34.14950 31.71036
#
# Velocity S-wave (km/s) = 3.88749 4.19896 4.04622
# Velocity P-wave (km/s) = 6.91100 8.13877 7.54989
#
# Compressibility (1/GPa) = 0.01869836
#
# Stress axis : x y z
#
# Youngs Moduli (GPa) = 97.40214 48.28424 140.22926
#
# Poissons Ratio (x) = 0.12215 0.55026
# Poissons Ratio (y) = 0.24641 0.45593
# Poissons Ratio (z) = 0.38221 0.15699
#
# Static dielectric constant tensor:
#      x y z
#    x 1.592790 0.000000 -0.393890 
#    y 0.000000 3.215500 0.000000 
#    z -0.393890 0.000000 4.152810 
# 
# 
# High freq. dielectric constant tensor:
#      x y z
#    x 1.740780 0.000000 -0.001060 
#    y 0.000000 1.728290 0.000000 
#    z -0.001060 0.000000 1.783980 
# 
# From -- ./inp_files/70850.got.cif
#   From: 2010.06.25/outbox.cif.g09.slc.cpg/sg11_36_cif.got.tgz:70850.got - 2010.06.27 23:14:04.
