data_PCOD8072674
_publ_section_title
;
Structure prediction by ZEFSAII (Michael W. Deem and Ramdas Pophale) SiO2 
 PCOD8072674
Probable space group: P 21/M
;
_chemical_formula_sum "Si O2"
_cell_formula_units_Z 28
_cell_length_a 9.154513
_cell_length_b 14.529457
_cell_length_c 17.407332
_cell_angle_alpha 90.000000
_cell_angle_beta 143.425898
_cell_angle_gamma 90.000000
_cell_volume 1379.629543
_symmetry_space_group_name_H-M "P 21/M"
_symmetry_group_IT_number 11
_symmetry_cell_setting 'monoclinic'
loop_
_space_group_symop_operation_xyz
x,y,z
-x,1/2+y,-z
-x,-y,-z
x,1/2-y,z
loop_
_atom_site_type_symbol
_atom_site_label
_atom_site_fract_x
_atom_site_fract_y
_atom_site_fract_z
Si Si1 0.082697 0.140344 0.523208
Si Si2 0.362513 0.851264 0.281309
Si Si3 0.949611 0.852945 0.845630
Si Si4 0.749492 0.503921 0.650676
Si Si5 0.064574 0.399954 0.998621
Si Si6 0.607797 0.490888 0.961083
Si Si7 0.117984 0.007022 0.670135
O O1 0.030949 0.250000 0.503597
O O2 0.365866 0.115253 0.625888
O O3 0.018333 0.092942 0.577618
O O4 0.916213 0.090706 0.388394
O O5 0.383261 0.750000 0.326345
O O6 0.182687 0.848262 0.132114
O O7 0.233324 0.916483 0.287619
O O8 0.987976 0.750000 0.830233
O O9 0.766168 0.904321 0.709565
O O10 0.830300 0.847994 0.881336
O O11 0.210583 0.904027 0.960818
O O12 0.500000 0.500000 0.500000
O O13 0.976447 0.498954 0.690013
O O14 0.256764 0.413993 0.009280
O O15 0.000000 0.500000 0.000000
O O16 0.399646 0.473954 0.809459
O O17 0.500000 0.500000 0.000000
#
# Coordination Sequence:
#
# PCOD8072674 Si02
#       7
#     4   4   4   4   4   4   4
#     4  10  23  41  65  93 124 166 216 260 314 380
#     4  11  21  39  66  94 123 167 214 260 311 369
#     4  11  24  42  68  96 128 171 213 258 319 380
#     4  12  24  42  65  92 130 167 211 263 314 377
#     4  10  19  37  65  89 125 162 210 260 310 371
#     4  11  21  40  65  94 131 169 205 260 323 376
#     4  11  23  40  66  91 129 169 206 260 328 368
#
# _framework density 20.295302
#
# number of rings (size 3 to 8) (size 9 to 14) (size 15 to 20)
#    0.000    1.143    5.714    2.143    0.000    3.429 
#    0.000    5.714    0.000    0.000    0.000    0.000 
#    0.000    0.000    0.000    0.000    0.000    0.000 
#
# Total GULP energy -347076.238123 kJ/mol
# GULP energy per Si atom -12395.579933 kJ/mol
# Density = 2.024911 g / cm^3
# Si number density = 20.295302 Si / 1000 Ang^3
#
#
#
# Elastic Constant Matrix: (Units=GPa)
#
#
# Indices 1 2 3 4 5 6 
#
# 1 94.4300 36.2319 30.4070 0.0000 -19.1986 0.0000
# 2 36.2319 137.4480 48.2491 0.0000 -12.0069 0.0000
# 3 30.4070 48.2491 141.5949 0.0000 -6.8525 0.0000
# 4 0.0000 0.0000 0.0000 12.4366 0.0000 8.7332
# 5 -19.1986 -12.0069 -6.8525 0.0000 30.3633 0.0000
# 6 0.0000 0.0000 0.0000 8.7332 0.0000 15.6290
#
#
#
# Elastic Compliance Matrix: (Units=1/GPa)
#
#
# Indices 1 2 3 4 5 6 
#
# 1 0.013516 -0.002311 -0.001765 0.000000 0.007234 0.000000
# 2 -0.002311 0.008878 -0.002456 0.000000 0.001495 0.000000
# 3 -0.001765 -0.002456 0.008268 0.000000 -0.000221 0.000000
# 4 0.000000 0.000000 0.000000 0.132335 0.000000 -0.073947
# 5 0.007234 0.001495 -0.000221 0.000000 0.038049 0.000000
# 6 0.000000 0.000000 0.000000 -0.073947 0.000000 0.105304
#
#
# Mechanical properties :
#
#
# Convention : Reuss Voigt Hill
#
# Bulk Modulus (GPa) = 56.83147 67.02767 61.92957
# Shear Modulus (GPa) = 15.37138 28.92475 22.14807
#
# Velocity S-wave (km/s) = 2.75505 3.77927 3.30705
# Velocity P-wave (km/s) = 6.17928 7.22092 6.72031
#
# Compressibility (1/GPa) = 0.01759588
#
# Stress axis : x y z
#
# Youngs Moduli (GPa) = 73.98835 112.64268 120.95271
#
# Poissons Ratio (x) = 0.26036 0.21345
# Poissons Ratio (y) = 0.17102 0.29711
# Poissons Ratio (z) = 0.13057 0.27669
#
# Static dielectric constant tensor:
#      x y z
#    x 4.166050 0.000000 -0.047540 
#    y 0.000000 3.708710 0.000000 
#    z -0.047540 0.000000 3.989440 
# 
# 
# High freq. dielectric constant tensor:
#      x y z
#    x 1.793130 0.000000 -0.012320 
#    y 0.000000 1.780810 0.000000 
#    z -0.012320 0.000000 1.804410 
# 
# From -- ./inp_files/17938.got.cif
#   From: 2010.06.25/outbox.cif.g09.slc.cpg/sg11_9_cif.got.tgz:17938.got - 2010.06.27 23:14:04.
