data_PCOD8072987
_publ_section_title
;
Structure prediction by ZEFSAII (Michael W. Deem and Ramdas Pophale) SiO2 
 PCOD8072987
Probable space group: P 21/M
;
_chemical_formula_sum "Si O2"
_cell_formula_units_Z 32
_cell_length_a 9.125934
_cell_length_b 9.699976
_cell_length_c 24.900010
_cell_angle_alpha 90.000000
_cell_angle_beta 56.649807
_cell_angle_gamma 90.000000
_cell_volume 1841.210932
_symmetry_space_group_name_H-M "P 21/M"
_symmetry_group_IT_number 11
_symmetry_cell_setting 'monoclinic'
loop_
_space_group_symop_operation_xyz
x,y,z
-x,1/2+y,-z
-x,-y,-z
x,1/2-y,z
loop_
_atom_site_type_symbol
_atom_site_label
_atom_site_fract_x
_atom_site_fract_y
_atom_site_fract_z
Si Si1 0.186085 0.913625 0.818445
Si Si2 0.541270 0.914416 0.696872
Si Si3 0.502552 0.910981 0.946159
Si Si4 0.868115 0.914416 0.696872
Si Si5 0.841028 0.089019 0.053841
Si Si6 0.091148 0.903516 0.555810
Si Si7 0.858579 0.913625 0.818445
Si Si8 0.741423 0.903516 0.555810
O O1 0.188084 0.750000 0.814187
O O2 0.352877 0.974255 0.752482
O O3 0.196896 0.959965 0.877945
O O4 0.009138 0.973411 0.827241
O O5 0.543453 0.750000 0.699146
O O6 0.686943 0.972985 0.708705
O O7 0.587626 0.959635 0.626358
O O8 0.516488 0.750000 0.958605
O O9 0.330217 0.942200 0.946522
O O10 0.669270 0.959965 0.877945
O O11 0.500000 0.000000 0.000000
O O12 0.859110 0.750000 0.699145
O O13 0.889677 0.974254 0.752482
O O14 0.033301 0.959634 0.626358
O O15 0.892303 0.250000 0.041395
O O16 0.000000 0.000000 0.000000
O O17 0.170419 0.750000 0.544337
O O18 0.920035 0.900942 0.553310
O O19 0.241011 0.000000 0.500000
O O20 0.869357 0.750000 0.814186
O O21 0.696568 0.750000 0.544338
#
# Coordination Sequence:
#
# PCOD8072987 Si02
#       8
#     4   4   4   4   4   4   4   4
#     4   9  16  26  42  64  88 114 147 186 223 260
#     4   8  13  22  37  57  80 106 139 179 219 257
#     4  10  20  33  50  72  97 124 153 187 228 272
#     4   8  13  22  37  57  80 106 139 179 219 257
#     4  10  20  33  50  72  97 124 153 187 228 272
#     4   8  13  21  35  56  80 105 134 170 211 254
#     4   9  16  26  42  64  88 114 147 186 223 260
#     4   8  13  21  35  56  80 105 134 170 211 254
#
# _framework density 17.379867000000001
#
# number of rings (size 3 to 8) (size 9 to 14) (size 15 to 20)
#    0.000    3.250    0.000    3.000    0.000    4.500 
#    0.000    0.000    0.000    2.250    0.000    3.500 
#    0.000    0.000    0.000    0.000    0.000    0.000 
#
# Total GULP energy -396598.092630 kJ/mol
# GULP energy per Si atom -12393.690395 kJ/mol
# Density = 1.734031 g / cm^3
# Si number density = 17.379867 Si / 1000 Ang^3
#
#
#
# Elastic Constant Matrix: (Units=GPa)
#
#
# Indices 1 2 3 4 5 6 
#
# 1 100.6091 28.3494 75.9680 0.0000 -2.1008 0.0000
# 2 28.3494 34.5675 50.0647 0.0000 -1.6935 0.0000
# 3 75.9680 50.0647 189.8288 0.0000 -4.8573 0.0000
# 4 0.0000 0.0000 0.0000 25.4210 0.0000 -0.9562
# 5 -2.1008 -1.6935 -4.8573 0.0000 26.0042 0.0000
# 6 0.0000 0.0000 0.0000 -0.9562 0.0000 13.1601
#
#
#
# Elastic Compliance Matrix: (Units=1/GPa)
#
#
# Indices 1 2 3 4 5 6 
#
# 1 0.014932 -0.005811 -0.004443 0.000000 -0.000002 0.000000
# 2 -0.005811 0.049084 -0.010601 0.000000 0.000747 0.000000
# 3 -0.004443 -0.010601 0.009862 0.000000 0.000793 0.000000
# 4 0.000000 0.000000 0.000000 0.039445 0.000000 0.002866
# 5 -0.000002 0.000747 0.000793 0.000000 0.038652 0.000000
# 6 0.000000 0.000000 0.000000 0.002866 0.000000 0.076196
#
#
# Mechanical properties :
#
#
# Convention : Reuss Voigt Hill
#
# Bulk Modulus (GPa) = 31.08600 70.41884 50.75242
# Shear Modulus (GPa) = 17.81874 24.29193 21.05534
#
# Velocity S-wave (km/s) = 3.20543 3.74265 3.48441
# Velocity P-wave (km/s) = 5.62359 7.69948 6.74191
#
# Compressibility (1/GPa) = 0.03216883
#
# Stress axis : x y z
#
# Youngs Moduli (GPa) = 66.97190 20.37305 101.39851
#
# Poissons Ratio (x) = 0.11838 0.45052
# Poissons Ratio (y) = 0.38916 1.07490
# Poissons Ratio (z) = 0.29756 0.21597
#
# Static dielectric constant tensor:
#      x y z
#    x 3.219580 0.000000 -0.033150 
#    y 0.000000 2.756320 0.000000 
#    z -0.033150 0.000000 3.644720 
# 
# 
# High freq. dielectric constant tensor:
#      x y z
#    x 1.652290 0.000000 -0.003110 
#    y 0.000000 1.607730 0.000000 
#    z -0.003110 0.000000 1.692150 
# 
# From -- ./inp_files/27466.got.cif
#   From: 2010.06.25/outbox.cif.g09.slc.cpg/sg11_14_cif.got.tgz:27466.got - 2010.06.27 23:14:04.
