data_PCOD8072943
_publ_section_title
;
Structure prediction by ZEFSAII (Michael W. Deem and Ramdas Pophale) SiO2 
 PCOD8072943
Probable space group: P 21/M
;
_chemical_formula_sum "Si O2"
_cell_formula_units_Z 32
_cell_length_a 23.727410
_cell_length_b 9.379631
_cell_length_c 18.410564
_cell_angle_alpha 90.000000
_cell_angle_beta 155.452827
_cell_angle_gamma 90.000000
_cell_volume 1702.212950
_symmetry_space_group_name_H-M "P 21/M"
_symmetry_group_IT_number 11
_symmetry_cell_setting 'monoclinic'
loop_
_space_group_symop_operation_xyz
x,y,z
-x,1/2+y,-z
-x,-y,-z
x,1/2-y,z
loop_
_atom_site_type_symbol
_atom_site_label
_atom_site_fract_x
_atom_site_fract_y
_atom_site_fract_z
Si Si1 0.084742 0.919029 0.159617
Si Si2 0.129794 0.580821 0.627181
Si Si3 0.131131 0.584942 0.464532
Si Si4 0.649134 0.419043 0.000618
Si Si5 0.908313 0.914937 0.093867
Si Si6 0.643803 0.905334 0.340250
Si Si7 0.657423 0.418751 0.846644
Si Si8 0.645637 0.592786 0.512469
O O1 0.088483 0.750000 0.149496
O O2 0.013457 0.955137 0.152873
O O3 0.238765 0.977514 0.334224
O O4 0.000000 0.000000 0.000000
O O5 0.109344 0.750000 0.608358
O O6 0.153077 0.530836 0.571925
O O7 0.247702 0.523353 0.817936
O O8 0.000000 0.500000 0.500000
O O9 0.160762 0.750000 0.493315
O O10 0.240284 0.514184 0.541424
O O11 0.982502 0.550195 0.257695
O O12 0.654715 0.250000 0.002529
O O13 0.501217 0.466157 0.856523
O O14 0.679043 0.477866 0.954530
O O15 0.867377 0.750000 0.040124
O O16 0.769930 0.005995 0.927394
O O17 0.675101 0.750000 0.341971
O O18 0.631258 0.886819 0.410701
O O19 0.681097 0.250000 0.870487
O O20 0.505665 0.456748 0.638720
O O21 0.681876 0.750000 0.588444
#
# Coordination Sequence:
#
# PCOD8072943 Si02
#       8
#     4   4   4   4   4   4   4   4
#     4  11  23  39  60  84 112 144 176 217 267 323
#     4  10  20  33  49  68 100 141 178 222 271 319
#     4  10  20  33  49  74 107 139 175 223 274 316
#     4   8  16  32  50  73 105 139 178 223 269 309
#     4  10  21  36  53  79 113 141 175 222 270 321
#     4   9  17  31  53  76 100 136 179 220 261 315
#     4   9  18  33  57  83 108 142 185 228 264 311
#     4   9  18  35  57  83 111 140 179 223 266 316
#
# _framework density 18.799057999999999
#
# number of rings (size 3 to 8) (size 9 to 14) (size 15 to 20)
#    0.000    2.500    1.250    2.625    0.000    3.000 
#    0.000    3.125    0.000    0.000    0.000    0.000 
#    0.000    0.000    0.000    0.000    0.000    0.000 
#
# Total GULP energy -396576.378807 kJ/mol
# GULP energy per Si atom -12393.011838 kJ/mol
# Density = 1.875627 g / cm^3
# Si number density = 18.799058 Si / 1000 Ang^3
#
#
#
# Elastic Constant Matrix: (Units=GPa)
#
#
# Indices 1 2 3 4 5 6 
#
# 1 44.3968 31.1558 37.2763 0.0000 8.6321 0.0000
# 2 31.1558 53.4646 58.0639 0.0000 7.9586 0.0000
# 3 37.2763 58.0639 135.6558 0.0000 13.5592 0.0000
# 4 0.0000 0.0000 0.0000 29.4500 0.0000 2.9009
# 5 8.6321 7.9586 13.5592 0.0000 33.3524 0.0000
# 6 0.0000 0.0000 0.0000 2.9009 0.0000 21.8265
#
#
#
# Elastic Compliance Matrix: (Units=1/GPa)
#
#
# Indices 1 2 3 4 5 6 
#
# 1 0.039011 -0.020378 -0.001537 0.000000 -0.004609 0.000000
# 2 -0.020378 0.045774 -0.013997 0.000000 0.000042 0.000000
# 3 -0.001537 -0.013997 0.013979 0.000000 -0.001946 0.000000
# 4 0.000000 0.000000 0.000000 0.034406 0.000000 -0.004573
# 5 -0.004609 0.000042 -0.001946 0.000000 0.031957 0.000000
# 6 0.000000 0.000000 0.000000 -0.004573 0.000000 0.046424
#
#
# Mechanical properties :
#
#
# Convention : Reuss Voigt Hill
#
# Bulk Modulus (GPa) = 37.11845 54.05657 45.58751
# Shear Modulus (GPa) = 17.10256 24.06055 20.58155
#
# Velocity S-wave (km/s) = 3.01949 3.58142 3.31239
# Velocity P-wave (km/s) = 5.65191 6.77639 6.23954
#
# Compressibility (1/GPa) = 0.02694078
#
# Stress axis : x y z
#
# Youngs Moduli (GPa) = 25.63375 21.84664 71.53472
#
# Poissons Ratio (x) = 0.44520 0.10992
# Poissons Ratio (y) = 0.52237 1.00125
# Poissons Ratio (z) = 0.03939 0.30578
#
# Static dielectric constant tensor:
#      x y z
#    x 3.261930 0.000000 -0.337380 
#    y 0.000000 3.292970 0.000000 
#    z -0.337380 0.000000 4.795110 
# 
# 
# High freq. dielectric constant tensor:
#      x y z
#    x 1.714030 0.000000 0.006530 
#    y 0.000000 1.713110 0.000000 
#    z 0.006530 0.000000 1.741900 
# 
# From -- ./inp_files/67129.got.cif
#   From: 2010.06.25/outbox.cif.g09.slc.cpg/sg11_34_cif.got.tgz:67129.got - 2010.06.27 23:14:04.
