data_PCOD8072979
_publ_section_title
;
Structure prediction by ZEFSAII (Michael W. Deem and Ramdas Pophale) SiO2 
 PCOD8072979
Probable space group: P 21/M
;
_chemical_formula_sum "Si O2"
_cell_formula_units_Z 32
_cell_length_a 10.492658
_cell_length_b 20.223555
_cell_length_c 9.434747
_cell_angle_alpha 90.000000
_cell_angle_beta 63.282730
_cell_angle_gamma 90.000000
_cell_volume 1788.296199
_symmetry_space_group_name_H-M "P 21/M"
_symmetry_group_IT_number 11
_symmetry_cell_setting 'monoclinic'
loop_
_space_group_symop_operation_xyz
x,y,z
-x,1/2+y,-z
-x,-y,-z
x,1/2-y,z
loop_
_atom_site_type_symbol
_atom_site_label
_atom_site_fract_x
_atom_site_fract_y
_atom_site_fract_z
Si Si1 0.887217 0.175111 0.143423
Si Si2 0.112783 0.675111 0.530640
Si Si3 0.610092 0.174853 0.779304
Si Si4 0.914647 0.944832 0.958805
Si Si5 0.389908 0.825147 0.889397
Si Si6 0.085353 0.444832 0.373452
Si Si7 0.593019 0.939480 0.785431
Si Si8 0.406981 0.439480 0.878450
O O1 0.933980 0.250000 0.081305
O O2 0.840330 0.170020 0.329835
O O3 0.019222 0.127269 0.044209
O O4 0.752966 0.152126 0.118043
O O5 0.066020 0.750000 0.515286
O O6 0.247034 0.652126 0.371009
O O7 0.980778 0.627269 0.563431
O O8 0.568930 0.250000 0.761672
O O9 0.640507 0.165600 0.929747
O O10 0.479489 0.129145 0.793568
O O11 0.919236 0.962317 0.790382
O O12 0.753717 0.943097 0.099911
O O13 0.000000 0.000000 0.000000
O O14 0.431070 0.750000 0.830603
O O15 0.520511 0.870855 0.773057
O O16 0.246283 0.443097 0.353627
O O17 0.000000 0.500000 0.500000
O O18 0.500000 0.000000 0.769993
O O19 0.598477 0.943472 0.950762
#
# Coordination Sequence:
#
# PCOD8072979 Si02
#       8
#     4   4   4   4   4   4   4   4
#     4   9  18  32  49  70  97 127 156 189 235 288
#     4   9  18  32  49  70  97 127 156 189 235 288
#     4   9  17  30  50  73  94 120 156 195 233 277
#     4  10  20  33  50  71  96 127 161 198 239 283
#     4   9  17  30  50  73  94 120 156 195 233 277
#     4  10  20  33  50  71  96 127 161 198 239 283
#     4   9  17  29  46  68  93 120 151 190 233 273
#     4   9  17  29  46  68  93 120 151 190 233 273
#
# _framework density 17.894127000000001
#
# number of rings (size 3 to 8) (size 9 to 14) (size 15 to 20)
#    0.000    2.750    0.000    1.500    0.000    4.000 
#    0.000    6.250    0.000    4.500    0.000    7.000 
#    0.000    0.000    0.000    0.000    0.000    0.000 
#
# Total GULP energy -396794.986729 kJ/mol
# GULP energy per Si atom -12399.843335 kJ/mol
# Density = 1.785340 g / cm^3
# Si number density = 17.894127 Si / 1000 Ang^3
#
#
#
# Elastic Constant Matrix: (Units=GPa)
#
#
# Indices 1 2 3 4 5 6 
#
# 1 126.9578 75.7487 47.8591 0.0000 -37.3260 0.0000
# 2 75.7487 120.6669 53.5472 0.0000 -28.4748 0.0000
# 3 47.8591 53.5472 72.8166 0.0000 -32.1130 0.0000
# 4 0.0000 0.0000 0.0000 27.6686 0.0000 -6.8695
# 5 -37.3260 -28.4748 -32.1130 0.0000 31.6839 0.0000
# 6 0.0000 0.0000 0.0000 -6.8695 0.0000 33.0247
#
#
#
# Elastic Compliance Matrix: (Units=1/GPa)
#
#
# Indices 1 2 3 4 5 6 
#
# 1 0.015570 -0.007023 0.000428 0.000000 0.012465 0.000000
# 2 -0.007023 0.015676 -0.007862 0.000000 -0.002153 0.000000
# 3 0.000428 -0.007862 0.029546 0.000000 0.023385 0.000000
# 4 0.000000 0.000000 0.000000 0.038110 0.000000 0.007927
# 5 0.012465 -0.002153 0.023385 0.000000 0.068014 0.000000
# 6 0.000000 0.000000 0.000000 0.007927 0.000000 0.031929
#
#
# Mechanical properties :
#
#
# Convention : Reuss Voigt Hill
#
# Bulk Modulus (GPa) = 31.36734 74.97236 53.16985
# Shear Modulus (GPa) = 20.97440 28.02787 24.50114
#
# Velocity S-wave (km/s) = 3.42737 3.96197 3.70432
# Velocity P-wave (km/s) = 5.76454 7.93210 6.93355
#
# Compressibility (1/GPa) = 0.03188029
#
# Stress axis : x y z
#
# Youngs Moduli (GPa) = 64.22571 63.79015 33.84516
#
# Poissons Ratio (x) = 0.44797 -0.01449
# Poissons Ratio (y) = 0.45103 0.26608
# Poissons Ratio (z) = -0.02749 0.50150
#
# Static dielectric constant tensor:
#      x y z
#    x 3.349530 0.000000 -0.195010 
#    y 0.000000 3.572920 0.000000 
#    z -0.195010 0.000000 3.197480 
# 
# 
# High freq. dielectric constant tensor:
#      x y z
#    x 1.682280 0.000000 -0.015870 
#    y 0.000000 1.707310 0.000000 
#    z -0.015870 0.000000 1.669910 
# 
# From -- ./inp_files/32664.got.cif
#   From: 2010.06.25/outbox.cif.g09.slc.cpg/sg11_17_cif.got.tgz:32664.got - 2010.06.27 23:14:04.
