data_PCOD8072061
_publ_section_title
;
Structure prediction by ZEFSAII (Michael W. Deem and Ramdas Pophale) SiO2 
 PCOD8072061
Probable space group: P 21/M
;
_chemical_formula_sum "Si O2"
_cell_formula_units_Z 28
_cell_length_a 27.476912
_cell_length_b 8.896495
_cell_length_c 9.547702
_cell_angle_alpha 90.000000
_cell_angle_beta 41.357382
_cell_angle_gamma 90.000000
_cell_volume 1542.145467
_symmetry_space_group_name_H-M "P 21/M"
_symmetry_group_IT_number 11
_symmetry_cell_setting 'monoclinic'
loop_
_space_group_symop_operation_xyz
x,y,z
-x,1/2+y,-z
-x,-y,-z
x,1/2-y,z
loop_
_atom_site_type_symbol
_atom_site_label
_atom_site_fract_x
_atom_site_fract_y
_atom_site_fract_z
Si Si1 0.012402 0.927923 0.322188
Si Si2 0.447257 0.077258 0.802154
Si Si3 0.853312 0.573015 0.136018
Si Si4 0.299030 0.574123 0.613818
Si Si5 0.935786 0.576737 0.220170
Si Si6 0.401346 0.423174 0.593449
Si Si7 0.576260 0.425898 0.879026
O O1 0.021208 0.750000 0.322970
O O2 0.941364 0.968511 0.373693
O O3 0.000000 0.000000 0.500000
O O4 0.085843 0.991912 0.091267
O O5 0.463182 0.250000 0.804610
O O6 0.400811 0.059917 0.761520
O O7 0.525806 0.996563 0.627191
O O8 0.399070 0.998364 0.026547
O O9 0.857810 0.750000 0.095316
O O10 0.774594 0.511449 0.265076
O O11 0.862949 0.539998 0.284353
O O12 0.282978 0.750000 0.661413
O O13 0.329290 0.510464 0.695463
O O14 0.359990 0.534955 0.366981
O O15 0.953691 0.750000 0.173105
O O16 0.000000 0.500000 0.000000
O O17 0.398888 0.250000 0.552052
O O18 0.564589 0.250000 0.920977
O O19 0.500000 0.500000 0.000000
#
# Coordination Sequence:
#
# PCOD8072061 Si02
#       7
#     4   4   4   4   4   4   4
#     4  10  19  34  57  86 116 146 182 223 264 314
#     4  10  20  34  53  78 104 133 177 228 277 329
#     4  10  20  36  57  81 109 144 183 223 273 329
#     4  11  23  37  54  79 110 143 181 228 279 331
#     4   8  16  31  53  79 107 140 178 218 259 310
#     4  10  20  34  54  77 103 140 180 222 274 330
#     4  11  22  35  54  78 105 139 183 231 277 326
#
# _framework density 18.156524000000001
#
# number of rings (size 3 to 8) (size 9 to 14) (size 15 to 20)
#    0.000    2.000    1.429    2.571    0.000    4.571 
#    0.000    1.429    0.000    5.143    0.000    0.000 
#    0.000    0.000    0.000    0.000    0.000    0.000 
#
# Total GULP energy -346990.825854 kJ/mol
# GULP energy per Si atom -12392.529495 kJ/mol
# Density = 1.811520 g / cm^3
# Si number density = 18.156524 Si / 1000 Ang^3
#
#
#
# Elastic Constant Matrix: (Units=GPa)
#
#
# Indices 1 2 3 4 5 6 
#
# 1 146.7771 52.3278 52.8518 0.0000 12.8174 0.0000
# 2 52.3278 78.6636 41.6672 0.0000 13.2266 0.0000
# 3 52.8518 41.6672 68.8408 0.0000 14.4883 0.0000
# 4 0.0000 0.0000 0.0000 31.2899 0.0000 2.2005
# 5 12.8174 13.2266 14.4883 0.0000 26.9236 0.0000
# 6 0.0000 0.0000 0.0000 2.2005 0.0000 31.4094
#
#
#
# Elastic Compliance Matrix: (Units=1/GPa)
#
#
# Indices 1 2 3 4 5 6 
#
# 1 0.010156 -0.003865 -0.005458 0.000000 0.000001 0.000000
# 2 -0.003865 0.020478 -0.008680 0.000000 -0.003549 0.000000
# 3 -0.005458 -0.008680 0.025403 0.000000 -0.006807 0.000000
# 4 0.000000 0.000000 0.000000 0.032117 0.000000 -0.002250
# 5 0.000001 -0.003549 -0.006807 0.000000 0.042548 0.000000
# 6 0.000000 0.000000 0.000000 -0.002250 0.000000 0.031995
#
#
# Mechanical properties :
#
#
# Convention : Reuss Voigt Hill
#
# Bulk Modulus (GPa) = 49.92414 65.33060 57.62737
# Shear Modulus (GPa) = 24.34472 27.75355 26.04914
#
# Velocity S-wave (km/s) = 3.66570 3.91394 3.79185
# Velocity P-wave (km/s) = 6.74334 7.51566 7.13995
#
# Compressibility (1/GPa) = 0.02003039
#
# Stress axis : x y z
#
# Youngs Moduli (GPa) = 98.46087 48.83256 39.36475
#
# Poissons Ratio (x) = 0.18874 0.21486
# Poissons Ratio (y) = 0.38056 0.34170
# Poissons Ratio (z) = 0.53742 0.42389
#
# Static dielectric constant tensor:
#      x y z
#    x 3.926000 0.000000 0.286470 
#    y 0.000000 3.558850 0.000000 
#    z 0.286470 0.000000 3.158310 
# 
# 
# High freq. dielectric constant tensor:
#      x y z
#    x 1.719970 0.000000 0.020720 
#    y 0.000000 1.722990 0.000000 
#    z 0.020720 0.000000 1.668870 
# 
# From -- ./inp_files/28339.got.cif
#   From: 2010.06.25/outbox.cif.g09.slc.cpg/sg11_15_cif.got.tgz:28339.got - 2010.06.27 23:14:04.
