data_PCOD8072026
_publ_section_title
;
Structure prediction by ZEFSAII (Michael W. Deem and Ramdas Pophale) SiO2 
 PCOD8072026
Probable space group: P 21/M
;
_chemical_formula_sum "Si O2"
_cell_formula_units_Z 32
_cell_length_a 9.192966
_cell_length_b 15.022165
_cell_length_c 11.805944
_cell_angle_alpha 90.000000
_cell_angle_beta 85.932778
_cell_angle_gamma 90.000000
_cell_volume 1626.274154
_symmetry_space_group_name_H-M "P 21/M"
_symmetry_group_IT_number 11
_symmetry_cell_setting 'monoclinic'
loop_
_space_group_symop_operation_xyz
x,y,z
-x,1/2+y,-z
-x,-y,-z
x,1/2-y,z
loop_
_atom_site_type_symbol
_atom_site_label
_atom_site_fract_x
_atom_site_fract_y
_atom_site_fract_z
Si Si1 0.609700 0.930056 0.439574
Si Si2 0.663497 0.152891 0.619010
Si Si3 0.542875 0.408071 0.053564
Si Si4 0.760375 0.151574 0.859966
Si Si5 0.933939 0.521680 0.820660
Si Si6 0.150767 0.013664 0.428684
Si Si7 0.732990 0.985808 0.194110
Si Si8 0.755559 0.647788 0.988252
O O1 0.504210 0.847411 0.416143
O O2 0.687283 0.960255 0.321214
O O3 0.500000 0.000000 0.500000
O O4 0.743940 0.911323 0.519340
O O5 0.728710 0.250000 0.586973
O O6 0.662355 0.135283 0.754000
O O7 0.767712 0.080342 0.556607
O O8 0.624126 0.433750 0.165278
O O9 0.393762 0.352809 0.078201
O O10 0.500000 0.500000 0.000000
O O11 0.652895 0.351888 0.971370
O O12 0.833932 0.250000 0.852840
O O13 0.885467 0.076992 0.863763
O O14 0.870970 0.541703 0.699616
O O15 0.878603 0.595743 0.911243
O O16 0.106502 0.526946 0.811381
O O17 0.000000 0.000000 0.500000
O O18 0.727936 0.900819 0.110039
O O19 0.804185 0.750000 0.005732
#
# Coordination Sequence:
#
# PCOD8072026 Si02
#       8
#     4   4   4   4   4   4   4   4
#     4  10  21  36  64  91 113 157 209 254 307 369
#     4   9  19  35  59  90 119 148 199 264 309 351
#     4  10  19  34  57  82 117 157 198 244 299 360
#     4  10  19  34  59  90 122 160 201 250 310 368
#     4  11  22  40  62  89 130 165 200 251 313 373
#     4  10  20  39  63  85 118 166 208 244 304 378
#     4  11  22  38  63  91 121 161 204 256 310 368
#     4  11  24  40  62  93 127 162 206 256 309 370
#
# _framework density 19.676879
#
# number of rings (size 3 to 8) (size 9 to 14) (size 15 to 20)
#    0.000    1.750    3.750    2.250    3.500    2.000 
#    0.000    2.500    0.000    0.750    0.000    0.000 
#    0.000    0.000    0.000    0.000    0.000    0.000 
#
# Total GULP energy -396575.881648 kJ/mol
# GULP energy per Si atom -12392.996302 kJ/mol
# Density = 1.963209 g / cm^3
# Si number density = 19.676879 Si / 1000 Ang^3
#
#
#
# Elastic Constant Matrix: (Units=GPa)
#
#
# Indices 1 2 3 4 5 6 
#
# 1 102.1553 17.0172 27.8257 0.0000 3.7541 0.0000
# 2 17.0172 77.3831 32.0810 0.0000 -1.0833 0.0000
# 3 27.8257 32.0810 84.9983 0.0000 -5.3995 0.0000
# 4 0.0000 0.0000 0.0000 17.5369 0.0000 0.6567
# 5 3.7541 -1.0833 -5.3995 0.0000 38.5861 0.0000
# 6 0.0000 0.0000 0.0000 0.6567 0.0000 14.3060
#
#
#
# Elastic Compliance Matrix: (Units=1/GPa)
#
#
# Indices 1 2 3 4 5 6 
#
# 1 0.010914 -0.001067 -0.003269 0.000000 -0.001549 0.000000
# 2 -0.001067 0.015430 -0.005489 0.000000 -0.000231 0.000000
# 3 -0.003269 -0.005489 0.015051 0.000000 0.002270 0.000000
# 4 0.000000 0.000000 0.000000 0.057121 0.000000 -0.002622
# 5 -0.001549 -0.000231 0.002270 0.000000 0.026378 0.000000
# 6 0.000000 0.000000 0.000000 -0.002622 0.000000 0.070021
#
#
# Mechanical properties :
#
#
# Convention : Reuss Voigt Hill
#
# Bulk Modulus (GPa) = 45.98615 46.48716 46.23665
# Shear Modulus (GPa) = 22.54161 26.59332 24.56747
#
# Velocity S-wave (km/s) = 3.38833 3.68026 3.53731
# Velocity P-wave (km/s) = 6.22327 6.46032 6.34290
#
# Compressibility (1/GPa) = 0.02174568
#
# Stress axis : x y z
#
# Youngs Moduli (GPa) = 91.62554 64.81001 66.44073
#
# Poissons Ratio (x) = 0.06913 0.21718
# Poissons Ratio (y) = 0.09773 0.36470
# Poissons Ratio (z) = 0.29950 0.35575
#
# Static dielectric constant tensor:
#      x y z
#    x 3.915480 0.000000 0.378020 
#    y 0.000000 3.588590 0.000000 
#    z 0.378020 0.000000 3.672390 
# 
# 
# High freq. dielectric constant tensor:
#      x y z
#    x 1.780560 0.000000 0.006410 
#    y 0.000000 1.738750 0.000000 
#    z 0.006410 0.000000 1.764430 
# 
# From -- ./inp_files/31868.got.cif
#   From: 2010.06.25/outbox.cif.g09.slc.cpg/sg11_16_cif.got.tgz:31868.got - 2010.06.27 23:14:04.
