data_PCOD8072434
_publ_section_title
;
Structure prediction by ZEFSAII (Michael W. Deem and Ramdas Pophale) SiO2 
 PCOD8072434
Probable space group: P 21/M
;
_chemical_formula_sum "Si O2"
_cell_formula_units_Z 32
_cell_length_a 11.277385
_cell_length_b 15.658156
_cell_length_c 18.388931
_cell_angle_alpha 90.000000
_cell_angle_beta 147.958587
_cell_angle_gamma 90.000000
_cell_volume 1722.729788
_symmetry_space_group_name_H-M "P 21/M"
_symmetry_group_IT_number 11
_symmetry_cell_setting 'monoclinic'
loop_
_space_group_symop_operation_xyz
x,y,z
-x,1/2+y,-z
-x,-y,-z
x,1/2-y,z
loop_
_atom_site_type_symbol
_atom_site_label
_atom_site_fract_x
_atom_site_fract_y
_atom_site_fract_z
Si Si1 0.574274 0.151567 0.661756
Si Si2 0.259177 0.989542 0.143634
Si Si3 0.455823 0.489810 0.094726
Si Si4 0.333760 0.577209 0.435490
Si Si5 0.069352 0.347563 0.379163
Si Si6 0.856152 0.998937 0.201312
Si Si7 0.508688 0.651782 0.672409
Si Si8 0.296181 0.655833 0.705450
O O1 0.586117 0.250000 0.693762
O O2 0.696226 0.140496 0.648097
O O3 0.320209 0.119159 0.518681
O O4 0.691262 0.091008 0.780249
O O5 0.318155 0.080271 0.211065
O O6 0.382898 0.964824 0.131986
O O7 0.000000 0.000000 0.000000
O O8 0.672211 0.531400 0.166222
O O9 0.521700 0.395417 0.153614
O O10 0.244630 0.486653 0.931133
O O11 0.500000 0.500000 0.500000
O O12 0.437813 0.632212 0.554096
O O13 0.085117 0.552065 0.330755
O O14 0.065483 0.250000 0.349908
O O15 0.925807 0.401593 0.246330
O O16 0.957109 0.361173 0.400153
O O17 0.602767 0.750000 0.724615
O O18 0.301407 0.641340 0.621164
O O19 0.371656 0.750000 0.765308
#
# Coordination Sequence:
#
# PCOD8072434 Si02
#       8
#     4   4   4   4   4   4   4   4
#     4  11  23  38  56  82 112 145 189 233 284 338
#     4  11  22  38  59  82 115 151 187 231 281 334
#     4   9  20  34  56  82 110 148 188 226 272 337
#     4  12  21  36  57  81 112 148 182 234 282 328
#     4   9  17  32  56  81 108 141 179 230 281 330
#     4  10  19  36  56  81 111 147 188 228 278 330
#     4  10  21  37  57  84 111 143 188 231 278 336
#     4   8  16  33  55  80 109 142 182 225 274 331
#
# _framework density 18.575172999999999
#
# number of rings (size 3 to 8) (size 9 to 14) (size 15 to 20)
#    0.000    2.000    2.500    1.125    0.000    1.500 
#    0.000    8.125    0.000    3.000    0.000    0.000 
#    0.000    0.000    0.000    0.000    0.000    0.000 
#
# Total GULP energy -396475.523804 kJ/mol
# GULP energy per Si atom -12389.860119 kJ/mol
# Density = 1.853289 g / cm^3
# Si number density = 18.575173 Si / 1000 Ang^3
#
#
#
# Elastic Constant Matrix: (Units=GPa)
#
#
# Indices 1 2 3 4 5 6 
#
# 1 118.0937 49.7575 61.1730 0.0000 -11.2925 0.0000
# 2 49.7575 85.4106 43.7724 0.0000 -6.2889 0.0000
# 3 61.1730 43.7724 95.0320 0.0000 -4.7177 0.0000
# 4 0.0000 0.0000 0.0000 21.7042 0.0000 -2.7175
# 5 -11.2925 -6.2889 -4.7177 0.0000 36.6001 0.0000
# 6 0.0000 0.0000 0.0000 -2.7175 0.0000 26.1245
#
#
#
# Elastic Compliance Matrix: (Units=1/GPa)
#
#
# Indices 1 2 3 4 5 6 
#
# 1 0.014232 -0.004536 -0.006937 0.000000 0.002718 0.000000
# 2 -0.004536 0.016882 -0.004812 0.000000 0.000881 0.000000
# 3 -0.006937 -0.004812 0.017168 0.000000 -0.000754 0.000000
# 4 0.000000 0.000000 0.000000 0.046682 0.000000 0.004856
# 5 0.002718 0.000881 -0.000754 0.000000 0.028215 0.000000
# 6 0.000000 0.000000 0.000000 0.004856 0.000000 0.038783
#
#
# Mechanical properties :
#
#
# Convention : Reuss Voigt Hill
#
# Bulk Modulus (GPa) = 63.65143 67.54914 65.60029
# Shear Modulus (GPa) = 25.02873 26.47465 25.75169
#
# Velocity S-wave (km/s) = 3.67472 3.77937 3.72741
# Velocity P-wave (km/s) = 7.23506 7.44910 7.34286
#
# Compressibility (1/GPa) = 0.01571056
#
# Stress axis : x y z
#
# Youngs Moduli (GPa) = 70.26173 59.23540 58.24927
#
# Poissons Ratio (x) = 0.26869 0.40410
# Poissons Ratio (y) = 0.31870 0.28031
# Poissons Ratio (z) = 0.48743 0.28506
#
# Static dielectric constant tensor:
#      x y z
#    x 3.858760 0.000000 0.029130 
#    y 0.000000 2.942920 0.000000 
#    z 0.029130 0.000000 3.229790 
# 
# 
# High freq. dielectric constant tensor:
#      x y z
#    x 1.741740 0.000000 0.000710 
#    y 0.000000 1.712830 0.000000 
#    z 0.000710 0.000000 1.703570 
# 
# From -- ./inp_files/59494.got.cif
#   From: 2010.06.25/outbox.cif.g09.slc.cpg/sg11_30_cif.got.tgz:59494.got - 2010.06.27 23:14:04.
