data_PCOD8072285
_publ_section_title
;
Structure prediction by ZEFSAII (Michael W. Deem and Ramdas Pophale) SiO2 
 PCOD8072285
Probable space group: P 21/M
;
_chemical_formula_sum "Si O2"
_cell_formula_units_Z 28
_cell_length_a 9.369846
_cell_length_b 8.685996
_cell_length_c 26.320273
_cell_angle_alpha 90.000000
_cell_angle_beta 43.605775
_cell_angle_gamma 90.000000
_cell_volume 1477.399647
_symmetry_space_group_name_H-M "P 21/M"
_symmetry_group_IT_number 11
_symmetry_cell_setting 'monoclinic'
loop_
_space_group_symop_operation_xyz
x,y,z
-x,1/2+y,-z
-x,-y,-z
x,1/2-y,z
loop_
_atom_site_type_symbol
_atom_site_label
_atom_site_fract_x
_atom_site_fract_y
_atom_site_fract_z
Si Si1 0.364598 0.573390 0.188222
Si Si2 0.096800 0.921427 0.810253
Si Si3 0.044131 0.580199 0.708485
Si Si4 0.932545 0.430264 0.571631
Si Si5 0.339995 0.568403 0.080470
Si Si6 0.280492 0.430023 0.564659
Si Si7 0.463743 0.431657 0.266826
O O1 0.431217 0.750000 0.178382
O O2 0.410721 0.512227 0.118855
O O3 0.463223 0.471025 0.206992
O O4 0.119740 0.556089 0.257689
O O5 0.063843 0.750000 0.841560
O O6 0.132468 0.913409 0.741594
O O7 0.309720 0.995991 0.775791
O O8 0.891243 0.018498 0.875979
O O9 0.954435 0.750000 0.716631
O O10 0.231458 0.532104 0.625829
O O11 0.896311 0.250000 0.573537
O O12 0.720804 0.496129 0.651547
O O13 0.000000 0.500000 0.500000
O O14 0.122143 0.466172 0.560086
O O15 0.347876 0.750000 0.076635
O O16 0.500000 0.500000 0.000000
O O17 0.500000 0.500000 0.500000
O O18 0.289170 0.250000 0.574684
O O19 0.450458 0.250000 0.278510
#
# Coordination Sequence:
#
# PCOD8072285 Si02
#       7
#     4   4   4   4   4   4   4
#     4  10  20  36  58  86 116 150 191 234 281 341
#     4   9  21  38  58  87 119 150 191 237 283 340
#     4  10  19  35  58  81 108 146 189 237 288 341
#     4  11  25  42  59  82 116 155 198 248 299 351
#     4  10  21  38  63  91 121 154 191 236 286 342
#     4  11  24  39  56  80 111 146 192 245 294 347
#     4  11  22  38  61  87 118 156 196 241 292 348
#
# _framework density 18.952217000000001
#
# number of rings (size 3 to 8) (size 9 to 14) (size 15 to 20)
#    0.000    1.714    1.429    2.571    2.000    5.143 
#    0.000    0.714    0.000    0.000    0.000    0.000 
#    0.000    0.000    0.000    0.000    0.000    0.000 
#
# Total GULP energy -346935.102652 kJ/mol
# GULP energy per Si atom -12390.539380 kJ/mol
# Density = 1.890908 g / cm^3
# Si number density = 18.952217 Si / 1000 Ang^3
#
#
#
# Elastic Constant Matrix: (Units=GPa)
#
#
# Indices 1 2 3 4 5 6 
#
# 1 108.1252 48.8763 72.0163 0.0000 -17.5358 0.0000
# 2 48.8763 79.5884 52.3436 0.0000 0.9131 0.0000
# 3 72.0163 52.3436 154.4833 0.0000 0.6737 0.0000
# 4 0.0000 0.0000 0.0000 31.7594 0.0000 0.0072
# 5 -17.5358 0.9131 0.6737 0.0000 21.3611 0.0000
# 6 0.0000 0.0000 0.0000 0.0072 0.0000 29.9962
#
#
#
# Elastic Compliance Matrix: (Units=1/GPa)
#
#
# Indices 1 2 3 4 5 6 
#
# 1 0.020207 -0.008186 -0.006721 0.000000 0.017150 0.000000
# 2 -0.008186 0.019489 -0.002755 0.000000 -0.007466 0.000000
# 3 -0.006721 -0.002755 0.010565 0.000000 -0.005733 0.000000
# 4 0.000000 0.000000 0.000000 0.031487 0.000000 -0.000008
# 5 0.017150 -0.007466 -0.005733 0.000000 0.061393 0.000000
# 6 0.000000 0.000000 0.000000 -0.000008 0.000000 0.033338
#
#
# Mechanical properties :
#
#
# Convention : Reuss Voigt Hill
#
# Bulk Modulus (GPa) = 66.94690 76.51878 71.73284
# Shear Modulus (GPa) = 23.06480 27.88738 25.47609
#
# Velocity S-wave (km/s) = 3.49233 3.84012 3.67035
# Velocity P-wave (km/s) = 7.18767 7.75398 7.47619
#
# Compressibility (1/GPa) = 0.01493721
#
# Stress axis : x y z
#
# Youngs Moduli (GPa) = 49.48853 51.31069 94.65313
#
# Poissons Ratio (x) = 0.42001 0.63618
# Poissons Ratio (y) = 0.40509 0.26077
# Poissons Ratio (z) = 0.33262 0.14136
#
# Static dielectric constant tensor:
#      x y z
#    x 4.002990 0.000000 0.280400 
#    y 0.000000 3.625400 0.000000 
#    z 0.280400 0.000000 3.494980 
# 
# 
# High freq. dielectric constant tensor:
#      x y z
#    x 1.738610 0.000000 0.005000 
#    y 0.000000 1.745630 0.000000 
#    z 0.005000 0.000000 1.735370 
# 
# From -- ./inp_files/70798.got.cif
#   From: 2010.06.25/outbox.cif.g09.slc.cpg/sg11_36_cif.got.tgz:70798.got - 2010.06.27 23:14:04.
