data_PCOD8072078
_publ_section_title
;
Structure prediction by ZEFSAII (Michael W. Deem and Ramdas Pophale) SiO2 
 PCOD8072078
Probable space group: P 21/M
;
_chemical_formula_sum "Si O2"
_cell_formula_units_Z 32
_cell_length_a 16.680408
_cell_length_b 12.973494
_cell_length_c 14.538382
_cell_angle_alpha 90.000000
_cell_angle_beta 150.954158
_cell_angle_gamma 90.000000
_cell_volume 1527.485874
_symmetry_space_group_name_H-M "P 21/M"
_symmetry_group_IT_number 11
_symmetry_cell_setting 'monoclinic'
loop_
_space_group_symop_operation_xyz
x,y,z
-x,1/2+y,-z
-x,-y,-z
x,1/2-y,z
loop_
_atom_site_type_symbol
_atom_site_label
_atom_site_fract_x
_atom_site_fract_y
_atom_site_fract_z
Si Si1 0.015782 0.965574 0.619418
Si Si2 0.743872 0.366508 0.878336
Si Si3 0.657118 0.528047 0.277587
Si Si4 0.662334 0.130850 0.116979
Si Si5 0.538615 0.958845 0.756624
Si Si6 0.316598 0.867392 0.396396
Si Si7 0.861068 0.867251 0.120984
Si Si8 0.009998 0.985904 0.117767
O O1 0.836671 0.914387 0.465058
O O2 0.178347 0.892566 0.789927
O O3 0.000000 0.000000 0.500000
O O4 0.032047 0.063723 0.702681
O O5 0.739282 0.250000 0.908375
O O6 0.618674 0.430739 0.814473
O O7 0.682114 0.378438 0.711702
O O8 0.933965 0.407509 0.082778
O O9 0.671183 0.437740 0.216768
O O10 0.619514 0.475379 0.337650
O O11 0.509872 0.607660 0.107586
O O12 0.666449 0.250000 0.149124
O O13 0.492283 0.897258 0.616488
O O14 0.667185 0.888242 0.942640
O O15 0.267033 0.750000 0.372927
O O16 0.196672 0.951804 0.325125
O O17 0.905971 0.750000 0.187238
O O18 0.897184 0.895649 0.049704
O O19 0.000000 0.000000 0.000000
#
# Coordination Sequence:
#
# PCOD8072078 Si02
#       8
#     4   4   4   4   4   4   4   4
#     4  10  22  42  63  91 130 164 211 267 324 381
#     4   9  20  37  57  81 122 172 209 251 311 371
#     4  10  22  40  61  92 121 157 207 255 309 375
#     4  10  22  42  63  87 122 162 202 254 316 377
#     4  11  21  37  59  90 127 160 207 265 313 374
#     4  10  19  34  57  88 121 162 210 256 315 375
#     4  11  22  38  62  94 128 168 213 266 324 386
#     4   9  19  36  58  87 124 163 208 266 314 370
#
# _framework density 20.949456999999999
#
# number of rings (size 3 to 8) (size 9 to 14) (size 15 to 20)
#    0.000    2.000    1.250    1.875    0.000    4.500 
#    0.000    0.625    0.000    2.250    0.000    0.000 
#    0.000    0.000    0.000    0.000    0.000    0.000 
#
# Total GULP energy -396420.018712 kJ/mol
# GULP energy per Si atom -12388.125585 kJ/mol
# Density = 2.090178 g / cm^3
# Si number density = 20.949457 Si / 1000 Ang^3
#
#
#
# Elastic Constant Matrix: (Units=GPa)
#
#
# Indices 1 2 3 4 5 6 
#
# 1 98.2647 33.5306 34.1086 0.0000 17.5286 0.0000
# 2 33.5306 112.4276 40.9765 0.0000 0.6002 0.0000
# 3 34.1086 40.9765 112.6890 0.0000 20.6272 0.0000
# 4 0.0000 0.0000 0.0000 23.0435 0.0000 -0.0878
# 5 17.5286 0.6002 20.6272 0.0000 33.6423 0.0000
# 6 0.0000 0.0000 0.0000 -0.0878 0.0000 20.5826
#
#
#
# Elastic Compliance Matrix: (Units=1/GPa)
#
#
# Indices 1 2 3 4 5 6 
#
# 1 0.012853 -0.003180 -0.001711 0.000000 -0.005591 0.000000
# 2 -0.003180 0.011211 -0.003808 0.000000 0.003792 0.000000
# 3 -0.001711 -0.003808 0.011941 0.000000 -0.006362 0.000000
# 4 0.000000 0.000000 0.000000 0.043397 0.000000 0.000185
# 5 -0.005591 0.003792 -0.006362 0.000000 0.036471 0.000000
# 6 0.000000 0.000000 0.000000 0.000185 0.000000 0.048585
#
#
# Mechanical properties :
#
#
# Convention : Reuss Voigt Hill
#
# Bulk Modulus (GPa) = 53.74193 60.06807 56.90500
# Shear Modulus (GPa) = 26.58767 29.77140 28.17953
#
# Velocity S-wave (km/s) = 3.56636 3.77385 3.67157
# Velocity P-wave (km/s) = 6.53202 6.90828 6.72278
#
# Compressibility (1/GPa) = 0.01860745
#
# Stress axis : x y z
#
# Youngs Moduli (GPa) = 77.80426 89.20062 83.74512
#
# Poissons Ratio (x) = 0.28365 0.14325
# Poissons Ratio (y) = 0.24741 0.31890
# Poissons Ratio (z) = 0.13309 0.33968
#
# Static dielectric constant tensor:
#      x y z
#    x 4.044170 0.000000 0.279990 
#    y 0.000000 3.607410 0.000000 
#    z 0.279990 0.000000 4.045680 
# 
# 
# High freq. dielectric constant tensor:
#      x y z
#    x 1.830480 0.000000 0.003600 
#    y 0.000000 1.793510 0.000000 
#    z 0.003600 0.000000 1.825850 
# 
# From -- ./inp_files/53667.got.cif
#   From: 2010.06.25/outbox.cif.g09.slc.cpg/sg11_27_cif.got.tgz:53667.got - 2010.06.27 23:14:04.
