data_PCOD8072387
_publ_section_title
;
Structure prediction by ZEFSAII (Michael W. Deem and Ramdas Pophale) SiO2 
 PCOD8072387
Probable space group: P 21/M
;
_chemical_formula_sum "Si O2"
_cell_formula_units_Z 20
_cell_length_a 17.759203
_cell_length_b 10.073331
_cell_length_c 11.832732
_cell_angle_alpha 90.000000
_cell_angle_beta 29.040214
_cell_angle_gamma 90.000000
_cell_volume 1027.548390
_symmetry_space_group_name_H-M "P 21/M"
_symmetry_group_IT_number 11
_symmetry_cell_setting 'monoclinic'
loop_
_space_group_symop_operation_xyz
x,y,z
-x,1/2+y,-z
-x,-y,-z
x,1/2-y,z
loop_
_atom_site_type_symbol
_atom_site_label
_atom_site_fract_x
_atom_site_fract_y
_atom_site_fract_z
Si Si1 0.007640 0.250000 0.170283
Si Si2 0.902709 0.479750 0.016018
Si Si3 0.484812 0.250000 0.842288
Si Si4 0.973632 0.394378 0.689969
Si Si5 0.245523 0.019154 0.189605
Si Si6 0.739752 0.250000 0.333352
Si Si7 0.260516 0.750000 0.299518
O O1 0.877543 0.250000 0.243803
O O2 0.913649 0.250000 0.414501
O O3 0.126040 0.374075 0.999987
O O4 0.754721 0.385844 0.238457
O O5 0.998472 0.406255 0.791833
O O6 0.000000 0.500000 0.000000
O O7 0.570416 0.250000 0.609245
O O8 0.611124 0.250000 0.773403
O O9 0.389628 0.113387 0.973270
O O10 0.906765 0.250000 0.746919
O O11 0.853245 0.500712 0.796084
O O12 0.143769 0.406313 0.415752
O O13 0.292468 0.877535 0.179720
#
# Coordination Sequence:
#
# PCOD8072387 Si02
#       7
#     2   4   2   4   4   2   2
#     4   9  18  31  56  89 117 141 196 258 291 342
#     4  10  19  35  60  89 116 153 201 250 299 351
#     4  11  24  41  58  85 128 171 201 243 297 375
#     4  11  21  37  65  92 123 153 201 267 309 350
#     4  11  23  38  61  94 124 159 202 247 316 364
#     4   9  20  36  56  79 118 162 195 238 298 350
#     4  11  20  38  58  91 127 158 196 247 310 369
#
# _framework density 19.463802999999999
#
# number of rings (size 3 to 8) (size 9 to 14) (size 15 to 20)
#    0.000    1.600    5.000    0.600    0.000    0.800 
#    0.000    2.000    0.000    0.000    0.000    0.000 
#    0.000    0.000    0.000    0.000    0.000    0.000 
#
# Total GULP energy -247764.763341 kJ/mol
# GULP energy per Si atom -12388.238167 kJ/mol
# Density = 1.941950 g / cm^3
# Si number density = 19.463803 Si / 1000 Ang^3
#
#
#
# Elastic Constant Matrix: (Units=GPa)
#
#
# Indices 1 2 3 4 5 6 
#
# 1 57.0796 21.8472 50.7614 0.0000 11.4419 0.0000
# 2 21.8472 175.3443 83.7999 0.0000 9.6699 0.0000
# 3 50.7614 83.7999 138.2264 0.0000 22.6927 0.0000
# 4 0.0000 0.0000 0.0000 30.2802 0.0000 7.2308
# 5 11.4419 9.6699 22.6927 0.0000 25.3273 0.0000
# 6 0.0000 0.0000 0.0000 7.2308 0.0000 24.6426
#
#
#
# Elastic Compliance Matrix: (Units=1/GPa)
#
#
# Indices 1 2 3 4 5 6 
#
# 1 0.026717 0.001800 -0.010327 0.000000 -0.003504 0.000000
# 2 0.001800 0.008201 -0.005845 0.000000 0.001293 0.000000
# 3 -0.010327 -0.005845 0.015756 0.000000 -0.007220 0.000000
# 4 0.000000 0.000000 0.000000 0.035513 0.000000 -0.010421
# 5 -0.003504 0.001293 -0.007220 0.000000 0.047041 0.000000
# 6 0.000000 0.000000 0.000000 -0.010421 0.000000 0.043638
#
#
# Mechanical properties :
#
#
# Convention : Reuss Voigt Hill
#
# Bulk Modulus (GPa) = 45.60183 75.94082 60.77133
# Shear Modulus (GPa) = 23.48288 30.33281 26.90784
#
# Velocity S-wave (km/s) = 3.47722 3.95197 3.72217
# Velocity P-wave (km/s) = 6.29296 7.74114 7.05431
#
# Compressibility (1/GPa) = 0.02192894
#
# Stress axis : x y z
#
# Youngs Moduli (GPa) = 37.42922 121.93677 63.46788
#
# Poissons Ratio (x) = -0.21949 0.65546
# Poissons Ratio (y) = -0.06737 0.37098
# Poissons Ratio (z) = 0.38655 0.71274
#
# Static dielectric constant tensor:
#      x y z
#    x 3.613120 0.000000 0.384790 
#    y 0.000000 4.055840 0.000000 
#    z 0.384790 0.000000 3.470280 
# 
# 
# High freq. dielectric constant tensor:
#      x y z
#    x 1.746030 0.000000 0.035890 
#    y 0.000000 1.784460 0.000000 
#    z 0.035890 0.000000 1.728730 
# 
# From -- ./inp_files/30969.got.cif
#   From: 2010.06.25/outbox.cif.g09.slc.cpg/sg11_16_cif.got.tgz:30969.got - 2010.06.27 23:14:04.
