data_PCOD8072967
_publ_section_title
;
Structure prediction by ZEFSAII (Michael W. Deem and Ramdas Pophale) SiO2 
 PCOD8072967
Probable space group: P 21/M
;
_chemical_formula_sum "Si O2"
_cell_formula_units_Z 32
_cell_length_a 17.813964
_cell_length_b 8.854474
_cell_length_c 23.853877
_cell_angle_alpha 90.000000
_cell_angle_beta 149.499384
_cell_angle_gamma 90.000000
_cell_volume 1909.673467
_symmetry_space_group_name_H-M "P 21/M"
_symmetry_group_IT_number 11
_symmetry_cell_setting 'monoclinic'
loop_
_space_group_symop_operation_xyz
x,y,z
-x,1/2+y,-z
-x,-y,-z
x,1/2-y,z
loop_
_atom_site_type_symbol
_atom_site_label
_atom_site_fract_x
_atom_site_fract_y
_atom_site_fract_z
Si Si1 0.773333 0.926410 0.598814
Si Si2 0.053405 0.928079 0.976721
Si Si3 0.336686 0.927550 0.672155
Si Si4 0.359786 0.072304 0.180890
Si Si5 0.554222 0.076541 0.649690
Si Si6 0.893479 0.573317 0.559566
Si Si7 0.114051 0.926543 0.614732
Si Si8 0.828771 0.423879 0.749942
O O1 0.784220 0.750000 0.621359
O O2 0.606681 0.970812 0.475297
O O3 0.881585 0.971393 0.616988
O O4 0.827397 0.026623 0.684833
O O5 0.053218 0.750000 0.984285
O O6 0.946514 0.974020 0.857803
O O7 0.217339 0.983737 0.067269
O O8 0.000000 0.000000 0.000000
O O9 0.327592 0.750000 0.657384
O O10 0.505790 0.979816 0.773251
O O11 0.277865 0.974503 0.697444
O O12 0.236366 0.996726 0.559030
O O13 0.328816 0.250000 0.157709
O O14 0.397175 0.030969 0.268732
O O15 0.556465 0.250000 0.672043
O O16 0.666224 0.051009 0.670598
O O17 0.864318 0.750000 0.534385
O O18 0.059165 0.528364 0.642436
O O19 0.098395 0.750000 0.597456
O O20 0.000000 0.000000 0.500000
O O21 0.877756 0.250000 0.786009
#
# Coordination Sequence:
#
# PCOD8072967 Si02
#       8
#     4   4   4   4   4   4   4   4
#     4  10  20  33  49  73 103 136 172 207 245 293
#     4  12  24  39  57  75  97 127 165 210 254 297
#     4   9  17  28  44  70 102 131 164 204 245 292
#     4  11  21  32  51  76 101 134 169 205 251 296
#     4  10  20  34  51  71 100 134 169 206 245 292
#     4   9  16  27  46  69  98 136 169 199 242 293
#     4   8  14  25  41  65  97 131 164 198 239 290
#     4  11  23  37  53  73  97 132 172 209 251 296
#
# _framework density 16.756791
#
# number of rings (size 3 to 8) (size 9 to 14) (size 15 to 20)
#    0.000    2.000    2.500    2.250    0.000    2.000 
#    0.000    0.000    0.000    0.000    0.000    0.875 
#    0.000    0.000    0.000    0.000    0.000    0.000 
#
# Total GULP energy -396581.268031 kJ/mol
# GULP energy per Si atom -12393.164626 kJ/mol
# Density = 1.671865 g / cm^3
# Si number density = 16.756791 Si / 1000 Ang^3
#
#
#
# Elastic Constant Matrix: (Units=GPa)
#
#
# Indices 1 2 3 4 5 6 
#
# 1 138.3341 27.9839 42.3782 0.0000 20.9263 0.0000
# 2 27.9839 51.0531 20.1495 0.0000 8.6326 0.0000
# 3 42.3782 20.1495 60.8377 0.0000 6.2949 0.0000
# 4 0.0000 0.0000 0.0000 25.3897 0.0000 -1.8603
# 5 20.9263 8.6326 6.2949 0.0000 19.8684 0.0000
# 6 0.0000 0.0000 0.0000 -1.8603 0.0000 17.5403
#
#
#
# Elastic Compliance Matrix: (Units=1/GPa)
#
#
# Indices 1 2 3 4 5 6 
#
# 1 0.010760 -0.002122 -0.005909 0.000000 -0.008539 0.000000
# 2 -0.002122 0.024144 -0.005856 0.000000 -0.006400 0.000000
# 3 -0.005909 -0.005856 0.022317 0.000000 0.001697 0.000000
# 4 0.000000 0.000000 0.000000 0.039695 0.000000 0.004210
# 5 -0.008539 -0.006400 0.001697 0.000000 0.061568 0.000000
# 6 0.000000 0.000000 0.000000 0.004210 0.000000 0.057458
#
#
# Mechanical properties :
#
#
# Convention : Reuss Voigt Hill
#
# Bulk Modulus (GPa) = 33.95922 47.91648 40.93785
# Shear Modulus (GPa) = 19.72144 23.20723 21.46433
#
# Velocity S-wave (km/s) = 3.43435 3.72552 3.58290
# Velocity P-wave (km/s) = 6.00302 6.86756 6.44979
#
# Compressibility (1/GPa) = 0.02944709
#
# Stress axis : x y z
#
# Youngs Moduli (GPa) = 92.93694 41.41805 44.80863
#
# Poissons Ratio (x) = 0.08789 0.26477
# Poissons Ratio (y) = 0.19721 0.26241
# Poissons Ratio (z) = 0.54915 0.24255
#
# Static dielectric constant tensor:
#      x y z
#    x 3.800040 0.000000 0.345790 
#    y 0.000000 3.173940 0.000000 
#    z 0.345790 0.000000 3.027900 
# 
# 
# High freq. dielectric constant tensor:
#      x y z
#    x 1.659240 0.000000 0.019090 
#    y 0.000000 1.650980 0.000000 
#    z 0.019090 0.000000 1.607410 
# 
# From -- ./inp_files/64207.got.cif
#   From: 2010.06.25/outbox.cif.g09.slc.cpg/sg11_33_cif.got.tgz:64207.got - 2010.06.27 23:14:04.
