data_PCOD8072876
_publ_section_title
;
Structure prediction by ZEFSAII (Michael W. Deem and Ramdas Pophale) SiO2 
 PCOD8072876
Probable space group: P 21/M
;
_chemical_formula_sum "Si O2"
_cell_formula_units_Z 28
_cell_length_a 14.060685
_cell_length_b 9.461074
_cell_length_c 13.670761
_cell_angle_alpha 90.000000
_cell_angle_beta 119.072007
_cell_angle_gamma 90.000000
_cell_volume 1589.482956
_symmetry_space_group_name_H-M "P 21/M"
_symmetry_group_IT_number 11
_symmetry_cell_setting 'monoclinic'
loop_
_space_group_symop_operation_xyz
x,y,z
-x,1/2+y,-z
-x,-y,-z
x,1/2-y,z
loop_
_atom_site_type_symbol
_atom_site_label
_atom_site_fract_x
_atom_site_fract_y
_atom_site_fract_z
Si Si1 0.358700 0.413371 0.504291
Si Si2 0.140448 0.087163 0.499434
Si Si3 0.104482 0.585504 0.670153
Si Si4 0.136947 0.090271 0.869188
Si Si5 0.449098 0.411343 0.340990
Si Si6 0.757376 0.912821 0.874377
Si Si7 0.934887 0.088561 0.888905
O O1 0.380824 0.250000 0.534220
O O2 0.234949 0.453107 0.469870
O O3 0.380101 0.455815 0.402702
O O4 0.442881 0.495703 0.616707
O O5 0.148692 0.250000 0.537838
O O6 0.025073 0.059381 0.389947
O O7 0.155073 0.987545 0.600296
O O8 0.134306 0.750000 0.682824
O O9 0.161181 0.516092 0.793066
O O10 0.168127 0.250000 0.853951
O O11 0.007233 0.083616 0.827015
O O12 0.210392 0.043373 0.999056
O O13 0.487027 0.250000 0.368247
O O14 0.371362 0.434141 0.207862
O O15 0.791760 0.750000 0.872752
O O16 0.818610 0.010249 0.823945
O O17 0.917760 0.250000 0.914723
O O18 0.000000 0.000000 0.000000
#
# Coordination Sequence:
#
# PCOD8072876 Si02
#       7
#     4   4   4   4   4   4   4
#     4   9  18  33  52  73  98 130 164 200 246 293
#     4   9  19  35  52  71  98 130 161 200 249 294
#     4  10  20  32  51  76  97 126 165 203 243 290
#     4   9  18  31  45  67  99 132 161 195 241 291
#     4   9  18  32  51  75 101 130 164 201 241 290
#     4   9  18  31  48  69  99 134 164 198 244 292
#     4   9  17  28  42  64  94 129 165 197 235 282
#
# _framework density 17.615791000000002
#
# number of rings (size 3 to 8) (size 9 to 14) (size 15 to 20)
#    0.000    2.857    0.000    1.714    2.000    4.571 
#    0.000    0.000    0.000    0.857    0.000    0.000 
#    0.000    0.000    0.000    0.000    0.000    0.000 
#
# Total GULP energy -347067.193769 kJ/mol
# GULP energy per Si atom -12395.256920 kJ/mol
# Density = 1.757570 g / cm^3
# Si number density = 17.615791 Si / 1000 Ang^3
#
#
#
# Elastic Constant Matrix: (Units=GPa)
#
#
# Indices 1 2 3 4 5 6 
#
# 1 59.0771 22.9491 19.0837 0.0000 3.8142 0.0000
# 2 22.9491 73.6559 35.7163 0.0000 -4.1757 0.0000
# 3 19.0837 35.7163 83.3032 0.0000 1.4484 0.0000
# 4 0.0000 0.0000 0.0000 26.5757 0.0000 0.3754
# 5 3.8142 -4.1757 1.4484 0.0000 19.3427 0.0000
# 6 0.0000 0.0000 0.0000 0.3754 0.0000 28.4396
#
#
#
# Elastic Compliance Matrix: (Units=1/GPa)
#
#
# Indices 1 2 3 4 5 6 
#
# 1 0.020079 -0.005492 -0.002159 0.000000 -0.004983 0.000000
# 2 -0.005492 0.018999 -0.006987 0.000000 0.005708 0.000000
# 3 -0.002159 -0.006987 0.015534 0.000000 -0.002246 0.000000
# 4 0.000000 0.000000 0.000000 0.037635 0.000000 -0.000497
# 5 -0.004983 0.005708 -0.002246 0.000000 0.054082 0.000000
# 6 0.000000 0.000000 0.000000 -0.000497 0.000000 0.035169
#
#
# Mechanical properties :
#
#
# Convention : Reuss Voigt Hill
#
# Bulk Modulus (GPa) = 39.46777 41.28160 40.37468
# Shear Modulus (GPa) = 22.80813 24.09075 23.44944
#
# Velocity S-wave (km/s) = 3.60217 3.70207 3.65247
# Velocity P-wave (km/s) = 6.30510 6.46213 6.38410
#
# Compressibility (1/GPa) = 0.02533713
#
# Stress axis : x y z
#
# Youngs Moduli (GPa) = 49.80208 52.63300 64.37647
#
# Poissons Ratio (x) = 0.28906 0.13896
# Poissons Ratio (y) = 0.27351 0.44981
# Poissons Ratio (z) = 0.10750 0.36775
#
# Static dielectric constant tensor:
#      x y z
#    x 3.257760 0.000000 0.145070 
#    y 0.000000 3.463670 0.000000 
#    z 0.145070 0.000000 3.149880 
# 
# 
# High freq. dielectric constant tensor:
#      x y z
#    x 1.650950 0.000000 0.005850 
#    y 0.000000 1.687430 0.000000 
#    z 0.005850 0.000000 1.666450 
# 
# From -- ./inp_files/51453.got.cif
#   From: 2010.06.25/outbox.cif.g09.slc.cpg/sg11_26_cif.got.tgz:51453.got - 2010.06.27 23:14:04.
