data_PCOD8072204
_publ_section_title
;
Structure prediction by ZEFSAII (Michael W. Deem and Ramdas Pophale) SiO2 
 PCOD8072204
Probable space group: P 21/M
;
_chemical_formula_sum "Si O2"
_cell_formula_units_Z 24
_cell_length_a 9.531920
_cell_length_b 9.009451
_cell_length_c 21.927938
_cell_angle_alpha 90.000000
_cell_angle_beta 136.485133
_cell_angle_gamma 90.000000
_cell_volume 1296.604230
_symmetry_space_group_name_H-M "P 21/M"
_symmetry_group_IT_number 11
_symmetry_cell_setting 'monoclinic'
loop_
_space_group_symop_operation_xyz
x,y,z
-x,1/2+y,-z
-x,-y,-z
x,1/2-y,z
loop_
_atom_site_type_symbol
_atom_site_label
_atom_site_fract_x
_atom_site_fract_y
_atom_site_fract_z
Si Si1 0.121524 0.077550 0.591571
Si Si2 0.408307 0.576861 0.251682
Si Si3 0.887765 0.420747 0.289020
Si Si4 0.081883 0.421833 0.223763
Si Si5 0.317768 0.924373 0.978504
Si Si6 0.417001 0.423181 0.130222
O O1 0.075121 0.250000 0.573789
O O2 0.359183 0.040594 0.658144
O O3 0.043356 0.019245 0.632191
O O4 0.000000 0.000000 0.500000
O O5 0.376239 0.750000 0.229022
O O6 0.340308 0.486688 0.170390
O O7 0.271947 0.523276 0.265059
O O8 0.910081 0.250000 0.315295
O O9 0.031294 0.461359 0.277655
O O10 0.656255 0.454219 0.196524
O O11 0.141881 0.250000 0.236018
O O12 0.890782 0.460801 0.121378
O O13 0.361309 0.750000 0.995277
O O14 0.297157 0.991387 0.039481
O O15 0.500000 0.000000 0.000000
O O16 0.363947 0.250000 0.110235
#
# Coordination Sequence:
#
# PCOD8072204 Si02
#       6
#     4   4   4   4   4   4
#     4  10  21  38  61  87 110 137 178 222 271 332
#     4  10  22  38  56  83 113 143 182 229 277 327
#     4   9  18  35  57  81 110 143 183 225 271 325
#     4  10  21  37  55  80 113 150 186 225 276 327
#     4  11  21  34  53  80 112 147 193 236 271 319
#     4  10  19  35  56  79 108 149 191 231 277 322
#
# _framework density 18.509889999999999
#
# number of rings (size 3 to 8) (size 9 to 14) (size 15 to 20)
#    0.000    2.000    1.667    2.000    0.000    5.333 
#    0.000    0.833    0.000    0.000    0.000    0.000 
#    0.000    0.000    0.000    0.000    0.000    0.000 
#
# Total GULP energy -297717.045374 kJ/mol
# GULP energy per Si atom -12404.876891 kJ/mol
# Density = 1.846776 g / cm^3
# Si number density = 18.509890 Si / 1000 Ang^3
#
#
#
# Elastic Constant Matrix: (Units=GPa)
#
#
# Indices 1 2 3 4 5 6 
#
# 1 116.7381 53.7322 49.4762 0.0000 -11.7194 0.0000
# 2 53.7322 102.0620 69.9819 0.0000 -9.2739 0.0000
# 3 49.4762 69.9819 118.3341 0.0000 -23.4853 0.0000
# 4 0.0000 0.0000 0.0000 34.8002 0.0000 -5.3088
# 5 -11.7194 -9.2739 -23.4853 0.0000 19.5737 0.0000
# 6 0.0000 0.0000 0.0000 -5.3088 0.0000 36.6540
#
#
#
# Elastic Compliance Matrix: (Units=1/GPa)
#
#
# Indices 1 2 3 4 5 6 
#
# 1 0.011736 -0.004964 -0.001369 0.000000 0.003032 0.000000
# 2 -0.004964 0.018978 -0.010439 0.000000 -0.006506 0.000000
# 3 -0.001369 -0.010439 0.018445 0.000000 0.016365 0.000000
# 4 0.000000 0.000000 0.000000 0.029385 0.000000 0.004256
# 5 0.003032 -0.006506 0.016365 0.000000 0.069457 0.000000
# 6 0.000000 0.000000 0.000000 0.004256 0.000000 0.027899
#
#
# Mechanical properties :
#
#
# Convention : Reuss Voigt Hill
#
# Bulk Modulus (GPa) = 64.04797 75.94607 69.99702
# Shear Modulus (GPa) = 23.29385 29.13516 26.21451
#
# Velocity S-wave (km/s) = 3.55132 3.97171 3.76738
# Velocity P-wave (km/s) = 7.17586 7.88364 7.53806
#
# Compressibility (1/GPa) = 0.01561330
#
# Stress axis : x y z
#
# Youngs Moduli (GPa) = 85.20963 52.69205 54.21584
#
# Poissons Ratio (x) = 0.26156 0.07425
# Poissons Ratio (y) = 0.42298 0.56597
# Poissons Ratio (z) = 0.11669 0.55007
#
# Static dielectric constant tensor:
#      x y z
#    x 3.425690 0.000000 -0.129820 
#    y 0.000000 3.512660 0.000000 
#    z -0.129820 0.000000 3.369770 
# 
# 
# High freq. dielectric constant tensor:
#      x y z
#    x 1.718120 0.000000 -0.013820 
#    y 0.000000 1.727870 0.000000 
#    z -0.013820 0.000000 1.706140 
# 
# From -- ./inp_files/20427.got.cif
#   From: 2010.06.25/outbox.cif.g09.slc.cpg/sg11_11_cif.got.tgz:20427.got - 2010.06.27 23:14:04.
