data_PCOD8072822
_publ_section_title
;
Structure prediction by ZEFSAII (Michael W. Deem and Ramdas Pophale) SiO2 
 PCOD8072822
Probable space group: P 21/M
;
_chemical_formula_sum "Si O2"
_cell_formula_units_Z 28
_cell_length_a 14.219062
_cell_length_b 9.389280
_cell_length_c 18.478518
_cell_angle_alpha 90.000000
_cell_angle_beta 40.616707
_cell_angle_gamma 90.000000
_cell_volume 1606.010648
_symmetry_space_group_name_H-M "P 21/M"
_symmetry_group_IT_number 11
_symmetry_cell_setting 'monoclinic'
loop_
_space_group_symop_operation_xyz
x,y,z
-x,1/2+y,-z
-x,-y,-z
x,1/2-y,z
loop_
_atom_site_type_symbol
_atom_site_label
_atom_site_fract_x
_atom_site_fract_y
_atom_site_fract_z
Si Si1 0.929004 0.582704 0.321179
Si Si2 0.920102 0.909175 0.880353
Si Si3 0.120713 0.587678 0.889134
Si Si4 0.422150 0.413468 0.323942
Si Si5 0.396800 0.416220 0.506051
Si Si6 0.318640 0.081421 0.863194
Si Si7 0.091815 0.085732 0.503432
O O1 0.950324 0.750000 0.303073
O O2 0.770620 0.540916 0.383223
O O3 0.945236 0.531551 0.394322
O O4 0.058914 0.510325 0.200571
O O5 0.887480 0.750000 0.871897
O O6 0.073537 0.911831 0.833156
O O7 0.785593 0.959766 0.008818
O O8 0.131530 0.750000 0.911893
O O9 0.267907 0.502085 0.819575
O O10 0.000000 0.500000 0.000000
O O11 0.469444 0.250000 0.283884
O O12 0.435731 0.452830 0.400578
O O13 0.521021 0.519999 0.217888
O O14 0.260810 0.437828 0.389558
O O15 0.500000 0.500000 0.500000
O O16 0.419914 0.250000 0.507392
O O17 0.317987 0.250000 0.849817
O O18 0.050526 0.250000 0.519770
O O19 0.000000 0.000000 0.500000
#
# Coordination Sequence:
#
# PCOD8072822 Si02
#       7
#     4   4   4   4   4   4   4
#     4   9  19  34  51  74 102 131 166 206 251 305
#     4   9  19  32  46  69 101 135 172 213 250 289
#     4   9  17  29  43  63  94 134 178 215 247 284
#     4   9  19  35  52  73 103 134 166 207 257 306
#     4   9  19  33  47  68  99 134 167 205 250 293
#     4  10  20  32  47  71 102 136 177 216 250 294
#     4   9  19  37  59  81 103 126 160 208 261 313
#
# _framework density 17.434504
#
# number of rings (size 3 to 8) (size 9 to 14) (size 15 to 20)
#    0.000    2.857    0.000    3.429    2.000    5.714 
#    0.000    2.857    0.000    0.857    0.000    0.000 
#    0.000    0.000    0.000    0.000    0.000    0.000 
#
# Total GULP energy -347002.129512 kJ/mol
# GULP energy per Si atom -12392.933197 kJ/mol
# Density = 1.739482 g / cm^3
# Si number density = 17.434504 Si / 1000 Ang^3
#
#
#
# Elastic Constant Matrix: (Units=GPa)
#
#
# Indices 1 2 3 4 5 6 
#
# 1 94.8178 47.8079 36.6622 0.0000 0.6498 0.0000
# 2 47.8079 88.5200 54.1419 0.0000 -1.1743 0.0000
# 3 36.6622 54.1419 102.2306 0.0000 -3.7221 0.0000
# 4 0.0000 0.0000 0.0000 31.9085 0.0000 -1.3773
# 5 0.6498 -1.1743 -3.7221 0.0000 14.1521 0.0000
# 6 0.0000 0.0000 0.0000 -1.3773 0.0000 32.0244
#
#
#
# Elastic Compliance Matrix: (Units=1/GPa)
#
#
# Indices 1 2 3 4 5 6 
#
# 1 0.014702 -0.006952 -0.001652 0.000000 -0.001686 0.000000
# 2 -0.006952 0.020010 -0.008110 0.000000 -0.000153 0.000000
# 3 -0.001652 -0.008110 0.014789 0.000000 0.003292 0.000000
# 4 0.000000 0.000000 0.000000 0.031398 0.000000 0.001350
# 5 -0.001686 -0.000153 0.003292 0.000000 0.071591 0.000000
# 6 0.000000 0.000000 0.000000 0.001350 0.000000 0.031284
#
#
# Mechanical properties :
#
#
# Convention : Reuss Voigt Hill
#
# Bulk Modulus (GPa) = 62.21531 62.53247 62.37389
# Shear Modulus (GPa) = 22.46583 25.41411 23.93997
#
# Velocity S-wave (km/s) = 3.59358 3.82211 3.70961
# Velocity P-wave (km/s) = 7.27881 7.44466 7.36220
#
# Compressibility (1/GPa) = 0.01607321
#
# Stress axis : x y z
#
# Youngs Moduli (GPa) = 68.01663 49.97553 67.61789
#
# Poissons Ratio (x) = 0.34745 0.11170
# Poissons Ratio (y) = 0.47288 0.54835
# Poissons Ratio (z) = 0.11236 0.40528
#
# Static dielectric constant tensor:
#      x y z
#    x 1.902010 0.000000 0.696750 
#    y 0.000000 3.263760 0.000000 
#    z 0.696750 0.000000 2.644680 
# 
# 
# High freq. dielectric constant tensor:
#      x y z
#    x 1.642050 0.000000 -0.008730 
#    y 0.000000 1.676990 0.000000 
#    z -0.008730 0.000000 1.669220 
# 
# From -- ./inp_files/37139.got.cif
#   From: 2010.06.25/outbox.cif.g09.slc.cpg/sg11_19_cif.got.tgz:37139.got - 2010.06.27 23:14:04.
