data_PCOD8072328
_publ_section_title
;
Structure prediction by ZEFSAII (Michael W. Deem and Ramdas Pophale) SiO2 
 PCOD8072328
Probable space group: P 21/M
;
_chemical_formula_sum "Si O2"
_cell_formula_units_Z 24
_cell_length_a 11.415109
_cell_length_b 13.610739
_cell_length_c 13.880731
_cell_angle_alpha 90.000000
_cell_angle_beta 149.665768
_cell_angle_gamma 90.000000
_cell_volume 1089.187852
_symmetry_space_group_name_H-M "P 21/M"
_symmetry_group_IT_number 11
_symmetry_cell_setting 'monoclinic'
loop_
_space_group_symop_operation_xyz
x,y,z
-x,1/2+y,-z
-x,-y,-z
x,1/2-y,z
loop_
_atom_site_type_symbol
_atom_site_label
_atom_site_fract_x
_atom_site_fract_y
_atom_site_fract_z
Si Si1 0.292228 0.467790 0.107823
Si Si2 0.140635 0.980840 0.695810
Si Si3 0.412095 0.365296 0.999944
Si Si4 0.019618 0.860280 0.975796
Si Si5 0.719043 0.517596 0.525647
Si Si6 0.611351 0.358472 0.591785
O O1 0.110791 0.559134 0.962556
O O2 0.544781 0.511560 0.310632
O O3 0.295042 0.401642 0.015456
O O4 0.220066 0.399872 0.148298
O O5 0.968592 0.953396 0.661194
O O6 0.287491 0.079323 0.823085
O O7 0.314108 0.889199 0.806039
O O8 0.000000 0.000000 0.500000
O O9 0.372879 0.250000 0.960097
O O10 0.990650 0.750000 0.912074
O O11 0.208939 0.859972 0.194062
O O12 0.728581 0.412484 0.584791
O O13 0.633218 0.595597 0.545347
O O14 0.553284 0.250000 0.514774
#
# Coordination Sequence:
#
# PCOD8072328 Si02
#       6
#     4   4   4   4   4   4
#     4  10  19  35  58  89 130 167 214 273 322 385
#     4  11  24  46  68  94 133 171 216 274 326 388
#     4  11  25  44  68  96 127 170 221 269 329 396
#     4   9  18  33  55  85 125 173 214 260 325 386
#     4  10  20  36  60  90 125 169 208 266 324 380
#     4   9  19  35  57  88 122 164 213 259 317 382
#
# _framework density 22.034765
#
# number of rings (size 3 to 8) (size 9 to 14) (size 15 to 20)
#    0.000    2.000    1.667    1.500    0.000    6.000 
#    0.000    3.333    0.000    0.000    0.000    0.000 
#    0.000    0.000    0.000    0.000    0.000    0.000 
#
# Total GULP energy -297640.868821 kJ/mol
# GULP energy per Si atom -12401.702868 kJ/mol
# Density = 2.198461 g / cm^3
# Si number density = 22.034765 Si / 1000 Ang^3
#
#
#
# Elastic Constant Matrix: (Units=GPa)
#
#
# Indices 1 2 3 4 5 6 
#
# 1 108.3785 40.6908 30.1179 0.0000 16.4299 0.0000
# 2 40.6908 153.2742 10.8114 0.0000 6.1303 0.0000
# 3 30.1179 10.8114 56.1208 0.0000 13.9112 0.0000
# 4 0.0000 0.0000 0.0000 21.5532 0.0000 -1.1108
# 5 16.4299 6.1303 13.9112 0.0000 39.2869 0.0000
# 6 0.0000 0.0000 0.0000 -1.1108 0.0000 30.1625
#
#
#
# Elastic Compliance Matrix: (Units=1/GPa)
#
#
# Indices 1 2 3 4 5 6 
#
# 1 0.012151 -0.002741 -0.005305 0.000000 -0.002775 0.000000
# 2 -0.002741 0.007247 0.000078 0.000000 -0.000012 0.000000
# 3 -0.005305 0.000078 0.022038 0.000000 -0.005597 0.000000
# 4 0.000000 0.000000 0.000000 0.046485 0.000000 0.001712
# 5 -0.002775 -0.000012 -0.005597 0.000000 0.028598 0.000000
# 6 0.000000 0.000000 0.000000 0.001712 0.000000 0.033217
#
#
# Mechanical properties :
#
#
# Convention : Reuss Voigt Hill
#
# Bulk Modulus (GPa) = 39.21543 53.44595 46.33069
# Shear Modulus (GPa) = 28.70731 33.94408 31.32570
#
# Velocity S-wave (km/s) = 3.61337 3.92915 3.77457
# Velocity P-wave (km/s) = 5.93669 6.70017 6.32995
#
# Compressibility (1/GPa) = 0.02550017
#
# Stress axis : x y z
#
# Youngs Moduli (GPa) = 82.29888 137.99163 45.37593
#
# Poissons Ratio (x) = 0.37818 0.24072
# Poissons Ratio (y) = 0.22555 -0.00353
# Poissons Ratio (z) = 0.43659 -0.01072
#
# Static dielectric constant tensor:
#      x y z
#    x 3.899070 0.000000 0.196170 
#    y 0.000000 4.134360 0.000000 
#    z 0.196170 0.000000 4.062570 
# 
# 
# High freq. dielectric constant tensor:
#      x y z
#    x 1.856360 0.000000 0.007320 
#    y 0.000000 1.852770 0.000000 
#    z 0.007320 0.000000 1.884540 
# 
# From -- ./inp_files/50422.got.cif
#   From: 2010.06.25/outbox.cif.g09.slc.cpg/sg11_26_cif.got.tgz:50422.got - 2010.06.27 23:14:04.
