data_PCOD8072208
_publ_section_title
;
Structure prediction by ZEFSAII (Michael W. Deem and Ramdas Pophale) SiO2 
 PCOD8072208
Probable space group: P 21/M
;
_chemical_formula_sum "Si O2"
_cell_formula_units_Z 32
_cell_length_a 13.968272
_cell_length_b 12.755500
_cell_length_c 17.672074
_cell_angle_alpha 90.000000
_cell_angle_beta 146.231168
_cell_angle_gamma 90.000000
_cell_volume 1750.169923
_symmetry_space_group_name_H-M "P 21/M"
_symmetry_group_IT_number 11
_symmetry_cell_setting 'monoclinic'
loop_
_space_group_symop_operation_xyz
x,y,z
-x,1/2+y,-z
-x,-y,-z
x,1/2-y,z
loop_
_atom_site_type_symbol
_atom_site_label
_atom_site_fract_x
_atom_site_fract_y
_atom_site_fract_z
Si Si1 0.095128 0.372048 0.861596
Si Si2 0.392605 0.371374 0.361203
Si Si3 0.748429 0.490136 0.601036
Si Si4 0.655972 0.470173 0.049543
Si Si5 0.805050 0.132790 0.281707
Si Si6 0.576290 0.982572 0.233344
Si Si7 0.328357 0.131301 0.151882
Si Si8 0.190037 0.131494 0.503066
O O1 0.095160 0.250000 0.840066
O O2 0.225535 0.428578 0.889376
O O3 0.904053 0.416048 0.728314
O O4 0.158811 0.391363 0.989892
O O5 0.411154 0.250000 0.394556
O O6 0.582749 0.418721 0.478866
O O7 0.281955 0.426218 0.353059
O O8 0.288670 0.388037 0.214337
O O9 0.795126 0.550953 0.555650
O O10 0.765920 0.382838 0.166013
O O11 0.500000 0.500000 0.000000
O O12 0.571792 0.428593 0.915964
O O13 0.746527 0.250000 0.266191
O O14 0.710545 0.048214 0.271183
O O15 0.008163 0.118473 0.425496
O O16 0.489374 0.060541 0.235333
O O17 0.668735 0.891068 0.339955
O O18 0.389943 0.250000 0.179130
O O19 0.216674 0.250000 0.490794
#
# Coordination Sequence:
#
# PCOD8072208 Si02
#       8
#     4   4   4   4   4   4   4   4
#     4  10  20  36  58  84 114 148 188 232 279 328
#     4  10  21  37  59  85 109 145 189 232 284 339
#     4  11  21  37  59  82 114 148 187 235 278 334
#     4   9  19  34  56  82 113 146 184 230 272 325
#     4  10  20  35  55  79 109 145 185 227 278 332
#     4  10  19  35  56  79 111 147 187 228 274 327
#     4   9  18  34  57  84 111 143 182 230 279 327
#     4  11  22  36  54  78 113 150 184 229 279 329
#
# _framework density 18.283939
#
# number of rings (size 3 to 8) (size 9 to 14) (size 15 to 20)
#    0.000    2.000    2.500    1.500    0.000    4.000 
#    0.000    1.875    0.000    0.000    0.000    0.000 
#    0.000    0.000    0.000    0.000    0.000    0.000 
#
# Total GULP energy -396716.148782 kJ/mol
# GULP energy per Si atom -12397.379649 kJ/mol
# Density = 1.824232 g / cm^3
# Si number density = 18.283939 Si / 1000 Ang^3
#
#
#
# Elastic Constant Matrix: (Units=GPa)
#
#
# Indices 1 2 3 4 5 6 
#
# 1 58.3897 25.0616 15.7078 0.0000 -3.6419 0.0000
# 2 25.0616 70.2419 29.8098 0.0000 1.0222 0.0000
# 3 15.7078 29.8098 89.4263 0.0000 -3.1691 0.0000
# 4 0.0000 0.0000 0.0000 28.5092 0.0000 -4.5968
# 5 -3.6419 1.0222 -3.1691 0.0000 25.8653 0.0000
# 6 0.0000 0.0000 0.0000 -4.5968 0.0000 22.1209
#
#
#
# Elastic Compliance Matrix: (Units=1/GPa)
#
#
# Indices 1 2 3 4 5 6 
#
# 1 0.020593 -0.006874 -0.001219 0.000000 0.003022 0.000000
# 2 -0.006874 0.018923 -0.005184 0.000000 -0.002351 0.000000
# 3 -0.001219 -0.005184 0.013183 0.000000 0.001649 0.000000
# 4 0.000000 0.000000 0.000000 0.036292 0.000000 0.007542
# 5 0.003022 -0.002351 0.001649 0.000000 0.039382 0.000000
# 6 0.000000 0.000000 0.000000 0.007542 0.000000 0.046773
#
#
# Mechanical properties :
#
#
# Convention : Reuss Voigt Hill
#
# Bulk Modulus (GPa) = 38.24684 39.91292 39.07988
# Shear Modulus (GPa) = 23.76244 25.13098 24.44671
#
# Velocity S-wave (km/s) = 3.60896 3.71143 3.66055
# Velocity P-wave (km/s) = 6.19110 6.34375 6.26789
#
# Compressibility (1/GPa) = 0.02614595
#
# Stress axis : x y z
#
# Youngs Moduli (GPa) = 48.55986 52.84477 75.85597
#
# Poissons Ratio (x) = 0.36327 0.09244
# Poissons Ratio (y) = 0.33381 0.39323
# Poissons Ratio (z) = 0.05918 0.27394
#
# Static dielectric constant tensor:
#      x y z
#    x 3.286950 0.000000 -0.172650 
#    y 0.000000 3.315840 0.000000 
#    z -0.172650 0.000000 3.758460 
# 
# 
# High freq. dielectric constant tensor:
#      x y z
#    x 1.701820 0.000000 -0.006220 
#    y 0.000000 1.702780 0.000000 
#    z -0.006220 0.000000 1.722470 
# 
# From -- ./inp_files/21877.got.cif
#   From: 2010.06.25/outbox.cif.g09.slc.cpg/sg11_11_cif.got.tgz:21877.got - 2010.06.27 23:14:04.
