data_PCOD8072691
_publ_section_title
;
Structure prediction by ZEFSAII (Michael W. Deem and Ramdas Pophale) SiO2 
 PCOD8072691
Probable space group: P 21/M
;
_chemical_formula_sum "Si O2"
_cell_formula_units_Z 20
_cell_length_a 7.188301
_cell_length_b 18.024423
_cell_length_c 7.251469
_cell_angle_alpha 90.000000
_cell_angle_beta 57.954397
_cell_angle_gamma 90.000000
_cell_volume 796.375548
_symmetry_space_group_name_H-M "P 21/M"
_symmetry_group_IT_number 11
_symmetry_cell_setting 'monoclinic'
loop_
_space_group_symop_operation_xyz
x,y,z
-x,1/2+y,-z
-x,-y,-z
x,1/2-y,z
loop_
_atom_site_type_symbol
_atom_site_label
_atom_site_fract_x
_atom_site_fract_y
_atom_site_fract_z
Si Si1 0.197355 0.333489 0.321451
Si Si2 0.665613 0.474968 0.258269
Si Si3 0.291356 0.666306 0.569883
Si Si4 0.538886 0.088470 0.878095
Si Si5 0.982443 0.553580 0.333957
O O1 0.264554 0.250000 0.336114
O O2 0.964299 0.337062 0.343809
O O3 0.179649 0.379030 0.523063
O O4 0.379528 0.368212 0.095526
O O5 0.500000 0.500000 0.500000
O O6 0.676149 0.384919 0.264084
O O7 0.569204 0.506909 0.115235
O O8 0.897850 0.512229 0.195551
O O9 0.365600 0.750000 0.577746
O O10 0.433809 0.635514 0.324034
O O11 0.776617 0.081607 0.851234
O O12 0.000000 0.500000 0.500000
#
# Coordination Sequence:
#
# PCOD8072691 Si02
#       5
#     4   4   4   4   4
#     4  10  21  38  62  90 120 159 198 244 305 354
#     4  10  19  38  61  89 116 156 203 240 298 352
#     4   9  18  35  56  82 119 153 193 244 293 350
#     4  10  21  37  64  86 118 156 202 244 298 353
#     4  11  20  41  60  89 121 156 201 246 294 356
#
# _framework density 25.113780999999999
#
# number of rings (size 3 to 8) (size 9 to 14) (size 15 to 20)
#    0.000    2.000    6.000    0.600    0.000    2.400 
#    0.000    9.000    0.000    8.400    0.000    1.400 
#    0.000    0.000    0.000    0.000    0.000    0.000 
#
# Total GULP energy -247996.828966 kJ/mol
# GULP energy per Si atom -12399.841448 kJ/mol
# Density = 2.505662 g / cm^3
# Si number density = 25.113781 Si / 1000 Ang^3
#
#
#
# Elastic Constant Matrix: (Units=GPa)
#
#
# Indices 1 2 3 4 5 6 
#
# 1 96.4348 30.8086 38.5086 0.0000 8.3909 0.0000
# 2 30.8086 218.0228 67.8205 0.0000 -11.6063 0.0000
# 3 38.5086 67.8205 149.3579 0.0000 -23.9473 0.0000
# 4 0.0000 0.0000 0.0000 43.9723 0.0000 -7.0078
# 5 8.3909 -11.6063 -23.9473 0.0000 23.9500 0.0000
# 6 0.0000 0.0000 0.0000 -7.0078 0.0000 23.5482
#
#
#
# Elastic Compliance Matrix: (Units=1/GPa)
#
#
# Indices 1 2 3 4 5 6 
#
# 1 0.013345 -0.000988 -0.004548 0.000000 -0.009702 0.000000
# 2 -0.000988 0.005415 -0.002058 0.000000 0.000912 0.000000
# 3 -0.004548 -0.002058 0.010597 0.000000 0.011192 0.000000
# 4 0.000000 0.000000 0.000000 0.023874 0.000000 0.007105
# 5 -0.009702 0.000912 0.011192 0.000000 0.056785 0.000000
# 6 0.000000 0.000000 0.000000 0.007105 0.000000 0.044580
#
#
# Mechanical properties :
#
#
# Convention : Reuss Voigt Hill
#
# Bulk Modulus (GPa) = 70.56950 82.01011 76.28980
# Shear Modulus (GPa) = 28.65221 40.07263 34.36242
#
# Velocity S-wave (km/s) = 3.38138 3.99888 3.70303
# Velocity P-wave (km/s) = 6.58831 7.35172 6.98046
#
# Compressibility (1/GPa) = 0.01417043
#
# Stress axis : x y z
#
# Youngs Moduli (GPa) = 74.93212 184.67377 94.36853
#
# Poissons Ratio (x) = 0.18238 0.42918
# Poissons Ratio (y) = 0.07400 0.19420
# Poissons Ratio (z) = 0.34078 0.38004
#
# Static dielectric constant tensor:
#      x y z
#    x 2.319750 0.000000 -0.623920 
#    y 0.000000 5.216730 0.000000 
#    z -0.623920 0.000000 4.641640 
# 
# 
# High freq. dielectric constant tensor:
#      x y z
#    x 2.008890 0.000000 -0.016770 
#    y 0.000000 2.003220 0.000000 
#    z -0.016770 0.000000 2.016480 
# 
# From -- ./inp_files/13407.got.cif
#   From: 2010.06.25/outbox.cif.g09.slc.cpg/sg11_7_cif.got.tgz:13407.got - 2010.06.27 23:14:04.
