data_PCOD8072825
_publ_section_title
;
Structure prediction by ZEFSAII (Michael W. Deem and Ramdas Pophale) SiO2 
 PCOD8072825
Probable space group: P 21/M
;
_chemical_formula_sum "Si O2"
_cell_formula_units_Z 28
_cell_length_a 17.481085
_cell_length_b 8.920319
_cell_length_c 20.196188
_cell_angle_alpha 90.000000
_cell_angle_beta 28.895886
_cell_angle_gamma 90.000000
_cell_volume 1521.817751
_symmetry_space_group_name_H-M "P 21/M"
_symmetry_group_IT_number 11
_symmetry_cell_setting 'monoclinic'
loop_
_space_group_symop_operation_xyz
x,y,z
-x,1/2+y,-z
-x,-y,-z
x,1/2-y,z
loop_
_atom_site_type_symbol
_atom_site_label
_atom_site_fract_x
_atom_site_fract_y
_atom_site_fract_z
Si Si1 0.298916 0.576084 0.830585
Si Si2 0.456070 0.578636 0.850550
Si Si3 0.018960 0.071641 0.860959
Si Si4 0.361876 0.428038 0.648342
Si Si5 0.126863 0.926158 0.161078
Si Si6 0.040981 0.927323 0.368313
Si Si7 0.229772 0.574888 0.352048
O O1 0.295460 0.750000 0.812206
O O2 0.412792 0.551664 0.806912
O O3 0.375734 0.479200 0.713738
O O4 0.120532 0.518431 0.983089
O O5 0.510389 0.750000 0.819999
O O6 0.589273 0.466295 0.774379
O O7 0.308257 0.538064 0.008473
O O8 0.011690 0.250000 0.864639
O O9 0.190755 0.013200 0.752649
O O10 0.983635 0.007615 0.813980
O O11 0.500000 0.500000 0.500000
O O12 0.375932 0.250000 0.632607
O O13 0.098811 0.750000 0.185116
O O14 0.084867 0.998222 0.263785
O O15 0.029397 0.750000 0.372946
O O16 0.172694 0.976814 0.322260
O O17 0.870260 0.990107 0.516534
O O18 0.203969 0.750000 0.380996
#
# Coordination Sequence:
#
# PCOD8072825 Si02
#       7
#     4   4   4   4   4   4   4
#     4   9  18  35  56  75  96 127 168 208 248 298
#     4   9  18  33  54  76  97 126 165 207 251 301
#     4   8  16  32  54  76  97 125 164 208 250 296
#     4  11  22  34  50  76 107 135 165 204 249 295
#     4   8  15  31  54  76  95 122 167 212 246 292
#     4   9  18  33  52  72  97 134 174 207 245 296
#     4  10  20  32  47  72 105 135 166 206 250 298
#
# _framework density 18.399049999999999
#
# number of rings (size 3 to 8) (size 9 to 14) (size 15 to 20)
#    0.000    2.857    0.000    3.000    0.000    2.857 
#    0.000    4.286    0.000    3.429    0.000    0.000 
#    0.000    0.000    0.000    0.000    0.000    0.000 
#
# Total GULP energy -347125.086820 kJ/mol
# GULP energy per Si atom -12397.324529 kJ/mol
# Density = 1.835717 g / cm^3
# Si number density = 18.399050 Si / 1000 Ang^3
#
#
#
# Elastic Constant Matrix: (Units=GPa)
#
#
# Indices 1 2 3 4 5 6 
#
# 1 76.3692 19.9178 47.2836 0.0000 21.0005 0.0000
# 2 19.9178 28.5728 20.1999 0.0000 6.0133 0.0000
# 3 47.2836 20.1999 89.4101 0.0000 26.3204 0.0000
# 4 0.0000 0.0000 0.0000 26.4458 0.0000 -2.1566
# 5 21.0005 6.0133 26.3204 0.0000 35.3211 0.0000
# 6 0.0000 0.0000 0.0000 -2.1566 0.0000 25.2320
#
#
#
# Elastic Compliance Matrix: (Units=1/GPa)
#
#
# Indices 1 2 3 4 5 6 
#
# 1 0.021736 -0.008346 -0.007972 0.000000 -0.005562 0.000000
# 2 -0.008346 0.044855 -0.006319 0.000000 0.002034 0.000000
# 3 -0.007972 -0.006319 0.019364 0.000000 -0.008614 0.000000
# 4 0.000000 0.000000 0.000000 0.038079 0.000000 0.003255
# 5 -0.005562 0.002034 -0.008614 0.000000 0.037691 0.000000
# 6 0.000000 0.000000 0.000000 0.003255 0.000000 0.039910
#
#
# Mechanical properties :
#
#
# Convention : Reuss Voigt Hill
#
# Bulk Modulus (GPa) = 24.58137 41.01719 32.79928
# Shear Modulus (GPa) = 19.19607 24.52984 21.86295
#
# Velocity S-wave (km/s) = 3.23355 3.65528 3.45086
# Velocity P-wave (km/s) = 5.22783 6.33690 5.80889
#
# Compressibility (1/GPa) = 0.04068121
#
# Stress axis : x y z
#
# Youngs Moduli (GPa) = 46.00597 22.29391 51.64274
#
# Poissons Ratio (x) = 0.18605 0.41171
# Poissons Ratio (y) = 0.38394 0.32635
# Poissons Ratio (z) = 0.36677 0.14088
#
# Static dielectric constant tensor:
#      x y z
#    x 3.743670 0.000000 0.151340 
#    y 0.000000 3.034850 0.000000 
#    z 0.151340 0.000000 3.444660 
# 
# 
# High freq. dielectric constant tensor:
#      x y z
#    x 1.721600 0.000000 0.003680 
#    y 0.000000 1.682160 0.000000 
#    z 0.003680 0.000000 1.714820 
# 
# From -- ./inp_files/65993.got.cif
#   From: 2010.06.25/outbox.cif.g09.slc.cpg/sg11_33_cif.got.tgz:65993.got - 2010.06.27 23:14:04.
