data_PCOD8072236
_publ_section_title
;
Structure prediction by ZEFSAII (Michael W. Deem and Ramdas Pophale) SiO2 
 PCOD8072236
Probable space group: P 21/M
;
_chemical_formula_sum "Si O2"
_cell_formula_units_Z 24
_cell_length_a 8.774769
_cell_length_b 10.138316
_cell_length_c 19.163890
_cell_angle_alpha 90.000000
_cell_angle_beta 46.621059
_cell_angle_gamma 90.000000
_cell_volume 1239.128463
_symmetry_space_group_name_H-M "P 21/M"
_symmetry_group_IT_number 11
_symmetry_cell_setting 'monoclinic'
loop_
_space_group_symop_operation_xyz
x,y,z
-x,1/2+y,-z
-x,-y,-z
x,1/2-y,z
loop_
_atom_site_type_symbol
_atom_site_label
_atom_site_fract_x
_atom_site_fract_y
_atom_site_fract_z
Si Si1 0.690591 0.750000 0.419019
Si Si2 0.112018 0.013016 0.712558
Si Si3 0.947650 0.250000 0.580981
Si Si4 0.727141 0.750000 0.635568
Si Si5 0.750308 0.013016 0.712558
Si Si6 0.633845 0.250000 0.364432
Si Si7 0.797873 0.102570 0.922232
Si Si8 0.564568 0.897430 0.077768
O O1 0.712905 0.619648 0.364764
O O2 0.463716 0.750000 0.526916
O O3 0.874323 0.750000 0.417118
O O4 0.222617 0.875828 0.691833
O O5 0.937706 0.995072 0.708196
O O6 0.010305 0.060147 0.816906
O O7 0.807196 0.119648 0.635236
O O8 0.044462 0.250000 0.473085
O O9 0.701883 0.624172 0.691833
O O10 0.549267 0.750000 0.633822
O O11 0.538978 0.060147 0.816906
O O12 0.824850 0.250000 0.944964
O O13 0.610100 0.102281 0.926600
O O14 0.748938 1.000000 0.000000
O O15 0.659743 0.750000 0.055036
#
# Coordination Sequence:
#
# PCOD8072236 Si02
#       8
#     2   4   2   2   4   2   4   4
#     4   9  18  35  56  77 105 139 179 223 266 309
#     4  10  19  35  57  80 106 139 177 218 264 316
#     4   9  18  35  56  77 105 139 179 223 266 309
#     4  11  23  35  50  77 111 145 179 219 260 307
#     4  10  19  35  57  80 106 139 177 218 264 316
#     4  11  23  35  50  77 111 145 179 219 260 307
#     4   9  17  29  50  82 111 130 160 214 271 315
#     4   9  17  29  50  82 111 130 160 214 271 315
#
# _framework density 19.368452999999999
#
# number of rings (size 3 to 8) (size 9 to 14) (size 15 to 20)
#    0.000    2.333    1.667    1.500    2.333    0.000 
#    0.000    2.500    0.000    1.000    0.000    0.000 
#    0.000    0.000    0.000    0.000    0.000    0.000 
#
# Total GULP energy -297612.523069 kJ/mol
# GULP energy per Si atom -12400.521795 kJ/mol
# Density = 1.932437 g / cm^3
# Si number density = 19.368453 Si / 1000 Ang^3
#
#
#
# Elastic Constant Matrix: (Units=GPa)
#
#
# Indices 1 2 3 4 5 6 
#
# 1 20.8264 22.4876 15.3529 0.0000 -0.0013 0.0000
# 2 22.4876 205.5359 88.5027 0.0000 -0.0031 0.0000
# 3 15.3529 88.5027 140.8481 0.0000 -0.0044 0.0000
# 4 0.0000 0.0000 0.0000 41.3584 0.0000 -0.0021
# 5 -0.0013 -0.0031 -0.0044 0.0000 16.3851 0.0000
# 6 0.0000 0.0000 0.0000 -0.0021 0.0000 -2.0667
#
#
#
# Elastic Compliance Matrix: (Units=1/GPa)
#
#
# Indices 1 2 3 4 5 6 
#
# 1 0.055392 -0.004744 -0.003057 0.000000 0.000003 0.000000
# 2 -0.004744 0.007076 -0.003929 0.000000 0.000000 0.000000
# 3 -0.003057 -0.003929 0.009902 0.000000 0.000002 0.000000
# 4 0.000000 0.000000 0.000000 0.024179 0.000000 -0.000025
# 5 0.000003 0.000000 0.000002 0.000000 0.061031 0.000000
# 6 0.000000 0.000000 0.000000 -0.000025 0.000000 -0.483870
#
#
# Mechanical properties :
#
#
# Convention : Reuss Voigt Hill
#
# Bulk Modulus (GPa) = 20.44581 68.87743 44.66162
# Shear Modulus (GPa) = -17.45045 27.19317 4.87136
#
# Velocity S-wave (km/s) = -3.00488 3.75105 1.58763
# Velocity P-wave (km/s) = 1.20826 7.37560 5.14488
#
# Compressibility (1/GPa) = 0.04890977
#
# Stress axis : x y z
#
# Youngs Moduli (GPa) = 18.05310 141.31611 100.98883
#
# Poissons Ratio (x) = 0.67042 0.30872
# Poissons Ratio (y) = 0.08565 0.39682
# Poissons Ratio (z) = 0.05519 0.55528
#
# Static dielectric constant tensor:
#      x y z
#    x 2.919660 0.000000 -0.000040 
#    y 0.000000 3.758150 0.000000 
#    z -0.000040 0.000000 3.819970 
# 
# 
# High freq. dielectric constant tensor:
#      x y z
#    x 1.692400 0.000000 0.000000 
#    y 0.000000 1.774590 0.000000 
#    z 0.000000 0.000000 1.768190 
# 
# From -- ./inp_files/63184.got.cif
#   From: 2010.06.25/outbox.cif.g09.slc.cpg/sg11_32_cif.got.tgz:63184.got - 2010.06.27 23:14:04.
