data_PCOD8072935
_publ_section_title
;
Structure prediction by ZEFSAII (Michael W. Deem and Ramdas Pophale) SiO2 
 PCOD8072935
Probable space group: P 21/M
;
_chemical_formula_sum "Si O2"
_cell_formula_units_Z 32
_cell_length_a 17.809756
_cell_length_b 9.000167
_cell_length_c 21.218000
_cell_angle_alpha 90.000000
_cell_angle_beta 32.749020
_cell_angle_gamma 90.000000
_cell_volume 1839.832156
_symmetry_space_group_name_H-M "P 21/M"
_symmetry_group_IT_number 11
_symmetry_cell_setting 'monoclinic'
loop_
_space_group_symop_operation_xyz
x,y,z
-x,1/2+y,-z
-x,-y,-z
x,1/2-y,z
loop_
_atom_site_type_symbol
_atom_site_label
_atom_site_fract_x
_atom_site_fract_y
_atom_site_fract_z
Si Si1 0.107008 0.074914 0.377459
Si Si2 0.085896 0.424653 0.733477
Si Si3 0.822333 0.580500 0.147654
Si Si4 0.952265 0.580953 0.935014
Si Si5 0.345304 0.582887 0.044226
Si Si6 0.067650 0.424063 0.260608
Si Si7 0.359605 0.418932 0.613715
Si Si8 0.387304 0.582667 0.162939
O O1 0.113769 0.250000 0.384890
O O2 0.057504 0.037954 0.341578
O O3 0.258630 0.006877 0.283331
O O4 0.000000 0.000000 0.500000
O O5 0.079131 0.250000 0.728437
O O6 0.231287 0.478006 0.661434
O O7 0.959349 0.474727 0.869213
O O8 0.065505 0.504386 0.680370
O O9 0.875536 0.750000 0.125010
O O10 0.674929 0.560260 0.287320
O O11 0.923037 0.456753 0.105388
O O12 0.814033 0.559169 0.077044
O O13 0.964947 0.750000 0.902196
O O14 0.330093 0.750000 0.028451
O O15 0.204277 0.493517 0.132229
O O16 0.377304 0.587622 0.095227
O O17 0.470155 0.500703 0.919078
O O18 0.072017 0.250000 0.245786
O O19 0.500000 0.500000 0.500000
O O20 0.385026 0.250000 0.577818
O O21 0.388647 0.750000 0.189568
#
# Coordination Sequence:
#
# PCOD8072935 Si02
#       8
#     4   4   4   4   4   4   4   4
#     4  10  20  33  50  73 100 130 169 212 251 296
#     4  10  20  33  48  69  98 127 157 200 252 301
#     4   8  15  27  42  64  93 119 146 186 233 277
#     4   9  15  25  44  67  90 117 149 185 229 282
#     4   9  16  27  45  69  96 124 152 187 236 287
#     4  10  20  33  50  73  98 126 163 205 249 301
#     4   9  18  31  47  69  96 127 164 202 240 285
#     4   9  16  27  45  69  96 124 155 192 234 281
#
# _framework density 17.392890999999999
#
# number of rings (size 3 to 8) (size 9 to 14) (size 15 to 20)
#    0.000    2.750    0.000    3.000    0.000    7.500 
#    0.000    0.000    0.000    1.500    0.000    5.250 
#    0.000    0.000    0.000    0.000    0.000    0.000 
#
# Total GULP energy -396539.624580 kJ/mol
# GULP energy per Si atom -12391.863268 kJ/mol
# Density = 1.735330 g / cm^3
# Si number density = 17.392891 Si / 1000 Ang^3
#
#
#
# Elastic Constant Matrix: (Units=GPa)
#
#
# Indices 1 2 3 4 5 6 
#
# 1 58.8097 36.5228 42.2552 0.0000 -0.4404 0.0000
# 2 36.5228 103.6112 59.6566 0.0000 0.5359 0.0000
# 3 42.2552 59.6566 131.3340 0.0000 3.1257 0.0000
# 4 0.0000 0.0000 0.0000 33.6665 0.0000 -1.1248
# 5 -0.4404 0.5359 3.1257 0.0000 16.1303 0.0000
# 6 0.0000 0.0000 0.0000 -1.1248 0.0000 24.8240
#
#
#
# Elastic Compliance Matrix: (Units=1/GPa)
#
#
# Indices 1 2 3 4 5 6 
#
# 1 0.024276 -0.005476 -0.005368 0.000000 0.001885 0.000000
# 2 -0.005476 0.014313 -0.004747 0.000000 0.000295 0.000000
# 3 -0.005368 -0.004747 0.011550 0.000000 -0.002227 0.000000
# 4 0.000000 0.000000 0.000000 0.029748 0.000000 0.001348
# 5 0.001885 0.000295 -0.002227 0.000000 0.062468 0.000000
# 6 0.000000 0.000000 0.000000 0.001348 0.000000 0.040345
#
#
# Mechanical properties :
#
#
# Convention : Reuss Voigt Hill
#
# Bulk Modulus (GPa) = 52.74840 63.40265 58.07553
# Shear Modulus (GPa) = 22.70644 25.27884 23.99264
#
# Velocity S-wave (km/s) = 3.61709 3.81648 3.71813
# Velocity P-wave (km/s) = 6.91649 7.48018 7.20385
#
# Compressibility (1/GPa) = 0.01895792
#
# Stress axis : x y z
#
# Youngs Moduli (GPa) = 41.19311 69.86478 86.57761
#
# Poissons Ratio (x) = 0.38260 0.46473
# Poissons Ratio (y) = 0.22559 0.41096
# Poissons Ratio (z) = 0.22112 0.33163
#
# Static dielectric constant tensor:
#      x y z
#    x 3.062770 0.000000 0.121850 
#    y 0.000000 3.396210 0.000000 
#    z 0.121850 0.000000 3.259420 
# 
# 
# High freq. dielectric constant tensor:
#      x y z
#    x 1.631540 0.000000 0.010550 
#    y 0.000000 1.687920 0.000000 
#    z 0.010550 0.000000 1.658340 
# 
# From -- ./inp_files/58711.got.cif
#   From: 2010.06.25/outbox.cif.g09.slc.cpg/sg11_30_cif.got.tgz:58711.got - 2010.06.27 23:14:04.
