data_PCOD8072927
_publ_section_title
;
Structure prediction by ZEFSAII (Michael W. Deem and Ramdas Pophale) SiO2 
 PCOD8072927
Probable space group: P 21/M
;
_chemical_formula_sum "Si O2"
_cell_formula_units_Z 32
_cell_length_a 24.603327
_cell_length_b 9.000414
_cell_length_c 15.579701
_cell_angle_alpha 90.000000
_cell_angle_beta 148.616675
_cell_angle_gamma 90.000000
_cell_volume 1796.611028
_symmetry_space_group_name_H-M "P 21/M"
_symmetry_group_IT_number 11
_symmetry_cell_setting 'monoclinic'
loop_
_space_group_symop_operation_xyz
x,y,z
-x,1/2+y,-z
-x,-y,-z
x,1/2-y,z
loop_
_atom_site_type_symbol
_atom_site_label
_atom_site_fract_x
_atom_site_fract_y
_atom_site_fract_z
Si Si1 0.890177 0.578105 0.848463
Si Si2 0.736930 0.419955 0.377256
Si Si3 0.082130 0.419185 0.303126
Si Si4 0.347812 0.422763 0.249301
Si Si5 0.152981 0.926715 0.046507
Si Si6 0.466654 0.076931 0.585767
Si Si7 0.434487 0.926363 0.715098
Si Si8 0.430589 0.923447 0.977619
O O1 0.898294 0.750000 0.886436
O O2 0.854333 0.562768 0.701287
O O3 0.817671 0.492833 0.819352
O O4 0.000000 0.500000 0.000000
O O5 0.760353 0.250000 0.427366
O O6 0.848729 0.500601 0.531761
O O7 0.656726 0.476376 0.342553
O O8 0.688815 0.443654 0.216731
O O9 0.073618 0.250000 0.319479
O O10 0.963379 0.480848 0.137406
O O11 0.335799 0.250000 0.210571
O O12 0.421947 0.498970 0.279212
O O13 0.393327 0.447908 0.405359
O O14 0.235755 0.504145 0.091778
O O15 0.162209 0.750000 0.062413
O O16 0.484231 0.250000 0.628518
O O17 0.410670 0.998810 0.590855
O O18 0.444562 0.750000 0.720634
O O19 0.544857 0.993975 0.899413
O O20 0.458874 0.750000 0.023234
O O21 0.500000 0.000000 0.000000
#
# Coordination Sequence:
#
# PCOD8072927 Si02
#       8
#     4   4   4   4   4   4   4   4
#     4   9  17  29  42  61  88 121 161 201 237 280
#     4   9  19  31  46  71 101 131 163 199 240 284
#     4   9  19  31  44  66  95 127 165 200 236 285
#     4  10  21  36  53  73  97 127 164 207 249 290
#     4  10  20  33  48  67  93 129 165 203 246 288
#     4  10  21  36  53  74  98 127 162 204 249 293
#     4  10  20  33  50  74 100 130 165 201 244 294
#     4   9  17  31  48  70  98 129 163 200 243 293
#
# _framework density 17.811312999999998
#
# number of rings (size 3 to 8) (size 9 to 14) (size 15 to 20)
#    0.000    2.500    0.000    3.750    1.750    7.500 
#    0.000    0.000    0.000    0.000    0.000    0.875 
#    0.000    0.000    0.000    0.000    0.000    0.000 
#
# Total GULP energy -396591.636839 kJ/mol
# GULP energy per Si atom -12393.488651 kJ/mol
# Density = 1.777077 g / cm^3
# Si number density = 17.811313 Si / 1000 Ang^3
#
#
#
# Elastic Constant Matrix: (Units=GPa)
#
#
# Indices 1 2 3 4 5 6 
#
# 1 33.2632 14.1301 10.8058 0.0000 8.5655 0.0000
# 2 14.1301 89.9729 34.3638 0.0000 2.8942 0.0000
# 3 10.8058 34.3638 74.1598 0.0000 8.2015 0.0000
# 4 0.0000 0.0000 0.0000 30.1536 0.0000 -0.2058
# 5 8.5655 2.8942 8.2015 0.0000 24.3263 0.0000
# 6 0.0000 0.0000 0.0000 -0.2058 0.0000 28.6778
#
#
#
# Elastic Compliance Matrix: (Units=1/GPa)
#
#
# Indices 1 2 3 4 5 6 
#
# 1 0.035495 -0.004512 -0.001827 0.000000 -0.011345 0.000000
# 2 -0.004512 0.014084 -0.006086 0.000000 0.001965 0.000000
# 3 -0.001827 -0.006086 0.017055 0.000000 -0.004383 0.000000
# 4 0.000000 0.000000 0.000000 0.033165 0.000000 0.000238
# 5 -0.011345 0.001965 -0.004383 0.000000 0.046347 0.000000
# 6 0.000000 0.000000 0.000000 0.000238 0.000000 0.034872
#
#
# Mechanical properties :
#
#
# Convention : Reuss Voigt Hill
#
# Bulk Modulus (GPa) = 23.93180 35.11060 29.52120
# Shear Modulus (GPa) = 22.74838 25.83796 24.29317
#
# Velocity S-wave (km/s) = 3.57765 3.81287 3.69713
# Velocity P-wave (km/s) = 5.52554 6.25614 5.90216
#
# Compressibility (1/GPa) = 0.04178540
#
# Stress axis : x y z
#
# Youngs Moduli (GPa) = 28.17314 71.00063 58.63221
#
# Poissons Ratio (x) = 0.32034 0.10709
# Poissons Ratio (y) = 0.12711 0.35685
# Poissons Ratio (z) = 0.05146 0.43213
#
# Static dielectric constant tensor:
#      x y z
#    x 3.155350 0.000000 -0.063400 
#    y 0.000000 3.488540 0.000000 
#    z -0.063400 0.000000 3.407390 
# 
# 
# High freq. dielectric constant tensor:
#      x y z
#    x 1.646780 0.000000 0.003700 
#    y 0.000000 1.702820 0.000000 
#    z 0.003700 0.000000 1.680360 
# 
# From -- ./inp_files/55666.got.cif
#   From: 2010.06.25/outbox.cif.g09.slc.cpg/sg11_28_cif.got.tgz:55666.got - 2010.06.27 23:14:04.
