data_PCOD8072340
_publ_section_title
;
Structure prediction by ZEFSAII (Michael W. Deem and Ramdas Pophale) SiO2 
 PCOD8072340
Probable space group: P 21/M
;
_chemical_formula_sum "Si O2"
_cell_formula_units_Z 32
_cell_length_a 9.975104
_cell_length_b 14.671489
_cell_length_c 11.441868
_cell_angle_alpha 90.000000
_cell_angle_beta 100.044010
_cell_angle_gamma 90.000000
_cell_volume 1648.849678
_symmetry_space_group_name_H-M "P 21/M"
_symmetry_group_IT_number 11
_symmetry_cell_setting 'monoclinic'
loop_
_space_group_symop_operation_xyz
x,y,z
-x,1/2+y,-z
-x,-y,-z
x,1/2-y,z
loop_
_atom_site_type_symbol
_atom_site_label
_atom_site_fract_x
_atom_site_fract_y
_atom_site_fract_z
Si Si1 0.823842 0.649269 0.945750
Si Si2 0.371591 0.561079 0.951316
Si Si3 0.370110 0.355686 0.673986
Si Si4 0.302508 0.141887 0.399800
Si Si5 0.664967 0.144409 0.812248
Si Si6 0.874172 0.509852 0.763473
Si Si7 0.839957 0.934509 0.178999
Si Si8 0.463218 0.148024 0.205393
O O1 0.864471 0.750000 0.905312
O O2 0.899269 0.571437 0.882548
O O3 0.661457 0.635084 0.904640
O O4 0.864683 0.646633 0.089095
O O5 0.230611 0.508698 0.915682
O O6 0.403135 0.602754 0.828514
O O7 0.500000 0.500000 0.000000
O O8 0.347354 0.634960 0.049598
O O9 0.345464 0.250000 0.693822
O O10 0.353545 0.380653 0.536095
O O11 0.520478 0.384576 0.735321
O O12 0.256465 0.408760 0.728942
O O13 0.266312 0.250000 0.378467
O O14 0.420076 0.110401 0.326203
O O15 0.174914 0.076977 0.348374
O O16 0.701851 0.250000 0.788430
O O17 0.774133 0.075247 0.773790
O O18 0.018618 0.469133 0.745779
O O19 0.507202 0.250000 0.230693
#
# Coordination Sequence:
#
# PCOD8072340 Si02
#       8
#     4   4   4   4   4   4   4   4
#     4  10  19  35  59  83 114 158 200 240 289 353
#     4  12  19  34  56  83 121 155 191 241 294 351
#     4  10  22  40  63  89 113 155 208 250 299 352
#     4   9  20  41  66  85 114 157 207 252 292 351
#     4  11  23  39  60  89 125 156 193 249 301 353
#     4  11  23  40  57  90 123 157 204 239 298 363
#     4  12  23  35  57  88 124 156 195 242 298 364
#     4   9  17  32  55  82 107 145 194 243 291 337
#
# _framework density 19.40747
#
# number of rings (size 3 to 8) (size 9 to 14) (size 15 to 20)
#    0.000    1.500    3.750    3.000    0.000    4.000 
#    0.000    1.875    0.000    0.000    0.000    0.000 
#    0.000    0.000    0.000    0.000    0.000    0.000 
#
# Total GULP energy -396624.445441 kJ/mol
# GULP energy per Si atom -12394.513920 kJ/mol
# Density = 1.936330 g / cm^3
# Si number density = 19.407470 Si / 1000 Ang^3
#
#
#
# Elastic Constant Matrix: (Units=GPa)
#
#
# Indices 1 2 3 4 5 6 
#
# 1 112.7844 54.1060 45.2338 0.0000 4.4784 0.0000
# 2 54.1060 85.7351 36.1707 0.0000 2.0137 0.0000
# 3 45.2338 36.1707 124.5686 0.0000 5.1163 0.0000
# 4 0.0000 0.0000 0.0000 29.8480 0.0000 -0.8014
# 5 4.4784 2.0137 5.1163 0.0000 10.2989 0.0000
# 6 0.0000 0.0000 0.0000 -0.8014 0.0000 22.8373
#
#
#
# Elastic Compliance Matrix: (Units=1/GPa)
#
#
# Indices 1 2 3 4 5 6 
#
# 1 0.013604 -0.007387 -0.002666 0.000000 -0.003147 0.000000
# 2 -0.007387 0.017308 -0.002385 0.000000 0.001013 0.000000
# 3 -0.002666 -0.002385 0.009822 0.000000 -0.003254 0.000000
# 4 0.000000 0.000000 0.000000 0.033535 0.000000 0.001177
# 5 -0.003147 0.001013 -0.003254 0.000000 0.099885 0.000000
# 6 0.000000 0.000000 0.000000 0.001177 0.000000 0.043829
#
#
# Mechanical properties :
#
#
# Convention : Reuss Voigt Hill
#
# Bulk Modulus (GPa) = 63.05635 66.01214 64.53425
# Shear Modulus (GPa) = 20.14956 25.10200 22.62578
#
# Velocity S-wave (km/s) = 3.22566 3.60032 3.41813
# Velocity P-wave (km/s) = 6.81429 7.16733 6.99304
#
# Compressibility (1/GPa) = 0.01585883
#
# Stress axis : x y z
#
# Youngs Moduli (GPa) = 73.50601 57.77691 101.81331
#
# Poissons Ratio (x) = 0.42679 0.27142
# Poissons Ratio (y) = 0.54298 0.24282
# Poissons Ratio (z) = 0.19596 0.13779
#
# Static dielectric constant tensor:
#      x y z
#    x 3.449920 0.000000 -0.118340 
#    y 0.000000 3.810760 0.000000 
#    z -0.118340 0.000000 3.635360 
# 
# 
# High freq. dielectric constant tensor:
#      x y z
#    x 1.730600 0.000000 -0.006540 
#    y 0.000000 1.765680 0.000000 
#    z -0.006540 0.000000 1.745450 
# 
# From -- ./inp_files/31895.got.cif
#   From: 2010.06.25/outbox.cif.g09.slc.cpg/sg11_16_cif.got.tgz:31895.got - 2010.06.27 23:14:04.
