data_PCOD8072368
_publ_section_title
;
Structure prediction by ZEFSAII (Michael W. Deem and Ramdas Pophale) SiO2 
 PCOD8072368
Probable space group: P 21/M
;
_chemical_formula_sum "Si O2"
_cell_formula_units_Z 28
_cell_length_a 14.579156
_cell_length_b 8.650179
_cell_length_c 12.613564
_cell_angle_alpha 90.000000
_cell_angle_beta 59.265167
_cell_angle_gamma 90.000000
_cell_volume 1367.295101
_symmetry_space_group_name_H-M "P 21/M"
_symmetry_group_IT_number 11
_symmetry_cell_setting 'monoclinic'
loop_
_space_group_symop_operation_xyz
x,y,z
-x,1/2+y,-z
-x,-y,-z
x,1/2-y,z
loop_
_atom_site_type_symbol
_atom_site_label
_atom_site_fract_x
_atom_site_fract_y
_atom_site_fract_z
Si Si1 0.686497 0.931876 0.639858
Si Si2 0.225593 0.432898 0.779719
Si Si3 0.992364 0.567000 0.188657
Si Si4 0.391481 0.567785 0.520679
Si Si5 0.772234 0.066624 0.000014
Si Si6 0.616347 0.567682 0.916089
Si Si7 0.074495 0.432730 0.544331
O O1 0.671734 0.750000 0.629155
O O2 0.654620 0.980095 0.776870
O O3 0.806487 0.988046 0.549855
O O4 0.612950 0.024019 0.600672
O O5 0.238908 0.250000 0.778167
O O6 0.292089 0.492577 0.640504
O O7 0.269666 0.508645 0.861421
O O8 0.101413 0.482124 0.837236
O O9 0.998410 0.750000 0.192073
O O10 0.963312 0.498865 0.320929
O O11 0.107313 0.501028 0.085879
O O12 0.500000 0.500000 0.500000
O O13 0.389452 0.750000 0.537705
O O14 0.767996 0.250000 0.999009
O O15 0.697326 0.002573 0.952782
O O16 0.613698 0.750000 0.932970
O O17 0.500000 0.500000 0.000000
O O18 0.067057 0.250000 0.547410
O O19 0.000000 0.500000 0.500000
#
# Coordination Sequence:
#
# PCOD8072368 Si02
#       7
#     4   4   4   4   4   4   4
#     4  10  22  43  67  91 126 165 211 261 314 374
#     4  11  22  42  67  93 129 171 213 261 316 373
#     4   9  19  37  62  90 127 168 207 255 314 375
#     4  12  26  43  67  97 128 165 211 262 320 382
#     4  11  23  40  63  95 131 169 214 262 315 379
#     4  11  25  44  66  92 124 168 215 265 319 378
#     4  10  19  35  59  89 124 163 204 254 310 368
#
# _framework density 20.478389
#
# number of rings (size 3 to 8) (size 9 to 14) (size 15 to 20)
#    0.000    1.429    1.429    3.857    2.000    1.714 
#    0.000    2.857    0.000    0.000    0.000    0.000 
#    0.000    0.000    0.000    0.000    0.000    0.000 
#
# Total GULP energy -347303.237590 kJ/mol
# GULP energy per Si atom -12403.687057 kJ/mol
# Density = 2.043178 g / cm^3
# Si number density = 20.478389 Si / 1000 Ang^3
#
#
#
# Elastic Constant Matrix: (Units=GPa)
#
#
# Indices 1 2 3 4 5 6 
#
# 1 154.9277 51.4517 54.0821 0.0000 16.9465 0.0000
# 2 51.4517 73.9140 38.7787 0.0000 9.3609 0.0000
# 3 54.0821 38.7787 120.4813 0.0000 20.2209 0.0000
# 4 0.0000 0.0000 0.0000 32.1225 0.0000 4.7734
# 5 16.9465 9.3609 20.2209 0.0000 40.7644 0.0000
# 6 0.0000 0.0000 0.0000 4.7734 0.0000 37.5432
#
#
#
# Elastic Compliance Matrix: (Units=1/GPa)
#
#
# Indices 1 2 3 4 5 6 
#
# 1 0.009032 -0.004934 -0.002210 0.000000 -0.001525 0.000000
# 2 -0.004934 0.019032 -0.003841 0.000000 -0.000414 0.000000
# 3 -0.002210 -0.003841 0.011155 0.000000 -0.003732 0.000000
# 4 0.000000 0.000000 0.000000 0.031730 0.000000 -0.004034
# 5 -0.001525 -0.000414 -0.003732 0.000000 0.027112 0.000000
# 6 0.000000 0.000000 0.000000 -0.004034 0.000000 0.027149
#
#
# Mechanical properties :
#
#
# Convention : Reuss Voigt Hill
#
# Bulk Modulus (GPa) = 57.98089 70.88314 64.43201
# Shear Modulus (GPa) = 32.69483 35.75338 34.22410
#
# Velocity S-wave (km/s) = 4.00002 4.18294 4.09250
# Velocity P-wave (km/s) = 7.05041 7.61696 7.33915
#
# Compressibility (1/GPa) = 0.01724706
#
# Stress axis : x y z
#
# Youngs Moduli (GPa) = 110.72227 52.54386 89.64681
#
# Poissons Ratio (x) = 0.25927 0.19812
# Poissons Ratio (y) = 0.54634 0.34436
# Poissons Ratio (z) = 0.24469 0.20184
#
# Static dielectric constant tensor:
#      x y z
#    x 4.765690 0.000000 -0.280980 
#    y 0.000000 3.553970 0.000000 
#    z -0.280980 0.000000 4.006140 
# 
# 
# High freq. dielectric constant tensor:
#      x y z
#    x 1.816020 0.000000 0.004670 
#    y 0.000000 1.789480 0.000000 
#    z 0.004670 0.000000 1.815070 
# 
# From -- ./inp_files/37942.got.cif
#   From: 2010.06.25/outbox.cif.g09.slc.cpg/sg11_19_cif.got.tgz:37942.got - 2010.06.27 23:14:04.
