data_PCOD8072418
_publ_section_title
;
Structure prediction by ZEFSAII (Michael W. Deem and Ramdas Pophale) SiO2 
 PCOD8072418
Probable space group: P 21/M
;
_chemical_formula_sum "Si O2"
_cell_formula_units_Z 28
_cell_length_a 18.731694
_cell_length_b 18.467242
_cell_length_c 10.900209
_cell_angle_alpha 90.000000
_cell_angle_beta 157.303074
_cell_angle_gamma 90.000000
_cell_volume 1454.922274
_symmetry_space_group_name_H-M "P 21/M"
_symmetry_group_IT_number 11
_symmetry_cell_setting 'monoclinic'
loop_
_space_group_symop_operation_xyz
x,y,z
-x,1/2+y,-z
-x,-y,-z
x,1/2-y,z
loop_
_atom_site_type_symbol
_atom_site_label
_atom_site_fract_x
_atom_site_fract_y
_atom_site_fract_z
Si Si1 0.293914 0.964742 0.664816
Si Si2 0.192193 0.831647 0.334214
Si Si3 0.361966 0.936398 0.269967
Si Si4 0.989670 0.585607 0.815642
Si Si5 0.138571 0.935874 0.685164
Si Si6 0.466534 0.172068 0.296144
Si Si7 0.878017 0.664678 0.392888
O O1 0.278762 0.887981 0.569942
O O2 0.216089 0.946213 0.674229
O O3 0.155569 0.022149 0.381310
O O4 0.500000 0.000000 0.000000
O O5 0.143083 0.750000 0.310155
O O6 0.344574 0.818554 0.474879
O O7 0.017322 0.866844 0.983624
O O8 0.487310 0.867967 0.504924
O O9 0.500000 0.000000 0.500000
O O10 0.313198 0.932554 0.050857
O O11 0.184748 0.947499 0.077979
O O12 0.906062 0.632980 0.572671
O O13 0.031857 0.860218 0.538099
O O14 0.000000 0.000000 0.500000
O O15 0.384718 0.250000 0.204557
O O16 0.316110 0.134123 0.968686
O O17 0.883023 0.750000 0.414874
#
# Coordination Sequence:
#
# PCOD8072418 Si02
#       7
#     4   4   4   4   4   4   4
#     4  12  25  40  64  91 128 168 214 254 315 374
#     4  10  22  40  61  88 127 165 206 258 316 374
#     4  10  20  32  61  85 118 149 196 250 303 344
#     4  10  21  38  61  92 120 161 209 256 300 382
#     4  11  22  39  58  87 123 155 205 253 303 363
#     4   9  19  35  58  89 119 155 201 247 303 373
#     4  10  19  35  63  90 119 158 205 257 311 364
#
# _framework density 19.245013
#
# number of rings (size 3 to 8) (size 9 to 14) (size 15 to 20)
#    0.000    1.714    2.857    2.571    4.000    4.000 
#    0.000    0.714    0.000    0.000    0.000    0.000 
#    0.000    0.000    0.000    0.000    0.000    0.000 
#
# Total GULP energy -346903.811454 kJ/mol
# GULP energy per Si atom -12389.421838 kJ/mol
# Density = 1.920121 g / cm^3
# Si number density = 19.245013 Si / 1000 Ang^3
#
#
#
# Elastic Constant Matrix: (Units=GPa)
#
#
# Indices 1 2 3 4 5 6 
#
# 1 57.2484 37.9113 18.7752 0.0000 -21.0778 0.0000
# 2 37.9113 124.3239 61.7976 0.0000 -16.5320 0.0000
# 3 18.7752 61.7976 131.1099 0.0000 -20.8415 0.0000
# 4 0.0000 0.0000 0.0000 33.5129 0.0000 -2.7179
# 5 -21.0778 -16.5320 -20.8415 0.0000 25.1789 0.0000
# 6 0.0000 0.0000 0.0000 -2.7179 0.0000 25.9284
#
#
#
# Elastic Compliance Matrix: (Units=1/GPa)
#
#
# Indices 1 2 3 4 5 6 
#
# 1 0.029715 -0.007501 0.002823 0.000000 0.022287 0.000000
# 2 -0.007501 0.012630 -0.005250 0.000000 -0.002332 0.000000
# 3 0.002823 -0.005250 0.010968 0.000000 0.007995 0.000000
# 4 0.000000 0.000000 0.000000 0.030095 0.000000 0.003155
# 5 0.022287 -0.002332 0.007995 0.000000 0.063459 0.000000
# 6 0.000000 0.000000 0.000000 0.003155 0.000000 0.038898
#
#
# Mechanical properties :
#
#
# Convention : Reuss Voigt Hill
#
# Bulk Modulus (GPa) = 29.88818 61.07228 45.48023
# Shear Modulus (GPa) = 23.06551 29.87056 26.46804
#
# Velocity S-wave (km/s) = 3.46572 3.94397 3.71255
# Velocity P-wave (km/s) = 5.61952 7.24864 6.48544
#
# Compressibility (1/GPa) = 0.03345804
#
# Stress axis : x y z
#
# Youngs Moduli (GPa) = 33.65345 79.17528 91.17216
#
# Poissons Ratio (x) = 0.59388 -0.25738
# Poissons Ratio (y) = 0.25243 0.47862
# Poissons Ratio (z) = -0.09500 0.41564
#
# Static dielectric constant tensor:
#      x y z
#    x 3.131450 0.000000 0.365260 
#    y 0.000000 4.062850 0.000000 
#    z 0.365260 0.000000 3.702140 
# 
# 
# High freq. dielectric constant tensor:
#      x y z
#    x 1.716810 0.000000 -0.015040 
#    y 0.000000 1.758120 0.000000 
#    z -0.015040 0.000000 1.770090 
# 
# From -- ./inp_files/43533.got.cif
#   From: 2010.06.25/outbox.cif.g09.slc.cpg/sg11_22_cif.got.tgz:43533.got - 2010.06.27 23:14:04.
