data_PCOD8072565
_publ_section_title
;
Structure prediction by ZEFSAII (Michael W. Deem and Ramdas Pophale) SiO2 
 PCOD8072565
Probable space group: P 21/M
;
_chemical_formula_sum "Si O2"
_cell_formula_units_Z 32
_cell_length_a 9.598819
_cell_length_b 13.961407
_cell_length_c 24.020302
_cell_angle_alpha 90.000000
_cell_angle_beta 29.871284
_cell_angle_gamma 90.000000
_cell_volume 1603.249772
_symmetry_space_group_name_H-M "P 21/M"
_symmetry_group_IT_number 11
_symmetry_cell_setting 'monoclinic'
loop_
_space_group_symop_operation_xyz
x,y,z
-x,1/2+y,-z
-x,-y,-z
x,1/2-y,z
loop_
_atom_site_type_symbol
_atom_site_label
_atom_site_fract_x
_atom_site_fract_y
_atom_site_fract_z
Si Si1 0.613450 0.639257 0.611103
Si Si2 0.620031 0.142670 0.108361
Si Si3 0.993574 0.357167 0.348797
Si Si4 0.742315 0.023130 0.959889
Si Si5 0.837244 0.138716 0.521847
Si Si6 0.788050 0.638457 0.263965
Si Si7 0.873747 0.359290 0.134276
Si Si8 0.331963 0.981507 0.613400
O O1 0.618993 0.750000 0.589806
O O2 0.413135 0.623731 0.733158
O O3 0.518098 0.572083 0.594332
O O4 0.922622 0.598693 0.520233
O O5 0.685905 0.250000 0.063043
O O6 0.324354 0.142274 0.241862
O O7 0.837457 0.113798 0.081696
O O8 0.618110 0.067603 0.058998
O O9 0.876682 0.250000 0.380944
O O10 0.854364 0.404226 0.452871
O O11 0.924378 0.414319 0.316322
O O12 0.974836 0.098344 0.858608
O O13 0.881648 0.921836 0.924231
O O14 0.500000 0.000000 0.000000
O O15 0.912061 0.250000 0.488778
O O16 0.523854 0.123023 0.654746
O O17 0.843629 0.750000 0.257120
O O18 0.798889 0.580116 0.318007
O O19 0.971675 0.250000 0.106500
O O20 0.500000 0.000000 0.500000
#
# Coordination Sequence:
#
# PCOD8072565 Si02
#       8
#     4   4   4   4   4   4   4   4
#     4  10  20  38  64  96 127 157 202 262 314 369
#     4  10  21  39  66  93 122 163 209 260 318 374
#     4  10  19  36  61  92 122 154 200 257 311 370
#     4  12  25  43  63  92 127 167 221 260 317 382
#     4   9  18  37  64  90 122 162 198 246 315 378
#     4  11  24  42  61  87 128 170 209 255 316 382
#     4  10  21  40  66  95 123 155 208 271 323 369
#     4  12  23  36  56  93 126 168 209 247 307 377
#
# _framework density 19.95946
#
# number of rings (size 3 to 8) (size 9 to 14) (size 15 to 20)
#    0.000    1.500    3.750    1.875    0.000    2.000 
#    2.250    0.000    0.000    0.000    0.000    0.000 
#    0.000    0.000    0.000    0.000    0.000    0.000 
#
# Total GULP energy -396736.441548 kJ/mol
# GULP energy per Si atom -12398.013798 kJ/mol
# Density = 1.991403 g / cm^3
# Si number density = 19.959460 Si / 1000 Ang^3
#
#
#
# Elastic Constant Matrix: (Units=GPa)
#
#
# Indices 1 2 3 4 5 6 
#
# 1 140.3472 68.1518 40.5598 0.0000 -11.4050 0.0000
# 2 68.1518 111.8372 36.9715 0.0000 -3.1239 0.0000
# 3 40.5598 36.9715 87.6538 0.0000 -2.3454 0.0000
# 4 0.0000 0.0000 0.0000 31.4372 0.0000 8.2617
# 5 -11.4050 -3.1239 -2.3454 0.0000 35.0907 0.0000
# 6 0.0000 0.0000 0.0000 8.2617 0.0000 26.0871
#
#
#
# Elastic Compliance Matrix: (Units=1/GPa)
#
#
# Indices 1 2 3 4 5 6 
#
# 1 0.010858 -0.005696 -0.002546 0.000000 0.002852 0.000000
# 2 -0.005696 0.013392 -0.003036 0.000000 -0.000862 0.000000
# 3 -0.002546 -0.003036 0.013863 0.000000 -0.000171 0.000000
# 4 0.000000 0.000000 0.000000 0.034697 0.000000 -0.010989
# 5 0.002852 -0.000862 -0.000171 0.000000 0.029336 0.000000
# 6 0.000000 0.000000 0.000000 -0.010989 0.000000 0.041813
#
#
# Mechanical properties :
#
#
# Convention : Reuss Voigt Hill
#
# Bulk Modulus (GPa) = 64.27649 70.13382 67.20516
# Shear Modulus (GPa) = 29.12037 31.46668 30.29352
#
# Velocity S-wave (km/s) = 3.82380 3.97486 3.90006
# Velocity P-wave (km/s) = 7.19505 7.50203 7.35014
#
# Compressibility (1/GPa) = 0.01555779
#
# Stress axis : x y z
#
# Youngs Moduli (GPa) = 92.09382 74.67107 72.13675
#
# Poissons Ratio (x) = 0.42531 0.18365
# Poissons Ratio (y) = 0.52454 0.21902
# Poissons Ratio (z) = 0.23445 0.22671
#
# Static dielectric constant tensor:
#      x y z
#    x 3.819640 0.000000 -0.085280 
#    y 0.000000 4.010530 0.000000 
#    z -0.085280 0.000000 3.513110 
# 
# 
# High freq. dielectric constant tensor:
#      x y z
#    x 1.777830 0.000000 -0.004830 
#    y 0.000000 1.787160 0.000000 
#    z -0.004830 0.000000 1.770380 
# 
# From -- ./inp_files/68138.got.cif
#   From: 2010.06.25/outbox.cif.g09.slc.cpg/sg11_35_cif.got.tgz:68138.got - 2010.06.27 23:14:04.
