data_PCOD8072907
_publ_section_title
;
Structure prediction by ZEFSAII (Michael W. Deem and Ramdas Pophale) SiO2 
 PCOD8072907
Probable space group: P 21/M
;
_chemical_formula_sum "Si O2"
_cell_formula_units_Z 32
_cell_length_a 30.666208
_cell_length_b 8.977181
_cell_length_c 13.959353
_cell_angle_alpha 90.000000
_cell_angle_beta 148.115430
_cell_angle_gamma 90.000000
_cell_volume 2029.886276
_symmetry_space_group_name_H-M "P 21/M"
_symmetry_group_IT_number 11
_symmetry_cell_setting 'monoclinic'
loop_
_space_group_symop_operation_xyz
x,y,z
-x,1/2+y,-z
-x,-y,-z
x,1/2-y,z
loop_
_atom_site_type_symbol
_atom_site_label
_atom_site_fract_x
_atom_site_fract_y
_atom_site_fract_z
Si Si1 0.848806 0.420827 0.368290
Si Si2 0.930653 0.573260 0.935319
Si Si3 0.031388 0.077071 0.777758
Si Si4 0.273038 0.425734 0.725208
Si Si5 0.591760 0.414147 0.269368
Si Si6 0.770132 0.072511 0.552952
Si Si7 0.437385 0.584862 0.009765
Si Si8 0.078429 0.921294 0.689886
O O1 0.827982 0.250000 0.356926
O O2 0.780311 0.531763 0.281614
O O3 0.848168 0.440579 0.251120
O O4 0.937204 0.465975 0.577857
O O5 0.930831 0.750000 0.920222
O O6 0.842714 0.505593 0.745403
O O7 0.949421 0.527647 0.078979
O O8 0.000000 0.500000 0.000000
O O9 0.046624 0.250000 0.790333
O O10 0.095741 0.993542 0.826304
O O11 0.271728 0.250000 0.704697
O O12 0.233256 0.509710 0.560718
O O13 0.366721 0.477818 0.919912
O O14 0.582284 0.250000 0.296825
O O15 0.686416 0.468930 0.454709
O O16 0.570037 0.407179 0.117508
O O17 0.528343 0.522291 0.206409
O O18 0.783036 0.250000 0.570456
O O19 0.428259 0.750000 0.037269
O O20 0.057177 0.750000 0.665635
O O21 0.000000 0.000000 0.500000
#
# Coordination Sequence:
#
# PCOD8072907 Si02
#       8
#     4   4   4   4   4   4   4   4
#     4   9  17  30  45  63  88 115 143 178 221 263
#     4  11  22  34  48  66  89 119 153 188 222 256
#     4   9  19  33  47  63  86 114 145 184 223 257
#     4  11  20  28  42  64  89 118 150 181 216 263
#     4   8  15  27  42  59  80 109 145 181 216 255
#     4  10  20  33  46  61  86 119 152 188 223 255
#     4   9  16  26  41  60  84 113 141 175 218 260
#     4   9  17  29  47  66  84 109 141 178 219 263
#
# _framework density 15.764430000000001
#
# number of rings (size 3 to 8) (size 9 to 14) (size 15 to 20)
#    0.000    2.500    0.000    4.875    0.000    8.000 
#    0.000    0.000    0.000    0.000    0.000    0.000 
#    0.000    1.000    0.000    3.250    0.000    5.000 
#
# Total GULP energy -396661.965750 kJ/mol
# GULP energy per Si atom -12395.686430 kJ/mol
# Density = 1.572855 g / cm^3
# Si number density = 15.764430 Si / 1000 Ang^3
#
#
#
# Elastic Constant Matrix: (Units=GPa)
#
#
# Indices 1 2 3 4 5 6 
#
# 1 100.5229 55.1969 50.6978 0.0000 1.3337 0.0000
# 2 55.1969 93.6633 40.9527 0.0000 3.6691 0.0000
# 3 50.6978 40.9527 81.1064 0.0000 12.5774 0.0000
# 4 0.0000 0.0000 0.0000 24.1394 0.0000 4.2508
# 5 1.3337 3.6691 12.5774 0.0000 17.7996 0.0000
# 6 0.0000 0.0000 0.0000 4.2508 0.0000 28.6749
#
#
#
# Elastic Compliance Matrix: (Units=1/GPa)
#
#
# Indices 1 2 3 4 5 6 
#
# 1 0.018198 -0.007149 -0.008740 0.000000 0.006286 0.000000
# 2 -0.007149 0.016596 -0.003890 0.000000 -0.000137 0.000000
# 3 -0.008740 -0.003890 0.021934 0.000000 -0.014042 0.000000
# 4 0.000000 0.000000 0.000000 0.042536 0.000000 -0.006306
# 5 0.006286 -0.000137 -0.014042 0.000000 0.065661 0.000000
# 6 0.000000 0.000000 0.000000 -0.006306 0.000000 0.035808
#
#
# Mechanical properties :
#
#
# Convention : Reuss Voigt Hill
#
# Bulk Modulus (GPa) = 58.24046 63.22083 60.73064
# Shear Modulus (GPa) = 20.32394 22.68581 21.50487
#
# Velocity S-wave (km/s) = 3.59448 3.79760 3.69743
# Velocity P-wave (km/s) = 7.36556 7.70841 7.53893
#
# Compressibility (1/GPa) = 0.01717019
#
# Stress axis : x y z
#
# Youngs Moduli (GPa) = 54.95029 60.25687 45.59039
#
# Poissons Ratio (x) = 0.43078 0.39848
# Poissons Ratio (y) = 0.39285 0.17733
# Poissons Ratio (z) = 0.48029 0.23437
#
# Static dielectric constant tensor:
#      x y z
#    x 3.104950 0.000000 0.142170 
#    y 0.000000 3.221160 0.000000 
#    z 0.142170 0.000000 2.932050 
# 
# 
# High freq. dielectric constant tensor:
#      x y z
#    x 1.589280 0.000000 0.022500 
#    y 0.000000 1.619880 0.000000 
#    z 0.022500 0.000000 1.570070 
# 
# From -- ./inp_files/56475.got.cif
#   From: 2010.06.25/outbox.cif.g09.slc.cpg/sg11_29_cif.got.tgz:56475.got - 2010.06.27 23:14:04.
