data_PCOD8072135
_publ_section_title
;
Structure prediction by ZEFSAII (Michael W. Deem and Ramdas Pophale) SiO2 
 PCOD8072135
Probable space group: P 21/M
;
_chemical_formula_sum "Si O2"
_cell_formula_units_Z 32
_cell_length_a 11.360847
_cell_length_b 8.961865
_cell_length_c 28.276941
_cell_angle_alpha 90.000000
_cell_angle_beta 34.151271
_cell_angle_gamma 90.000000
_cell_volume 1616.211837
_symmetry_space_group_name_H-M "P 21/M"
_symmetry_group_IT_number 11
_symmetry_cell_setting 'monoclinic'
loop_
_space_group_symop_operation_xyz
x,y,z
-x,1/2+y,-z
-x,-y,-z
x,1/2-y,z
loop_
_atom_site_type_symbol
_atom_site_label
_atom_site_fract_x
_atom_site_fract_y
_atom_site_fract_z
Si Si1 0.798839 0.575536 0.589962
Si Si2 0.906308 0.921301 0.659970
Si Si3 0.186907 0.921337 0.876129
Si Si4 0.724790 0.578331 0.056393
Si Si5 0.055713 0.079114 0.748830
Si Si6 0.717995 0.580439 0.424761
Si Si7 0.629683 0.926250 0.274717
Si Si8 0.321878 0.075480 0.168354
O O1 0.804163 0.750000 0.576482
O O2 0.793213 0.545316 0.648130
O O3 0.588709 0.503903 0.638256
O O4 0.000000 0.500000 0.500000
O O5 0.972075 0.750000 0.642987
O O6 0.751535 0.966444 0.754046
O O7 0.120375 0.014232 0.590953
O O8 0.259377 0.750000 0.845274
O O9 0.263067 0.975050 0.901700
O O10 0.296122 0.023933 0.801330
O O11 0.935895 0.936747 0.955453
O O12 0.686738 0.750000 0.083674
O O13 0.534984 0.515758 0.087640
O O14 0.984309 0.250000 0.779045
O O15 0.197222 0.059280 0.655903
O O16 0.192380 0.022910 0.747539
O O17 0.849534 0.976934 0.813001
O O18 0.500000 0.500000 0.500000
O O19 0.682367 0.750000 0.450596
O O20 0.594453 0.750000 0.287781
O O21 0.362904 0.250000 0.148151
#
# Coordination Sequence:
#
# PCOD8072135 Si02
#       8
#     4   4   4   4   4   4   4   4
#     4  11  24  40  58  82 114 150 190 238 287 344
#     4   9  20  37  54  76 108 142 180 228 279 331
#     4  10  21  37  58  88 120 153 192 236 286 339
#     4  10  20  35  59  88 120 153 189 235 286 343
#     4   9  21  39  56  78 111 151 191 234 286 345
#     4  10  20  34  55  80 106 138 181 232 282 333
#     4  11  23  40  61  83 114 155 194 235 290 350
#     4  10  19  34  59  87 113 145 189 240 289 337
#
# _framework density 19.799384
#
# number of rings (size 3 to 8) (size 9 to 14) (size 15 to 20)
#    0.000    2.000    0.000    3.000    1.750    5.500 
#    0.000    0.625    0.000    0.000    0.000    0.000 
#    0.000    0.000    0.000    0.000    0.000    0.000 
#
# Total GULP energy -396938.859113 kJ/mol
# GULP energy per Si atom -12404.339347 kJ/mol
# Density = 1.975432 g / cm^3
# Si number density = 19.799384 Si / 1000 Ang^3
#
#
#
# Elastic Constant Matrix: (Units=GPa)
#
#
# Indices 1 2 3 4 5 6 
#
# 1 77.9406 38.0804 32.3031 0.0000 -19.9376 0.0000
# 2 38.0804 100.6249 43.1526 0.0000 -22.6076 0.0000
# 3 32.3031 43.1526 77.8716 0.0000 -26.5393 0.0000
# 4 0.0000 0.0000 0.0000 34.6926 0.0000 -7.1978
# 5 -19.9376 -22.6076 -26.5393 0.0000 34.5955 0.0000
# 6 0.0000 0.0000 0.0000 -7.1978 0.0000 35.2490
#
#
#
# Elastic Compliance Matrix: (Units=1/GPa)
#
#
# Indices 1 2 3 4 5 6 
#
# 1 0.017441 -0.004091 -0.003322 0.000000 0.004830 0.000000
# 2 -0.004091 0.014424 -0.005263 0.000000 0.003031 0.000000
# 3 -0.003322 -0.005263 0.020732 0.000000 0.010550 0.000000
# 4 0.000000 0.000000 0.000000 0.030100 0.000000 0.006146
# 5 0.004830 0.003031 0.010550 0.000000 0.041763 0.000000
# 6 0.000000 0.000000 0.000000 0.006146 0.000000 0.029625
#
#
# Mechanical properties :
#
#
# Convention : Reuss Voigt Hill
#
# Bulk Modulus (GPa) = 36.70391 53.72327 45.21359
# Shear Modulus (GPa) = 26.52259 30.43415 28.47837
#
# Velocity S-wave (km/s) = 3.66398 3.92487 3.79667
# Velocity P-wave (km/s) = 6.03969 6.90885 6.48884
#
# Compressibility (1/GPa) = 0.02724505
#
# Stress axis : x y z
#
# Youngs Moduli (GPa) = 57.33517 69.32881 48.23457
#
# Poissons Ratio (x) = 0.28360 0.16025
# Poissons Ratio (y) = 0.23454 0.25387
# Poissons Ratio (z) = 0.19048 0.36490
#
# Static dielectric constant tensor:
#      x y z
#    x 3.732070 0.000000 -0.345890 
#    y 0.000000 3.693930 0.000000 
#    z -0.345890 0.000000 3.608460 
# 
# 
# High freq. dielectric constant tensor:
#      x y z
#    x 1.767840 0.000000 -0.019660 
#    y 0.000000 1.782280 0.000000 
#    z -0.019660 0.000000 1.767520 
# 
# From -- ./inp_files/64431.got.cif
#   From: 2010.06.25/outbox.cif.g09.slc.cpg/sg11_33_cif.got.tgz:64431.got - 2010.06.27 23:14:04.
