data_PCOD8072364
_publ_section_title
;
Structure prediction by ZEFSAII (Michael W. Deem and Ramdas Pophale) SiO2 
 PCOD8072364
Probable space group: P 21/M
;
_chemical_formula_sum "Si O2"
_cell_formula_units_Z 24
_cell_length_a 15.274806
_cell_length_b 13.449487
_cell_length_c 12.235873
_cell_angle_alpha 90.000000
_cell_angle_beta 150.186560
_cell_angle_gamma 90.000000
_cell_volume 1249.763539
_symmetry_space_group_name_H-M "P 21/M"
_symmetry_group_IT_number 11
_symmetry_cell_setting 'monoclinic'
loop_
_space_group_symop_operation_xyz
x,y,z
-x,1/2+y,-z
-x,-y,-z
x,1/2-y,z
loop_
_atom_site_type_symbol
_atom_site_label
_atom_site_fract_x
_atom_site_fract_y
_atom_site_fract_z
Si Si1 0.648244 0.637829 0.948672
Si Si2 0.565134 0.016877 0.691542
Si Si3 0.901151 0.134852 0.114291
Si Si4 0.702312 0.865650 0.449123
Si Si5 0.518678 0.361350 0.997544
Si Si6 0.161345 0.969928 0.745636
O O1 0.708108 0.750000 0.986258
O O2 0.556025 0.590279 0.742253
O O3 0.527346 0.634903 0.924994
O O4 0.813905 0.567359 0.152102
O O5 0.436685 0.088710 0.618283
O O6 0.500000 0.000000 0.500000
O O7 0.759618 0.066944 0.896646
O O8 0.878175 0.250000 0.055667
O O9 0.870407 0.125034 0.211452
O O10 0.100611 0.094735 0.310663
O O11 0.702501 0.750000 0.472829
O O12 0.645567 0.886916 0.261325
O O13 0.586429 0.250000 0.042778
O O14 0.668659 0.444358 0.143398
O O15 0.000000 0.000000 0.500000
#
# Coordination Sequence:
#
# PCOD8072364 Si02
#       6
#     4   4   4   4   4   4
#     4  10  22  37  54  82 120 156 193 239 296 349
#     4  11  24  40  62  84 115 161 205 248 292 345
#     4  10  21  38  61  91 116 148 197 246 295 350
#     4  10  20  37  65  91 117 149 194 247 297 354
#     4  10  19  35  59  87 118 155 191 237 299 361
#     4  11  21  31  56  88 124 155 189 234 291 364
#
# _framework density 19.203631999999999
#
# number of rings (size 3 to 8) (size 9 to 14) (size 15 to 20)
#    0.000    1.667    3.333    2.500    2.333    4.667 
#    0.000    0.000    0.000    0.000    0.000    0.000 
#    0.000    0.000    0.000    0.000    0.000    0.000 
#
# Total GULP energy -297429.272036 kJ/mol
# GULP energy per Si atom -12392.886335 kJ/mol
# Density = 1.915992 g / cm^3
# Si number density = 19.203632 Si / 1000 Ang^3
#
#
#
# Elastic Constant Matrix: (Units=GPa)
#
#
# Indices 1 2 3 4 5 6 
#
# 1 63.0781 29.7226 52.5735 0.0000 -15.6019 0.0000
# 2 29.7226 96.5992 59.5496 0.0000 -0.5551 0.0000
# 3 52.5735 59.5496 150.5587 0.0000 -8.9666 0.0000
# 4 0.0000 0.0000 0.0000 24.6543 0.0000 0.1916
# 5 -15.6019 -0.5551 -8.9666 0.0000 40.2327 0.0000
# 6 0.0000 0.0000 0.0000 0.1916 0.0000 15.4995
#
#
#
# Elastic Compliance Matrix: (Units=1/GPa)
#
#
# Indices 1 2 3 4 5 6 
#
# 1 0.025339 -0.003434 -0.007000 0.000000 0.008219 0.000000
# 2 -0.003434 0.014198 -0.004544 0.000000 -0.002149 0.000000
# 3 -0.007000 -0.004544 0.010863 0.000000 -0.000356 0.000000
# 4 0.000000 0.000000 0.000000 0.040565 0.000000 -0.000502
# 5 0.008219 -0.002149 -0.000356 0.000000 0.027933 0.000000
# 6 0.000000 0.000000 0.000000 -0.000502 0.000000 0.064524
#
#
# Mechanical properties :
#
#
# Convention : Reuss Voigt Hill
#
# Bulk Modulus (GPa) = 48.91939 65.99195 57.45567
# Shear Modulus (GPa) = 22.70736 27.30332 25.00534
#
# Velocity S-wave (km/s) = 3.44241 3.77474 3.61240
# Velocity P-wave (km/s) = 6.42881 7.31007 6.88356
#
# Compressibility (1/GPa) = 0.02044179
#
# Stress axis : x y z
#
# Youngs Moduli (GPa) = 39.46520 70.43379 92.05883
#
# Poissons Ratio (x) = 0.24185 0.64445
# Poissons Ratio (y) = 0.13551 0.41836
# Poissons Ratio (z) = 0.27627 0.32008
#
# Static dielectric constant tensor:
#      x y z
#    x 3.312330 0.000000 0.072270 
#    y 0.000000 3.242240 0.000000 
#    z 0.072270 0.000000 3.639170 
# 
# 
# High freq. dielectric constant tensor:
#      x y z
#    x 1.725120 0.000000 0.004860 
#    y 0.000000 1.759100 0.000000 
#    z 0.004860 0.000000 1.742340 
# 
# From -- ./inp_files/39546.got.cif
#   From: 2010.06.25/outbox.cif.g09.slc.cpg/sg11_20_cif.got.tgz:39546.got - 2010.06.27 23:14:04.
