data_PCOD8072174
_publ_section_title
;
Structure prediction by ZEFSAII (Michael W. Deem and Ramdas Pophale) SiO2 
 PCOD8072174
Probable space group: P 21/M
;
_chemical_formula_sum "Si O2"
_cell_formula_units_Z 32
_cell_length_a 9.847577
_cell_length_b 11.958106
_cell_length_c 14.118568
_cell_angle_alpha 90.000000
_cell_angle_beta 86.101927
_cell_angle_gamma 90.000000
_cell_volume 1658.733280
_symmetry_space_group_name_H-M "P 21/M"
_symmetry_group_IT_number 11
_symmetry_cell_setting 'monoclinic'
loop_
_space_group_symop_operation_xyz
x,y,z
-x,1/2+y,-z
-x,-y,-z
x,1/2-y,z
loop_
_atom_site_type_symbol
_atom_site_label
_atom_site_fract_x
_atom_site_fract_y
_atom_site_fract_z
Si Si1 0.708923 0.621325 0.255506
Si Si2 0.400724 0.623542 0.274157
Si Si3 0.876006 0.877231 0.428295
Si Si4 0.617023 0.551201 0.881933
Si Si5 0.161000 0.971940 0.396342
Si Si6 0.870576 0.629764 0.772774
Si Si7 0.682728 0.033970 0.081676
Si Si8 0.961762 0.121143 0.051075
O O1 0.735949 0.750000 0.227393
O O2 0.555144 0.603981 0.301032
O O3 0.812630 0.580964 0.332000
O O4 0.734304 0.550355 0.160154
O O5 0.368085 0.750000 0.252240
O O6 0.372030 0.565423 0.175005
O O7 0.303555 0.585516 0.364488
O O8 0.832165 0.750000 0.448919
O O9 0.811300 0.951963 0.513896
O O10 0.040268 0.884108 0.421788
O O11 0.718487 0.635258 0.824576
O O12 0.460466 0.594128 0.885317
O O13 0.664094 0.538506 0.987580
O O14 0.108053 0.041462 0.309868
O O15 0.897930 0.750000 0.725129
O O16 0.979859 0.604302 0.847787
O O17 0.797874 0.127411 0.062083
O O18 0.005176 0.250000 0.010761
O O19 0.000000 0.000000 0.000000
#
# Coordination Sequence:
#
# PCOD8072174 Si02
#       8
#     4   4   4   4   4   4   4   4
#     4   9  19  34  55  79 109 143 180 227 278 334
#     4   9  18  34  53  79 109 141 179 224 276 328
#     4  10  20  35  54  79 104 135 177 223 276 331
#     4   9  19  33  54  79 109 143 185 227 274 331
#     4  10  20  34  55  78 104 137 178 224 271 329
#     4  10  20  36  54  76 109 146 180 224 278 335
#     4  10  19  35  54  79 109 145 187 229 277 325
#     4  11  23  38  55  79 113 149 190 232 282 336
#
# _framework density 19.291829
#
# number of rings (size 3 to 8) (size 9 to 14) (size 15 to 20)
#    0.000    2.250    1.250    1.500    0.000    2.500 
#    0.000    3.125    0.000    0.750    0.000    0.000 
#    0.000    0.000    0.000    0.000    0.000    0.000 
#
# Total GULP energy -396484.488149 kJ/mol
# GULP energy per Si atom -12390.140255 kJ/mol
# Density = 1.924792 g / cm^3
# Si number density = 19.291829 Si / 1000 Ang^3
#
#
#
# Elastic Constant Matrix: (Units=GPa)
#
#
# Indices 1 2 3 4 5 6 
#
# 1 81.5621 24.3871 25.4434 0.0000 0.7309 0.0000
# 2 24.3871 84.9215 27.7564 0.0000 4.7307 0.0000
# 3 25.4434 27.7564 87.8893 0.0000 8.5814 0.0000
# 4 0.0000 0.0000 0.0000 15.0535 0.0000 2.8164
# 5 0.7309 4.7307 8.5814 0.0000 32.9057 0.0000
# 6 0.0000 0.0000 0.0000 2.8164 0.0000 22.6972
#
#
#
# Elastic Compliance Matrix: (Units=1/GPa)
#
#
# Indices 1 2 3 4 5 6 
#
# 1 0.014177 -0.003070 -0.003229 0.000000 0.000969 0.000000
# 2 -0.003070 0.013818 -0.003374 0.000000 -0.001038 0.000000
# 3 -0.003229 -0.003374 0.013672 0.000000 -0.003009 0.000000
# 4 0.000000 0.000000 0.000000 0.068008 0.000000 -0.008439
# 5 0.000969 -0.001038 -0.003009 0.000000 0.031302 0.000000
# 6 0.000000 0.000000 0.000000 -0.008439 0.000000 0.045106
#
#
# Mechanical properties :
#
#
# Convention : Reuss Voigt Hill
#
# Bulk Modulus (GPa) = 44.80020 45.50522 45.15271
# Shear Modulus (GPa) = 23.48861 25.91701 24.70281
#
# Velocity S-wave (km/s) = 3.49311 3.66924 3.58226
# Velocity P-wave (km/s) = 6.28824 6.44904 6.36915
#
# Compressibility (1/GPa) = 0.02232133
#
# Stress axis : x y z
#
# Youngs Moduli (GPa) = 70.53600 72.37113 73.14203
#
# Poissons Ratio (x) = 0.22216 0.23620
# Poissons Ratio (y) = 0.21653 0.24676
# Poissons Ratio (z) = 0.22778 0.24416
#
# Static dielectric constant tensor:
#      x y z
#    x 3.733190 0.000000 -0.035790 
#    y 0.000000 3.573940 0.000000 
#    z -0.035790 0.000000 3.434330 
# 
# 
# High freq. dielectric constant tensor:
#      x y z
#    x 1.760920 0.000000 0.002190 
#    y 0.000000 1.742170 0.000000 
#    z 0.002190 0.000000 1.741100 
# 
# From -- ./inp_files/47189.got.cif
#   From: 2010.06.25/outbox.cif.g09.slc.cpg/sg11_24_cif.got.tgz:47189.got - 2010.06.27 23:14:04.
