data_PCOD8072315
_publ_section_title
;
Structure prediction by ZEFSAII (Michael W. Deem and Ramdas Pophale) SiO2 
 PCOD8072315
Probable space group: P 21/M
;
_chemical_formula_sum "Si O2"
_cell_formula_units_Z 32
_cell_length_a 24.710132
_cell_length_b 8.627936
_cell_length_c 20.112196
_cell_angle_alpha 90.000000
_cell_angle_beta 157.092990
_cell_angle_gamma 90.000000
_cell_volume 1668.995637
_symmetry_space_group_name_H-M "P 21/M"
_symmetry_group_IT_number 11
_symmetry_cell_setting 'monoclinic'
loop_
_space_group_symop_operation_xyz
x,y,z
-x,1/2+y,-z
-x,-y,-z
x,1/2-y,z
loop_
_atom_site_type_symbol
_atom_site_label
_atom_site_fract_x
_atom_site_fract_y
_atom_site_fract_z
Si Si1 0.394678 0.571207 0.067242
Si Si2 0.871728 0.065998 0.012669
Si Si3 0.180784 0.068831 0.506190
Si Si4 0.592249 0.567396 0.662691
Si Si5 0.872137 0.430305 0.162769
Si Si6 0.838365 0.432305 0.659589
Si Si7 0.443680 0.568029 0.868472
Si Si8 0.563955 0.571629 0.392157
O O1 0.384910 0.750000 0.033024
O O2 0.446707 0.468055 0.065370
O O3 0.502633 0.553705 0.249272
O O4 0.243903 0.501621 0.918525
O O5 0.862710 0.250000 0.998986
O O6 0.857250 0.001116 0.071760
O O7 0.021065 0.011717 0.154343
O O8 0.749964 0.991621 0.830827
O O9 0.201642 0.250000 0.513649
O O10 0.028436 0.038770 0.366245
O O11 0.195705 0.977520 0.454558
O O12 0.295000 0.011139 0.687071
O O13 0.500000 0.500000 0.500000
O O14 0.587966 0.750000 0.654220
O O15 0.539173 0.510611 0.673803
O O16 0.838049 0.250000 0.118211
O O17 0.853301 0.250000 0.682647
O O18 0.713908 0.490755 0.565587
O O19 0.421970 0.750000 0.850238
O O20 0.500000 0.500000 0.000000
O O21 0.578762 0.750000 0.429578
#
# Coordination Sequence:
#
# PCOD8072315 Si02
#       8
#     4   4   4   4   4   4   4   4
#     4  10  19  36  61  88 117 151 193 240 291 349
#     4  10  19  37  60  86 119 158 199 242 297 354
#     4  10  19  35  58  85 117 154 193 238 295 352
#     4  12  25  41  61  88 123 161 201 246 298 358
#     4   8  16  32  58  87 114 146 187 236 287 342
#     4  11  21  34  56  90 123 154 197 248 296 346
#     4  12  25  40  58  83 117 156 198 243 295 357
#     4  11  21  37  62  89 120 158 200 246 296 349
#
# _framework density 19.173207999999999
#
# number of rings (size 3 to 8) (size 9 to 14) (size 15 to 20)
#    0.000    1.500    2.500    5.250    0.000    0.500 
#    0.000    2.500    0.000    0.000    0.000    0.000 
#    0.000    0.000    0.000    0.000    0.000    0.000 
#
# Total GULP energy -396862.264754 kJ/mol
# GULP energy per Si atom -12401.945774 kJ/mol
# Density = 1.912957 g / cm^3
# Si number density = 19.173208 Si / 1000 Ang^3
#
#
#
# Elastic Constant Matrix: (Units=GPa)
#
#
# Indices 1 2 3 4 5 6 
#
# 1 39.4706 12.3194 5.7516 0.0000 6.7129 0.0000
# 2 12.3194 131.9573 63.4870 0.0000 29.5012 0.0000
# 3 5.7516 63.4870 160.8177 0.0000 55.6561 0.0000
# 4 0.0000 0.0000 0.0000 32.0403 0.0000 1.1032
# 5 6.7129 29.5012 55.6561 0.0000 65.0778 0.0000
# 6 0.0000 0.0000 0.0000 1.1032 0.0000 28.2000
#
#
#
# Elastic Compliance Matrix: (Units=1/GPa)
#
#
# Indices 1 2 3 4 5 6 
#
# 1 0.026340 -0.002312 0.000779 0.000000 -0.002335 0.000000
# 2 -0.002312 0.009667 -0.003266 0.000000 -0.001351 0.000000
# 3 0.000779 -0.003266 0.009936 0.000000 -0.007097 0.000000
# 4 0.000000 0.000000 0.000000 0.031253 0.000000 -0.001223
# 5 -0.002335 -0.001351 -0.007097 0.000000 0.022289 0.000000
# 6 0.000000 0.000000 0.000000 -0.001223 0.000000 0.035509
#
#
# Mechanical properties :
#
#
# Convention : Reuss Voigt Hill
#
# Bulk Modulus (GPa) = 27.51405 55.04019 41.27712
# Shear Modulus (GPa) = 31.90637 41.77614 36.84125
#
# Velocity S-wave (km/s) = 4.08378 4.67291 4.38824
# Velocity P-wave (km/s) = 6.05126 7.60815 6.87393
#
# Compressibility (1/GPa) = 0.03634507
#
# Stress axis : x y z
#
# Youngs Moduli (GPa) = 37.96436 103.43941 100.64343
#
# Poissons Ratio (x) = 0.23912 -0.07837
# Poissons Ratio (y) = 0.08776 0.32875
# Poissons Ratio (z) = -0.02956 0.33788
#
# Static dielectric constant tensor:
#      x y z
#    x 3.484320 0.000000 0.274860 
#    y 0.000000 3.490460 0.000000 
#    z 0.274860 0.000000 3.698680 
# 
# 
# High freq. dielectric constant tensor:
#      x y z
#    x 1.725460 0.000000 0.025030 
#    y 0.000000 1.745220 0.000000 
#    z 0.025030 0.000000 1.755030 
# 
# From -- ./inp_files/67246.got.cif
#   From: 2010.06.25/outbox.cif.g09.slc.cpg/sg11_34_cif.got.tgz:67246.got - 2010.06.27 23:14:04.
