data_PCOD8072245
_publ_section_title
;
Structure prediction by ZEFSAII (Michael W. Deem and Ramdas Pophale) SiO2 
 PCOD8072245
Probable space group: P 21/M
;
_chemical_formula_sum "Si O2"
_cell_formula_units_Z 32
_cell_length_a 19.973603
_cell_length_b 9.321826
_cell_length_c 25.824093
_cell_angle_alpha 90.000000
_cell_angle_beta 158.926241
_cell_angle_gamma 90.000000
_cell_volume 1728.881834
_symmetry_space_group_name_H-M "P 21/M"
_symmetry_group_IT_number 11
_symmetry_cell_setting 'monoclinic'
loop_
_space_group_symop_operation_xyz
x,y,z
-x,1/2+y,-z
-x,-y,-z
x,1/2-y,z
loop_
_atom_site_type_symbol
_atom_site_label
_atom_site_fract_x
_atom_site_fract_y
_atom_site_fract_z
Si Si1 0.174835 0.081753 0.648561
Si Si2 0.310444 0.415695 0.857617
Si Si3 0.645663 0.581274 0.408426
Si Si4 0.276188 0.915725 0.199912
Si Si5 0.952554 0.584081 0.889757
Si Si6 0.985611 0.081578 0.700895
Si Si7 0.911136 0.418966 0.124061
Si Si8 0.501600 0.918992 0.194220
O O1 0.137912 0.250000 0.615442
O O2 0.202047 0.036024 0.727642
O O3 0.358249 0.033785 0.749712
O O4 0.000000 0.000000 0.500000
O O5 0.364306 0.250000 0.891814
O O6 0.181052 0.447141 0.813403
O O7 0.500000 0.500000 0.000000
O O8 0.696172 0.750000 0.442854
O O9 0.487765 0.550368 0.337211
O O10 0.574134 0.523035 0.301509
O O11 0.825218 0.488882 0.551002
O O12 0.249242 0.750000 0.192934
O O13 0.142089 0.962571 0.055787
O O14 0.224311 0.000397 0.214682
O O15 0.913008 0.750000 0.870041
O O16 0.973003 0.548489 0.844158
O O17 0.946185 0.250000 0.678645
O O18 0.988147 0.006233 0.758214
O O19 0.911991 0.250000 0.138081
O O20 0.702013 0.480163 0.966285
O O21 0.480905 0.750000 0.184393
#
# Coordination Sequence:
#
# PCOD8072245 Si02
#       8
#     4   4   4   4   4   4   4   4
#     4  10  20  34  53  78 106 137 173 218 269 318
#     4  10  22  39  57  79 108 143 184 226 271 324
#     4  10  19  35  57  81 108 144 185 220 263 324
#     4   9  17  31  53  82 113 140 173 220 268 320
#     4   9  17  31  54  83 111 138 175 223 269 317
#     4  11  24  38  52  78 116 147 177 225 276 322
#     4  10  19  36  59  81 105 140 185 226 264 318
#     4   9  17  32  57  82 102 130 178 228 263 308
#
# _framework density 18.509073000000001
#
# number of rings (size 3 to 8) (size 9 to 14) (size 15 to 20)
#    0.000    2.250    1.250    1.875    0.000    3.500 
#    0.000    1.875    0.000    0.000    0.000    0.000 
#    0.000    0.000    0.000    0.000    0.000    0.000 
#
# Total GULP energy -396869.745762 kJ/mol
# GULP energy per Si atom -12402.179555 kJ/mol
# Density = 1.846695 g / cm^3
# Si number density = 18.509073 Si / 1000 Ang^3
#
#
#
# Elastic Constant Matrix: (Units=GPa)
#
#
# Indices 1 2 3 4 5 6 
#
# 1 100.7729 39.3000 17.3780 0.0000 -7.0419 0.0000
# 2 39.3000 54.0613 29.4874 0.0000 -0.3629 0.0000
# 3 17.3780 29.4874 61.5920 0.0000 -8.9786 0.0000
# 4 0.0000 0.0000 0.0000 30.7972 0.0000 2.8272
# 5 -7.0419 -0.3629 -8.9786 0.0000 27.3106 0.0000
# 6 0.0000 0.0000 0.0000 2.8272 0.0000 26.2714
#
#
#
# Elastic Compliance Matrix: (Units=1/GPa)
#
#
# Indices 1 2 3 4 5 6 
#
# 1 0.014366 -0.011560 0.002099 0.000000 0.004241 0.000000
# 2 -0.011560 0.034716 -0.014417 0.000000 -0.007259 0.000000
# 3 0.002099 -0.014417 0.023734 0.000000 0.008153 0.000000
# 4 0.000000 0.000000 0.000000 0.032794 0.000000 -0.003529
# 5 0.004241 -0.007259 0.008153 0.000000 0.040293 0.000000
# 6 0.000000 0.000000 0.000000 -0.003529 0.000000 0.038444
#
#
# Mechanical properties :
#
#
# Convention : Reuss Voigt Hill
#
# Bulk Modulus (GPa) = 39.90301 43.19521 41.54911
# Shear Modulus (GPa) = 20.79381 25.55989 23.17685
#
# Velocity S-wave (km/s) = 3.35541 3.72013 3.54247
# Velocity P-wave (km/s) = 6.05121 6.46842 6.26329
#
# Compressibility (1/GPa) = 0.02506077
#
# Stress axis : x y z
#
# Youngs Moduli (GPa) = 69.60977 28.80525 42.13329
#
# Poissons Ratio (x) = 0.33298 -0.08845
# Poissons Ratio (y) = 0.80468 0.60743
# Poissons Ratio (z) = -0.14613 0.41528
#
# Static dielectric constant tensor:
#      x y z
#    x 3.394920 0.000000 -0.001670 
#    y 0.000000 3.183120 0.000000 
#    z -0.001670 0.000000 3.292380 
# 
# 
# High freq. dielectric constant tensor:
#      x y z
#    x 1.731430 0.000000 0.003240 
#    y 0.000000 1.698380 0.000000 
#    z 0.003240 0.000000 1.711700 
# 
# From -- ./inp_files/72203.got.cif
#   From: 2010.06.25/outbox.cif.g09.slc.cpg/sg11_37_cif.got.tgz:72203.got - 2010.06.27 23:14:04.
