data_PCOD8072673
_publ_section_title
;
Structure prediction by ZEFSAII (Michael W. Deem and Ramdas Pophale) SiO2 
 PCOD8072673
Probable space group: P 21/M
;
_chemical_formula_sum "Si O2"
_cell_formula_units_Z 32
_cell_length_a 11.978791
_cell_length_b 13.456137
_cell_length_c 18.998892
_cell_angle_alpha 90.000000
_cell_angle_beta 151.464221
_cell_angle_gamma 90.000000
_cell_volume 1462.930452
_symmetry_space_group_name_H-M "P 21/M"
_symmetry_group_IT_number 11
_symmetry_cell_setting 'monoclinic'
loop_
_space_group_symop_operation_xyz
x,y,z
-x,1/2+y,-z
-x,-y,-z
x,1/2-y,z
loop_
_atom_site_type_symbol
_atom_site_label
_atom_site_fract_x
_atom_site_fract_y
_atom_site_fract_z
Si Si1 0.729320 0.481689 0.362932
Si Si2 0.075189 0.862406 0.275183
Si Si3 0.287059 0.864626 0.782168
Si Si4 0.572272 0.050638 0.426598
Si Si5 0.938693 0.553727 0.815705
Si Si6 0.594438 0.634327 0.076623
Si Si7 0.413018 0.867932 0.125400
Si Si8 0.175626 0.138063 0.394646
O O1 0.639794 0.409944 0.251718
O O2 0.685553 0.428475 0.413340
O O3 0.573540 0.582848 0.275136
O O4 0.000000 0.500000 0.500000
O O5 0.065268 0.750000 0.240683
O O6 0.311555 0.878766 0.450298
O O7 0.866797 0.885214 0.214458
O O8 0.049452 0.936072 0.194726
O O9 0.355652 0.750000 0.815454
O O10 0.013254 0.878824 0.647996
O O11 0.438192 0.916822 0.928476
O O12 0.298615 0.075058 0.272980
O O13 0.610691 0.936465 0.473015
O O14 0.947545 0.616645 0.748323
O O15 0.149241 0.589771 0.982134
O O16 0.530087 0.750000 0.040579
O O17 0.529889 0.593953 0.117607
O O18 0.414576 0.750000 0.137425
O O19 0.273267 0.250000 0.449568
#
# Coordination Sequence:
#
# PCOD8072673 Si02
#       8
#     4   4   4   4   4   4   4   4
#     4  12  25  41  62  88 129 168 206 259 315 376
#     4  10  21  38  62  94 128 163 206 264 324 371
#     4  10  20  36  62  92 121 157 202 257 320 375
#     4  11  25  40  57  91 129 174 214 250 308 381
#     4  11  23  39  64  92 127 163 213 267 312 371
#     4   9  18  35  61  92 117 144 197 260 316 364
#     4  11  24  41  65  95 124 166 215 260 314 377
#     4  10  19  37  64  92 123 160 208 264 316 367
#
# _framework density 21.873905000000001
#
# number of rings (size 3 to 8) (size 9 to 14) (size 15 to 20)
#    0.000    1.500    2.500    3.375    1.750    5.500 
#    0.000    0.000    0.000    1.500    0.000    0.000 
#    0.000    0.000    0.000    0.000    0.000    0.000 
#
# Total GULP energy -396910.262054 kJ/mol
# GULP energy per Si atom -12403.445689 kJ/mol
# Density = 2.182412 g / cm^3
# Si number density = 21.873905 Si / 1000 Ang^3
#
#
#
# Elastic Constant Matrix: (Units=GPa)
#
#
# Indices 1 2 3 4 5 6 
#
# 1 64.0891 13.4874 10.6917 0.0000 10.1576 0.0000
# 2 13.4874 75.5652 20.0959 0.0000 6.1566 0.0000
# 3 10.6917 20.0959 99.7097 0.0000 21.3845 0.0000
# 4 0.0000 0.0000 0.0000 22.0856 0.0000 0.9962
# 5 10.1576 6.1566 21.3845 0.0000 40.8109 0.0000
# 6 0.0000 0.0000 0.0000 0.9962 0.0000 21.2608
#
#
#
# Elastic Compliance Matrix: (Units=1/GPa)
#
#
# Indices 1 2 3 4 5 6 
#
# 1 0.016789 -0.002570 -0.000529 0.000000 -0.003514 0.000000
# 2 -0.002570 0.014395 -0.002588 0.000000 -0.000176 0.000000
# 3 -0.000529 -0.002588 0.011824 0.000000 -0.005674 0.000000
# 4 0.000000 0.000000 0.000000 0.045374 0.000000 -0.002126
# 5 -0.003514 -0.000176 -0.005674 0.000000 0.028377 0.000000
# 6 0.000000 0.000000 0.000000 -0.002126 0.000000 0.047135
#
#
# Mechanical properties :
#
#
# Convention : Reuss Voigt Hill
#
# Bulk Modulus (GPa) = 31.61001 36.43489 34.02245
# Shear Modulus (GPa) = 26.90883 29.83738 28.37311
#
# Velocity S-wave (km/s) = 3.51120 3.69733 3.60546
# Velocity P-wave (km/s) = 5.56061 5.90931 5.73761
#
# Compressibility (1/GPa) = 0.03163554
#
# Stress axis : x y z
#
# Youngs Moduli (GPa) = 59.56198 69.46939 84.57211
#
# Poissons Ratio (x) = 0.17852 0.04471
# Poissons Ratio (y) = 0.15306 0.21886
# Poissons Ratio (z) = 0.03149 0.17978
#
# Static dielectric constant tensor:
#      x y z
#    x 3.771210 0.000000 0.018560 
#    y 0.000000 3.923570 0.000000 
#    z 0.018560 0.000000 3.848130 
# 
# 
# High freq. dielectric constant tensor:
#      x y z
#    x 1.841960 0.000000 0.012740 
#    y 0.000000 1.864220 0.000000 
#    z 0.012740 0.000000 1.853540 
# 
# From -- ./inp_files/59506.got.cif
#   From: 2010.06.25/outbox.cif.g09.slc.cpg/sg11_30_cif.got.tgz:59506.got - 2010.06.27 23:14:04.
