data_PCOD8072206
_publ_section_title
;
Structure prediction by ZEFSAII (Michael W. Deem and Ramdas Pophale) SiO2 
 PCOD8072206
Probable space group: P 21/M
;
_chemical_formula_sum "Si O2"
_cell_formula_units_Z 32
_cell_length_a 11.983417
_cell_length_b 9.041026
_cell_length_c 31.215694
_cell_angle_alpha 90.000000
_cell_angle_beta 30.273223
_cell_angle_gamma 90.000000
_cell_volume 1704.938875
_symmetry_space_group_name_H-M "P 21/M"
_symmetry_group_IT_number 11
_symmetry_cell_setting 'monoclinic'
loop_
_space_group_symop_operation_xyz
x,y,z
-x,1/2+y,-z
-x,-y,-z
x,1/2-y,z
loop_
_atom_site_type_symbol
_atom_site_label
_atom_site_fract_x
_atom_site_fract_y
_atom_site_fract_z
Si Si1 0.555223 0.074505 0.026090
Si Si2 0.152076 0.423940 0.215692
Si Si3 0.891189 0.423356 0.598221
Si Si4 0.310370 0.923380 0.425601
Si Si5 0.313124 0.075448 0.252732
Si Si6 0.189983 0.582061 0.911513
Si Si7 0.998868 0.419171 0.116229
Si Si8 0.228331 0.924987 0.720086
O O1 0.552219 0.250000 0.022222
O O2 0.373123 0.014924 0.119891
O O3 0.500000 0.000000 0.000000
O O4 0.793716 0.022578 0.963245
O O5 0.155707 0.250000 0.208774
O O6 0.156594 0.466891 0.264335
O O7 0.931594 0.482740 0.265148
O O8 0.935525 0.250000 0.587743
O O9 0.740402 0.460393 0.607054
O O10 0.764775 0.481776 0.681341
O O11 0.125458 0.504993 0.517212
O O12 0.313438 0.750000 0.433448
O O13 0.542699 0.991642 0.362101
O O14 0.303059 0.250000 0.266833
O O15 0.564086 0.027570 0.157705
O O16 0.161768 0.750000 0.934977
O O17 0.169876 0.562527 0.867028
O O18 0.000000 0.500000 0.000000
O O19 0.079681 0.250000 0.094743
O O20 0.878939 0.472170 0.199198
O O21 0.270599 0.750000 0.704347
#
# Coordination Sequence:
#
# PCOD8072206 Si02
#       8
#     4   4   4   4   4   4   4   4
#     4  11  20  34  54  77 107 145 188 232 276 324
#     4   9  19  35  55  78 108 147 188 228 272 325
#     4  10  21  38  60  86 113 142 175 219 277 331
#     4  10  21  37  59  87 114 138 175 224 272 330
#     4  10  20  37  59  81 108 148 191 226 269 325
#     4  10  21  35  53  78 111 149 187 231 279 327
#     4  10  20  34  52  77 109 145 186 230 280 332
#     4  10  19  35  56  79 110 144 180 227 278 324
#
# _framework density 18.769000999999999
#
# number of rings (size 3 to 8) (size 9 to 14) (size 15 to 20)
#    0.000    2.000    1.250    2.625    0.000    5.000 
#    0.000    2.500    0.000    0.000    0.000    0.000 
#    0.000    0.000    0.000    0.000    0.000    0.000 
#
# Total GULP energy -396841.973594 kJ/mol
# GULP energy per Si atom -12401.311675 kJ/mol
# Density = 1.872628 g / cm^3
# Si number density = 18.769001 Si / 1000 Ang^3
#
#
#
# Elastic Constant Matrix: (Units=GPa)
#
#
# Indices 1 2 3 4 5 6 
#
# 1 107.7201 35.8666 57.6717 0.0000 -12.1258 0.0000
# 2 35.8666 64.6306 47.9377 0.0000 -6.6174 0.0000
# 3 57.6717 47.9377 121.0102 0.0000 -14.0052 0.0000
# 4 0.0000 0.0000 0.0000 36.5436 0.0000 -2.2445
# 5 -12.1258 -6.6174 -14.0052 0.0000 34.0470 0.0000
# 6 0.0000 0.0000 0.0000 -2.2445 0.0000 25.9704
#
#
#
# Elastic Compliance Matrix: (Units=1/GPa)
#
#
# Indices 1 2 3 4 5 6 
#
# 1 0.013210 -0.003719 -0.004579 0.000000 0.002098 0.000000
# 2 -0.003719 0.022975 -0.007313 0.000000 0.000132 0.000000
# 3 -0.004579 -0.007313 0.013639 0.000000 0.002558 0.000000
# 4 0.000000 0.000000 0.000000 0.027511 0.000000 0.002378
# 5 0.002098 0.000132 0.002558 0.000000 0.031196 0.000000
# 6 0.000000 0.000000 0.000000 0.002378 0.000000 0.038711
#
#
# Mechanical properties :
#
#
# Convention : Reuss Voigt Hill
#
# Bulk Modulus (GPa) = 53.76447 64.03477 58.89962
# Shear Modulus (GPa) = 27.07600 29.43785 28.25692
#
# Velocity S-wave (km/s) = 3.80227 3.96464 3.88430
# Velocity P-wave (km/s) = 6.92704 7.42625 7.18098
#
# Compressibility (1/GPa) = 0.01859964
#
# Stress axis : x y z
#
# Youngs Moduli (GPa) = 75.70293 43.52632 73.31669
#
# Poissons Ratio (x) = 0.16188 0.33574
# Poissons Ratio (y) = 0.28156 0.53620
# Poissons Ratio (z) = 0.34667 0.31833
#
# Static dielectric constant tensor:
#      x y z
#    x 3.742540 0.000000 -0.125940 
#    y 0.000000 3.394210 0.000000 
#    z -0.125940 0.000000 3.452580 
# 
# 
# High freq. dielectric constant tensor:
#      x y z
#    x 1.736800 0.000000 -0.004220 
#    y 0.000000 1.715370 0.000000 
#    z -0.004220 0.000000 1.725920 
# 
# From -- ./inp_files/49286.got.cif
#   From: 2010.06.25/outbox.cif.g09.slc.cpg/sg11_25_cif.got.tgz:49286.got - 2010.06.27 23:14:04.
