data_PCOD8072109
_publ_section_title
;
Structure prediction by ZEFSAII (Michael W. Deem and Ramdas Pophale) SiO2 
 PCOD8072109
Probable space group: P 21/M
;
_chemical_formula_sum "Si O2"
_cell_formula_units_Z 28
_cell_length_a 9.707109
_cell_length_b 14.161693
_cell_length_c 14.291413
_cell_angle_alpha 90.000000
_cell_angle_beta 135.110561
_cell_angle_gamma 90.000000
_cell_volume 1386.518270
_symmetry_space_group_name_H-M "P 21/M"
_symmetry_group_IT_number 11
_symmetry_cell_setting 'monoclinic'
loop_
_space_group_symop_operation_xyz
x,y,z
-x,1/2+y,-z
-x,-y,-z
x,1/2-y,z
loop_
_atom_site_type_symbol
_atom_site_label
_atom_site_fract_x
_atom_site_fract_y
_atom_site_fract_z
Si Si1 0.963574 0.443216 0.178881
Si Si2 0.682492 0.430842 0.597392
Si Si3 0.106881 0.144125 0.070562
Si Si4 0.816940 0.040939 0.300463
Si Si5 0.615484 0.506893 0.887948
Si Si6 0.295206 0.644524 0.202124
Si Si7 0.079721 0.862509 0.458062
O O1 0.918721 0.405647 0.261981
O O2 0.133250 0.518853 0.268744
O O3 0.041415 0.361377 0.147932
O O4 0.765215 0.489632 0.044202
O O5 0.500000 0.500000 0.500000
O O6 0.631594 0.356116 0.654994
O O7 0.741015 0.380205 0.528337
O O8 0.161865 0.250000 0.071353
O O9 0.298960 0.084464 0.142124
O O10 0.927875 0.106452 0.919895
O O11 0.588418 0.038918 0.167299
O O12 0.849942 0.106627 0.405893
O O13 0.899029 0.932660 0.347191
O O14 0.567230 0.416344 0.799636
O O15 0.305575 0.750000 0.168276
O O16 0.022627 0.750000 0.428234
#
# Coordination Sequence:
#
# PCOD8072109 Si02
#       7
#     4   4   4   4   4   4   4
#     4  10  20  39  59  84 122 157 192 250 303 355
#     4  11  20  36  60  87 117 156 203 250 299 355
#     4  10  20  35  60  90 120 155 195 246 307 362
#     4  10  23  39  62  88 118 164 203 247 299 364
#     4  11  19  38  60  92 120 154 197 249 305 362
#     4  10  19  34  58  86 119 155 195 247 304 354
#     4  10  23  42  60  84 122 164 207 251 296 356
#
# _framework density 20.194468000000001
#
# number of rings (size 3 to 8) (size 9 to 14) (size 15 to 20)
#    0.000    1.714    2.857    2.571    0.000    1.714 
#    0.000    0.714    0.000    4.286    0.000    0.000 
#    0.000    0.000    0.000    0.000    0.000    0.000 
#
# Total GULP energy -346999.248227 kJ/mol
# GULP energy per Si atom -12392.830294 kJ/mol
# Density = 2.014850 g / cm^3
# Si number density = 20.194468 Si / 1000 Ang^3
#
#
#
# Elastic Constant Matrix: (Units=GPa)
#
#
# Indices 1 2 3 4 5 6 
#
# 1 92.5059 30.9125 39.3867 0.0000 -16.0203 0.0000
# 2 30.9125 72.3561 18.4230 0.0000 -6.0679 0.0000
# 3 39.3867 18.4230 83.0696 0.0000 -15.3796 0.0000
# 4 0.0000 0.0000 0.0000 20.7392 0.0000 -4.3552
# 5 -16.0203 -6.0679 -15.3796 0.0000 39.4006 0.0000
# 6 0.0000 0.0000 0.0000 -4.3552 0.0000 15.8500
#
#
#
# Elastic Compliance Matrix: (Units=1/GPa)
#
#
# Indices 1 2 3 4 5 6 
#
# 1 0.015401 -0.004874 -0.005606 0.000000 0.003323 0.000000
# 2 -0.004874 0.016232 -0.001286 0.000000 0.000016 0.000000
# 3 -0.005606 -0.001286 0.015654 0.000000 0.003633 0.000000
# 4 0.000000 0.000000 0.000000 0.051171 0.000000 0.014060
# 5 0.003323 0.000016 0.003633 0.000000 0.028152 0.000000
# 6 0.000000 0.000000 0.000000 0.014060 0.000000 0.066955
#
#
# Mechanical properties :
#
#
# Convention : Reuss Voigt Hill
#
# Bulk Modulus (GPa) = 42.09642 47.26399 44.68021
# Shear Modulus (GPa) = 22.22075 25.81190 24.01632
#
# Velocity S-wave (km/s) = 3.32073 3.57902 3.45230
# Velocity P-wave (km/s) = 5.96605 6.36667 6.16961
#
# Compressibility (1/GPa) = 0.02375499
#
# Stress axis : x y z
#
# Youngs Moduli (GPa) = 64.92962 61.60860 63.88131
#
# Poissons Ratio (x) = 0.30026 0.35813
# Poissons Ratio (y) = 0.31645 0.08215
# Poissons Ratio (z) = 0.36401 0.07923
#
# Static dielectric constant tensor:
#      x y z
#    x 3.800530 0.000000 -0.180100 
#    y 0.000000 3.432440 0.000000 
#    z -0.180100 0.000000 3.650910 
# 
# 
# High freq. dielectric constant tensor:
#      x y z
#    x 1.792280 0.000000 -0.014230 
#    y 0.000000 1.768220 0.000000 
#    z -0.014230 0.000000 1.787770 
# 
# From -- ./inp_files/47676.got.cif
#   From: 2010.06.25/outbox.cif.g09.slc.cpg/sg11_24_cif.got.tgz:47676.got - 2010.06.27 23:14:04.
