data_PCOD8072966
_publ_section_title
;
Structure prediction by ZEFSAII (Michael W. Deem and Ramdas Pophale) SiO2 
 PCOD8072966
Probable space group: P 21/M
;
_chemical_formula_sum "Si O2"
_cell_formula_units_Z 28
_cell_length_a 11.478495
_cell_length_b 24.628289
_cell_length_c 8.926428
_cell_angle_alpha 90.000000
_cell_angle_beta 38.952478
_cell_angle_gamma 90.000000
_cell_volume 1586.439448
_symmetry_space_group_name_H-M "P 21/M"
_symmetry_group_IT_number 11
_symmetry_cell_setting 'monoclinic'
loop_
_space_group_symop_operation_xyz
x,y,z
-x,1/2+y,-z
-x,-y,-z
x,1/2-y,z
loop_
_atom_site_type_symbol
_atom_site_label
_atom_site_fract_x
_atom_site_fract_y
_atom_site_fract_z
Si Si1 0.000017 0.588264 0.280495
Si Si2 0.283851 0.402582 0.183339
Si Si3 0.000006 0.870367 0.955604
Si Si4 0.288248 0.811331 0.478827
Si Si5 0.716102 0.402589 0.751093
Si Si6 0.999977 0.037033 0.273791
Si Si7 0.288246 0.188669 0.944650
O O1 0.813643 0.602314 0.558324
O O2 0.186410 0.602299 0.185548
O O3 0.999986 0.525635 0.232218
O O4 0.000031 0.625073 0.133523
O O5 0.183361 0.449714 0.188118
O O6 0.499974 0.417224 0.985826
O O7 0.252853 0.345227 0.131298
O O8 0.000025 0.929770 0.880465
O O9 0.179665 0.836787 0.726397
O O10 0.820301 0.836802 0.085790
O O11 0.222201 0.750000 0.512761
O O12 0.252874 0.845232 0.362956
O O13 0.499996 0.813579 0.316403
O O14 0.816579 0.449719 0.554892
O O15 0.222176 0.250000 0.042798
#
# Coordination Sequence:
#
# PCOD8072966 Si02
#       7
#     4   4   4   4   4   4   4
#     4  11  21  31  47  74 105 130 155 199 250 285
#     4   9  18  33  53  75  96 123 164 206 242 284
#     4  10  20  33  49  73 102 131 162 196 237 290
#     4   9  18  35  56  72  91 126 167 201 236 286
#     4   9  18  33  53  75  96 123 164 206 242 284
#     4   9  19  34  50  69  97 135 170 195 229 285
#     4   9  18  35  56  72  91 126 167 201 236 286
#
# _framework density 17.649584999999998
#
# number of rings (size 3 to 8) (size 9 to 14) (size 15 to 20)
#    0.000    2.571    0.000    3.429    0.000    3.429 
#    0.000    2.857    0.000   12.000    0.000    0.000 
#    0.000    0.000    0.000    0.000    0.000    0.000 
#
# Total GULP energy -347214.143235 kJ/mol
# GULP energy per Si atom -12400.505116 kJ/mol
# Density = 1.760941 g / cm^3
# Si number density = 17.649585 Si / 1000 Ang^3
#
#
#
# Elastic Constant Matrix: (Units=GPa)
#
#
# Indices 1 2 3 4 5 6 
#
# 1 95.3038 37.1579 58.6793 0.0000 -4.1646 0.0000
# 2 37.1579 111.7923 37.7946 0.0000 -2.2064 0.0000
# 3 58.6793 37.7946 99.1278 0.0000 -8.7001 0.0000
# 4 0.0000 0.0000 0.0000 18.6077 0.0000 -2.5779
# 5 -4.1646 -2.2064 -8.7001 0.0000 34.0397 0.0000
# 6 0.0000 0.0000 0.0000 -2.5779 0.0000 17.8342
#
#
#
# Elastic Compliance Matrix: (Units=1/GPa)
#
#
# Indices 1 2 3 4 5 6 
#
# 1 0.017152 -0.002599 -0.009199 0.000000 -0.000421 0.000000
# 2 -0.002599 0.010667 -0.002553 0.000000 -0.000279 0.000000
# 3 -0.009199 -0.002553 0.016770 0.000000 0.002995 0.000000
# 4 0.000000 0.000000 0.000000 0.054840 0.000000 0.007927
# 5 -0.000421 -0.000279 0.002995 0.000000 0.030073 0.000000
# 6 0.000000 0.000000 0.000000 0.007927 0.000000 0.057218
#
#
# Mechanical properties :
#
#
# Convention : Reuss Voigt Hill
#
# Bulk Modulus (GPa) = 62.94891 63.72084 63.33488
# Shear Modulus (GPa) = 22.65357 25.60246 24.12802
#
# Velocity S-wave (km/s) = 3.58651 3.81280 3.70139
# Velocity P-wave (km/s) = 7.27283 7.45419 7.36407
#
# Compressibility (1/GPa) = 0.01588590
#
# Stress axis : x y z
#
# Youngs Moduli (GPa) = 58.30339 93.75043 59.63195
#
# Poissons Ratio (x) = 0.24368 0.54855
# Poissons Ratio (y) = 0.15155 0.15222
# Poissons Ratio (z) = 0.53633 0.23932
#
# Static dielectric constant tensor:
#      x y z
#    x 3.242390 0.000000 -0.265760 
#    y 0.000000 3.341760 0.000000 
#    z -0.265760 0.000000 3.321950 
# 
# 
# High freq. dielectric constant tensor:
#      x y z
#    x 1.675200 0.000000 -0.016350 
#    y 0.000000 1.684950 0.000000 
#    z -0.016350 0.000000 1.680100 
# 
# From -- ./inp_files/19630.got.cif
#   From: 2010.06.25/outbox.cif.g09.slc.cpg/sg11_10_cif.got.tgz:19630.got - 2010.06.27 23:14:04.
