data_PCOD8072880
_publ_section_title
;
Structure prediction by ZEFSAII (Michael W. Deem and Ramdas Pophale) SiO2 
 PCOD8072880
Probable space group: P 21/M
;
_chemical_formula_sum "Si O2"
_cell_formula_units_Z 32
_cell_length_a 30.861864
_cell_length_b 9.772899
_cell_length_c 11.947163
_cell_angle_alpha 90.000000
_cell_angle_beta 151.669378
_cell_angle_gamma 90.000000
_cell_volume 1710.016526
_symmetry_space_group_name_H-M "P 21/M"
_symmetry_group_IT_number 11
_symmetry_cell_setting 'monoclinic'
loop_
_space_group_symop_operation_xyz
x,y,z
-x,1/2+y,-z
-x,-y,-z
x,1/2-y,z
loop_
_atom_site_type_symbol
_atom_site_label
_atom_site_fract_x
_atom_site_fract_y
_atom_site_fract_z
Si Si1 0.432476 0.097722 0.781943
Si Si2 0.127440 0.407297 0.310399
Si Si3 0.991606 0.095682 0.814532
Si Si4 0.330091 0.403070 0.763222
Si Si5 0.600043 0.093127 0.895566
Si Si6 0.270361 0.588975 0.013612
Si Si7 0.603546 0.592148 0.550668
Si Si8 0.055611 0.592449 0.540018
O O1 0.475537 0.250000 0.867353
O O2 0.345374 0.100759 0.664965
O O3 0.403691 0.044319 0.594854
O O4 0.500000 0.000000 0.000000
O O5 0.118755 0.250000 0.324932
O O6 0.080416 0.492234 0.299824
O O7 0.229270 0.460985 0.545572
O O8 0.087582 0.431624 0.094974
O O9 0.956891 0.250000 0.758566
O O10 0.999491 0.070780 0.700476
O O11 0.341587 0.250000 0.839361
O O12 0.395222 0.503896 0.980622
O O13 0.616366 0.250000 0.966319
O O14 0.676807 0.046467 0.980692
O O15 0.495567 0.073630 0.614155
O O16 0.284188 0.750000 0.067310
O O17 0.318894 0.503750 0.221309
O O18 0.162564 0.550509 0.766173
O O19 0.635569 0.750000 0.632756
O O20 0.050803 0.750000 0.568853
O O21 0.000000 0.500000 0.500000
#
# Coordination Sequence:
#
# PCOD8072880 Si02
#       8
#     4   4   4   4   4   4   4   4
#     4  10  20  35  53  76 107 141 178 217 258 311
#     4   9  18  32  52  81 110 137 175 220 266 319
#     4   9  18  35  57  78 105 140 175 217 273 324
#     4  10  20  32  51  80 111 143 178 218 265 317
#     4  10  20  36  57  81 111 145 183 226 268 321
#     4  10  22  38  56  81 111 142 183 231 276 322
#     4  10  21  36  56  82 111 146 188 225 265 320
#     4  10  22  39  58  80 107 144 185 226 276 330
#
# _framework density 18.713269
#
# number of rings (size 3 to 8) (size 9 to 14) (size 15 to 20)
#    0.000    2.250    1.250    1.125    0.000    5.000 
#    0.000    2.500    0.000    0.000    0.000    0.000 
#    0.000    0.000    0.000    0.000    0.000    0.000 
#
# Total GULP energy -396616.490818 kJ/mol
# GULP energy per Si atom -12394.265338 kJ/mol
# Density = 1.867068 g / cm^3
# Si number density = 18.713269 Si / 1000 Ang^3
#
#
#
# Elastic Constant Matrix: (Units=GPa)
#
#
# Indices 1 2 3 4 5 6 
#
# 1 82.6168 33.8077 26.4561 0.0000 -12.0318 0.0000
# 2 33.8077 58.1330 36.1897 0.0000 -6.4357 0.0000
# 3 26.4561 36.1897 63.3414 0.0000 -4.0553 0.0000
# 4 0.0000 0.0000 0.0000 31.8464 0.0000 -3.5991
# 5 -12.0318 -6.4357 -4.0553 0.0000 25.0416 0.0000
# 6 0.0000 0.0000 0.0000 -3.5991 0.0000 28.2631
#
#
#
# Elastic Compliance Matrix: (Units=1/GPa)
#
#
# Indices 1 2 3 4 5 6 
#
# 1 0.016830 -0.007769 -0.002224 0.000000 0.005729 0.000000
# 2 -0.007769 0.030781 -0.014222 0.000000 0.001875 0.000000
# 3 -0.002224 -0.014222 0.024796 0.000000 -0.000708 0.000000
# 4 0.000000 0.000000 0.000000 0.031859 0.000000 0.004057
# 5 0.005729 0.001875 -0.000708 0.000000 0.043054 0.000000
# 6 0.000000 0.000000 0.000000 0.004057 0.000000 0.035898
#
#
# Mechanical properties :
#
#
# Convention : Reuss Voigt Hill
#
# Bulk Modulus (GPa) = 41.70395 44.11091 42.90743
# Shear Modulus (GPa) = 20.86466 24.20606 22.53536
#
# Velocity S-wave (km/s) = 3.34273 3.60046 3.47399
# Velocity P-wave (km/s) = 6.10185 6.39590 6.25061
#
# Compressibility (1/GPa) = 0.02397855
#
# Stress axis : x y z
#
# Youngs Moduli (GPa) = 59.41890 32.48771 40.32841
#
# Poissons Ratio (x) = 0.25239 0.08969
# Poissons Ratio (y) = 0.46161 0.57354
# Poissons Ratio (z) = 0.13214 0.46203
#
# Static dielectric constant tensor:
#      x y z
#    x 3.611620 0.000000 0.047710 
#    y 0.000000 3.424110 0.000000 
#    z 0.047710 0.000000 3.459810 
# 
# 
# High freq. dielectric constant tensor:
#      x y z
#    x 1.726060 0.000000 0.000600 
#    y 0.000000 1.726880 0.000000 
#    z 0.000600 0.000000 1.723100 
# 
# From -- ./inp_files/45244.got.cif
#   From: 2010.06.25/outbox.cif.g09.slc.cpg/sg11_23_cif.got.tgz:45244.got - 2010.06.27 23:14:04.
