data_PCOD8072173
_publ_section_title
;
Structure prediction by ZEFSAII (Michael W. Deem and Ramdas Pophale) SiO2 
 PCOD8072173
Probable space group: P 21/M
;
_chemical_formula_sum "Si O2"
_cell_formula_units_Z 32
_cell_length_a 30.071726
_cell_length_b 9.376198
_cell_length_c 12.573631
_cell_angle_alpha 90.000000
_cell_angle_beta 27.421378
_cell_angle_gamma 90.000000
_cell_volume 1632.693698
_symmetry_space_group_name_H-M "P 21/M"
_symmetry_group_IT_number 11
_symmetry_cell_setting 'monoclinic'
loop_
_space_group_symop_operation_xyz
x,y,z
-x,1/2+y,-z
-x,-y,-z
x,1/2-y,z
loop_
_atom_site_type_symbol
_atom_site_label
_atom_site_fract_x
_atom_site_fract_y
_atom_site_fract_z
Si Si1 0.761374 0.910151 0.063622
Si Si2 0.794911 0.918783 0.758181
Si Si3 0.871154 0.583589 0.185796
Si Si4 0.522860 0.094209 0.852996
Si Si5 0.464069 0.093042 0.481099
Si Si6 0.268252 0.581061 0.665720
Si Si7 0.402991 0.091841 0.918859
Si Si8 0.059111 0.415536 0.730662
O O1 0.800566 0.750000 0.006711
O O2 0.649447 0.900327 0.277106
O O3 0.778736 0.015250 0.126033
O O4 0.808287 0.970151 0.852825
O O5 0.786474 0.750000 0.774576
O O6 0.884098 0.966827 0.495604
O O7 0.697059 0.977280 0.909069
O O8 0.862819 0.750000 0.171781
O O9 0.781819 0.494368 0.329044
O O10 0.872832 0.565701 0.310165
O O11 0.968305 0.519080 0.929452
O O12 0.550298 0.250000 0.838285
O O13 0.617755 0.044087 0.583919
O O14 0.419937 0.104433 0.009020
O O15 0.500000 0.000000 0.000000
O O16 0.508887 0.250000 0.393321
O O17 0.500000 0.000000 0.500000
O O18 0.507434 0.014010 0.288360
O O19 0.247048 0.750000 0.711992
O O20 0.416693 0.250000 0.837172
O O21 0.026145 0.250000 0.791694
#
# Coordination Sequence:
#
# PCOD8072173 Si02
#       8
#     4   4   4   4   4   4   4   4
#     4  10  20  35  55  80 112 151 193 236 278 335
#     4   9  18  34  58  85 113 147 188 233 286 338
#     4  10  21  38  63  90 114 145 185 231 285 345
#     4  10  23  37  54  79 115 155 193 238 280 332
#     4  11  20  31  50  75 107 147 189 232 272 320
#     4  11  23  39  58  83 116 154 194 235 280 334
#     4  10  19  35  54  77 110 150 192 231 276 332
#     4   9  19  38  64  89 113 143 182 232 288 342
#
# _framework density 19.599511
#
# number of rings (size 3 to 8) (size 9 to 14) (size 15 to 20)
#    0.000    2.000    2.500    1.125    1.750    2.500 
#    0.000    1.875    0.000    0.000    0.000    0.000 
#    0.000    0.000    0.000    0.000    0.000    0.000 
#
# Total GULP energy -396431.533217 kJ/mol
# GULP energy per Si atom -12388.485413 kJ/mol
# Density = 1.955490 g / cm^3
# Si number density = 19.599511 Si / 1000 Ang^3
#
#
#
# Elastic Constant Matrix: (Units=GPa)
#
#
# Indices 1 2 3 4 5 6 
#
# 1 66.9285 29.9975 15.9495 0.0000 7.6257 0.0000
# 2 29.9975 91.3987 24.4716 0.0000 8.5619 0.0000
# 3 15.9495 24.4716 76.5946 0.0000 24.7951 0.0000
# 4 0.0000 0.0000 0.0000 27.0471 0.0000 0.8826
# 5 7.6257 8.5619 24.7951 0.0000 31.9677 0.0000
# 6 0.0000 0.0000 0.0000 0.8826 0.0000 30.8285
#
#
#
# Elastic Compliance Matrix: (Units=1/GPa)
#
#
# Indices 1 2 3 4 5 6 
#
# 1 0.017866 -0.005310 -0.001475 0.000000 -0.001696 0.000000
# 2 -0.005310 0.013545 -0.003282 0.000000 0.000184 0.000000
# 3 -0.001475 -0.003282 0.018711 0.000000 -0.013282 0.000000
# 4 0.000000 0.000000 0.000000 0.037007 0.000000 -0.001059
# 5 -0.001696 0.000184 -0.013282 0.000000 0.041939 0.000000
# 6 0.000000 0.000000 0.000000 -0.001059 0.000000 0.032468
#
#
# Mechanical properties :
#
#
# Convention : Reuss Voigt Hill
#
# Bulk Modulus (GPa) = 33.34504 41.75100 37.54802
# Shear Modulus (GPa) = 26.08720 28.93553 27.51137
#
# Velocity S-wave (km/s) = 3.65226 3.84648 3.75063
# Velocity P-wave (km/s) = 5.90216 6.40902 6.16081
#
# Compressibility (1/GPa) = 0.02998946
#
# Stress axis : x y z
#
# Youngs Moduli (GPa) = 55.97245 73.82689 53.44470
#
# Poissons Ratio (x) = 0.39202 0.07882
# Poissons Ratio (y) = 0.29721 0.17538
# Poissons Ratio (z) = 0.08255 0.24226
#
# Static dielectric constant tensor:
#      x y z
#    x 3.758720 0.000000 0.134130 
#    y 0.000000 3.375540 0.000000 
#    z 0.134130 0.000000 3.448070 
# 
# 
# High freq. dielectric constant tensor:
#      x y z
#    x 1.765460 0.000000 0.011090 
#    y 0.000000 1.754440 0.000000 
#    z 0.011090 0.000000 1.746420 
# 
# From -- ./inp_files/38185.got.cif
#   From: 2010.06.25/outbox.cif.g09.slc.cpg/sg11_20_cif.got.tgz:38185.got - 2010.06.27 23:14:04.
