data_PCOD8072704
_publ_section_title
;
Structure prediction by ZEFSAII (Michael W. Deem and Ramdas Pophale) SiO2 
 PCOD8072704
Probable space group: P 21/M
;
_chemical_formula_sum "Si O2"
_cell_formula_units_Z 24
_cell_length_a 16.642678
_cell_length_b 15.297283
_cell_length_c 11.355449
_cell_angle_alpha 90.000000
_cell_angle_beta 22.623648
_cell_angle_gamma 90.000000
_cell_volume 1112.083222
_symmetry_space_group_name_H-M "P 21/M"
_symmetry_group_IT_number 11
_symmetry_cell_setting 'monoclinic'
loop_
_space_group_symop_operation_xyz
x,y,z
-x,1/2+y,-z
-x,-y,-z
x,1/2-y,z
loop_
_atom_site_type_symbol
_atom_site_label
_atom_site_fract_x
_atom_site_fract_y
_atom_site_fract_z
Si Si1 0.985202 0.013790 0.882180
Si Si2 0.669816 0.153018 0.225199
Si Si3 0.770768 0.652857 0.082811
Si Si4 0.744206 0.396729 0.866521
Si Si5 0.379201 0.083671 0.206854
Si Si6 0.788259 0.898425 0.810841
O O1 0.944874 0.921195 0.871618
O O2 0.190656 0.056693 0.547821
O O3 0.795704 0.080473 0.125000
O O4 0.000000 0.000000 0.000000
O O5 0.719954 0.250000 0.207789
O O6 0.425045 0.132152 0.568863
O O7 0.729104 0.153054 0.008910
O O8 0.860144 0.750000 0.989433
O O9 0.689184 0.650594 0.056973
O O10 0.732882 0.500323 0.902763
O O11 0.966465 0.376279 0.507786
O O12 0.552551 0.361177 0.044569
O O13 0.294699 0.134936 0.204896
O O14 0.500000 0.000000 0.000000
#
# Coordination Sequence:
#
# PCOD8072704 Si02
#       6
#     4   4   4   4   4   4
#     4  12  24  41  68  92 127 177 211 266 331 371
#     4  11  24  42  64  93 128 167 216 267 317 385
#     4  11  24  41  64  94 127 170 217 263 321 387
#     4  10  19  39  66  93 126 165 212 259 317 380
#     4  10  21  36  65 102 124 162 219 258 310 393
#     4  10  19  38  64  94 131 167 208 263 315 380
#
# _framework density 21.581116999999999
#
# number of rings (size 3 to 8) (size 9 to 14) (size 15 to 20)
#    0.000    1.333    3.333    3.500    4.667    1.333 
#    0.000    1.667    0.000    1.000    0.000    0.000 
#    0.000    0.000    0.000    0.000    0.000    0.000 
#
# Total GULP energy -297493.308355 kJ/mol
# GULP energy per Si atom -12395.554515 kJ/mol
# Density = 2.153200 g / cm^3
# Si number density = 21.581117 Si / 1000 Ang^3
#
#
#
# Elastic Constant Matrix: (Units=GPa)
#
#
# Indices 1 2 3 4 5 6 
#
# 1 137.8679 37.0077 22.4356 0.0000 -1.4755 0.0000
# 2 37.0077 72.3313 19.3723 0.0000 -11.7915 0.0000
# 3 22.4356 19.3723 62.1780 0.0000 -1.6571 0.0000
# 4 0.0000 0.0000 0.0000 13.3349 0.0000 6.1595
# 5 -1.4755 -11.7915 -1.6571 0.0000 43.6102 0.0000
# 6 0.0000 0.0000 0.0000 6.1595 0.0000 6.4608
#
#
#
# Elastic Compliance Matrix: (Units=1/GPa)
#
#
# Indices 1 2 3 4 5 6 
#
# 1 0.008639 -0.004061 -0.001875 0.000000 -0.000877 0.000000
# 2 -0.004061 0.017687 -0.003926 0.000000 0.004496 0.000000
# 3 -0.001875 -0.003926 0.017971 0.000000 -0.000442 0.000000
# 4 0.000000 0.000000 0.000000 0.134000 0.000000 -0.127751
# 5 -0.000877 0.004496 -0.000442 0.000000 0.024100 0.000000
# 6 0.000000 0.000000 0.000000 -0.127751 0.000000 0.276572
#
#
# Mechanical properties :
#
#
# Convention : Reuss Voigt Hill
#
# Bulk Modulus (GPa) = 40.69416 47.77873 44.23645
# Shear Modulus (GPa) = 9.86418 25.58527 17.72473
#
# Velocity S-wave (km/s) = 2.14025 3.44690 2.86895
# Velocity P-wave (km/s) = 5.00049 6.16674 5.61398
#
# Compressibility (1/GPa) = 0.02457355
#
# Stress axis : x y z
#
# Youngs Moduli (GPa) = 115.75177 56.53793 55.64564
#
# Poissons Ratio (x) = 0.22959 0.10436
# Poissons Ratio (y) = 0.47005 0.21844
# Poissons Ratio (z) = 0.21709 0.22195
#
# Static dielectric constant tensor:
#      x y z
#    x 4.185870 0.000000 0.261080 
#    y 0.000000 3.406660 0.000000 
#    z 0.261080 0.000000 3.518600 
# 
# 
# High freq. dielectric constant tensor:
#      x y z
#    x 1.851900 0.000000 0.012730 
#    y 0.000000 1.824220 0.000000 
#    z 0.012730 0.000000 1.856210 
# 
# From -- ./inp_files/41900.got.cif
#   From: 2010.06.25/outbox.cif.g09.slc.cpg/sg11_21_cif.got.tgz:41900.got - 2010.06.27 23:14:04.
