data_PCOD8072972
_publ_section_title
;
Structure prediction by ZEFSAII (Michael W. Deem and Ramdas Pophale) SiO2 
 PCOD8072972
Probable space group: P 21/M
;
_chemical_formula_sum "Si O2"
_cell_formula_units_Z 28
_cell_length_a 20.957283
_cell_length_b 8.570846
_cell_length_c 16.316578
_cell_angle_alpha 90.000000
_cell_angle_beta 151.487371
_cell_angle_gamma 90.000000
_cell_volume 1399.029629
_symmetry_space_group_name_H-M "P 21/M"
_symmetry_group_IT_number 11
_symmetry_cell_setting 'monoclinic'
loop_
_space_group_symop_operation_xyz
x,y,z
-x,1/2+y,-z
-x,-y,-z
x,1/2-y,z
loop_
_atom_site_type_symbol
_atom_site_label
_atom_site_fract_x
_atom_site_fract_y
_atom_site_fract_z
Si Si1 0.739557 0.064551 0.014606
Si Si2 0.818331 0.933077 0.524023
Si Si3 0.010752 0.932224 0.601605
Si Si4 0.551944 0.565273 0.303570
Si Si5 0.215709 0.932990 0.118965
Si Si6 0.309896 0.431686 0.378407
Si Si7 0.064426 0.931179 0.187982
O O1 0.748147 0.250000 0.025929
O O2 0.595996 0.004702 0.888217
O O3 0.746072 0.006566 0.928153
O O4 0.860829 0.994669 0.205672
O O5 0.834951 0.750000 0.563234
O O6 0.663187 0.986422 0.361477
O O7 0.872514 0.969687 0.493938
O O8 0.913171 0.029804 0.691182
O O9 0.033103 0.750000 0.618698
O O10 0.000000 0.000000 0.500000
O O11 0.549957 0.750000 0.306409
O O12 0.590146 0.503954 0.437961
O O13 0.188210 0.750000 0.087338
O O14 0.330854 0.976830 0.315593
O O15 0.086048 0.024656 0.004292
O O16 0.333229 0.250000 0.388722
O O17 0.160609 0.462199 0.242293
O O18 0.091996 0.750000 0.201151
#
# Coordination Sequence:
#
# PCOD8072972 Si02
#       7
#     4   4   4   4   4   4   4
#     4   9  18  34  55  78 105 140 178 216 265 319
#     4   9  17  34  57  80 106 139 175 215 264 316
#     4  10  20  36  58  83 109 136 171 215 265 318
#     4   8  16  32  55  77 103 142 182 215 255 314
#     4  11  20  32  50  73 106 142 183 224 265 309
#     4  10  20  33  49  74 107 142 183 223 264 307
#     4  11  20  31  50  76 106 140 182 224 267 311
#
# _framework density 20.013871000000002
#
# number of rings (size 3 to 8) (size 9 to 14) (size 15 to 20)
#    0.000    2.286    1.429    3.429    0.000    1.143 
#    0.000    0.714    0.000   12.000    0.000    0.000 
#    0.000    0.000    0.000    0.000    0.000    0.000 
#
# Total GULP energy -347016.484921 kJ/mol
# GULP energy per Si atom -12393.445890 kJ/mol
# Density = 1.996832 g / cm^3
# Si number density = 20.013871 Si / 1000 Ang^3
#
#
#
# Elastic Constant Matrix: (Units=GPa)
#
#
# Indices 1 2 3 4 5 6 
#
# 1 125.8494 13.9543 74.4972 0.0000 -18.8177 0.0000
# 2 13.9543 34.0224 9.2464 0.0000 -3.8229 0.0000
# 3 74.4972 9.2464 117.9639 0.0000 7.3952 0.0000
# 4 0.0000 0.0000 0.0000 17.1182 0.0000 -9.0490
# 5 -18.8177 -3.8229 7.3952 0.0000 25.1317 0.0000
# 6 0.0000 0.0000 0.0000 -9.0490 0.0000 24.0929
#
#
#
# Elastic Compliance Matrix: (Units=1/GPa)
#
#
# Indices 1 2 3 4 5 6 
#
# 1 0.017868 -0.002156 -0.012158 0.000000 0.016629 0.000000
# 2 -0.002156 0.031018 -0.001288 0.000000 0.003483 0.000000
# 3 -0.012158 -0.001288 0.017156 0.000000 -0.014347 0.000000
# 4 0.000000 0.000000 0.000000 0.072889 0.000000 0.027376
# 5 0.016629 0.003483 -0.014347 0.000000 0.056993 0.000000
# 6 0.000000 0.000000 0.000000 0.027376 0.000000 0.051788
#
#
# Mechanical properties :
#
#
# Convention : Reuss Voigt Hill
#
# Bulk Modulus (GPa) = 28.70410 52.58128 40.64269
# Shear Modulus (GPa) = 17.21000 25.27774 21.24387
#
# Velocity S-wave (km/s) = 2.93559 3.55774 3.26154
# Velocity P-wave (km/s) = 5.08562 6.57314 5.87663
#
# Compressibility (1/GPa) = 0.03483823
#
# Stress axis : x y z
#
# Youngs Moduli (GPa) = 55.96487 32.23920 58.29025
#
# Poissons Ratio (x) = 0.06951 0.70868
# Poissons Ratio (y) = 0.12067 0.07508
# Poissons Ratio (z) = 0.68041 0.04152
#
# Static dielectric constant tensor:
#      x y z
#    x 3.727640 0.000000 0.056300 
#    y 0.000000 3.287050 0.000000 
#    z 0.056300 0.000000 4.300140 
# 
# 
# High freq. dielectric constant tensor:
#      x y z
#    x 1.775840 0.000000 0.009730 
#    y 0.000000 1.744340 0.000000 
#    z 0.009730 0.000000 1.772280 
# 
# From -- ./inp_files/61288.got.cif
#   From: 2010.06.25/outbox.cif.g09.slc.cpg/sg11_31_cif.got.tgz:61288.got - 2010.06.27 23:14:04.
