data_PCOD8072214
_publ_section_title
;
Structure prediction by ZEFSAII (Michael W. Deem and Ramdas Pophale) SiO2 
 PCOD8072214
Probable space group: P 21/M
;
_chemical_formula_sum "Si O2"
_cell_formula_units_Z 32
_cell_length_a 24.839140
_cell_length_b 9.012135
_cell_length_c 19.925873
_cell_angle_alpha 90.000000
_cell_angle_beta 156.599647
_cell_angle_gamma 90.000000
_cell_volume 1771.495467
_symmetry_space_group_name_H-M "P 21/M"
_symmetry_group_IT_number 11
_symmetry_cell_setting 'monoclinic'
loop_
_space_group_symop_operation_xyz
x,y,z
-x,1/2+y,-z
-x,-y,-z
x,1/2-y,z
loop_
_atom_site_type_symbol
_atom_site_label
_atom_site_fract_x
_atom_site_fract_y
_atom_site_fract_z
Si Si1 0.346382 0.076544 0.068977
Si Si2 0.116708 0.577488 0.551390
Si Si3 0.655297 0.421515 0.447354
Si Si4 0.847611 0.425864 0.048611
Si Si5 0.878057 0.422639 0.593079
Si Si6 0.106692 0.422301 0.030714
Si Si7 0.831253 0.922131 0.748877
Si Si8 0.183338 0.076929 0.754724
O O1 0.316369 0.250000 0.047514
O O2 0.503819 0.037067 0.253283
O O3 0.297472 0.029665 0.938759
O O4 0.267859 0.981714 0.033940
O O5 0.129870 0.750000 0.580078
O O6 0.165132 0.535090 0.532092
O O7 0.211790 0.498607 0.715335
O O8 0.961267 0.524018 0.381379
O O9 0.667942 0.250000 0.482354
O O10 0.750516 0.460455 0.493479
O O11 0.695256 0.521224 0.557230
O O12 0.845887 0.250000 0.044159
O O13 0.813201 0.490064 0.935389
O O14 0.994918 0.480481 0.239434
O O15 0.920549 0.250000 0.645651
O O16 0.098257 0.250000 0.001908
O O17 0.953946 0.481991 0.859983
O O18 0.185146 0.448260 0.190317
O O19 0.858690 0.750000 0.764406
O O20 0.185569 0.250000 0.744338
#
# Coordination Sequence:
#
# PCOD8072214 Si02
#       8
#     4   4   4   4   4   4   4   4
#     4  10  21  39  57  78 110 150 189 223 273 337
#     4   9  17  30  51  77 106 139 177 225 275 323
#     4  10  21  36  59  82 108 150 188 222 273 335
#     4  12  23  34  55  86 111 140 184 234 278 319
#     4  10  19  35  56  81 110 143 183 227 274 329
#     4  10  20  35  56  81 112 147 181 223 273 326
#     4  10  20  34  55  84 114 143 180 227 275 320
#     4   9  17  31  51  75 106 142 180 225 272 321
#
# _framework density 18.063834
#
# number of rings (size 3 to 8) (size 9 to 14) (size 15 to 20)
#    0.000    2.000    2.500    1.875    0.000    3.000 
#    0.000    1.250    0.000    0.000    0.000    0.000 
#    0.000    0.000    0.000    0.000    0.000    0.000 
#
# Total GULP energy -396865.296320 kJ/mol
# GULP energy per Si atom -12402.040510 kJ/mol
# Density = 1.802272 g / cm^3
# Si number density = 18.063834 Si / 1000 Ang^3
#
#
#
# Elastic Constant Matrix: (Units=GPa)
#
#
# Indices 1 2 3 4 5 6 
#
# 1 127.7443 64.0268 71.6054 0.0000 -18.3347 0.0000
# 2 64.0268 87.2226 54.2009 0.0000 -8.0803 0.0000
# 3 71.6054 54.2009 123.1612 0.0000 -15.1010 0.0000
# 4 0.0000 0.0000 0.0000 21.9479 0.0000 -9.9221
# 5 -18.3347 -8.0803 -15.1010 0.0000 31.6996 0.0000
# 6 0.0000 0.0000 0.0000 -9.9221 0.0000 27.2013
#
#
#
# Elastic Compliance Matrix: (Units=1/GPa)
#
#
# Indices 1 2 3 4 5 6 
#
# 1 0.014965 -0.007578 -0.004823 0.000000 0.004426 0.000000
# 2 -0.007578 0.019635 -0.004417 0.000000 -0.001482 0.000000
# 3 -0.004823 -0.004417 0.013156 0.000000 0.002352 0.000000
# 4 0.000000 0.000000 0.000000 0.054559 0.000000 0.019901
# 5 0.004426 -0.001482 0.002352 0.000000 0.034849 0.000000
# 6 0.000000 0.000000 0.000000 0.019901 0.000000 0.044022
#
#
# Mechanical properties :
#
#
# Convention : Reuss Voigt Hill
#
# Bulk Modulus (GPa) = 70.82210 79.75491 75.28850
# Shear Modulus (GPa) = 22.77603 26.05610 24.41607
#
# Velocity S-wave (km/s) = 3.55472 3.80207 3.68047
# Velocity P-wave (km/s) = 7.49264 7.97006 7.73504
#
# Compressibility (1/GPa) = 0.01411989
#
# Stress axis : x y z
#
# Youngs Moduli (GPa) = 66.82165 50.92884 76.01358
#
# Poissons Ratio (x) = 0.38596 0.36660
# Poissons Ratio (y) = 0.50640 0.33574
# Poissons Ratio (z) = 0.32227 0.22494
#
# Static dielectric constant tensor:
#      x y z
#    x 3.521120 0.000000 -0.225710 
#    y 0.000000 3.305480 0.000000 
#    z -0.225710 0.000000 3.268490 
# 
# 
# High freq. dielectric constant tensor:
#      x y z
#    x 1.702700 0.000000 -0.024060 
#    y 0.000000 1.698070 0.000000 
#    z -0.024060 0.000000 1.681360 
# 
# From -- ./inp_files/67215.got.cif
#   From: 2010.06.25/outbox.cif.g09.slc.cpg/sg11_34_cif.got.tgz:67215.got - 2010.06.27 23:14:04.
