data_PCOD8072280
_publ_section_title
;
Structure prediction by ZEFSAII (Michael W. Deem and Ramdas Pophale) SiO2 
 PCOD8072280
Probable space group: P 21/M
;
_chemical_formula_sum "Si O2"
_cell_formula_units_Z 32
_cell_length_a 26.474799
_cell_length_b 8.788620
_cell_length_c 21.137729
_cell_angle_alpha 90.000000
_cell_angle_beta 159.175227
_cell_angle_gamma 90.000000
_cell_volume 1748.496929
_symmetry_space_group_name_H-M "P 21/M"
_symmetry_group_IT_number 11
_symmetry_cell_setting 'monoclinic'
loop_
_space_group_symop_operation_xyz
x,y,z
-x,1/2+y,-z
-x,-y,-z
x,1/2-y,z
loop_
_atom_site_type_symbol
_atom_site_label
_atom_site_fract_x
_atom_site_fract_y
_atom_site_fract_z
Si Si1 0.988147 0.071364 0.670927
Si Si2 0.417670 0.573358 0.461288
Si Si3 0.288090 0.069352 0.973085
Si Si4 0.394113 0.569743 0.221186
Si Si5 0.115668 0.070418 0.950508
Si Si6 0.909565 0.073473 0.948864
Si Si7 0.600202 0.929512 0.031468
Si Si8 0.703410 0.069741 0.275983
O O1 0.977037 0.250000 0.649625
O O2 0.006464 0.028525 0.766147
O O3 0.842375 0.999212 0.473308
O O4 0.125313 0.013390 0.791952
O O5 0.500000 0.500000 0.500000
O O6 0.456667 0.750000 0.510758
O O7 0.461743 0.491765 0.578294
O O8 0.252653 0.545285 0.258315
O O9 0.299623 0.250000 0.994634
O O10 0.344484 0.013043 0.971495
O O11 0.386950 0.993391 0.141737
O O12 0.393787 0.750000 0.219897
O O13 0.264554 0.511987 0.112597
O O14 0.143239 0.250000 0.985679
O O15 0.049209 0.010156 0.937615
O O16 0.946703 0.250000 0.999330
O O17 0.000000 0.000000 0.000000
O O18 0.615851 0.750000 0.056097
O O19 0.436552 0.981376 0.848916
O O20 0.699151 0.005095 0.200206
O O21 0.711480 0.250000 0.281275
#
# Coordination Sequence:
#
# PCOD8072280 Si02
#       8
#     4   4   4   4   4   4   4   4
#     4   8  16  31  52  75  99 133 174 211 256 312
#     4  11  22  37  60  85 109 144 187 228 270 325
#     4   9  18  34  52  73 103 138 173 216 264 311
#     4  11  21  34  55  83 111 140 180 225 273 326
#     4  10  19  35  58  79 108 145 181 224 273 323
#     4  11  24  40  58  82 113 146 184 227 278 330
#     4   9  18  32  51  74 102 134 169 211 259 310
#     4   9  17  32  52  73 100 135 172 208 252 313
#
# _framework density 18.301435000000001
#
# number of rings (size 3 to 8) (size 9 to 14) (size 15 to 20)
#    0.000    2.250    1.250    3.000    0.000    2.500 
#    2.250    3.125    0.000    0.000    0.000    0.000 
#    0.000    0.000    0.000    0.000    0.000    0.000 
#
# Total GULP energy -396820.692815 kJ/mol
# GULP energy per Si atom -12400.646650 kJ/mol
# Density = 1.825978 g / cm^3
# Si number density = 18.301435 Si / 1000 Ang^3
#
#
#
# Elastic Constant Matrix: (Units=GPa)
#
#
# Indices 1 2 3 4 5 6 
#
# 1 164.2584 46.3068 70.7380 0.0000 -16.4855 0.0000
# 2 46.3068 72.0158 44.8669 0.0000 -5.6536 0.0000
# 3 70.7380 44.8669 122.9075 0.0000 -21.9972 0.0000
# 4 0.0000 0.0000 0.0000 24.0975 0.0000 -6.4339
# 5 -16.4855 -5.6536 -21.9972 0.0000 24.0791 0.0000
# 6 0.0000 0.0000 0.0000 -6.4339 0.0000 29.6372
#
#
#
# Elastic Compliance Matrix: (Units=1/GPa)
#
#
# Indices 1 2 3 4 5 6 
#
# 1 0.008703 -0.003291 -0.003442 0.000000 0.002041 0.000000
# 2 -0.003291 0.019309 -0.005674 0.000000 -0.002903 0.000000
# 3 -0.003442 -0.005674 0.013782 0.000000 0.008901 0.000000
# 4 0.000000 0.000000 0.000000 0.044051 0.000000 0.009563
# 5 0.002041 -0.002903 0.008901 0.000000 0.050377 0.000000
# 6 0.000000 0.000000 0.000000 0.009563 0.000000 0.035817
#
#
# Mechanical properties :
#
#
# Convention : Reuss Voigt Hill
#
# Bulk Modulus (GPa) = 58.89675 75.88945 67.39310
# Shear Modulus (GPa) = 24.68954 28.71410 26.70182
#
# Velocity S-wave (km/s) = 3.67693 3.96530 3.82383
# Velocity P-wave (km/s) = 7.09068 7.90704 7.50996
#
# Compressibility (1/GPa) = 0.01697887
#
# Stress axis : x y z
#
# Youngs Moduli (GPa) = 114.90195 51.78828 72.56025
#
# Poissons Ratio (x) = 0.17046 0.24976
# Poissons Ratio (y) = 0.37819 0.41171
# Poissons Ratio (z) = 0.39551 0.29385
#
# Static dielectric constant tensor:
#      x y z
#    x 3.415250 0.000000 -0.109410 
#    y 0.000000 3.271930 0.000000 
#    z -0.109410 0.000000 3.865740 
# 
# 
# High freq. dielectric constant tensor:
#      x y z
#    x 1.708000 0.000000 -0.012580 
#    y 0.000000 1.701300 0.000000 
#    z -0.012580 0.000000 1.710550 
# 
# From -- ./inp_files/67168.got.cif
#   From: 2010.06.25/outbox.cif.g09.slc.cpg/sg11_34_cif.got.tgz:67168.got - 2010.06.27 23:14:04.
