data_PCOD8072807
_publ_section_title
;
Structure prediction by ZEFSAII (Michael W. Deem and Ramdas Pophale) SiO2 
 PCOD8072807
Probable space group: P 21/M
;
_chemical_formula_sum "Si O2"
_cell_formula_units_Z 28
_cell_length_a 14.762305
_cell_length_b 8.957593
_cell_length_c 20.290388
_cell_angle_alpha 90.000000
_cell_angle_beta 142.274593
_cell_angle_gamma 90.000000
_cell_volume 1641.725615
_symmetry_space_group_name_H-M "P 21/M"
_symmetry_group_IT_number 11
_symmetry_cell_setting 'monoclinic'
loop_
_space_group_symop_operation_xyz
x,y,z
-x,1/2+y,-z
-x,-y,-z
x,1/2-y,z
loop_
_atom_site_type_symbol
_atom_site_label
_atom_site_fract_x
_atom_site_fract_y
_atom_site_fract_z
Si Si1 0.084794 0.914627 0.641200
Si Si2 0.365944 0.572806 0.576378
Si Si3 0.669595 0.423910 0.755903
Si Si4 0.777590 0.915341 0.388632
Si Si5 0.934101 0.081040 0.806688
Si Si6 0.130495 0.077087 0.036335
Si Si7 0.896100 0.925929 0.650590
O O1 0.155603 0.750000 0.686878
O O2 0.937613 0.907572 0.513081
O O3 0.036726 0.973159 0.685967
O O4 0.205793 0.020859 0.676179
O O5 0.369112 0.750000 0.575941
O O6 0.523947 0.506982 0.646358
O O7 0.328084 0.520124 0.628722
O O8 0.249312 0.513738 0.455877
O O9 0.637242 0.250000 0.747440
O O10 0.795944 0.453424 0.774625
O O11 0.718456 0.494204 0.854904
O O12 0.707436 0.750000 0.344043
O O13 0.921718 0.250000 0.772562
O O14 0.934490 0.965278 0.747328
O O15 0.089885 0.060669 0.935539
O O16 0.140607 0.250000 0.062352
O O17 0.000000 0.000000 0.000000
O O18 0.865396 0.750000 0.625032
#
# Coordination Sequence:
#
# PCOD8072807 Si02
#       7
#     4   4   4   4   4   4   4
#     4   8  15  27  42  63  89 118 152 189 228 268
#     4  11  21  32  47  67  95 128 158 191 233 281
#     4  10  20  34  50  69  94 123 158 198 235 275
#     4   9  16  27  44  65  89 118 152 190 229 271
#     4   9  19  33  49  69  94 123 155 193 233 274
#     4   9  17  31  50  71  92 117 154 197 237 274
#     4  10  20  32  47  68  96 127 159 193 228 275
#
# _framework density 17.055226000000001
#
# number of rings (size 3 to 8) (size 9 to 14) (size 15 to 20)
#    0.000    2.571    0.000    4.714    0.000    8.000 
#    0.000    0.000    0.000    0.000    0.000    1.000 
#    0.000    0.000    0.000    0.000    0.000    0.000 
#
# Total GULP energy -347065.732549 kJ/mol
# GULP energy per Si atom -12395.204734 kJ/mol
# Density = 1.701641 g / cm^3
# Si number density = 17.055226 Si / 1000 Ang^3
#
#
#
# Elastic Constant Matrix: (Units=GPa)
#
#
# Indices 1 2 3 4 5 6 
#
# 1 54.3278 31.1427 27.0955 0.0000 -21.9130 0.0000
# 2 31.1427 114.9597 35.9628 0.0000 -16.3648 0.0000
# 3 27.0955 35.9628 58.3573 0.0000 -18.6240 0.0000
# 4 0.0000 0.0000 0.0000 27.9503 0.0000 -1.7846
# 5 -21.9130 -16.3648 -18.6240 0.0000 12.1336 0.0000
# 6 0.0000 0.0000 0.0000 -1.7846 0.0000 27.4980
#
#
#
# Elastic Compliance Matrix: (Units=1/GPa)
#
#
# Indices 1 2 3 4 5 6 
#
# 1 0.076105 -0.003397 0.017954 0.000000 0.160421 0.000000
# 2 -0.003397 0.011395 -0.004897 0.000000 0.001718 0.000000
# 3 0.017954 -0.004897 0.039317 0.000000 0.086168 0.000000
# 4 0.000000 0.000000 0.000000 0.035927 0.000000 0.002332
# 5 0.160421 0.001718 0.086168 0.000000 0.506710 0.000000
# 6 0.000000 0.000000 0.000000 0.002332 0.000000 0.036518
#
#
# Mechanical properties :
#
#
# Convention : Reuss Voigt Hill
#
# Bulk Modulus (GPa) = 6.84290 46.22744 26.53517
# Shear Modulus (GPa) = 6.79935 22.41263 14.60599
#
# Velocity S-wave (km/s) = 1.99883 3.62901 2.92960
# Velocity P-wave (km/s) = 3.05745 6.68753 5.19957
#
# Compressibility (1/GPa) = 0.14613690
#
# Stress axis : x y z
#
# Youngs Moduli (GPa) = 13.13969 87.75451 25.43436
#
# Poissons Ratio (x) = 0.29811 -0.45664
# Poissons Ratio (y) = 0.04464 0.12455
# Poissons Ratio (z) = -0.23591 0.42973
#
# Static dielectric constant tensor:
#      x y z
#    x 3.160580 0.000000 -0.111030 
#    y 0.000000 3.421080 0.000000 
#    z -0.111030 0.000000 3.122740 
# 
# 
# High freq. dielectric constant tensor:
#      x y z
#    x 1.639320 0.000000 -0.010980 
#    y 0.000000 1.674140 0.000000 
#    z -0.010980 0.000000 1.624130 
# 
# From -- ./inp_files/53188.got.cif
#   From: 2010.06.25/outbox.cif.g09.slc.cpg/sg11_27_cif.got.tgz:53188.got - 2010.06.27 23:14:04.
