data_PCOD8072487
_publ_section_title
;
Structure prediction by ZEFSAII (Michael W. Deem and Ramdas Pophale) SiO2 
 PCOD8072487
Probable space group: P 21/M
;
_chemical_formula_sum "Si O2"
_cell_formula_units_Z 28
_cell_length_a 9.291802
_cell_length_b 9.009881
_cell_length_c 26.973807
_cell_angle_alpha 90.000000
_cell_angle_beta 140.342555
_cell_angle_gamma 90.000000
_cell_volume 1441.170800
_symmetry_space_group_name_H-M "P 21/M"
_symmetry_group_IT_number 11
_symmetry_cell_setting 'monoclinic'
loop_
_space_group_symop_operation_xyz
x,y,z
-x,1/2+y,-z
-x,-y,-z
x,1/2-y,z
loop_
_atom_site_type_symbol
_atom_site_label
_atom_site_fract_x
_atom_site_fract_y
_atom_site_fract_z
Si Si1 0.821385 0.424310 0.296078
Si Si2 0.177491 0.573095 0.009998
Si Si3 0.232677 0.084415 0.560272
Si Si4 0.530023 0.926876 0.717123
Si Si5 0.284983 0.414098 0.459660
Si Si6 0.963746 0.425624 0.136542
Si Si7 0.345769 0.574691 0.855209
O O1 0.829498 0.250000 0.307147
O O2 0.609349 0.484142 0.271804
O O3 0.795941 0.463966 0.231633
O O4 0.054162 0.493307 0.379262
O O5 0.164256 0.750000 0.011848
O O6 0.124539 0.520085 0.940070
O O7 0.424590 0.515708 0.088352
O O8 0.000000 0.500000 0.000000
O O9 0.205855 0.250000 0.575611
O O10 0.305359 0.094282 0.523389
O O11 0.423586 0.994339 0.639640
O O12 0.000000 0.000000 0.500000
O O13 0.526694 0.750000 0.711728
O O14 0.784554 0.988322 0.788970
O O15 0.500000 0.500000 0.500000
O O16 0.294131 0.250000 0.438606
O O17 0.970554 0.250000 0.140715
O O18 0.796989 0.483757 0.135516
O O19 0.398671 0.750000 0.872637
#
# Coordination Sequence:
#
# PCOD8072487 Si02
#       7
#     4   4   4   4   4   4   4
#     4   9  18  35  57  81 113 151 190 231 279 338
#     4  11  22  39  61  87 117 152 191 231 280 335
#     4  11  22  38  58  83 114 149 191 237 286 337
#     4  10  19  36  59  83 113 149 192 236 278 334
#     4  10  22  38  56  82 113 149 191 237 284 337
#     4   9  20  36  60  89 115 149 189 229 281 344
#     4  10  20  37  61  88 116 149 189 232 280 337
#
# _framework density 19.428649
#
# number of rings (size 3 to 8) (size 9 to 14) (size 15 to 20)
#    0.000    2.000    1.429    2.143    2.000    3.429 
#    0.000    5.714    0.000    0.000    0.000    0.000 
#    0.000    0.000    0.000    0.000    0.000    0.000 
#
# Total GULP energy -347181.032632 kJ/mol
# GULP energy per Si atom -12399.322594 kJ/mol
# Density = 1.938443 g / cm^3
# Si number density = 19.428649 Si / 1000 Ang^3
#
#
#
# Elastic Constant Matrix: (Units=GPa)
#
#
# Indices 1 2 3 4 5 6 
#
# 1 150.9929 35.8929 63.2675 0.0000 9.4675 0.0000
# 2 35.8929 52.5700 25.6160 0.0000 2.9163 0.0000
# 3 63.2675 25.6160 123.5000 0.0000 0.2080 0.0000
# 4 0.0000 0.0000 0.0000 29.4972 0.0000 1.6617
# 5 9.4675 2.9163 0.2080 0.0000 40.9592 0.0000
# 6 0.0000 0.0000 0.0000 1.6617 0.0000 27.2363
#
#
#
# Elastic Compliance Matrix: (Units=1/GPa)
#
#
# Indices 1 2 3 4 5 6 
#
# 1 0.009430 -0.004431 -0.003908 0.000000 -0.001844 0.000000
# 2 -0.004431 0.023334 -0.002569 0.000000 -0.000624 0.000000
# 3 -0.003908 -0.002569 0.010630 0.000000 0.001032 0.000000
# 4 0.000000 0.000000 0.000000 0.034018 0.000000 -0.002076
# 5 -0.001844 -0.000624 0.001032 0.000000 0.024880 0.000000
# 6 0.000000 0.000000 0.000000 -0.002076 0.000000 0.036842
#
#
# Mechanical properties :
#
#
# Convention : Reuss Voigt Hill
#
# Bulk Modulus (GPa) = 46.34532 64.06842 55.20687
# Shear Modulus (GPa) = 29.73639 33.02430 31.38035
#
# Velocity S-wave (km/s) = 3.91646 4.12730 4.02326
# Velocity P-wave (km/s) = 6.66014 7.46731 7.07524
#
# Compressibility (1/GPa) = 0.02157715
#
# Stress axis : x y z
#
# Youngs Moduli (GPa) = 106.05011 42.85573 94.06956
#
# Poissons Ratio (x) = 0.18991 0.36766
# Poissons Ratio (y) = 0.46995 0.24164
# Poissons Ratio (z) = 0.41448 0.11008
#
# Static dielectric constant tensor:
#      x y z
#    x 3.701850 0.000000 0.052900 
#    y 0.000000 3.380070 0.000000 
#    z 0.052900 0.000000 3.702910 
# 
# 
# High freq. dielectric constant tensor:
#      x y z
#    x 1.767980 0.000000 0.000420 
#    y 0.000000 1.723830 0.000000 
#    z 0.000420 0.000000 1.771980 
# 
# From -- ./inp_files/28369.got.cif
#   From: 2010.06.25/outbox.cif.g09.slc.cpg/sg11_15_cif.got.tgz:28369.got - 2010.06.27 23:14:04.
