data_PCOD8072582
_publ_section_title
;
Structure prediction by ZEFSAII (Michael W. Deem and Ramdas Pophale) SiO2 
 PCOD8072582
Probable space group: P 21/M
;
_chemical_formula_sum "Si O2"
_cell_formula_units_Z 32
_cell_length_a 11.526698
_cell_length_b 14.797292
_cell_length_c 16.524940
_cell_angle_alpha 90.000000
_cell_angle_beta 144.977024
_cell_angle_gamma 90.000000
_cell_volume 1617.584454
_symmetry_space_group_name_H-M "P 21/M"
_symmetry_group_IT_number 11
_symmetry_cell_setting 'monoclinic'
loop_
_space_group_symop_operation_xyz
x,y,z
-x,1/2+y,-z
-x,-y,-z
x,1/2-y,z
loop_
_atom_site_type_symbol
_atom_site_label
_atom_site_fract_x
_atom_site_fract_y
_atom_site_fract_z
Si Si1 0.605800 0.904582 0.075391
Si Si2 0.613022 0.850144 0.905065
Si Si3 0.945901 0.993648 0.061698
Si Si4 0.045796 0.857393 0.364926
Si Si5 0.260597 0.848439 0.973610
Si Si6 0.265193 0.505638 0.385511
Si Si7 0.966112 0.854213 0.659007
Si Si8 0.181566 0.855592 0.621837
O O1 0.843563 0.912864 0.228516
O O2 0.580236 0.842680 0.982254
O O3 0.499629 0.857620 0.091882
O O4 0.500000 0.000000 0.000000
O O5 0.646773 0.750000 0.888389
O O6 0.409479 0.896746 0.752379
O O7 0.813816 0.905036 0.000023
O O8 0.142671 0.993283 0.231048
O O9 0.808327 0.080371 0.999934
O O10 0.000000 0.000000 0.000000
O O11 0.031895 0.750000 0.338520
O O12 0.221129 0.902070 0.410257
O O13 0.081631 0.876597 0.479432
O O14 0.213177 0.750000 0.982899
O O15 0.154220 0.863906 0.826692
O O16 0.500000 0.500000 0.500000
O O17 0.212593 0.418051 0.410111
O O18 0.888779 0.750000 0.610705
O O19 0.038407 0.891785 0.612549
O O20 0.210751 0.750000 0.655161
#
# Coordination Sequence:
#
# PCOD8072582 Si02
#       8
#     4   4   4   4   4   4   4   4
#     4  12  20  37  63  95 124 158 196 245 313 380
#     4  11  21  38  66  92 120 160 203 253 313 373
#     4  11  25  42  60  85 120 156 213 263 294 357
#     4  11  24  41  62  94 131 160 197 254 310 369
#     4  10  19  36  63  89 118 155 196 246 307 366
#     4  11  25  42  59  86 117 166 214 244 303 364
#     4   9  18  38  63  88 119 154 196 249 299 363
#     4   9  20  37  61  95 124 152 195 244 310 374
#
# _framework density 19.782582999999999
#
# number of rings (size 3 to 8) (size 9 to 14) (size 15 to 20)
#    0.000    1.500    3.750    1.875    1.750    1.500 
#    2.250    0.000    0.000    0.000    0.000    0.000 
#    0.000    0.000    0.000    0.000    0.000    0.000 
#
# Total GULP energy -396757.412387 kJ/mol
# GULP energy per Si atom -12398.669137 kJ/mol
# Density = 1.973756 g / cm^3
# Si number density = 19.782583 Si / 1000 Ang^3
#
#
#
# Elastic Constant Matrix: (Units=GPa)
#
#
# Indices 1 2 3 4 5 6 
#
# 1 144.1141 62.5744 52.2731 0.0000 8.5420 0.0000
# 2 62.5744 110.4570 43.8526 0.0000 10.4472 0.0000
# 3 52.2731 43.8526 107.0719 0.0000 15.5812 0.0000
# 4 0.0000 0.0000 0.0000 22.7395 0.0000 0.4259
# 5 8.5420 10.4472 15.5812 0.0000 39.5717 0.0000
# 6 0.0000 0.0000 0.0000 0.4259 0.0000 10.8704
#
#
#
# Elastic Compliance Matrix: (Units=1/GPa)
#
#
# Indices 1 2 3 4 5 6 
#
# 1 0.009975 -0.004450 -0.003082 0.000000 0.000235 0.000000
# 2 -0.004450 0.012848 -0.002902 0.000000 -0.001289 0.000000
# 3 -0.003082 -0.002902 0.012543 0.000000 -0.003507 0.000000
# 4 0.000000 0.000000 0.000000 0.044009 0.000000 -0.001724
# 5 0.000235 -0.001289 -0.003507 0.000000 0.026941 0.000000
# 6 0.000000 0.000000 0.000000 -0.001724 0.000000 0.092061
#
#
# Mechanical properties :
#
#
# Convention : Reuss Voigt Hill
#
# Bulk Modulus (GPa) = 68.96959 75.44922 72.20941
# Shear Modulus (GPa) = 22.31386 28.16585 25.23985
#
# Velocity S-wave (km/s) = 3.36215 3.77738 3.57580
# Velocity P-wave (km/s) = 7.07188 7.56616 7.32319
#
# Compressibility (1/GPa) = 0.01449914
#
# Stress axis : x y z
#
# Youngs Moduli (GPa) = 100.25301 77.83241 79.72575
#
# Poissons Ratio (x) = 0.34632 0.24568
# Poissons Ratio (y) = 0.44608 0.23138
# Poissons Ratio (z) = 0.30893 0.22589
#
# Static dielectric constant tensor:
#      x y z
#    x 3.632530 0.000000 0.031870 
#    y 0.000000 3.736080 0.000000 
#    z 0.031870 0.000000 3.546970 
# 
# 
# High freq. dielectric constant tensor:
#      x y z
#    x 1.761660 0.000000 0.002480 
#    y 0.000000 1.777840 0.000000 
#    z 0.002480 0.000000 1.762160 
# 
# From -- ./inp_files/59530.got.cif
#   From: 2010.06.25/outbox.cif.g09.slc.cpg/sg11_30_cif.got.tgz:59530.got - 2010.06.27 23:14:04.
