data_PCOD8072116
_publ_section_title
;
Structure prediction by ZEFSAII (Michael W. Deem and Ramdas Pophale) SiO2 
 PCOD8072116
Probable space group: P 21/M
;
_chemical_formula_sum "Si O2"
_cell_formula_units_Z 28
_cell_length_a 21.471272
_cell_length_b 8.787553
_cell_length_c 14.529659
_cell_angle_alpha 90.000000
_cell_angle_beta 30.593512
_cell_angle_gamma 90.000000
_cell_volume 1395.247023
_symmetry_space_group_name_H-M "P 21/M"
_symmetry_group_IT_number 11
_symmetry_cell_setting 'monoclinic'
loop_
_space_group_symop_operation_xyz
x,y,z
-x,1/2+y,-z
-x,-y,-z
x,1/2-y,z
loop_
_atom_site_type_symbol
_atom_site_label
_atom_site_fract_x
_atom_site_fract_y
_atom_site_fract_z
Si Si1 0.946781 0.424456 0.156973
Si Si2 0.385384 0.930115 0.197251
Si Si3 0.320988 0.570220 0.477091
Si Si4 0.118227 0.928179 0.241462
Si Si5 0.837729 0.572135 0.624346
Si Si6 0.823183 0.926064 0.018344
Si Si7 0.384294 0.569824 0.597806
O O1 0.927862 0.250000 0.154947
O O2 0.816377 0.499361 0.348560
O O3 0.000000 0.500000 0.000000
O O4 0.036932 0.444993 0.128234
O O5 0.393065 0.750000 0.179506
O O6 0.391669 0.986640 0.295883
O O7 0.257185 0.983289 0.318295
O O8 0.500000 0.000000 0.000000
O O9 0.310135 0.750000 0.485398
O O10 0.390298 0.521389 0.482503
O O11 0.141459 0.750000 0.224574
O O12 0.974160 0.964827 0.415183
O O13 0.176530 0.015554 0.253214
O O14 0.191003 0.988572 0.060320
O O15 0.807778 0.750000 0.658826
O O16 0.785728 0.750000 0.054675
O O17 0.738299 0.003454 0.202357
O O18 0.500000 0.500000 0.500000
O O19 0.384199 0.750000 0.609659
#
# Coordination Sequence:
#
# PCOD8072116 Si02
#       7
#     4   4   4   4   4   4   4
#     4  10  19  34  58  88 118 151 191 238 296 356
#     4  11  23  41  63  87 118 159 208 256 305 363
#     4   9  20  39  62  85 116 157 195 243 303 355
#     4  10  21  37  61  90 121 159 199 244 299 361
#     4  10  21  39  61  89 122 155 197 251 308 361
#     4  11  22  36  58  90 123 156 196 244 300 361
#     4  11  23  41  61  82 116 158 204 249 297 359
#
# _framework density 20.068131000000001
#
# number of rings (size 3 to 8) (size 9 to 14) (size 15 to 20)
#    0.000    1.714    1.429    3.000    0.000    4.571 
#    0.000    8.571    0.000    0.000    0.000    0.000 
#    0.000    0.000    0.000    0.000    0.000    0.000 
#
# Total GULP energy -347241.018586 kJ/mol
# GULP energy per Si atom -12401.464950 kJ/mol
# Density = 2.002246 g / cm^3
# Si number density = 20.068131 Si / 1000 Ang^3
#
#
#
# Elastic Constant Matrix: (Units=GPa)
#
#
# Indices 1 2 3 4 5 6 
#
# 1 129.1435 42.4513 70.0787 0.0000 15.9914 0.0000
# 2 42.4513 77.9298 39.5383 0.0000 5.7043 0.0000
# 3 70.0787 39.5383 112.2796 0.0000 19.7738 0.0000
# 4 0.0000 0.0000 0.0000 33.8900 0.0000 -0.7356
# 5 15.9914 5.7043 19.7738 0.0000 41.8010 0.0000
# 6 0.0000 0.0000 0.0000 -0.7356 0.0000 33.4605
#
#
#
# Elastic Compliance Matrix: (Units=1/GPa)
#
#
# Indices 1 2 3 4 5 6 
#
# 1 0.012492 -0.003495 -0.006337 0.000000 -0.001305 0.000000
# 2 -0.003495 0.016611 -0.003823 0.000000 0.000879 0.000000
# 3 -0.006337 -0.003823 0.014933 0.000000 -0.004118 0.000000
# 4 0.000000 0.000000 0.000000 0.029521 0.000000 0.000649
# 5 -0.001305 0.000879 -0.004118 0.000000 0.026250 0.000000
# 6 0.000000 0.000000 0.000000 0.000649 0.000000 0.029900
#
#
# Mechanical properties :
#
#
# Convention : Reuss Voigt Hill
#
# Bulk Modulus (GPa) = 59.78144 69.27660 64.52902
# Shear Modulus (GPa) = 30.75191 32.98261 31.86726
#
# Velocity S-wave (km/s) = 3.91880 4.05845 3.98924
# Velocity P-wave (km/s) = 7.09436 7.52044 7.31050
#
# Compressibility (1/GPa) = 0.01672760
#
# Stress axis : x y z
#
# Youngs Moduli (GPa) = 80.05107 60.20099 66.96688
#
# Poissons Ratio (x) = 0.21037 0.42434
# Poissons Ratio (y) = 0.27974 0.25602
# Poissons Ratio (z) = 0.50724 0.23015
#
# Static dielectric constant tensor:
#      x y z
#    x 4.186420 0.000000 -0.000390 
#    y 0.000000 3.649160 0.000000 
#    z -0.000390 0.000000 3.753400 
# 
# 
# High freq. dielectric constant tensor:
#      x y z
#    x 1.793930 0.000000 0.008570 
#    y 0.000000 1.778590 0.000000 
#    z 0.008570 0.000000 1.782740 
# 
# From -- ./inp_files/54465.got.cif
#   From: 2010.06.25/outbox.cif.g09.slc.cpg/sg11_28_cif.got.tgz:54465.got - 2010.06.27 23:14:04.
