data_PCOD8072088
_publ_section_title
;
Structure prediction by ZEFSAII (Michael W. Deem and Ramdas Pophale) SiO2 
 PCOD8072088
Probable space group: P 21/M
;
_chemical_formula_sum "Si O2"
_cell_formula_units_Z 28
_cell_length_a 15.299504
_cell_length_b 8.705332
_cell_length_c 19.293409
_cell_angle_alpha 90.000000
_cell_angle_beta 143.083325
_cell_angle_gamma 90.000000
_cell_volume 1543.459594
_symmetry_space_group_name_H-M "P 21/M"
_symmetry_group_IT_number 11
_symmetry_cell_setting 'monoclinic'
loop_
_space_group_symop_operation_xyz
x,y,z
-x,1/2+y,-z
-x,-y,-z
x,1/2-y,z
loop_
_atom_site_type_symbol
_atom_site_label
_atom_site_fract_x
_atom_site_fract_y
_atom_site_fract_z
Si Si1 0.241171 0.566429 0.914758
Si Si2 0.375691 0.571106 0.620706
Si Si3 0.381374 0.066647 0.475677
Si Si4 0.068128 0.417883 0.272275
Si Si5 0.760363 0.068541 0.243676
Si Si6 0.917394 0.918256 0.554846
Si Si7 0.510822 0.568987 0.175333
O O1 0.230504 0.750000 0.908670
O O2 0.268670 0.512462 0.853431
O O3 0.085056 0.498967 0.844933
O O4 0.370547 0.505206 0.044994
O O5 0.393978 0.750000 0.619275
O O6 0.414927 0.483677 0.575080
O O7 0.211739 0.536760 0.544303
O O8 0.489266 0.514159 0.750454
O O9 0.381040 0.250000 0.472998
O O10 0.221737 0.999798 0.350373
O O11 0.500000 0.000000 0.500000
O O12 0.070662 0.250000 0.238659
O O13 0.063614 0.400050 0.351570
O O14 0.730417 0.250000 0.232933
O O15 0.924900 0.027518 0.373529
O O16 0.655254 0.971323 0.225101
O O17 0.875547 0.750000 0.497828
O O18 0.500734 0.750000 0.179999
#
# Coordination Sequence:
#
# PCOD8072088 Si02
#       7
#     4   4   4   4   4   4   4
#     4   8  15  29  49  71  96 130 170 206 242 285
#     4  11  22  35  50  70  99 132 165 201 245 295
#     4  10  19  34  58  84 106 125 150 190 240 296
#     4   7  12  26  49  74  97 123 155 193 239 286
#     4   9  17  31  50  71  96 128 169 213 253 292
#     4   8  15  30  50  69  93 126 163 205 250 294
#     4  11  21  31  46  69  99 134 170 208 246 287
#
# _framework density 18.141065000000001
#
# number of rings (size 3 to 8) (size 9 to 14) (size 15 to 20)
#    0.000    2.857    0.000    5.143    0.000    1.143 
#    0.000    0.714    0.000    9.429    0.000    0.000 
#    0.000    0.000    0.000    0.000    0.000    0.000 
#
# Total GULP energy -346914.707078 kJ/mol
# GULP energy per Si atom -12389.810967 kJ/mol
# Density = 1.809978 g / cm^3
# Si number density = 18.141065 Si / 1000 Ang^3
#
#
#
# Elastic Constant Matrix: (Units=GPa)
#
#
# Indices 1 2 3 4 5 6 
#
# 1 100.7741 17.8481 41.1436 0.0000 15.4109 0.0000
# 2 17.8481 53.8771 17.8151 0.0000 0.8825 0.0000
# 3 41.1436 17.8151 81.4695 0.0000 -1.3559 0.0000
# 4 0.0000 0.0000 0.0000 15.5211 0.0000 -0.9979
# 5 15.4109 0.8825 -1.3559 0.0000 19.8913 0.0000
# 6 0.0000 0.0000 0.0000 -0.9979 0.0000 26.2020
#
#
#
# Elastic Compliance Matrix: (Units=1/GPa)
#
#
# Indices 1 2 3 4 5 6 
#
# 1 0.015219 -0.002408 -0.007362 0.000000 -0.012186 0.000000
# 2 -0.002408 0.020416 -0.003236 0.000000 0.000739 0.000000
# 3 -0.007362 -0.003236 0.016817 0.000000 0.006994 0.000000
# 4 0.000000 0.000000 0.000000 0.064587 0.000000 0.002460
# 5 -0.012186 0.000739 0.006994 0.000000 0.060159 0.000000
# 6 0.000000 0.000000 0.000000 0.002460 0.000000 0.038259
#
#
# Mechanical properties :
#
#
# Convention : Reuss Voigt Hill
#
# Bulk Modulus (GPa) = 37.82186 43.30383 40.56285
# Shear Modulus (GPa) = 19.97751 22.94379 21.46065
#
# Velocity S-wave (km/s) = 3.32208 3.56018 3.44319
# Velocity P-wave (km/s) = 5.96733 6.38923 6.18188
#
# Compressibility (1/GPa) = 0.02643973
#
# Stress axis : x y z
#
# Youngs Moduli (GPa) = 65.70747 48.98034 59.46490
#
# Poissons Ratio (x) = 0.11793 0.43779
# Poissons Ratio (y) = 0.15820 0.19245
# Poissons Ratio (z) = 0.48375 0.15851
#
# Static dielectric constant tensor:
#      x y z
#    x 3.317530 0.000000 0.377720 
#    y 0.000000 3.063870 0.000000 
#    z 0.377720 0.000000 3.736850 
# 
# 
# High freq. dielectric constant tensor:
#      x y z
#    x 1.679930 0.000000 0.018600 
#    y 0.000000 1.676040 0.000000 
#    z 0.018600 0.000000 1.703580 
# 
# From -- ./inp_files/60148.got.cif
#   From: 2010.06.25/outbox.cif.g09.slc.cpg/sg11_31_cif.got.tgz:60148.got - 2010.06.27 23:14:04.
