data_PCOD8072850
_publ_section_title
;
Structure prediction by ZEFSAII (Michael W. Deem and Ramdas Pophale) SiO2 
 PCOD8072850
Probable space group: P 21/M
;
_chemical_formula_sum "Si O2"
_cell_formula_units_Z 28
_cell_length_a 13.841850
_cell_length_b 9.383812
_cell_length_c 14.219764
_cell_angle_alpha 90.000000
_cell_angle_beta 118.705857
_cell_angle_gamma 90.000000
_cell_volume 1619.994295
_symmetry_space_group_name_H-M "P 21/M"
_symmetry_group_IT_number 11
_symmetry_cell_setting 'monoclinic'
loop_
_space_group_symop_operation_xyz
x,y,z
-x,1/2+y,-z
-x,-y,-z
x,1/2-y,z
loop_
_atom_site_type_symbol
_atom_site_label
_atom_site_fract_x
_atom_site_fract_y
_atom_site_fract_z
Si Si1 0.978807 0.585331 0.130836
Si Si2 0.620008 0.413560 0.237779
Si Si3 0.390522 0.412075 0.936847
Si Si4 0.013087 0.083408 0.651199
Si Si5 0.169470 0.585419 0.077816
Si Si6 0.157419 0.587765 0.579220
Si Si7 0.370666 0.411112 0.137319
O O1 0.940856 0.750000 0.107683
O O2 0.097257 0.565620 0.137480
O O3 0.991403 0.530747 0.243503
O O4 0.888030 0.490108 0.037371
O O5 0.609063 0.250000 0.198328
O O6 0.672298 0.507562 0.177017
O O7 0.709186 0.430018 0.363664
O O8 0.497379 0.465231 0.210474
O O9 0.414052 0.250000 0.917311
O O10 0.500000 0.500000 0.000000
O O11 0.330188 0.416506 0.009257
O O12 0.038626 0.250000 0.660340
O O13 0.896036 0.046448 0.546204
O O14 0.110603 0.007258 0.641330
O O15 0.186870 0.750000 0.060241
O O16 0.288152 0.513977 0.155150
O O17 0.126803 0.750000 0.590063
O O18 0.360041 0.250000 0.170978
#
# Coordination Sequence:
#
# PCOD8072850 Si02
#       7
#     4   4   4   4   4   4   4
#     4   9  19  35  51  69  95 125 157 194 241 288
#     4   9  18  31  46  67  96 126 156 192 233 280
#     4   9  17  28  42  62  90 124 158 188 225 273
#     4   9  18  33  52  71  95 126 156 193 241 286
#     4  10  20  32  49  72  94 122 161 200 235 277
#     4   9  18  32  50  74  98 122 158 196 231 281
#     4   9  18  31  45  64  94 128 156 188 233 284
#
# _framework density 17.284011
#
# number of rings (size 3 to 8) (size 9 to 14) (size 15 to 20)
#    0.000    2.857    0.000    1.714    2.000    4.571 
#    0.000    0.000    0.000    0.857    0.000    0.000 
#    0.000    0.000    0.000    0.000    0.000    0.714 
#
# Total GULP energy -346982.921349 kJ/mol
# GULP energy per Si atom -12392.247191 kJ/mol
# Density = 1.724467 g / cm^3
# Si number density = 17.284011 Si / 1000 Ang^3
#
#
#
# Elastic Constant Matrix: (Units=GPa)
#
#
# Indices 1 2 3 4 5 6 
#
# 1 84.0635 37.6135 46.2054 0.0000 12.6450 0.0000
# 2 37.6135 68.4270 28.3860 0.0000 3.1668 0.0000
# 3 46.2054 28.3860 91.9978 0.0000 3.2304 0.0000
# 4 0.0000 0.0000 0.0000 19.3758 0.0000 0.9569
# 5 12.6450 3.1668 3.2304 0.0000 27.3366 0.0000
# 6 0.0000 0.0000 0.0000 0.9569 0.0000 28.4581
#
#
#
# Elastic Compliance Matrix: (Units=1/GPa)
#
#
# Indices 1 2 3 4 5 6 
#
# 1 0.020876 -0.007887 -0.007777 0.000000 -0.007824 0.000000
# 2 -0.007887 0.019788 -0.002201 0.000000 0.001616 0.000000
# 3 -0.007777 -0.002201 0.015383 0.000000 0.002034 0.000000
# 4 0.000000 0.000000 0.000000 0.051697 0.000000 -0.001738
# 5 -0.007824 0.001616 0.002034 0.000000 0.039773 0.000000
# 6 0.000000 0.000000 0.000000 -0.001738 0.000000 0.035198
#
#
# Mechanical properties :
#
#
# Convention : Reuss Voigt Hill
#
# Bulk Modulus (GPa) = 49.21833 52.09980 50.65906
# Shear Modulus (GPa) = 22.20087 23.85299 23.02693
#
# Velocity S-wave (km/s) = 3.58784 3.71895 3.65398
# Velocity P-wave (km/s) = 6.76029 6.97492 6.86845
#
# Compressibility (1/GPa) = 0.02031763
#
# Stress axis : x y z
#
# Youngs Moduli (GPa) = 47.90155 50.53592 65.00575
#
# Poissons Ratio (x) = 0.39859 0.50552
# Poissons Ratio (y) = 0.37781 0.14308
# Poissons Ratio (z) = 0.37251 0.11123
#
# Static dielectric constant tensor:
#      x y z
#    x 3.109080 0.000000 0.080650 
#    y 0.000000 3.470700 0.000000 
#    z 0.080650 0.000000 4.494690 
# 
# 
# High freq. dielectric constant tensor:
#      x y z
#    x 1.651270 0.000000 0.020010 
#    y 0.000000 1.672280 0.000000 
#    z 0.020010 0.000000 1.648670 
# 
# From -- ./inp_files/51454.got.cif
#   From: 2010.06.25/outbox.cif.g09.slc.cpg/sg11_26_cif.got.tgz:51454.got - 2010.06.27 23:14:04.
