data_PCOD8072750
_publ_section_title
;
Structure prediction by ZEFSAII (Michael W. Deem and Ramdas Pophale) SiO2 
 PCOD8072750
Probable space group: P 21/M
;
_chemical_formula_sum "Si O2"
_cell_formula_units_Z 32
_cell_length_a 16.274730
_cell_length_b 9.286768
_cell_length_c 14.043306
_cell_angle_alpha 90.000000
_cell_angle_beta 94.073813
_cell_angle_gamma 90.000000
_cell_volume 2117.137437
_symmetry_space_group_name_H-M "P 21/M"
_symmetry_group_IT_number 11
_symmetry_cell_setting 'monoclinic'
loop_
_space_group_symop_operation_xyz
x,y,z
-x,1/2+y,-z
-x,-y,-z
x,1/2-y,z
loop_
_atom_site_type_symbol
_atom_site_label
_atom_site_fract_x
_atom_site_fract_y
_atom_site_fract_z
Si Si1 0.934243 0.580474 0.930902
Si Si2 0.143643 0.081710 0.669447
Si Si3 0.706631 0.583042 0.192231
Si Si4 0.245918 0.083453 0.018705
Si Si5 0.600061 0.412826 0.920728
Si Si6 0.982867 0.917865 0.725954
Si Si7 0.077369 0.414485 0.472831
Si Si8 0.551500 0.412804 0.136441
O O1 0.946702 0.750000 0.945529
O O2 0.945598 0.531132 0.822771
O O3 0.843784 0.532305 0.955974
O O4 0.000000 0.500000 0.000000
O O5 0.131555 0.250000 0.690725
O O6 0.228437 0.028672 0.723510
O O7 0.150481 0.050647 0.554857
O O8 0.066730 0.001606 0.710611
O O9 0.683074 0.750000 0.202918
O O10 0.747030 0.554979 0.092956
O O11 0.624310 0.490307 0.200555
O O12 0.262068 0.250000 0.044624
O O13 0.312005 0.990237 0.082759
O O14 0.606259 0.250000 0.882319
O O15 0.533017 0.500010 0.853169
O O16 0.572892 0.413250 0.027512
O O17 0.005663 0.750000 0.731134
O O18 0.911352 0.948569 0.639123
O O19 0.052857 0.250000 0.482871
O O20 0.000000 0.500000 0.500000
O O21 0.540848 0.250000 0.173231
#
# Coordination Sequence:
#
# PCOD8072750 Si02
#       8
#     4   4   4   4   4   4   4   4
#     4  10  20  31  42  57  79 108 140 172 203 233
#     4   9  16  26  41  59  79 105 134 163 199 241
#     4   9  16  25  37  54  77 103 130 159 190 228
#     4   9  17  28  39  52  74 104 135 164 193 226
#     4   9  16  26  40  56  74  98 129 161 190 224
#     4   9  17  28  41  57  78 104 135 171 205 235
#     4   8  14  25  40  57  76  99 129 164 201 240
#     4   9  16  25  38  56  77 101 126 153 189 231
#
# _framework density 15.114750000000001
#
# number of rings (size 3 to 8) (size 9 to 14) (size 15 to 20)
#    0.000    3.000    0.000    1.500    0.000    5.500 
#    0.000    2.500    0.000    0.000    0.000    0.000 
#    0.000    1.000    0.000    1.750    0.000    2.500 
#
# Total GULP energy -396530.244915 kJ/mol
# GULP energy per Si atom -12391.570154 kJ/mol
# Density = 1.508035 g / cm^3
# Si number density = 15.114750 Si / 1000 Ang^3
#
#
#
# Elastic Constant Matrix: (Units=GPa)
#
#
# Indices 1 2 3 4 5 6 
#
# 1 121.7801 55.8792 55.2173 0.0000 24.8688 0.0000
# 2 55.8792 67.8720 33.9348 0.0000 13.0915 0.0000
# 3 55.2173 33.9348 88.3368 0.0000 20.1778 0.0000
# 4 0.0000 0.0000 0.0000 14.2381 0.0000 4.8066
# 5 24.8688 13.0915 20.1778 0.0000 21.5333 0.0000
# 6 0.0000 0.0000 0.0000 4.8066 0.0000 26.6248
#
#
#
# Elastic Compliance Matrix: (Units=1/GPa)
#
#
# Indices 1 2 3 4 5 6 
#
# 1 0.016518 -0.009572 -0.004605 0.000000 -0.008941 0.000000
# 2 -0.009572 0.024361 -0.003203 0.000000 -0.000755 0.000000
# 3 -0.004605 -0.003203 0.017520 0.000000 -0.009151 0.000000
# 4 0.000000 0.000000 0.000000 0.074793 0.000000 -0.013503
# 5 -0.008941 -0.000755 -0.009151 0.000000 0.065800 0.000000
# 6 0.000000 0.000000 0.000000 -0.013503 0.000000 0.039997
#
#
# Mechanical properties :
#
#
# Convention : Reuss Voigt Hill
#
# Bulk Modulus (GPa) = 42.30400 63.11684 52.71042
# Shear Modulus (GPa) = 17.75398 21.34306 19.54852
#
# Velocity S-wave (km/s) = 3.43098 3.76183 3.60021
# Velocity P-wave (km/s) = 6.61399 7.79215 7.22711
#
# Compressibility (1/GPa) = 0.02363843
#
# Stress axis : x y z
#
# Youngs Moduli (GPa) = 60.54127 41.04914 57.07881
#
# Poissons Ratio (x) = 0.39291 0.26287
# Poissons Ratio (y) = 0.57949 0.18281
# Poissons Ratio (z) = 0.27882 0.13147
#
# Static dielectric constant tensor:
#      x y z
#    x 2.825760 0.000000 0.291040 
#    y 0.000000 2.977540 0.000000 
#    z 0.291040 0.000000 3.107480 
# 
# 
# High freq. dielectric constant tensor:
#      x y z
#    x 1.560910 0.000000 0.028080 
#    y 0.000000 1.585860 0.000000 
#    z 0.028080 0.000000 1.550150 
# 
# From -- ./inp_files/51338.got.cif
#   From: 2010.06.25/outbox.cif.g09.slc.cpg/sg11_26_cif.got.tgz:51338.got - 2010.06.27 23:14:04.
