data_PCOD8072400
_publ_section_title
;
Structure prediction by ZEFSAII (Michael W. Deem and Ramdas Pophale) SiO2 
 PCOD8072400
Probable space group: P 21/M
;
_chemical_formula_sum "Si O2"
_cell_formula_units_Z 32
_cell_length_a 12.170856
_cell_length_b 16.509124
_cell_length_c 15.547739
_cell_angle_alpha 90.000000
_cell_angle_beta 30.156231
_cell_angle_gamma 90.000000
_cell_volume 1569.376244
_symmetry_space_group_name_H-M "P 21/M"
_symmetry_group_IT_number 11
_symmetry_cell_setting 'monoclinic'
loop_
_space_group_symop_operation_xyz
x,y,z
-x,1/2+y,-z
-x,-y,-z
x,1/2-y,z
loop_
_atom_site_type_symbol
_atom_site_label
_atom_site_fract_x
_atom_site_fract_y
_atom_site_fract_z
Si Si1 0.588734 0.658835 0.156505
Si Si2 0.198646 0.105188 0.817838
Si Si3 0.130958 0.661247 0.385064
Si Si4 0.331687 0.343434 0.539916
Si Si5 0.055825 0.937321 0.271650
Si Si6 0.725960 0.073697 0.191208
Si Si7 0.150902 0.447404 0.335718
Si Si8 0.622176 0.485472 0.079916
O O1 0.670570 0.750000 0.072255
O O2 0.640248 0.645656 0.221909
O O3 0.329832 0.652602 0.317333
O O4 0.689148 0.581643 0.036313
O O5 0.264389 0.146219 0.684137
O O6 0.221963 0.008265 0.791488
O O7 0.947857 0.122083 0.016702
O O8 0.104119 0.750000 0.365831
O O9 0.175654 0.608267 0.269573
O O10 0.911664 0.642648 0.590293
O O11 0.298646 0.250000 0.536278
O O12 0.580755 0.369392 0.351373
O O13 0.183252 0.400605 0.579895
O O14 0.066922 0.031728 0.295535
O O15 0.186207 0.933082 0.094094
O O16 0.593872 0.049160 0.194789
O O17 0.404608 0.467854 0.173691
O O18 0.000000 0.500000 0.500000
#
# Coordination Sequence:
#
# PCOD8072400 Si02
#       8
#     4   4   4   4   4   4   4   4
#     4  10  21  37  62  86 119 162 202 259 319 367
#     4  10  22  43  67  91 124 166 218 264 316 375
#     4  10  21  39  59  89 123 159 205 256 315 368
#     4  12  25  41  64  96 132 166 208 269 327 374
#     4  11  22  37  62  92 123 164 208 255 308 384
#     4  10  22  42  67  95 122 168 218 262 310 389
#     4  10  19  35  61  86 117 164 202 252 302 380
#     4  11  20  39  63  91 123 165 213 248 315 379
#
# _framework density 20.390266
#
# number of rings (size 3 to 8) (size 9 to 14) (size 15 to 20)
#    0.000    1.500    3.750    3.000    1.750    1.000 
#    0.000    1.875    0.000    0.000    0.000    0.000 
#    0.000    0.000    0.000    0.000    0.000    0.000 
#
# Total GULP energy -396486.770302 kJ/mol
# GULP energy per Si atom -12390.211572 kJ/mol
# Density = 2.034386 g / cm^3
# Si number density = 20.390266 Si / 1000 Ang^3
#
#
#
# Elastic Constant Matrix: (Units=GPa)
#
#
# Indices 1 2 3 4 5 6 
#
# 1 86.3519 27.8393 30.0492 0.0000 -4.4872 0.0000
# 2 27.8393 89.1226 39.8298 0.0000 4.7840 0.0000
# 3 30.0492 39.8298 110.7034 0.0000 1.2071 0.0000
# 4 0.0000 0.0000 0.0000 21.5294 0.0000 -2.4084
# 5 -4.4872 4.7840 1.2071 0.0000 21.3928 0.0000
# 6 0.0000 0.0000 0.0000 -2.4084 0.0000 17.1343
#
#
#
# Elastic Compliance Matrix: (Units=1/GPa)
#
#
# Indices 1 2 3 4 5 6 
#
# 1 0.013751 -0.003350 -0.002568 0.000000 0.003778 0.000000
# 2 -0.003350 0.014347 -0.004212 0.000000 -0.003673 0.000000
# 3 -0.002568 -0.004212 0.011248 0.000000 -0.000231 0.000000
# 4 0.000000 0.000000 0.000000 0.047190 0.000000 0.006633
# 5 0.003778 -0.003673 -0.000231 0.000000 0.048372 0.000000
# 6 0.000000 0.000000 0.000000 0.006633 0.000000 0.059295
#
#
# Mechanical properties :
#
#
# Convention : Reuss Voigt Hill
#
# Bulk Modulus (GPa) = 52.40008 53.51270 52.95639
# Shear Modulus (GPa) = 22.64228 24.57527 23.60878
#
# Velocity S-wave (km/s) = 3.33595 3.47543 3.40640
# Velocity P-wave (km/s) = 6.37122 6.51199 6.44199
#
# Compressibility (1/GPa) = 0.01908394
#
# Stress axis : x y z
#
# Youngs Moduli (GPa) = 72.72351 69.70215 88.90209
#
# Poissons Ratio (x) = 0.23353 0.22832
# Poissons Ratio (y) = 0.24365 0.37448
# Poissons Ratio (z) = 0.18677 0.29361
#
# Static dielectric constant tensor:
#      x y z
#    x 3.798280 0.000000 -0.010210 
#    y 0.000000 4.770840 0.000000 
#    z -0.010210 0.000000 4.022430 
# 
# 
# High freq. dielectric constant tensor:
#      x y z
#    x 1.805270 0.000000 -0.003900 
#    y 0.000000 1.790200 0.000000 
#    z -0.003900 0.000000 1.778440 
# 
# From -- ./inp_files/50656.got.cif
#   From: 2010.06.25/outbox.cif.g09.slc.cpg/sg11_26_cif.got.tgz:50656.got - 2010.06.27 23:14:04.
