data_PCOD8072277
_publ_section_title
;
Structure prediction by ZEFSAII (Michael W. Deem and Ramdas Pophale) SiO2 
 PCOD8072277
Probable space group: P 21/M
;
_chemical_formula_sum "Si O2"
_cell_formula_units_Z 32
_cell_length_a 11.887003
_cell_length_b 8.981202
_cell_length_c 33.050737
_cell_angle_alpha 90.000000
_cell_angle_beta 27.386698
_cell_angle_gamma 90.000000
_cell_volume 1623.079622
_symmetry_space_group_name_H-M "P 21/M"
_symmetry_group_IT_number 11
_symmetry_cell_setting 'monoclinic'
loop_
_space_group_symop_operation_xyz
x,y,z
-x,1/2+y,-z
-x,-y,-z
x,1/2-y,z
loop_
_atom_site_type_symbol
_atom_site_label
_atom_site_fract_x
_atom_site_fract_y
_atom_site_fract_z
Si Si1 0.462409 0.422793 0.613525
Si Si2 0.260335 0.574458 0.913875
Si Si3 0.858486 0.578840 0.358432
Si Si4 0.470822 0.073366 0.252651
Si Si5 0.927780 0.078351 0.416784
Si Si6 0.359813 0.580356 0.156391
Si Si7 0.265897 0.925083 0.094362
Si Si8 0.760553 0.073036 0.238723
O O1 0.395421 0.250000 0.643782
O O2 0.308072 0.483227 0.624674
O O3 0.750046 0.443347 0.512044
O O4 0.397462 0.522195 0.672556
O O5 0.227870 0.750000 0.924052
O O6 0.392696 0.515631 0.831048
O O7 0.417865 0.526762 0.902564
O O8 0.000000 0.500000 0.000000
O O9 0.793479 0.750000 0.386058
O O10 0.801335 0.495017 0.418178
O O11 0.141310 0.553689 0.257414
O O12 0.461696 0.250000 0.255989
O O13 0.616244 0.016065 0.245301
O O14 0.193641 0.008598 0.342103
O O15 0.958135 0.250000 0.395977
O O16 0.454015 0.750000 0.127694
O O17 0.264648 0.540190 0.142331
O O18 0.266969 0.750000 0.084916
O O19 0.024917 0.997460 0.152382
O O20 0.500000 0.000000 0.000000
O O21 0.793191 0.250000 0.229083
#
# Coordination Sequence:
#
# PCOD8072277 Si02
#       8
#     4   4   4   4   4   4   4   4
#     4  10  21  38  59  86 120 156 193 243 299 347
#     4  11  23  40  62  88 120 154 199 243 293 355
#     4  10  19  35  57  86 122 152 186 238 300 348
#     4   9  21  40  58  82 117 155 192 244 297 342
#     4  10  20  37  61  86 116 155 198 240 293 355
#     4  10  21  39  62  86 121 157 188 240 299 346
#     4  11  24  43  64  90 123 155 196 244 298 353
#     4  11  23  40  61  84 117 159 201 242 294 351
#
# _framework density 19.715606000000001
#
# number of rings (size 3 to 8) (size 9 to 14) (size 15 to 20)
#    0.000    1.750    2.500    1.500    1.750    2.500 
#    0.000    3.125    0.000    0.000    0.000    0.000 
#    0.000    0.000    0.000    0.000    0.000    0.000 
#
# Total GULP energy -396910.707316 kJ/mol
# GULP energy per Si atom -12403.459604 kJ/mol
# Density = 1.967073 g / cm^3
# Si number density = 19.715606 Si / 1000 Ang^3
#
#
#
# Elastic Constant Matrix: (Units=GPa)
#
#
# Indices 1 2 3 4 5 6 
#
# 1 123.7928 38.7718 42.5848 0.0000 -13.0761 0.0000
# 2 38.7718 67.1362 35.3861 0.0000 -1.9477 0.0000
# 3 42.5848 35.3861 102.0198 0.0000 -11.9776 0.0000
# 4 0.0000 0.0000 0.0000 32.8066 0.0000 1.1570
# 5 -13.0761 -1.9477 -11.9776 0.0000 31.5071 0.0000
# 6 0.0000 0.0000 0.0000 1.1570 0.0000 30.4345
#
#
#
# Elastic Compliance Matrix: (Units=1/GPa)
#
#
# Indices 1 2 3 4 5 6 
#
# 1 0.010777 -0.004845 -0.002437 0.000000 0.003247 0.000000
# 2 -0.004845 0.020460 -0.005403 0.000000 -0.002800 0.000000
# 3 -0.002437 -0.005403 0.013121 0.000000 0.003643 0.000000
# 4 0.000000 0.000000 0.000000 0.030523 0.000000 -0.001160
# 5 0.003247 -0.002800 0.003643 0.000000 0.034298 0.000000
# 6 0.000000 0.000000 0.000000 -0.001160 0.000000 0.032902
#
#
# Mechanical properties :
#
#
# Convention : Reuss Voigt Hill
#
# Bulk Modulus (GPa) = 52.66497 58.49267 55.57882
# Shear Modulus (GPa) = 28.77239 30.69673 29.73456
#
# Velocity S-wave (km/s) = 3.82432 3.95013 3.88773
# Velocity P-wave (km/s) = 6.80227 7.10896 6.95731
#
# Compressibility (1/GPa) = 0.01898795
#
# Stress axis : x y z
#
# Youngs Moduli (GPa) = 92.79326 48.87658 76.21501
#
# Poissons Ratio (x) = 0.23681 0.18571
# Poissons Ratio (y) = 0.44960 0.41178
# Poissons Ratio (z) = 0.22610 0.26407
#
# Static dielectric constant tensor:
#      x y z
#    x 3.727820 0.000000 -0.078500 
#    y 0.000000 3.426180 0.000000 
#    z -0.078500 0.000000 3.770260 
# 
# 
# High freq. dielectric constant tensor:
#      x y z
#    x 1.772780 0.000000 -0.006880 
#    y 0.000000 1.753160 0.000000 
#    z -0.006880 0.000000 1.780700 
# 
# From -- ./inp_files/73063.got.cif
#   From: 2010.06.25/outbox.cif.g09.slc.cpg/sg11_37_cif.got.tgz:73063.got - 2010.06.27 23:14:04.
