data_PCOD8072665
_publ_section_title
;
Structure prediction by ZEFSAII (Michael W. Deem and Ramdas Pophale) SiO2 
 PCOD8072665
Probable space group: P 21/M
;
_chemical_formula_sum "Si O2"
_cell_formula_units_Z 32
_cell_length_a 16.604973
_cell_length_b 16.998329
_cell_length_c 11.629782
_cell_angle_alpha 90.000000
_cell_angle_beta 30.189915
_cell_angle_gamma 90.000000
_cell_volume 1650.706329
_symmetry_space_group_name_H-M "P 21/M"
_symmetry_group_IT_number 11
_symmetry_cell_setting 'monoclinic'
loop_
_space_group_symop_operation_xyz
x,y,z
-x,1/2+y,-z
-x,-y,-z
x,1/2-y,z
loop_
_atom_site_type_symbol
_atom_site_label
_atom_site_fract_x
_atom_site_fract_y
_atom_site_fract_z
Si Si1 0.759956 0.161975 0.617808
Si Si2 0.581871 0.612854 0.885348
Si Si3 0.908846 0.921958 0.149295
Si Si4 0.612789 0.481789 0.466498
Si Si5 0.901704 0.838074 0.396677
Si Si6 0.411984 0.999769 0.930680
Si Si7 0.814550 0.158417 0.292233
Si Si8 0.095266 0.577115 0.352255
O O1 0.824025 0.250000 0.536048
O O2 0.776343 0.127926 0.468477
O O3 0.876028 0.115905 0.559325
O O4 0.577359 0.160935 0.886922
O O5 0.717000 0.668214 0.664466
O O6 0.548353 0.544744 0.834405
O O7 0.652388 0.572729 0.913675
O O8 0.924571 0.899370 0.264286
O O9 0.723463 0.940025 0.347836
O O10 0.994709 0.852277 0.969809
O O11 0.000000 0.000000 0.000000
O O12 0.500000 0.500000 0.500000
O O13 0.490555 0.467267 0.720134
O O14 0.715088 0.400106 0.329290
O O15 0.954607 0.750000 0.294119
O O16 0.006488 0.864967 0.375374
O O17 0.263704 0.943300 0.083485
O O18 0.765643 0.250000 0.334242
O O19 0.000000 0.500000 0.500000
#
# Coordination Sequence:
#
# PCOD8072665 Si02
#       8
#     4   4   4   4   4   4   4   4
#     4  10  21  39  62  90 124 159 196 249 313 374
#     4  10  19  37  63  89 119 159 201 254 299 380
#     4  10  24  41  65  86 121 163 218 254 307 375
#     4  11  23  40  65  91 118 162 214 263 306 370
#     4  12  24  41  63  94 130 165 207 261 320 378
#     4  10  20  36  60  90 121 153 208 250 306 356
#     4  10  22  42  66  90 124 163 206 260 317 374
#     4  11  24  35  61  93 128 162 199 249 310 375
#
# _framework density 19.385641
#
# number of rings (size 3 to 8) (size 9 to 14) (size 15 to 20)
#    0.000    1.500    3.750    1.125    7.000    0.000 
#    0.000    1.250    0.000    0.000    0.000    0.000 
#    0.000    0.000    0.000    0.000    0.000    0.000 
#
# Total GULP energy -396650.019506 kJ/mol
# GULP energy per Si atom -12395.313110 kJ/mol
# Density = 1.934152 g / cm^3
# Si number density = 19.385641 Si / 1000 Ang^3
#
#
#
# Elastic Constant Matrix: (Units=GPa)
#
#
# Indices 1 2 3 4 5 6 
#
# 1 125.4659 54.0131 44.4267 0.0000 -2.5165 0.0000
# 2 54.0131 99.9828 26.2570 0.0000 0.7453 0.0000
# 3 44.4267 26.2570 95.5649 0.0000 9.0974 0.0000
# 4 0.0000 0.0000 0.0000 30.3577 0.0000 2.1543
# 5 -2.5165 0.7453 9.0974 0.0000 23.1053 0.0000
# 6 0.0000 0.0000 0.0000 2.1543 0.0000 28.2485
#
#
#
# Elastic Compliance Matrix: (Units=1/GPa)
#
#
# Indices 1 2 3 4 5 6 
#
# 1 0.011852 -0.005281 -0.004361 0.000000 0.003178 0.000000
# 2 -0.005281 0.013149 -0.001104 0.000000 -0.000565 0.000000
# 3 -0.004361 -0.001104 0.013337 0.000000 -0.005690 0.000000
# 4 0.000000 0.000000 0.000000 0.033120 0.000000 -0.002526
# 5 0.003178 -0.000565 -0.005690 0.000000 0.045885 0.000000
# 6 0.000000 0.000000 0.000000 -0.002526 0.000000 0.035593
#
#
# Mechanical properties :
#
#
# Convention : Reuss Voigt Hill
#
# Bulk Modulus (GPa) = 59.36552 63.37857 61.37204
# Shear Modulus (GPa) = 27.77129 29.43009 28.60069
#
# Velocity S-wave (km/s) = 3.78904 3.90056 3.84520
# Velocity P-wave (km/s) = 7.05920 7.28357 7.17226
#
# Compressibility (1/GPa) = 0.01684480
#
# Stress axis : x y z
#
# Youngs Moduli (GPa) = 84.37520 76.05293 74.98156
#
# Poissons Ratio (x) = 0.40163 0.32702
# Poissons Ratio (y) = 0.44558 0.08277
# Poissons Ratio (z) = 0.36799 0.08395
#
# Static dielectric constant tensor:
#      x y z
#    x 3.807710 0.000000 0.094780 
#    y 0.000000 3.526640 0.000000 
#    z 0.094780 0.000000 3.845650 
# 
# 
# High freq. dielectric constant tensor:
#      x y z
#    x 1.740340 0.000000 0.003560 
#    y 0.000000 1.748810 0.000000 
#    z 0.003560 0.000000 1.768660 
# 
# From -- ./inp_files/41822.got.cif
#   From: 2010.06.25/outbox.cif.g09.slc.cpg/sg11_21_cif.got.tgz:41822.got - 2010.06.27 23:14:04.
