data_PCOD8072587
_publ_section_title
;
Structure prediction by ZEFSAII (Michael W. Deem and Ramdas Pophale) SiO2 
 PCOD8072587
Probable space group: P 21/M
;
_chemical_formula_sum "Si O2"
_cell_formula_units_Z 32
_cell_length_a 23.117243
_cell_length_b 14.332248
_cell_length_c 8.939265
_cell_angle_alpha 90.000000
_cell_angle_beta 149.192923
_cell_angle_gamma 90.000000
_cell_volume 1516.870332
_symmetry_space_group_name_H-M "P 21/M"
_symmetry_group_IT_number 11
_symmetry_cell_setting 'monoclinic'
loop_
_space_group_symop_operation_xyz
x,y,z
-x,1/2+y,-z
-x,-y,-z
x,1/2-y,z
loop_
_atom_site_type_symbol
_atom_site_label
_atom_site_fract_x
_atom_site_fract_y
_atom_site_fract_z
Si Si1 0.873320 0.094939 0.785896
Si Si2 0.925885 0.890076 0.966079
Si Si3 0.335648 0.968272 0.872362
Si Si4 0.725432 0.518370 0.932246
Si Si5 0.321585 0.352970 0.664634
Si Si6 0.830398 0.353306 0.010698
Si Si7 0.066630 0.145374 0.672190
Si Si8 0.562698 0.641008 0.391036
O O1 0.763250 0.075392 0.444695
O O2 0.927001 0.001585 0.974840
O O3 0.840250 0.157534 0.853834
O O4 0.966788 0.146231 0.890985
O O5 0.814018 0.852885 0.636111
O O6 0.934021 0.851646 0.150523
O O7 0.370889 0.070365 0.888075
O O8 0.294498 0.977476 0.949214
O O9 0.437823 0.896425 0.086467
O O10 0.619847 0.582312 0.650918
O O11 0.735744 0.429490 0.843816
O O12 0.838467 0.579107 0.184715
O O13 0.364345 0.250000 0.809342
O O14 0.362590 0.376568 0.589409
O O15 0.798172 0.250000 0.000554
O O16 0.946609 0.389141 0.343473
O O17 0.091293 0.250000 0.668930
O O18 0.558656 0.750000 0.425580
#
# Coordination Sequence:
#
# PCOD8072587 Si02
#       8
#     4   4   4   4   4   4   4   4
#     4  10  22  39  60  94 131 173 213 260 327 382
#     4  10  19  36  64  91 128 169 214 267 323 380
#     4  11  25  42  66  95 130 173 214 266 321 385
#     4  12  23  43  66  93 129 169 216 271 320 381
#     4  10  21  39  64  96 129 166 214 269 322 380
#     4  11  25  40  62  96 135 176 214 260 320 391
#     4  11  22  37  62  94 129 175 217 259 320 380
#     4  11  24  46  71  93 122 167 223 273 323 378
#
# _framework density 21.096066
#
# number of rings (size 3 to 8) (size 9 to 14) (size 15 to 20)
#    0.000    1.250    2.500    3.375    5.250    3.000 
#    0.000    1.875    0.000    0.000    0.000    0.000 
#    0.000    0.000    0.000    0.000    0.000    0.000 
#
# Total GULP energy -396923.410008 kJ/mol
# GULP energy per Si atom -12403.856563 kJ/mol
# Density = 2.104805 g / cm^3
# Si number density = 21.096066 Si / 1000 Ang^3
#
#
#
# Elastic Constant Matrix: (Units=GPa)
#
#
# Indices 1 2 3 4 5 6 
#
# 1 67.6959 32.7040 32.6923 0.0000 -2.5325 0.0000
# 2 32.7040 102.1119 44.5774 0.0000 12.2778 0.0000
# 3 32.6923 44.5774 100.2996 0.0000 2.1471 0.0000
# 4 0.0000 0.0000 0.0000 23.4342 0.0000 -1.8865
# 5 -2.5325 12.2778 2.1471 0.0000 17.2417 0.0000
# 6 0.0000 0.0000 0.0000 -1.8865 0.0000 8.2945
#
#
#
# Elastic Compliance Matrix: (Units=1/GPa)
#
#
# Indices 1 2 3 4 5 6 
#
# 1 0.019637 -0.005327 -0.004187 0.000000 0.007199 0.000000
# 2 -0.005327 0.014806 -0.004614 0.000000 -0.010751 0.000000
# 3 -0.004187 -0.004614 0.013364 0.000000 0.001006 0.000000
# 4 0.000000 0.000000 0.000000 0.043469 0.000000 0.009886
# 5 0.007199 -0.010751 0.001006 0.000000 0.066587 0.000000
# 6 0.000000 0.000000 0.000000 0.009886 0.000000 0.122810
#
#
# Mechanical properties :
#
#
# Convention : Reuss Voigt Hill
#
# Bulk Modulus (GPa) = 51.14862 54.45053 52.79957
# Shear Modulus (GPa) = 15.85057 20.46966 18.16012
#
# Velocity S-wave (km/s) = 2.74405 3.11835 2.93717
# Velocity P-wave (km/s) = 5.85986 6.23156 6.04856
#
# Compressibility (1/GPa) = 0.01955087
#
# Stress axis : x y z
#
# Youngs Moduli (GPa) = 50.92481 67.53880 74.82737
#
# Poissons Ratio (x) = 0.35977 0.31332
# Poissons Ratio (y) = 0.27127 0.34526
# Poissons Ratio (z) = 0.21323 0.31163
#
# Static dielectric constant tensor:
#      x y z
#    x 3.782330 0.000000 0.038210 
#    y 0.000000 3.957450 0.000000 
#    z 0.038210 0.000000 3.680470 
# 
# 
# High freq. dielectric constant tensor:
#      x y z
#    x 1.823880 0.000000 -0.002500 
#    y 0.000000 1.839590 0.000000 
#    z -0.002500 0.000000 1.816130 
# 
# From -- ./inp_files/27808.got.cif
#   From: 2010.06.25/outbox.cif.g09.slc.cpg/sg11_14_cif.got.tgz:27808.got - 2010.06.27 23:14:04.
