data_PCOD8072386
_publ_section_title
;
Structure prediction by ZEFSAII (Michael W. Deem and Ramdas Pophale) SiO2 
 PCOD8072386
Probable space group: P 21/M
;
_chemical_formula_sum "Si O2"
_cell_formula_units_Z 16
_cell_length_a 10.039542
_cell_length_b 18.076281
_cell_length_c 5.163702
_cell_angle_alpha 90.000000
_cell_angle_beta 56.431432
_cell_angle_gamma 90.000000
_cell_volume 780.811664
_symmetry_space_group_name_H-M "P 21/M"
_symmetry_group_IT_number 11
_symmetry_cell_setting 'monoclinic'
loop_
_space_group_symop_operation_xyz
x,y,z
-x,1/2+y,-z
-x,-y,-z
x,1/2-y,z
loop_
_atom_site_type_symbol
_atom_site_label
_atom_site_fract_x
_atom_site_fract_y
_atom_site_fract_z
Si Si1 0.542078 0.907854 0.670380
Si Si2 0.317014 0.337152 0.993016
Si Si3 0.962887 0.562932 0.743145
Si Si4 0.258648 0.537016 0.692485
O O1 0.557854 0.866512 0.926681
O O2 0.352889 0.915454 0.806975
O O3 0.613157 0.991712 0.621802
O O4 0.624994 0.860941 0.352915
O O5 0.307277 0.250000 0.018408
O O6 0.139301 0.368136 0.257059
O O7 0.000000 0.500000 0.500000
O O8 0.136308 0.590262 0.665944
O O9 0.851272 0.528195 0.081246
#
# Coordination Sequence:
#
# PCOD8072386 Si02
#       4
#     4   4   4   4
#     4  10  21  37  61  84 112 149 194 240 287 341
#     4  11  23  39  57  81 119 159 192 236 296 352
#     4  10  19  35  60  88 115 148 194 240 288 343
#     4   9  20  34  59  90 111 142 194 249 284 330
#
# _framework density 20.491496999999999
#
# number of rings (size 3 to 8) (size 9 to 14) (size 15 to 20)
#    0.000    2.000    2.500    0.750    3.500    3.000 
#    0.000    2.500    0.000    0.000    0.000    0.000 
#    0.000    0.000    0.000    0.000    0.000    0.000 
#
# Total GULP energy -198268.244717 kJ/mol
# GULP energy per Si atom -12391.765295 kJ/mol
# Density = 2.044486 g / cm^3
# Si number density = 20.491497 Si / 1000 Ang^3
#
#
#
# Elastic Constant Matrix: (Units=GPa)
#
#
# Indices 1 2 3 4 5 6 
#
# 1 175.5604 44.8111 2.3269 0.0000 -21.6192 0.0000
# 2 44.8111 84.1093 -10.7690 0.0000 -6.9032 0.0000
# 3 2.3269 -10.7690 19.7707 0.0000 1.9904 0.0000
# 4 0.0000 0.0000 0.0000 20.8600 0.0000 2.4886
# 5 -21.6192 -6.9032 1.9904 0.0000 33.6250 0.0000
# 6 0.0000 0.0000 0.0000 2.4886 0.0000 26.2863
#
#
#
# Elastic Compliance Matrix: (Units=1/GPa)
#
#
# Indices 1 2 3 4 5 6 
#
# 1 0.007254 -0.003971 -0.003424 0.000000 0.004051 0.000000
# 2 -0.003971 0.015122 0.008700 0.000000 0.000037 0.000000
# 3 -0.003424 0.008700 0.056098 0.000000 -0.003736 0.000000
# 4 0.000000 0.000000 0.000000 0.048486 0.000000 -0.004590
# 5 0.004051 0.000037 -0.003736 0.000000 0.032573 0.000000
# 6 0.000000 0.000000 0.000000 -0.004590 0.000000 0.038477
#
#
# Mechanical properties :
#
#
# Convention : Reuss Voigt Hill
#
# Bulk Modulus (GPa) = 12.33280 39.13091 25.73186
# Shear Modulus (GPa) = 22.47920 32.35902 27.41911
#
# Velocity S-wave (km/s) = 3.31569 3.97816 3.66194
# Velocity P-wave (km/s) = 4.54863 6.34339 5.51945
#
# Compressibility (1/GPa) = 0.08108461
#
# Stress axis : x y z
#
# Youngs Moduli (GPa) = 137.85874 66.13031 17.82586
#
# Poissons Ratio (x) = 0.26257 0.06104
# Poissons Ratio (y) = 0.54738 -0.15509
# Poissons Ratio (z) = 0.47208 -0.57536
#
# Static dielectric constant tensor:
#      x y z
#    x 4.710460 0.000000 -0.627370 
#    y 0.000000 3.446690 0.000000 
#    z -0.627370 0.000000 5.125630 
# 
# 
# High freq. dielectric constant tensor:
#      x y z
#    x 1.828460 0.000000 -0.001930 
#    y 0.000000 1.752060 0.000000 
#    z -0.001930 0.000000 1.790810 
# 
# From -- ./inp_files/1592.got.cif
#   From: 2010.06.25/outbox.cif.g09.slc.cpg/sg11_1_cif.got.tgz:1592.got - 2010.06.27 23:14:04.
