data_PCOD8072010
_publ_section_title
;
Structure prediction by ZEFSAII (Michael W. Deem and Ramdas Pophale) SiO2 
 PCOD8072010
Probable space group: P 21/M
;
_chemical_formula_sum "Si O2"
_cell_formula_units_Z 28
_cell_length_a 15.091404
_cell_length_b 8.949443
_cell_length_c 18.913980
_cell_angle_alpha 90.000000
_cell_angle_beta 38.122890
_cell_angle_gamma 90.000000
_cell_volume 1577.030810
_symmetry_space_group_name_H-M "P 21/M"
_symmetry_group_IT_number 11
_symmetry_cell_setting 'monoclinic'
loop_
_space_group_symop_operation_xyz
x,y,z
-x,1/2+y,-z
-x,-y,-z
x,1/2-y,z
loop_
_atom_site_type_symbol
_atom_site_label
_atom_site_fract_x
_atom_site_fract_y
_atom_site_fract_z
Si Si1 0.345536 0.421922 0.402677
Si Si2 0.498929 0.922480 0.837736
Si Si3 0.378800 0.929176 0.528350
Si Si4 0.248243 0.428010 0.222706
Si Si5 0.237594 0.428652 0.070100
Si Si6 0.063791 0.585142 0.571352
Si Si7 0.929627 0.413166 0.265338
O O1 0.332004 0.250000 0.434301
O O2 0.462931 0.443235 0.268051
O O3 0.399384 0.519418 0.434742
O O4 0.191429 0.474422 0.468434
O O5 0.475750 0.750000 0.871688
O O6 0.625049 0.991529 0.807592
O O7 0.352009 0.009854 0.943080
O O8 0.385251 0.750000 0.526554
O O9 0.224030 0.991045 0.655283
O O10 0.500000 0.000000 0.500000
O O11 0.245318 0.250000 0.226012
O O12 0.275246 0.485259 0.125689
O O13 0.093109 0.481947 0.351250
O O14 0.234793 0.250000 0.069656
O O15 0.078384 0.492308 0.147189
O O16 0.089574 0.750000 0.521545
O O17 0.061292 0.603299 0.656654
O O18 0.924892 0.250000 0.232787
#
# Coordination Sequence:
#
# PCOD8072010 Si02
#       7
#     4   4   4   4   4   4   4
#     4  10  20  32  45  67 100 131 157 189 236 288
#     4  10  20  31  43  64  98 134 163 199 243 277
#     4  10  19  34  57  80  99 118 145 185 234 288
#     4   8  15  29  47  66  91 126 166 207 249 281
#     4   9  16  29  49  68  89 124 169 202 227 273
#     4   8  14  28  48  65  87 123 163 200 239 283
#     4   7  13  27  47  70  93 118 147 185 234 278
#
# _framework density 17.754884000000001
#
# number of rings (size 3 to 8) (size 9 to 14) (size 15 to 20)
#    0.000    3.143    0.000    3.857    0.000    1.714 
#    0.000    7.857    0.000    0.857    0.000    0.000 
#    0.000    0.000    0.000    0.000    0.000    0.000 
#
# Total GULP energy -346880.632517 kJ/mol
# GULP energy per Si atom -12388.594018 kJ/mol
# Density = 1.771447 g / cm^3
# Si number density = 17.754884 Si / 1000 Ang^3
#
#
#
# Elastic Constant Matrix: (Units=GPa)
#
#
# Indices 1 2 3 4 5 6 
#
# 1 100.7260 30.5131 61.1990 0.0000 -30.6277 0.0000
# 2 30.5131 52.4519 37.7730 0.0000 -7.7421 0.0000
# 3 61.1990 37.7730 104.6877 0.0000 -24.9905 0.0000
# 4 0.0000 0.0000 0.0000 22.8605 0.0000 -0.9739
# 5 -30.6277 -7.7421 -24.9905 0.0000 26.7265 0.0000
# 6 0.0000 0.0000 0.0000 -0.9739 0.0000 19.8296
#
#
#
# Elastic Compliance Matrix: (Units=1/GPa)
#
#
# Indices 1 2 3 4 5 6 
#
# 1 0.019880 -0.004831 -0.006146 0.000000 0.015635 0.000000
# 2 -0.004831 0.026984 -0.008198 0.000000 -0.005385 0.000000
# 3 -0.006146 -0.008198 0.017836 0.000000 0.007260 0.000000
# 4 0.000000 0.000000 0.000000 0.043835 0.000000 0.002153
# 5 0.015635 -0.005385 0.007260 0.000000 0.060562 0.000000
# 6 0.000000 0.000000 0.000000 0.002153 0.000000 0.050535
#
#
# Mechanical properties :
#
#
# Convention : Reuss Voigt Hill
#
# Bulk Modulus (GPa) = 37.94947 57.42619 47.68783
# Shear Modulus (GPa) = 18.74309 22.44202 20.59255
#
# Velocity S-wave (km/s) = 3.25261 3.55912 3.40931
# Velocity P-wave (km/s) = 5.96041 7.02167 6.51270
#
# Compressibility (1/GPa) = 0.02635083
#
# Stress axis : x y z
#
# Youngs Moduli (GPa) = 50.30231 37.05890 56.06687
#
# Poissons Ratio (x) = 0.17903 0.34458
# Poissons Ratio (y) = 0.24301 0.45961
# Poissons Ratio (z) = 0.30916 0.30379
#
# Static dielectric constant tensor:
#      x y z
#    x 3.322000 0.000000 -0.448680 
#    y 0.000000 3.042010 0.000000 
#    z -0.448680 0.000000 3.402170 
# 
# 
# High freq. dielectric constant tensor:
#      x y z
#    x 1.664350 0.000000 -0.026640 
#    y 0.000000 1.658480 0.000000 
#    z -0.026640 0.000000 1.683790 
# 
# From -- ./inp_files/40377.got.cif
#   From: 2010.06.25/outbox.cif.g09.slc.cpg/sg11_21_cif.got.tgz:40377.got - 2010.06.27 23:14:04.
