data_PCOD8072244
_publ_section_title
;
Structure prediction by ZEFSAII (Michael W. Deem and Ramdas Pophale) SiO2 
 PCOD8072244
Probable space group: P 21/M
;
_chemical_formula_sum "Si O2"
_cell_formula_units_Z 32
_cell_length_a 20.826196
_cell_length_b 9.035113
_cell_length_c 25.568172
_cell_angle_alpha 90.000000
_cell_angle_beta 158.065412
_cell_angle_gamma 90.000000
_cell_volume 1797.171124
_symmetry_space_group_name_H-M "P 21/M"
_symmetry_group_IT_number 11
_symmetry_cell_setting 'monoclinic'
loop_
_space_group_symop_operation_xyz
x,y,z
-x,1/2+y,-z
-x,-y,-z
x,1/2-y,z
loop_
_atom_site_type_symbol
_atom_site_label
_atom_site_fract_x
_atom_site_fract_y
_atom_site_fract_z
Si Si1 0.005035 0.423268 0.658832
Si Si2 0.496801 0.419189 0.671201
Si Si3 0.587503 0.424572 0.912721
Si Si4 0.353821 0.925168 0.923344
Si Si5 0.119063 0.577440 0.048350
Si Si6 0.350542 0.922699 0.659107
Si Si7 0.148125 0.079639 0.359315
Si Si8 0.091171 0.576614 0.911209
O O1 0.046675 0.250000 0.692253
O O2 0.171622 0.512177 0.765579
O O3 0.850515 0.458778 0.501764
O O4 0.951644 0.475525 0.676078
O O5 0.491802 0.250000 0.687553
O O6 0.682294 0.455524 0.786890
O O7 0.463151 0.520427 0.695659
O O8 0.353105 0.446407 0.517868
O O9 0.567977 0.250000 0.893295
O O10 0.412521 0.498652 0.759119
O O11 0.617177 0.472009 0.994753
O O12 0.747064 0.486566 0.999083
O O13 0.357362 0.750000 0.918147
O O14 0.500000 0.000000 0.000000
O O15 0.076581 0.750000 0.018072
O O16 0.080972 0.509479 0.961810
O O17 0.000000 0.500000 0.000000
O O18 0.382786 0.750000 0.688664
O O19 0.099085 0.250000 0.335625
O O20 0.084938 0.039948 0.253084
O O21 0.120733 0.750000 0.939570
#
# Coordination Sequence:
#
# PCOD8072244 Si02
#       8
#     4   4   4   4   4   4   4   4
#     4  10  20  34  52  80 115 144 174 216 267 318
#     4   9  17  31  52  75 102 137 176 217 263 318
#     4  10  19  35  57  81 107 138 180 222 262 316
#     4  11  23  39  59  82 110 144 180 219 267 322
#     4  10  20  34  50  71 103 140 175 215 263 316
#     4  10  20  32  52  83 113 139 174 223 269 310
#     4   9  16  30  54  79 101 132 176 221 265 312
#     4   9  16  31  53  77 102 130 173 220 260 308
#
# _framework density 17.805762000000001
#
# number of rings (size 3 to 8) (size 9 to 14) (size 15 to 20)
#    0.000    2.250    2.500    1.125    0.000    3.000 
#    0.000    1.875    0.000    0.000    0.000    0.000 
#    0.000    0.000    0.000    0.000    0.000    0.000 
#
# Total GULP energy -396760.666182 kJ/mol
# GULP energy per Si atom -12398.770818 kJ/mol
# Density = 1.776523 g / cm^3
# Si number density = 17.805762 Si / 1000 Ang^3
#
#
#
# Elastic Constant Matrix: (Units=GPa)
#
#
# Indices 1 2 3 4 5 6 
#
# 1 102.6432 40.7590 66.7372 0.0000 3.6964 0.0000
# 2 40.7590 58.3669 50.0216 0.0000 2.2642 0.0000
# 3 66.7372 50.0216 143.7836 0.0000 -2.4789 0.0000
# 4 0.0000 0.0000 0.0000 26.0561 0.0000 3.9654
# 5 3.6964 2.2642 -2.4789 0.0000 29.6614 0.0000
# 6 0.0000 0.0000 0.0000 3.9654 0.0000 26.1997
#
#
#
# Elastic Compliance Matrix: (Units=1/GPa)
#
#
# Indices 1 2 3 4 5 6 
#
# 1 0.015690 -0.006575 -0.005027 0.000000 -0.001873 0.000000
# 2 -0.006575 0.027365 -0.006500 0.000000 -0.001813 0.000000
# 3 -0.005027 -0.006500 0.011585 0.000000 0.002091 0.000000
# 4 0.000000 0.000000 0.000000 0.039284 0.000000 -0.005946
# 5 -0.001873 -0.001813 0.002091 0.000000 0.034260 0.000000
# 6 0.000000 0.000000 0.000000 -0.005946 0.000000 0.039068
#
#
# Mechanical properties :
#
#
# Convention : Reuss Voigt Hill
#
# Bulk Modulus (GPa) = 54.24096 68.86993 61.55544
# Shear Modulus (GPa) = 23.85475 26.20184 25.02829
#
# Velocity S-wave (km/s) = 3.66419 3.84022 3.75324
# Velocity P-wave (km/s) = 6.95920 7.64366 7.30944
#
# Compressibility (1/GPa) = 0.01843625
#
# Stress axis : x y z
#
# Youngs Moduli (GPa) = 63.73682 36.54263 86.31555
#
# Poissons Ratio (x) = 0.24028 0.43391
# Poissons Ratio (y) = 0.41910 0.56101
# Poissons Ratio (z) = 0.32041 0.23751
#
# Static dielectric constant tensor:
#      x y z
#    x 3.128780 0.000000 -0.177670 
#    y 0.000000 3.202780 0.000000 
#    z -0.177670 0.000000 3.679440 
# 
# 
# High freq. dielectric constant tensor:
#      x y z
#    x 1.659020 0.000000 -0.012120 
#    y 0.000000 1.677310 0.000000 
#    z -0.012120 0.000000 1.706420 
# 
# From -- ./inp_files/72182.got.cif
#   From: 2010.06.25/outbox.cif.g09.slc.cpg/sg11_37_cif.got.tgz:72182.got - 2010.06.27 23:14:04.
