data_PCOD8072262
_publ_section_title
;
Structure prediction by ZEFSAII (Michael W. Deem and Ramdas Pophale) SiO2 
 PCOD8072262
Probable space group: P 21/M
;
_chemical_formula_sum "Si O2"
_cell_formula_units_Z 32
_cell_length_a 28.954986
_cell_length_b 9.161060
_cell_length_c 12.376589
_cell_angle_alpha 90.000000
_cell_angle_beta 30.329795
_cell_angle_gamma 90.000000
_cell_volume 1657.834823
_symmetry_space_group_name_H-M "P 21/M"
_symmetry_group_IT_number 11
_symmetry_cell_setting 'monoclinic'
loop_
_space_group_symop_operation_xyz
x,y,z
-x,1/2+y,-z
-x,-y,-z
x,1/2-y,z
loop_
_atom_site_type_symbol
_atom_site_label
_atom_site_fract_x
_atom_site_fract_y
_atom_site_fract_z
Si Si1 0.710006 0.075350 0.970752
Si Si2 0.203469 0.079730 0.774406
Si Si3 0.451826 0.585809 0.004340
Si Si4 0.022795 0.923109 0.067676
Si Si5 0.157232 0.087064 0.456556
Si Si6 0.510894 0.083351 0.309573
Si Si7 0.313403 0.076272 0.767576
Si Si8 0.286841 0.089317 0.383079
O O1 0.712045 0.250000 0.968650
O O2 0.787487 0.023738 0.730691
O O3 0.608503 0.011686 0.144989
O O4 0.735094 0.007951 0.036316
O O5 0.175279 0.250000 0.832136
O O6 0.256538 0.034434 0.775823
O O7 0.271819 0.046279 0.537569
O O8 0.114726 0.981539 0.936941
O O9 0.444450 0.750000 0.057572
O O10 0.350263 0.525490 0.193509
O O11 0.500000 0.500000 0.000000
O O12 0.506593 0.569360 0.782845
O O13 0.029815 0.750000 0.032131
O O14 0.947806 0.958577 0.312650
O O15 0.000000 0.000000 0.000000
O O16 0.166113 0.250000 0.388491
O O17 0.192624 0.087356 0.508515
O O18 0.518091 0.250000 0.330707
O O19 0.419095 0.016477 0.548389
O O20 0.312264 0.250000 0.787775
O O21 0.332760 0.250000 0.285659
#
# Coordination Sequence:
#
# PCOD8072262 Si02
#       8
#     4   4   4   4   4   4   4   4
#     4  11  22  38  60  87 118 150 197 250 289 333
#     4  10  21  39  61  87 120 157 196 240 295 353
#     4  11  21  34  51  79 117 155 195 235 289 347
#     4  11  22  38  62  91 121 153 192 239 292 353
#     4  10  21  38  60  86 116 150 190 233 286 351
#     4   9  19  36  57  81 112 152 195 240 286 339
#     4  10  21  39  61  82 114 159 198 236 292 351
#     4  10  19  35  57  82 115 152 189 232 287 349
#
# _framework density 19.302284
#
# number of rings (size 3 to 8) (size 9 to 14) (size 15 to 20)
#    0.000    1.750    2.500    2.250    0.000    4.000 
#    0.000    3.750    0.000    0.000    0.000    0.000 
#    0.000    0.000    0.000    0.000    0.000    0.000 
#
# Total GULP energy -396669.370936 kJ/mol
# GULP energy per Si atom -12395.917842 kJ/mol
# Density = 1.925835 g / cm^3
# Si number density = 19.302284 Si / 1000 Ang^3
#
#
#
# Elastic Constant Matrix: (Units=GPa)
#
#
# Indices 1 2 3 4 5 6 
#
# 1 76.1384 35.6718 43.0860 0.0000 9.2936 0.0000
# 2 35.6718 82.9710 51.8793 0.0000 4.8612 0.0000
# 3 43.0860 51.8793 107.2415 0.0000 4.2881 0.0000
# 4 0.0000 0.0000 0.0000 33.1408 0.0000 -0.1799
# 5 9.2936 4.8612 4.2881 0.0000 27.1830 0.0000
# 6 0.0000 0.0000 0.0000 -0.1799 0.0000 31.3860
#
#
#
# Elastic Compliance Matrix: (Units=1/GPa)
#
#
# Indices 1 2 3 4 5 6 
#
# 1 0.018769 -0.004578 -0.005134 0.000000 -0.004788 0.000000
# 2 -0.004578 0.018482 -0.007077 0.000000 -0.000624 0.000000
# 3 -0.005134 -0.007077 0.014783 0.000000 0.000689 0.000000
# 4 0.000000 0.000000 0.000000 0.030175 0.000000 0.000173
# 5 -0.004788 -0.000624 0.000689 0.000000 0.038428 0.000000
# 6 0.000000 0.000000 0.000000 0.000173 0.000000 0.031862
#
#
# Mechanical properties :
#
#
# Convention : Reuss Voigt Hill
#
# Bulk Modulus (GPa) = 54.18377 58.62502 56.40439
# Shear Modulus (GPa) = 26.01048 27.38955 26.70002
#
# Velocity S-wave (km/s) = 3.67486 3.77102 3.72325
# Velocity P-wave (km/s) = 6.79251 7.02843 6.91148
#
# Compressibility (1/GPa) = 0.01845571
#
# Stress axis : x y z
#
# Youngs Moduli (GPa) = 53.27936 54.10639 67.64354
#
# Poissons Ratio (x) = 0.24772 0.34731
# Poissons Ratio (y) = 0.24394 0.47868
# Poissons Ratio (z) = 0.27356 0.38289
#
# Static dielectric constant tensor:
#      x y z
#    x 3.513450 0.000000 -0.201350 
#    y 0.000000 3.273100 0.000000 
#    z -0.201350 0.000000 3.904360 
# 
# 
# High freq. dielectric constant tensor:
#      x y z
#    x 1.747720 0.000000 0.001270 
#    y 0.000000 1.739730 0.000000 
#    z 0.001270 0.000000 1.753920 
# 
# From -- ./inp_files/45143.got.cif
#   From: 2010.06.25/outbox.cif.g09.slc.cpg/sg11_23_cif.got.tgz:45143.got - 2010.06.27 23:14:04.
