data_PCOD8072284
_publ_section_title
;
Structure prediction by ZEFSAII (Michael W. Deem and Ramdas Pophale) SiO2 
 PCOD8072284
Probable space group: P 21/M
;
_chemical_formula_sum "Si O2"
_cell_formula_units_Z 32
_cell_length_a 25.712874
_cell_length_b 9.105403
_cell_length_c 20.850247
_cell_angle_alpha 90.000000
_cell_angle_beta 20.400406
_cell_angle_gamma 90.000000
_cell_volume 1701.617056
_symmetry_space_group_name_H-M "P 21/M"
_symmetry_group_IT_number 11
_symmetry_cell_setting 'monoclinic'
loop_
_space_group_symop_operation_xyz
x,y,z
-x,1/2+y,-z
-x,-y,-z
x,1/2-y,z
loop_
_atom_site_type_symbol
_atom_site_label
_atom_site_fract_x
_atom_site_fract_y
_atom_site_fract_z
Si Si1 0.992994 0.422900 0.818530
Si Si2 0.422111 0.578745 0.494506
Si Si3 0.300954 0.579792 0.773014
Si Si4 0.587530 0.075821 0.092507
Si Si5 0.596552 0.085653 0.938667
Si Si6 0.688215 0.925074 0.503041
Si Si7 0.936975 0.084178 0.512589
Si Si8 0.098856 0.924939 0.215005
O O1 0.008538 0.250000 0.796013
O O2 0.153882 0.486377 0.653065
O O3 0.941256 0.483018 0.809364
O O4 0.867952 0.467828 0.015211
O O5 0.434996 0.750000 0.463730
O O6 0.325615 0.548713 0.669754
O O7 0.587555 0.514390 0.312052
O O8 0.336712 0.495909 0.537098
O O9 0.329346 0.750000 0.757573
O O10 0.592657 0.250000 0.083404
O O11 0.440607 0.020840 0.299465
O O12 0.588201 0.012127 0.019239
O O13 0.734541 0.020294 0.960030
O O14 0.532568 0.250000 0.017371
O O15 0.760993 0.085837 0.721021
O O16 0.500000 0.000000 0.000000
O O17 0.687018 0.750000 0.496776
O O18 0.000566 0.250000 0.437772
O O19 0.000000 0.000000 0.500000
O O20 0.979586 0.998479 0.399354
O O21 0.085473 0.750000 0.236802
#
# Coordination Sequence:
#
# PCOD8072284 Si02
#       8
#     4   4   4   4   4   4   4   4
#     4   9  19  34  57  85 107 140 186 224 265 322
#     4  10  20  34  55  83 112 144 181 223 271 319
#     4   9  18  36  59  81 108 143 185 226 264 317
#     4   9  18  35  56  78 106 142 183 223 263 317
#     4  10  22  38  56  81 110 141 179 223 272 323
#     4  10  20  35  56  81 110 145 184 221 264 323
#     4  11  22  38  58  82 110 141 181 225 271 324
#     4  10  19  35  58  81 108 140 180 230 272 314
#
# _framework density 18.805641999999999
#
# number of rings (size 3 to 8) (size 9 to 14) (size 15 to 20)
#    0.000    2.250    1.250    1.500    1.750    4.000 
#    0.000    4.375    0.000    0.000    0.000    0.000 
#    0.000    0.000    0.000    0.000    0.000    0.000 
#
# Total GULP energy -396820.184869 kJ/mol
# GULP energy per Si atom -12400.630777 kJ/mol
# Density = 1.876284 g / cm^3
# Si number density = 18.805642 Si / 1000 Ang^3
#
#
#
# Elastic Constant Matrix: (Units=GPa)
#
#
# Indices 1 2 3 4 5 6 
#
# 1 160.9768 41.4573 80.0887 0.0000 -9.6756 0.0000
# 2 41.4573 52.0095 34.4739 0.0000 -3.0699 0.0000
# 3 80.0887 34.4739 133.2825 0.0000 1.6923 0.0000
# 4 0.0000 0.0000 0.0000 23.2386 0.0000 2.4016
# 5 -9.6756 -3.0699 1.6923 0.0000 29.5027 0.0000
# 6 0.0000 0.0000 0.0000 2.4016 0.0000 30.8651
#
#
#
# Elastic Compliance Matrix: (Units=1/GPa)
#
#
# Indices 1 2 3 4 5 6 
#
# 1 0.009991 -0.004558 -0.004864 0.000000 0.003081 0.000000
# 2 -0.004558 0.025512 -0.003877 0.000000 0.001382 0.000000
# 3 -0.004864 -0.003877 0.011462 0.000000 -0.002656 0.000000
# 4 0.000000 0.000000 0.000000 0.043381 0.000000 -0.003375
# 5 0.003081 0.001382 -0.002656 0.000000 0.035202 0.000000
# 6 0.000000 0.000000 0.000000 -0.003375 0.000000 0.032662
#
#
# Mechanical properties :
#
#
# Convention : Reuss Voigt Hill
#
# Bulk Modulus (GPa) = 49.09944 73.14542 61.12243
# Shear Modulus (GPa) = 26.09646 29.40453 27.75050
#
# Velocity S-wave (km/s) = 3.72922 3.95853 3.84558
# Velocity P-wave (km/s) = 6.68643 7.73778 7.23123
#
# Compressibility (1/GPa) = 0.02036683
#
# Stress axis : x y z
#
# Youngs Moduli (GPa) = 100.09099 39.19675 87.24478
#
# Poissons Ratio (x) = 0.17867 0.42433
# Poissons Ratio (y) = 0.45623 0.33828
# Poissons Ratio (z) = 0.48680 0.15198
#
# Static dielectric constant tensor:
#      x y z
#    x 3.624310 0.000000 0.033280 
#    y 0.000000 3.278150 0.000000 
#    z 0.033280 0.000000 3.580500 
# 
# 
# High freq. dielectric constant tensor:
#      x y z
#    x 1.738820 0.000000 0.004510 
#    y 0.000000 1.700550 0.000000 
#    z 0.004510 0.000000 1.740870 
# 
# From -- ./inp_files/67045.got.cif
#   From: 2010.06.25/outbox.cif.g09.slc.cpg/sg11_34_cif.got.tgz:67045.got - 2010.06.27 23:14:04.
