data_PCOD8072288
_publ_section_title
;
Structure prediction by ZEFSAII (Michael W. Deem and Ramdas Pophale) SiO2 
 PCOD8072288
Probable space group: P 21/M
;
_chemical_formula_sum "Si O2"
_cell_formula_units_Z 28
_cell_length_a 16.184139
_cell_length_b 8.618608
_cell_length_c 20.477882
_cell_angle_alpha 90.000000
_cell_angle_beta 150.023691
_cell_angle_gamma 90.000000
_cell_volume 1427.153173
_symmetry_space_group_name_H-M "P 21/M"
_symmetry_group_IT_number 11
_symmetry_cell_setting 'monoclinic'
loop_
_space_group_symop_operation_xyz
x,y,z
-x,1/2+y,-z
-x,-y,-z
x,1/2-y,z
loop_
_atom_site_type_symbol
_atom_site_label
_atom_site_fract_x
_atom_site_fract_y
_atom_site_fract_z
Si Si1 0.445641 0.434591 0.783410
Si Si2 0.138052 0.566595 0.642038
Si Si3 0.008294 0.934572 0.691837
Si Si4 0.949771 0.934009 0.896098
Si Si5 0.358194 0.434270 0.579991
Si Si6 0.406837 0.934441 0.374096
Si Si7 0.184956 0.565631 0.941367
O O1 0.433159 0.250000 0.777620
O O2 0.319068 0.505864 0.748372
O O3 0.403304 0.497992 0.682360
O O4 0.627666 0.495208 0.926493
O O5 0.130919 0.750000 0.632027
O O6 0.101423 0.509456 0.690414
O O7 0.000000 0.500000 0.500000
O O8 0.004987 0.750000 0.692954
O O9 0.101681 0.003580 0.818901
O O10 0.821024 0.999474 0.563487
O O11 0.942713 0.750000 0.895229
O O12 0.085316 0.991610 0.936638
O O13 0.775372 0.997498 0.752880
O O14 0.000000 0.000000 0.000000
O O15 0.354366 0.250000 0.578969
O O16 0.495384 0.492581 0.623028
O O17 0.399584 0.750000 0.372636
O O18 0.500000 0.000000 0.500000
O O19 0.182741 0.750000 0.937537
#
# Coordination Sequence:
#
# PCOD8072288 Si02
#       7
#     4   4   4   4   4   4   4
#     4  10  19  35  58  82 107 140 187 233 271 329
#     4  11  21  35  57  83 112 143 182 229 282 335
#     4   9  17  32  55  80 107 144 187 228 268 328
#     4  11  22  39  62  86 116 155 199 244 293 350
#     4   9  17  32  55  78 105 148 192 227 272 340
#     4  11  22  37  59  87 118 153 197 245 296 349
#     4   9  19  35  57  82 109 149 194 227 271 343
#
# _framework density 19.619477
#
# number of rings (size 3 to 8) (size 9 to 14) (size 15 to 20)
#    0.000    2.000    1.429    3.000    0.000    5.143 
#    0.000    4.286    0.000    3.429    0.000    0.000 
#    0.000    0.000    0.000    0.000    0.000    0.000 
#
# Total GULP energy -347243.050051 kJ/mol
# GULP energy per Si atom -12401.537502 kJ/mol
# Density = 1.957482 g / cm^3
# Si number density = 19.619477 Si / 1000 Ang^3
#
#
#
# Elastic Constant Matrix: (Units=GPa)
#
#
# Indices 1 2 3 4 5 6 
#
# 1 157.5648 32.4488 82.6261 0.0000 8.8362 0.0000
# 2 32.4488 43.7402 26.5924 0.0000 2.7662 0.0000
# 3 82.6261 26.5924 184.3597 0.0000 5.5396 0.0000
# 4 0.0000 0.0000 0.0000 23.0966 0.0000 3.3398
# 5 8.8362 2.7662 5.5396 0.0000 46.7674 0.0000
# 6 0.0000 0.0000 0.0000 3.3398 0.0000 28.2819
#
#
#
# Elastic Compliance Matrix: (Units=1/GPa)
#
#
# Indices 1 2 3 4 5 6 
#
# 1 0.009144 -0.004653 -0.003396 0.000000 -0.001050 0.000000
# 2 -0.004653 0.027480 -0.001863 0.000000 -0.000526 0.000000
# 3 -0.003396 -0.001863 0.007218 0.000000 -0.000103 0.000000
# 4 0.000000 0.000000 0.000000 0.044049 0.000000 -0.005202
# 5 -0.001050 -0.000526 -0.000103 0.000000 0.021624 0.000000
# 6 0.000000 0.000000 0.000000 -0.005202 0.000000 0.035973
#
#
# Mechanical properties :
#
#
# Convention : Reuss Voigt Hill
#
# Bulk Modulus (GPa) = 41.63270 74.33325 57.98297
# Shear Modulus (GPa) = 28.84906 35.89568 32.37237
#
# Velocity S-wave (km/s) = 3.83878 4.28202 4.06644
# Velocity P-wave (km/s) = 6.39644 7.90046 7.18790
#
# Compressibility (1/GPa) = 0.02401958
#
# Stress axis : x y z
#
# Youngs Moduli (GPa) = 109.35718 36.39052 138.54690
#
# Poissons Ratio (x) = 0.16932 0.47045
# Poissons Ratio (y) = 0.50883 0.25805
# Poissons Ratio (z) = 0.37133 0.06778
#
# Static dielectric constant tensor:
#      x y z
#    x 3.893170 0.000000 -0.009060 
#    y 0.000000 3.015560 0.000000 
#    z -0.009060 0.000000 3.714090 
# 
# 
# High freq. dielectric constant tensor:
#      x y z
#    x 1.782490 0.000000 0.002440 
#    y 0.000000 1.724900 0.000000 
#    z 0.002440 0.000000 1.779960 
# 
# From -- ./inp_files/28612.got.cif
#   From: 2010.06.25/outbox.cif.g09.slc.cpg/sg11_15_cif.got.tgz:28612.got - 2010.06.27 23:14:04.
