data_PCOD8072836
_publ_section_title
;
Structure prediction by ZEFSAII (Michael W. Deem and Ramdas Pophale) SiO2 
 PCOD8072836
Probable space group: P 21/M
;
_chemical_formula_sum "Si O2"
_cell_formula_units_Z 20
_cell_length_a 9.740879
_cell_length_b 13.635506
_cell_length_c 16.781094
_cell_angle_alpha 90.000000
_cell_angle_beta 29.459802
_cell_angle_gamma 90.000000
_cell_volume 1096.199280
_symmetry_space_group_name_H-M "P 21/M"
_symmetry_group_IT_number 11
_symmetry_cell_setting 'monoclinic'
loop_
_space_group_symop_operation_xyz
x,y,z
-x,1/2+y,-z
-x,-y,-z
x,1/2-y,z
loop_
_atom_site_type_symbol
_atom_site_label
_atom_site_fract_x
_atom_site_fract_y
_atom_site_fract_z
Si Si1 0.038710 0.137943 0.776642
Si Si2 0.047538 0.999123 0.634975
Si Si3 0.512292 0.637753 0.325139
Si Si4 0.586754 0.860888 0.942164
Si Si5 0.368636 0.637943 0.223358
O O1 0.086289 0.250000 0.724945
O O2 0.188463 0.117510 0.785344
O O3 0.173519 0.068191 0.640926
O O4 0.708963 0.117010 0.951251
O O5 0.815832 0.929494 0.789445
O O6 0.287630 0.935500 0.474914
O O7 0.903701 0.068191 0.640927
O O8 0.415902 0.750000 0.389399
O O9 0.544493 0.617511 0.214656
O O10 0.681375 0.750000 0.879083
O O11 0.562717 0.882989 0.048749
O O12 0.261125 0.750000 0.275055
#
# Coordination Sequence:
#
# PCOD8072836 Si02
#       5
#     4   4   4   4   4
#     4   9  18  32  49  69  95 128 157 185 231 288
#     4  11  18  31  51  75  93 118 159 203 229 263
#     4  10  20  32  48  71  98 124 154 193 236 276
#     4   9  18  33  52  70  92 124 160 192 228 277
#     4   9  18  32  49  69  95 128 157 185 231 288
#
# _framework density 18.244858000000001
#
# number of rings (size 3 to 8) (size 9 to 14) (size 15 to 20)
#    0.000    2.400    0.000    6.000    0.000    0.000 
#    0.000    4.000    0.000    0.000    0.000   25.200 
#    0.000    0.000    0.000    0.000    0.000    0.000 
#
# Total GULP energy -247917.147602 kJ/mol
# GULP energy per Si atom -12395.857380 kJ/mol
# Density = 1.820333 g / cm^3
# Si number density = 18.244858 Si / 1000 Ang^3
#
#
#
# Elastic Constant Matrix: (Units=GPa)
#
#
# Indices 1 2 3 4 5 6 
#
# 1 157.2803 39.6795 47.3188 0.0000 -11.9173 0.0000
# 2 39.6795 82.2432 36.5211 0.0000 -0.4031 0.0000
# 3 47.3188 36.5211 75.4995 0.0000 1.4794 0.0000
# 4 0.0000 0.0000 0.0000 27.0298 0.0000 0.7321
# 5 -11.9173 -0.4031 1.4794 0.0000 10.0046 0.0000
# 6 0.0000 0.0000 0.0000 0.7321 0.0000 21.2934
#
#
#
# Elastic Compliance Matrix: (Units=1/GPa)
#
#
# Indices 1 2 3 4 5 6 
#
# 1 0.009308 -0.002217 -0.004992 0.000000 0.011737 0.000000
# 2 -0.002217 0.016043 -0.006351 0.000000 -0.001055 0.000000
# 3 -0.004992 -0.006351 0.019624 0.000000 -0.009103 0.000000
# 4 0.000000 0.000000 0.000000 0.037031 0.000000 -0.001273
# 5 0.011737 -0.001055 -0.009103 0.000000 0.115238 0.000000
# 6 0.000000 0.000000 0.000000 -0.001273 0.000000 0.047007
#
#
# Mechanical properties :
#
#
# Convention : Reuss Voigt Hill
#
# Bulk Modulus (GPa) = 55.99825 62.45132 59.22479
# Shear Modulus (GPa) = 18.02962 24.43249 21.23105
#
# Velocity S-wave (km/s) = 3.14698 3.66340 3.41497
# Velocity P-wave (km/s) = 6.63053 7.22481 6.93404
#
# Compressibility (1/GPa) = 0.01785770
#
# Stress axis : x y z
#
# Youngs Moduli (GPa) = 107.42965 62.33054 50.95838
#
# Poissons Ratio (x) = 0.13818 0.25436
# Poissons Ratio (y) = 0.23816 0.32361
# Poissons Ratio (z) = 0.53624 0.39583
#
# Static dielectric constant tensor:
#      x y z
#    x 3.699020 0.000000 -0.092980 
#    y 0.000000 3.775340 0.000000 
#    z -0.092980 0.000000 2.970490 
# 
# 
# High freq. dielectric constant tensor:
#      x y z
#    x 1.712990 0.000000 -0.006220 
#    y 0.000000 1.731840 0.000000 
#    z -0.006220 0.000000 1.664230 
# 
# From -- ./inp_files/12263.got.cif
#   From: 2010.06.25/outbox.cif.g09.slc.cpg/sg11_7_cif.got.tgz:12263.got - 2010.06.27 23:14:04.
