data_PCOD8072384
_publ_section_title
;
Structure prediction by ZEFSAII (Michael W. Deem and Ramdas Pophale) SiO2 
 PCOD8072384
Probable space group: P 21/M
;
_chemical_formula_sum "Si O2"
_cell_formula_units_Z 28
_cell_length_a 7.941151
_cell_length_b 17.153720
_cell_length_c 14.335822
_cell_angle_alpha 90.000000
_cell_angle_beta 44.505843
_cell_angle_gamma 90.000000
_cell_volume 1368.898462
_symmetry_space_group_name_H-M "P 21/M"
_symmetry_group_IT_number 11
_symmetry_cell_setting 'monoclinic'
loop_
_space_group_symop_operation_xyz
x,y,z
-x,1/2+y,-z
-x,-y,-z
x,1/2-y,z
loop_
_atom_site_type_symbol
_atom_site_label
_atom_site_fract_x
_atom_site_fract_y
_atom_site_fract_z
Si Si1 0.689279 0.160817 0.561922
Si Si2 0.062738 0.892428 0.123697
Si Si3 0.798555 0.658365 0.587389
Si Si4 0.677913 0.838276 0.132305
Si Si5 0.725556 0.549349 0.943183
Si Si6 0.583753 0.839224 0.860370
Si Si7 0.287954 0.157153 0.584600
O O1 0.727856 0.250000 0.518205
O O2 0.950843 0.121277 0.472835
O O3 0.558130 0.152916 0.712505
O O4 0.523677 0.122524 0.545395
O O5 0.326519 0.856468 0.006991
O O6 0.911918 0.856263 0.100046
O O7 0.955017 0.868006 0.266151
O O8 0.062883 0.987419 0.118809
O O9 0.837226 0.750000 0.556949
O O10 0.593686 0.640297 0.745697
O O11 0.719982 0.623275 0.518016
O O12 0.699108 0.750000 0.084561
O O13 0.656646 0.900585 0.059796
O O14 0.785466 0.609526 0.835381
O O15 0.500000 0.500000 0.000000
O O16 0.655769 0.750000 0.846718
O O17 0.300498 0.250000 0.581617
#
# Coordination Sequence:
#
# PCOD8072384 Si02
#       7
#     4   4   4   4   4   4   4
#     4   8  16  30  52  81 107 135 185 238 280 326
#     4  10  20  36  58  82 114 143 186 237 286 336
#     4   9  18  32  53  79 112 148 183 235 285 327
#     4  10  19  35  60  87 107 141 193 240 278 327
#     4  10  22  35  53  80 117 152 180 226 289 339
#     4  10  20  36  54  82 115 147 191 231 278 340
#     4   9  17  32  56  81 105 143 192 238 281 328
#
# _framework density 20.454402999999999
#
# number of rings (size 3 to 8) (size 9 to 14) (size 15 to 20)
#    0.000    2.571    0.000    3.000    4.000    0.000 
#    2.571    0.714    0.000    1.714    0.000    0.000 
#    0.000    0.000    0.000    0.000    0.000    0.000 
#
# Total GULP energy -346968.014494 kJ/mol
# GULP energy per Si atom -12391.714803 kJ/mol
# Density = 2.040785 g / cm^3
# Si number density = 20.454403 Si / 1000 Ang^3
#
#
#
# Elastic Constant Matrix: (Units=GPa)
#
#
# Indices 1 2 3 4 5 6 
#
# 1 71.8285 14.4146 41.5294 0.0000 20.6657 0.0000
# 2 14.4146 71.0419 18.9411 0.0000 15.5796 0.0000
# 3 41.5294 18.9411 75.7400 0.0000 29.1786 0.0000
# 4 0.0000 0.0000 0.0000 3.6897 0.0000 9.1762
# 5 20.6657 15.5796 29.1786 0.0000 28.3317 0.0000
# 6 0.0000 0.0000 0.0000 9.1762 0.0000 29.2780
#
#
#
# Elastic Compliance Matrix: (Units=1/GPa)
#
#
# Indices 1 2 3 4 5 6 
#
# 1 0.020950 -0.000594 -0.009246 0.000000 -0.005432 0.000000
# 2 -0.000594 0.016071 -0.000755 0.000000 -0.007626 0.000000
# 3 -0.009246 -0.000755 0.026032 0.000000 -0.019651 0.000000
# 4 0.000000 0.000000 0.000000 1.228928 0.000000 -0.385166
# 5 -0.005432 -0.007626 -0.019651 0.000000 0.063690 0.000000
# 6 0.000000 0.000000 0.000000 -0.385166 0.000000 0.154873
#
#
# Mechanical properties :
#
#
# Convention : Reuss Voigt Hill
#
# Bulk Modulus (GPa) = 23.88814 40.93119 32.40967
# Shear Modulus (GPa) = 3.23481 21.84157 12.53819
#
# Velocity S-wave (km/s) = 1.25893 3.27129 2.47853
# Velocity P-wave (km/s) = 3.71716 5.85857 4.90613
#
# Compressibility (1/GPa) = 0.04186178
#
# Stress axis : x y z
#
# Youngs Moduli (GPa) = 47.73289 62.22577 38.41439
#
# Poissons Ratio (x) = 0.03699 0.35517
# Poissons Ratio (y) = 0.02837 0.02901
# Poissons Ratio (z) = 0.44133 0.04699
#
# Static dielectric constant tensor:
#      x y z
#    x 4.044880 0.000000 0.184750 
#    y 0.000000 4.040900 0.000000 
#    z 0.184750 0.000000 3.654890 
# 
# 
# High freq. dielectric constant tensor:
#      x y z
#    x 1.802490 0.000000 0.012210 
#    y 0.000000 1.775110 0.000000 
#    z 0.012210 0.000000 1.790800 
# 
# From -- ./inp_files/47994.got.cif
#   From: 2010.06.25/outbox.cif.g09.slc.cpg/sg11_24_cif.got.tgz:47994.got - 2010.06.27 23:14:04.
