data_PCOD8072585
_publ_section_title
;
Structure prediction by ZEFSAII (Michael W. Deem and Ramdas Pophale) SiO2 
 PCOD8072585
Probable space group: P 21/M
;
_chemical_formula_sum "Si O2"
_cell_formula_units_Z 32
_cell_length_a 30.363357
_cell_length_b 8.882427
_cell_length_c 13.074504
_cell_angle_alpha 90.000000
_cell_angle_beta 27.734587
_cell_angle_gamma 90.000000
_cell_volume 1641.009305
_symmetry_space_group_name_H-M "P 21/M"
_symmetry_group_IT_number 11
_symmetry_cell_setting 'monoclinic'
loop_
_space_group_symop_operation_xyz
x,y,z
-x,1/2+y,-z
-x,-y,-z
x,1/2-y,z
loop_
_atom_site_type_symbol
_atom_site_label
_atom_site_fract_x
_atom_site_fract_y
_atom_site_fract_z
Si Si1 0.216115 0.574111 0.956688
Si Si2 0.888646 0.071399 0.433608
Si Si3 0.223947 0.071352 0.149230
Si Si4 0.562262 0.924338 0.286477
Si Si5 0.401385 0.574840 0.471066
Si Si6 0.090710 0.926456 0.016383
Si Si7 0.406074 0.928723 0.235626
Si Si8 0.204428 0.571956 0.583791
O O1 0.217527 0.750000 0.981553
O O2 0.320617 0.509872 0.712664
O O3 0.147021 0.540602 0.004555
O O4 0.181806 0.483732 0.127360
O O5 0.879660 0.250000 0.459429
O O6 0.842924 0.008667 0.422143
O O7 0.836006 0.998486 0.636908
O O8 0.996874 0.024068 0.213340
O O9 0.217101 0.250000 0.170544
O O10 0.331859 0.010703 0.938887
O O11 0.567029 0.750000 0.303720
O O12 0.507588 0.955144 0.292561
O O13 0.500000 0.000000 0.500000
O O14 0.377493 0.750000 0.511300
O O15 0.392250 0.504464 0.377792
O O16 0.066485 0.750000 0.056160
O O17 0.150311 0.985818 0.796348
O O18 0.417971 0.750000 0.211991
O O19 0.314163 0.980123 0.360064
O O20 0.500000 0.000000 0.000000
O O21 0.199631 0.750000 0.595074
#
# Coordination Sequence:
#
# PCOD8072585 Si02
#       8
#     4   4   4   4   4   4   4   4
#     4  10  19  36  64  88 111 150 194 237 291 349
#     4  11  24  40  59  84 117 156 192 237 293 348
#     4  11  24  39  56  85 122 155 192 241 286 337
#     4  10  20  34  55  82 111 146 187 228 272 326
#     4   9  17  33  57  81 110 149 189 226 275 341
#     4  10  20  39  66  90 110 143 193 246 295 348
#     4  10  20  36  57  85 118 153 189 229 278 338
#     4   9  19  38  62  87 116 151 193 235 285 347
#
# _framework density 19.500195999999999
#
# number of rings (size 3 to 8) (size 9 to 14) (size 15 to 20)
#    0.000    2.000    2.500    1.125    1.750    1.500 
#    0.000    3.125    0.000    0.000    0.000    0.000 
#    0.000    0.000    0.000    0.000    0.000    0.000 
#
# Total GULP energy -396763.468132 kJ/mol
# GULP energy per Si atom -12398.858379 kJ/mol
# Density = 1.945581 g / cm^3
# Si number density = 19.500196 Si / 1000 Ang^3
#
#
#
# Elastic Constant Matrix: (Units=GPa)
#
#
# Indices 1 2 3 4 5 6 
#
# 1 138.2727 40.1627 76.7033 0.0000 9.9948 0.0000
# 2 40.1627 45.0732 38.9129 0.0000 1.6398 0.0000
# 3 76.7033 38.9129 154.5084 0.0000 2.5666 0.0000
# 4 0.0000 0.0000 0.0000 29.4602 0.0000 -4.0442
# 5 9.9948 1.6398 2.5666 0.0000 35.2295 0.0000
# 6 0.0000 0.0000 0.0000 -4.0442 0.0000 22.1323
#
#
#
# Elastic Compliance Matrix: (Units=1/GPa)
#
#
# Indices 1 2 3 4 5 6 
#
# 1 0.011629 -0.006796 -0.004017 0.000000 -0.002690 0.000000
# 2 -0.006796 0.032345 -0.004785 0.000000 0.000771 0.000000
# 3 -0.004017 -0.004785 0.009660 0.000000 0.000658 0.000000
# 4 0.000000 0.000000 0.000000 0.034817 0.000000 0.006362
# 5 -0.002690 0.000771 0.000658 0.000000 0.029065 0.000000
# 6 0.000000 0.000000 0.000000 0.006362 0.000000 0.046345
#
#
# Mechanical properties :
#
#
# Convention : Reuss Voigt Hill
#
# Bulk Modulus (GPa) = 44.56681 72.15689 58.36185
# Shear Modulus (GPa) = 24.68692 29.50277 27.09484
#
# Velocity S-wave (km/s) = 3.56193 3.89388 3.73160
# Velocity P-wave (km/s) = 6.31036 7.56967 6.96852
#
# Compressibility (1/GPa) = 0.02243822
#
# Stress axis : x y z
#
# Youngs Moduli (GPa) = 85.99433 30.91676 103.51728
#
# Poissons Ratio (x) = 0.21012 0.41578
# Poissons Ratio (y) = 0.58445 0.49532
# Poissons Ratio (z) = 0.34540 0.14793
#
# Static dielectric constant tensor:
#      x y z
#    x 3.683890 0.000000 -0.000440 
#    y 0.000000 3.206460 0.000000 
#    z -0.000440 0.000000 3.644460 
# 
# 
# High freq. dielectric constant tensor:
#      x y z
#    x 1.776840 0.000000 -0.000750 
#    y 0.000000 1.727600 0.000000 
#    z -0.000750 0.000000 1.765320 
# 
# From -- ./inp_files/45153.got.cif
#   From: 2010.06.25/outbox.cif.g09.slc.cpg/sg11_23_cif.got.tgz:45153.got - 2010.06.27 23:14:04.
