data_PCOD8072028
_publ_section_title
;
Structure prediction by ZEFSAII (Michael W. Deem and Ramdas Pophale) SiO2 
 PCOD8072028
Probable space group: P 21/M
;
_chemical_formula_sum "Si O2"
_cell_formula_units_Z 28
_cell_length_a 22.688444
_cell_length_b 9.407210
_cell_length_c 16.566874
_cell_angle_alpha 90.000000
_cell_angle_beta 24.989209
_cell_angle_gamma 90.000000
_cell_volume 1493.753474
_symmetry_space_group_name_H-M "P 21/M"
_symmetry_group_IT_number 11
_symmetry_cell_setting 'monoclinic'
loop_
_space_group_symop_operation_xyz
x,y,z
-x,1/2+y,-z
-x,-y,-z
x,1/2-y,z
loop_
_atom_site_type_symbol
_atom_site_label
_atom_site_fract_x
_atom_site_fract_y
_atom_site_fract_z
Si Si1 0.644465 0.412669 0.158892
Si Si2 0.356087 0.082635 0.690166
Si Si3 0.842825 0.911233 0.619627
Si Si4 0.372896 0.081765 0.402702
Si Si5 0.845661 0.089666 0.761352
Si Si6 0.406200 0.414545 0.180233
Si Si7 0.856251 0.583602 0.190221
O O1 0.632972 0.250000 0.205077
O O2 0.704661 0.518249 0.151824
O O3 0.494106 0.466202 0.313784
O O4 0.754192 0.426032 0.952649
O O5 0.384774 0.250000 0.661517
O O6 0.246510 0.048960 0.756058
O O7 0.500000 0.000000 0.500000
O O8 0.842943 0.750000 0.649043
O O9 0.753803 0.929304 0.649292
O O10 0.999617 0.966232 0.408362
O O11 0.775767 0.000436 0.776092
O O12 0.376116 0.250000 0.389955
O O13 0.403630 0.020036 0.274501
O O14 0.224157 0.035841 0.627108
O O15 0.850237 0.250000 0.724523
O O16 0.455759 0.250000 0.118321
O O17 0.500000 0.500000 0.000000
O O18 0.892256 0.750000 0.148627
O O19 0.000000 0.500000 0.000000
#
# Coordination Sequence:
#
# PCOD8072028 Si02
#       7
#     4   4   4   4   4   4   4
#     4  10  19  34  57  83 109 140 185 230 275 336
#     4  11  22  38  60  85 113 145 184 231 281 334
#     4   9  18  32  49  75 109 140 178 228 276 322
#     4   9  18  35  56  78 109 147 182 225 278 335
#     4   9  18  32  53  78 104 142 184 222 272 333
#     4  10  20  34  54  77 107 144 182 225 273 327
#     4  10  22  40  60  84 116 151 191 234 284 341
#
# _framework density 18.744727000000001
#
# number of rings (size 3 to 8) (size 9 to 14) (size 15 to 20)
#    0.000    2.286    1.429    1.286    0.000    4.571 
#    0.000    4.286    0.000    0.000    0.000    0.000 
#    0.000    0.000    0.000    0.000    0.000    0.000 
#
# Total GULP energy -347043.933655 kJ/mol
# GULP energy per Si atom -12394.426202 kJ/mol
# Density = 1.870206 g / cm^3
# Si number density = 18.744727 Si / 1000 Ang^3
#
#
#
# Elastic Constant Matrix: (Units=GPa)
#
#
# Indices 1 2 3 4 5 6 
#
# 1 104.4273 48.5484 60.5224 0.0000 11.5368 0.0000
# 2 48.5484 64.7026 51.0149 0.0000 2.6442 0.0000
# 3 60.5224 51.0149 101.1123 0.0000 4.4060 0.0000
# 4 0.0000 0.0000 0.0000 30.9024 0.0000 1.6053
# 5 11.5368 2.6442 4.4060 0.0000 25.5960 0.0000
# 6 0.0000 0.0000 0.0000 1.6053 0.0000 29.6502
#
#
#
# Elastic Compliance Matrix: (Units=1/GPa)
#
#
# Indices 1 2 3 4 5 6 
#
# 1 0.017578 -0.008061 -0.006192 0.000000 -0.006024 0.000000
# 2 -0.008061 0.029366 -0.010093 0.000000 0.002337 0.000000
# 3 -0.006192 -0.010093 0.018662 0.000000 0.000621 0.000000
# 4 0.000000 0.000000 0.000000 0.032451 0.000000 -0.001757
# 5 -0.006024 0.002337 0.000621 0.000000 0.041436 0.000000
# 6 0.000000 0.000000 0.000000 -0.001757 0.000000 0.033822
#
#
# Mechanical properties :
#
#
# Convention : Reuss Voigt Hill
#
# Bulk Modulus (GPa) = 59.12443 65.60154 62.36298
# Shear Modulus (GPa) = 21.96416 24.57349 23.26882
#
# Velocity S-wave (km/s) = 3.42680 3.62464 3.52711
# Velocity P-wave (km/s) = 6.87515 7.25194 7.06606
#
# Compressibility (1/GPa) = 0.01691348
#
# Stress axis : x y z
#
# Youngs Moduli (GPa) = 56.89026 34.05282 53.58609
#
# Poissons Ratio (x) = 0.27450 0.33180
# Poissons Ratio (y) = 0.45859 0.54085
# Poissons Ratio (z) = 0.35226 0.34370
#
# Static dielectric constant tensor:
#      x y z
#    x 3.746950 0.000000 0.089810 
#    y 0.000000 3.556210 0.000000 
#    z 0.089810 0.000000 3.588080 
# 
# 
# High freq. dielectric constant tensor:
#      x y z
#    x 1.732360 0.000000 0.002800 
#    y 0.000000 1.706200 0.000000 
#    z 0.002800 0.000000 1.735390 
# 
# From -- ./inp_files/54472.got.cif
#   From: 2010.06.25/outbox.cif.g09.slc.cpg/sg11_28_cif.got.tgz:54472.got - 2010.06.27 23:14:04.
