data_PCOD8072488
_publ_section_title
;
Structure prediction by ZEFSAII (Michael W. Deem and Ramdas Pophale) SiO2 
 PCOD8072488
Probable space group: P 21/M
;
_chemical_formula_sum "Si O2"
_cell_formula_units_Z 32
_cell_length_a 32.013775
_cell_length_b 8.812137
_cell_length_c 12.920752
_cell_angle_alpha 90.000000
_cell_angle_beta 26.343188
_cell_angle_gamma 90.000000
_cell_volume 1617.488365
_symmetry_space_group_name_H-M "P 21/M"
_symmetry_group_IT_number 11
_symmetry_cell_setting 'monoclinic'
loop_
_space_group_symop_operation_xyz
x,y,z
-x,1/2+y,-z
-x,-y,-z
x,1/2-y,z
loop_
_atom_site_type_symbol
_atom_site_label
_atom_site_fract_x
_atom_site_fract_y
_atom_site_fract_z
Si Si1 0.418325 0.570430 0.614068
Si Si2 0.210072 0.572434 0.141574
Si Si3 0.922830 0.929572 0.972628
Si Si4 0.600863 0.429340 0.756472
Si Si5 0.848227 0.918082 0.925977
Si Si6 0.775335 0.930261 0.470340
Si Si7 0.863852 0.070579 0.473285
Si Si8 0.365221 0.419827 0.531631
O O1 0.500000 0.500000 0.500000
O O2 0.429695 0.750000 0.581513
O O3 0.429748 0.498780 0.474962
O O4 0.318336 0.523358 0.885871
O O5 0.198461 0.750000 0.161424
O O6 0.141378 0.509583 0.204033
O O7 0.175618 0.512964 0.329075
O O8 0.909940 0.750000 0.993224
O O9 0.902685 0.996445 0.902037
O O10 0.026761 0.974835 0.777984
O O11 0.848965 0.993055 0.220922
O O12 0.596075 0.250000 0.778675
O O13 0.673823 0.495314 0.677937
O O14 0.635056 0.474853 0.567394
O O15 0.500000 0.500000 0.000000
O O16 0.888882 0.750000 0.815825
O O17 0.739714 0.909647 0.195586
O O18 0.765990 0.750000 0.484856
O O19 0.808872 0.978705 0.508708
O O20 0.848733 0.250000 0.491692
O O21 0.403688 0.250000 0.421746
#
# Coordination Sequence:
#
# PCOD8072488 Si02
#       8
#     4   4   4   4   4   4   4   4
#     4  10  20  35  55  81 111 150 199 246 298 358
#     4   9  20  36  53  79 116 150 188 243 298 350
#     4   9  18  35  60  86 115 154 198 245 298 354
#     4  12  25  41  62  89 118 152 193 239 295 355
#     4   9  17  33  58  83 111 150 191 236 290 348
#     4  11  22  40  61  85 119 155 199 249 295 350
#     4  10  21  38  58  83 119 161 199 243 302 357
#     4  10  19  36  59  83 114 149 188 239 294 347
#
# _framework density 19.783760000000001
#
# number of rings (size 3 to 8) (size 9 to 14) (size 15 to 20)
#    0.000    2.000    1.250    2.625    0.000    3.000 
#    0.000    5.000    0.000    0.000    0.000    0.000 
#    0.000    0.000    0.000    0.000    0.000    0.000 
#
# Total GULP energy -396814.497690 kJ/mol
# GULP energy per Si atom -12400.453053 kJ/mol
# Density = 1.973873 g / cm^3
# Si number density = 19.783760 Si / 1000 Ang^3
#
#
#
# Elastic Constant Matrix: (Units=GPa)
#
#
# Indices 1 2 3 4 5 6 
#
# 1 169.5204 52.1441 49.8482 0.0000 1.3941 0.0000
# 2 52.1441 83.9558 37.5687 0.0000 -3.0382 0.0000
# 3 49.8482 37.5687 76.1028 0.0000 3.2486 0.0000
# 4 0.0000 0.0000 0.0000 20.4792 0.0000 3.7611
# 5 1.3941 -3.0382 3.2486 0.0000 33.4277 0.0000
# 6 0.0000 0.0000 0.0000 3.7611 0.0000 36.2858
#
#
#
# Elastic Compliance Matrix: (Units=1/GPa)
#
#
# Indices 1 2 3 4 5 6 
#
# 1 0.007985 -0.003383 -0.003548 0.000000 -0.000296 0.000000
# 2 -0.003383 0.016874 -0.006212 0.000000 0.002278 0.000000
# 3 -0.003548 -0.006212 0.018626 0.000000 -0.002227 0.000000
# 4 0.000000 0.000000 0.000000 0.049778 0.000000 -0.005160
# 5 -0.000296 0.002278 -0.002227 0.000000 0.030351 0.000000
# 6 0.000000 0.000000 0.000000 -0.005160 0.000000 0.028094
#
#
# Mechanical properties :
#
#
# Convention : Reuss Voigt Hill
#
# Bulk Modulus (GPa) = 58.13800 67.63344 62.88572
# Shear Modulus (GPa) = 27.21461 30.70641 28.96051
#
# Velocity S-wave (km/s) = 3.71294 3.94395 3.83018
# Velocity P-wave (km/s) = 6.91605 7.41621 7.17049
#
# Compressibility (1/GPa) = 0.01720046
#
# Stress axis : x y z
#
# Youngs Moduli (GPa) = 125.23183 59.26304 53.68982
#
# Poissons Ratio (x) = 0.20046 0.19049
# Poissons Ratio (y) = 0.42361 0.33350
# Poissons Ratio (z) = 0.44432 0.36812
#
# Static dielectric constant tensor:
#      x y z
#    x 3.994780 0.000000 0.280860 
#    y 0.000000 3.845160 0.000000 
#    z 0.280860 0.000000 3.881790 
# 
# 
# High freq. dielectric constant tensor:
#      x y z
#    x 1.788610 0.000000 0.001220 
#    y 0.000000 1.758840 0.000000 
#    z 0.001220 0.000000 1.763030 
# 
# From -- ./inp_files/45178.got.cif
#   From: 2010.06.25/outbox.cif.g09.slc.cpg/sg11_23_cif.got.tgz:45178.got - 2010.06.27 23:14:04.
