data_PCOD8072858
_publ_section_title
;
Structure prediction by ZEFSAII (Michael W. Deem and Ramdas Pophale) SiO2 
 PCOD8072858
Probable space group: P 21/M
;
_chemical_formula_sum "Si O2"
_cell_formula_units_Z 28
_cell_length_a 20.435505
_cell_length_b 9.036355
_cell_length_c 18.091849
_cell_angle_alpha 90.000000
_cell_angle_beta 152.928143
_cell_angle_gamma 90.000000
_cell_volume 1520.462424
_symmetry_space_group_name_H-M "P 21/M"
_symmetry_group_IT_number 11
_symmetry_cell_setting 'monoclinic'
loop_
_space_group_symop_operation_xyz
x,y,z
-x,1/2+y,-z
-x,-y,-z
x,1/2-y,z
loop_
_atom_site_type_symbol
_atom_site_label
_atom_site_fract_x
_atom_site_fract_y
_atom_site_fract_z
Si Si1 0.843813 0.923250 0.065508
Si Si2 0.651035 0.578652 0.146568
Si Si3 0.177870 0.578581 0.393923
Si Si4 0.683721 0.421787 0.037669
Si Si5 0.344508 0.083179 0.685666
Si Si6 0.175774 0.416524 0.245542
Si Si7 0.833599 0.082904 0.907553
O O1 0.809944 0.750000 0.032169
O O2 0.012170 0.957103 0.243445
O O3 0.764358 0.002384 0.051885
O O4 0.783714 0.990586 0.928706
O O5 0.629335 0.750000 0.104060
O O6 0.739623 0.497915 0.170248
O O7 0.723739 0.562847 0.300694
O O8 0.500000 0.500000 0.000000
O O9 0.201388 0.750000 0.401163
O O10 0.269760 0.532928 0.557065
O O11 0.234766 0.491165 0.379489
O O12 0.724262 0.250000 0.081353
O O13 0.514266 0.447682 0.857614
O O14 0.314494 0.250000 0.627477
O O15 0.235635 0.250000 0.301226
O O16 0.233465 0.506870 0.232750
O O17 0.004484 0.417692 0.073597
O O18 0.774600 0.250000 0.854358
#
# Coordination Sequence:
#
# PCOD8072858 Si02
#       7
#     4   4   4   4   4   4   4
#     4  10  20  33  49  73 103 132 164 203 246 292
#     4   9  17  31  51  74  98 126 163 205 244 288
#     4  10  20  32  49  74 102 131 165 203 244 291
#     4  10  20  34  53  76  99 128 166 205 246 293
#     4   9  19  34  52  74  99 127 162 202 244 292
#     4   9  16  27  45  68  96 129 163 201 243 285
#     4   9  16  27  45  69  96 127 164 203 241 285
#
# _framework density 18.41545
#
# number of rings (size 3 to 8) (size 9 to 14) (size 15 to 20)
#    0.000    2.571    0.000    3.429    0.000    8.571 
#    0.000    0.714    0.000    0.857    0.000    0.000 
#    0.000    0.000    0.000    0.000    0.000    0.000 
#
# Total GULP energy -347146.647022 kJ/mol
# GULP energy per Si atom -12398.094537 kJ/mol
# Density = 1.837354 g / cm^3
# Si number density = 18.415450 Si / 1000 Ang^3
#
#
#
# Elastic Constant Matrix: (Units=GPa)
#
#
# Indices 1 2 3 4 5 6 
#
# 1 267.2019 127.9977 26.6909 0.0000 -33.5182 0.0000
# 2 127.9977 165.0088 36.0534 0.0000 -21.6942 0.0000
# 3 26.6909 36.0534 48.8250 0.0000 -23.9171 0.0000
# 4 0.0000 0.0000 0.0000 27.1421 0.0000 -9.0371
# 5 -33.5182 -21.6942 -23.9171 0.0000 26.0787 0.0000
# 6 0.0000 0.0000 0.0000 -9.0371 0.0000 40.1787
#
#
#
# Elastic Compliance Matrix: (Units=1/GPa)
#
#
# Indices 1 2 3 4 5 6 
#
# 1 0.006808 -0.005086 0.004081 0.000000 0.008261 0.000000
# 2 -0.005086 0.011086 -0.007427 0.000000 -0.004126 0.000000
# 3 0.004081 -0.007427 0.042265 0.000000 0.037829 0.000000
# 4 0.000000 0.000000 0.000000 0.039826 0.000000 0.008958
# 5 0.008261 -0.004126 0.037829 0.000000 0.080224 0.000000
# 6 0.000000 0.000000 0.000000 0.008958 0.000000 0.026904
#
#
# Mechanical properties :
#
#
# Convention : Reuss Voigt Hill
#
# Bulk Modulus (GPa) = 23.09753 95.83552 59.46653
# Shear Modulus (GPa) = 20.97247 38.03281 29.50264
#
# Velocity S-wave (km/s) = 3.37835 4.54945 4.00692
# Velocity P-wave (km/s) = 5.27137 8.93031 7.33273
#
# Compressibility (1/GPa) = 0.04329466
#
# Stress axis : x y z
#
# Youngs Moduli (GPa) = 146.89479 90.20460 23.66013
#
# Poissons Ratio (x) = 0.45880 -0.09656
# Poissons Ratio (y) = 0.74714 0.17572
# Poissons Ratio (z) = -0.59951 0.66995
#
# Static dielectric constant tensor:
#      x y z
#    x 3.540040 0.000000 -0.380630 
#    y 0.000000 3.686470 0.000000 
#    z -0.380630 0.000000 3.038540 
# 
# 
# High freq. dielectric constant tensor:
#      x y z
#    x 1.716870 0.000000 -0.034720 
#    y 0.000000 1.733590 0.000000 
#    z -0.034720 0.000000 1.669310 
# 
# From -- ./inp_files/42344.got.cif
#   From: 2010.06.25/outbox.cif.g09.slc.cpg/sg11_22_cif.got.tgz:42344.got - 2010.06.27 23:14:04.
