data_PCOD8072128
_publ_section_title
;
Structure prediction by ZEFSAII (Michael W. Deem and Ramdas Pophale) SiO2 
 PCOD8072128
Probable space group: P 21/M
;
_chemical_formula_sum "Si O2"
_cell_formula_units_Z 32
_cell_length_a 19.824053
_cell_length_b 9.013850
_cell_length_c 19.655813
_cell_angle_alpha 90.000000
_cell_angle_beta 29.800574
_cell_angle_gamma 90.000000
_cell_volume 1745.560959
_symmetry_space_group_name_H-M "P 21/M"
_symmetry_group_IT_number 11
_symmetry_cell_setting 'monoclinic'
loop_
_space_group_symop_operation_xyz
x,y,z
-x,1/2+y,-z
-x,-y,-z
x,1/2-y,z
loop_
_atom_site_type_symbol
_atom_site_label
_atom_site_fract_x
_atom_site_fract_y
_atom_site_fract_z
Si Si1 0.324205 0.577812 0.099798
Si Si2 0.623401 0.925118 0.662637
Si Si3 0.595914 0.077618 0.820889
Si Si4 0.866365 0.579528 0.828384
Si Si5 0.651003 0.579270 0.133228
Si Si6 0.837329 0.075490 0.380813
Si Si7 0.182161 0.423308 0.884085
Si Si8 0.885627 0.424701 0.186125
O O1 0.350468 0.750000 0.060790
O O2 0.317668 0.549732 0.186467
O O3 0.183694 0.523034 0.190105
O O4 0.443826 0.483041 0.961592
O O5 0.634089 0.750000 0.657607
O O6 0.670035 0.993807 0.694225
O O7 0.469660 0.971388 0.781750
O O8 0.719553 0.984574 0.519681
O O9 0.584535 0.250000 0.812779
O O10 0.857253 0.750000 0.813251
O O11 0.019760 0.533617 0.710187
O O12 0.778110 0.551515 0.972815
O O13 0.602285 0.750000 0.171500
O O14 0.697544 0.538532 0.168836
O O15 0.808778 0.250000 0.412343
O O16 0.836318 0.023865 0.303345
O O17 0.175061 0.250000 0.876123
O O18 0.210741 0.504000 0.787313
O O19 0.040025 0.479564 0.040247
O O20 0.875882 0.250000 0.188293
#
# Coordination Sequence:
#
# PCOD8072128 Si02
#       8
#     4   4   4   4   4   4   4   4
#     4  10  20  33  55  87 115 140 180 233 279 320
#     4  12  25  38  55  83 114 146 187 234 281 329
#     4  10  20  36  56  79 112 151 185 221 274 335
#     4  10  19  34  59  85 110 145 189 229 273 331
#     4  10  19  35  58  83 111 146 185 226 274 333
#     4  10  21  39  59  80 111 153 191 224 274 340
#     4   9  17  31  54  84 113 140 178 226 274 326
#     4   9  17  32  54  81 111 143 181 223 272 328
#
# _framework density 18.332215000000001
#
# number of rings (size 3 to 8) (size 9 to 14) (size 15 to 20)
#    0.000    2.000    2.500    1.875    0.000    3.000 
#    0.000    1.250    0.000    0.000    0.000    0.000 
#    0.000    0.000    0.000    0.000    0.000    0.000 
#
# Total GULP energy -396869.661120 kJ/mol
# GULP energy per Si atom -12402.176910 kJ/mol
# Density = 1.829049 g / cm^3
# Si number density = 18.332215 Si / 1000 Ang^3
#
#
#
# Elastic Constant Matrix: (Units=GPa)
#
#
# Indices 1 2 3 4 5 6 
#
# 1 111.1008 40.2550 22.8517 0.0000 20.2474 0.0000
# 2 40.2550 74.4000 29.4585 0.0000 14.1105 0.0000
# 3 22.8517 29.4585 60.0423 0.0000 16.0286 0.0000
# 4 0.0000 0.0000 0.0000 22.3368 0.0000 0.6538
# 5 20.2474 14.1105 16.0286 0.0000 26.7870 0.0000
# 6 0.0000 0.0000 0.0000 0.6538 0.0000 35.0640
#
#
#
# Elastic Compliance Matrix: (Units=1/GPa)
#
#
# Indices 1 2 3 4 5 6 
#
# 1 0.012096 -0.005219 -0.000400 0.000000 -0.006154 0.000000
# 2 -0.005219 0.019430 -0.006983 0.000000 -0.002112 0.000000
# 3 -0.000400 -0.006983 0.022815 0.000000 -0.009671 0.000000
# 4 0.000000 0.000000 0.000000 0.044794 0.000000 -0.000835
# 5 -0.006154 -0.002112 -0.009671 0.000000 0.048883 0.000000
# 6 0.000000 0.000000 0.000000 -0.000835 0.000000 0.028535
#
#
# Mechanical properties :
#
#
# Convention : Reuss Voigt Hill
#
# Bulk Modulus (GPa) = 34.32073 47.85262 41.08667
# Shear Modulus (GPa) = 23.64425 27.03606 25.34016
#
# Velocity S-wave (km/s) = 3.59523 3.84446 3.72193
# Velocity P-wave (km/s) = 5.99970 6.77246 6.39776
#
# Compressibility (1/GPa) = 0.02913691
#
# Stress axis : x y z
#
# Youngs Moduli (GPa) = 82.67440 51.46675 43.83090
#
# Poissons Ratio (x) = 0.26860 0.01754
# Poissons Ratio (y) = 0.43147 0.30606
# Poissons Ratio (z) = 0.03308 0.35938
#
# Static dielectric constant tensor:
#      x y z
#    x 3.619540 0.000000 0.144140 
#    y 0.000000 3.332520 0.000000 
#    z 0.144140 0.000000 3.138530 
# 
# 
# High freq. dielectric constant tensor:
#      x y z
#    x 1.726370 0.000000 0.010280 
#    y 0.000000 1.706890 0.000000 
#    z 0.010280 0.000000 1.680820 
# 
# From -- ./inp_files/66453.got.cif
#   From: 2010.06.25/outbox.cif.g09.slc.cpg/sg11_34_cif.got.tgz:66453.got - 2010.06.27 23:14:04.
