data_PCOD8072813
_publ_section_title
;
Structure prediction by ZEFSAII (Michael W. Deem and Ramdas Pophale) SiO2 
 PCOD8072813
Probable space group: P 21/M
;
_chemical_formula_sum "Si O2"
_cell_formula_units_Z 32
_cell_length_a 17.102555
_cell_length_b 8.960905
_cell_length_c 12.543236
_cell_angle_alpha 90.000000
_cell_angle_beta 88.503093
_cell_angle_gamma 90.000000
_cell_volume 1921.649726
_symmetry_space_group_name_H-M "P 21/M"
_symmetry_group_IT_number 11
_symmetry_cell_setting 'monoclinic'
loop_
_space_group_symop_operation_xyz
x,y,z
-x,1/2+y,-z
-x,-y,-z
x,1/2-y,z
loop_
_atom_site_type_symbol
_atom_site_label
_atom_site_fract_x
_atom_site_fract_y
_atom_site_fract_z
Si Si1 0.177150 0.072943 0.283052
Si Si2 0.078567 0.076753 0.877483
Si Si3 0.498313 0.923747 0.612558
Si Si4 0.918731 0.076941 0.527956
Si Si5 0.101462 0.923970 0.091679
Si Si6 0.665946 0.925231 0.616770
Si Si7 0.330360 0.924030 0.610928
Si Si8 0.166126 0.920695 0.689091
O O1 0.166661 0.250000 0.286338
O O2 0.265753 0.020662 0.306610
O O3 0.117230 0.001184 0.367893
O O4 0.159723 0.012760 0.166179
O O5 0.092961 0.250000 0.900409
O O6 0.986975 0.041245 0.869278
O O7 0.119184 0.031299 0.766333
O O8 0.116055 0.981815 0.971664
O O9 0.501158 0.750000 0.590697
O O10 0.579602 0.969679 0.669706
O O11 0.413509 0.964647 0.668078
O O12 0.500000 0.000000 0.500000
O O13 0.932884 0.250000 0.554163
O O14 0.860986 0.055704 0.430915
O O15 0.000000 0.000000 0.500000
O O16 0.121169 0.750000 0.095806
O O17 0.673140 0.750000 0.601083
O O18 0.678050 0.993211 0.500311
O O19 0.326025 0.750000 0.583396
O O20 0.258136 0.965113 0.690879
O O21 0.151813 0.750000 0.726087
#
# Coordination Sequence:
#
# PCOD8072813 Si02
#       8
#     4   4   4   4   4   4   4   4
#     4  11  21  32  48  71 100 130 161 197 239 285
#     4  10  21  36  54  73  92 119 157 202 247 287
#     4   8  14  25  42  63  90 124 160 193 231 276
#     4  11  22  34  47  66  96 131 166 198 236 286
#     4  10  21  37  55  72  92 121 160 203 244 286
#     4   9  17  28  43  67  97 128 159 195 235 279
#     4   9  16  28  45  66  94 128 162 196 233 280
#     4  10  20  32  47  69  97 128 160 196 237 283
#
# _framework density 16.652358
#
# number of rings (size 3 to 8) (size 9 to 14) (size 15 to 20)
#    0.000    2.250    1.250    2.250    0.000    5.500 
#    0.000    0.000    0.000    0.000    0.000    0.875 
#    0.000    0.000    0.000    0.000    0.000    0.000 
#
# Total GULP energy -396572.157355 kJ/mol
# GULP energy per Si atom -12392.879917 kJ/mol
# Density = 1.661446 g / cm^3
# Si number density = 16.652358 Si / 1000 Ang^3
#
#
#
# Elastic Constant Matrix: (Units=GPa)
#
#
# Indices 1 2 3 4 5 6 
#
# 1 95.4685 28.3937 13.2308 0.0000 14.7857 0.0000
# 2 28.3937 48.2983 17.2754 0.0000 11.2045 0.0000
# 3 13.2308 17.2754 45.6925 0.0000 12.6786 0.0000
# 4 0.0000 0.0000 0.0000 27.7296 0.0000 -0.0991
# 5 14.7857 11.2045 12.6786 0.0000 17.5530 0.0000
# 6 0.0000 0.0000 0.0000 -0.0991 0.0000 19.1266
#
#
#
# Elastic Compliance Matrix: (Units=1/GPa)
#
#
# Indices 1 2 3 4 5 6 
#
# 1 0.013477 -0.006355 0.000656 0.000000 -0.007770 0.000000
# 2 -0.006355 0.028745 -0.006781 0.000000 -0.008097 0.000000
# 3 0.000656 -0.006781 0.029030 0.000000 -0.017193 0.000000
# 4 0.000000 0.000000 0.000000 0.036063 0.000000 0.000187
# 5 -0.007770 -0.008097 -0.017193 0.000000 0.081102 0.000000
# 6 0.000000 0.000000 0.000000 0.000187 0.000000 0.052284
#
#
# Mechanical properties :
#
#
# Convention : Reuss Voigt Hill
#
# Bulk Modulus (GPa) = 21.60201 34.13989 27.87095
# Shear Modulus (GPa) = 17.78784 21.58581 19.68682
#
# Velocity S-wave (km/s) = 3.27186 3.60427 3.44208
# Velocity P-wave (km/s) = 5.22244 6.15362 5.70706
#
# Compressibility (1/GPa) = 0.04629200
#
# Stress axis : x y z
#
# Youngs Moduli (GPa) = 74.19938 34.78914 34.44758
#
# Poissons Ratio (x) = 0.22109 -0.02261
# Poissons Ratio (y) = 0.47156 0.23358
# Poissons Ratio (z) = -0.04869 0.23589
#
# Static dielectric constant tensor:
#      x y z
#    x 0.352400 0.000000 0.988010 
#    y 0.000000 3.193900 0.000000 
#    z 0.988010 0.000000 2.577720 
# 
# 
# High freq. dielectric constant tensor:
#      x y z
#    x 1.655800 0.000000 0.005890 
#    y 0.000000 1.650790 0.000000 
#    z 0.005890 0.000000 1.598690 
# 
# From -- ./inp_files/40694.got.cif
#   From: 2010.06.25/outbox.cif.g09.slc.cpg/sg11_21_cif.got.tgz:40694.got - 2010.06.27 23:14:04.
