data_PCOD8072857
_publ_section_title
;
Structure prediction by ZEFSAII (Michael W. Deem and Ramdas Pophale) SiO2 
 PCOD8072857
Probable space group: P 21/M
;
_chemical_formula_sum "Si O2"
_cell_formula_units_Z 28
_cell_length_a 18.143472
_cell_length_b 9.020466
_cell_length_c 20.568830
_cell_angle_alpha 90.000000
_cell_angle_beta 153.269396
_cell_angle_gamma 90.000000
_cell_volume 1514.170103
_symmetry_space_group_name_H-M "P 21/M"
_symmetry_group_IT_number 11
_symmetry_cell_setting 'monoclinic'
loop_
_space_group_symop_operation_xyz
x,y,z
-x,1/2+y,-z
-x,-y,-z
x,1/2-y,z
loop_
_atom_site_type_symbol
_atom_site_label
_atom_site_fract_x
_atom_site_fract_y
_atom_site_fract_z
Si Si1 0.890076 0.420326 0.680736
Si Si2 0.755800 0.422232 0.828150
Si Si3 0.540152 0.081435 0.338615
Si Si4 0.085033 0.077435 0.162884
Si Si5 0.036016 0.917508 0.680541
Si Si6 0.149824 0.076291 0.653464
Si Si7 0.679425 0.914577 0.336184
O O1 0.941265 0.250000 0.728229
O O2 0.708887 0.436990 0.509646
O O3 0.893380 0.496952 0.752456
O O4 0.023090 0.499083 0.739187
O O5 0.741768 0.250000 0.799462
O O6 0.589335 0.476043 0.729242
O O7 0.782997 0.511768 0.783218
O O8 0.902452 0.453160 0.993678
O O9 0.477121 0.250000 0.289092
O O10 0.563595 0.031069 0.281995
O O11 0.122169 0.250000 0.200914
O O12 0.095869 0.750000 0.740023
O O13 0.861768 0.921575 0.508179
O O14 0.170066 0.000673 0.740336
O O15 0.112559 0.250000 0.632913
O O16 0.309431 0.051204 0.732722
O O17 0.000000 0.000000 0.500000
O O18 0.606830 0.750000 0.290139
#
# Coordination Sequence:
#
# PCOD8072857 Si02
#       7
#     4   4   4   4   4   4   4
#     4  10  20  33  50  74 103 133 164 201 246 292
#     4  10  21  37  56  75  97 127 162 201 245 292
#     4  10  20  32  49  74 102 131 164 202 244 290
#     4  10  21  37  56  76  97 125 163 203 243 291
#     4   9  16  26  41  63  93 128 163 201 243 286
#     4   9  15  23  37  59  89 126 164 200 241 288
#     4   8  15  26  40  61  92 128 162 198 241 285
#
# _framework density 18.491979000000001
#
# number of rings (size 3 to 8) (size 9 to 14) (size 15 to 20)
#    0.000    2.571    0.000    3.429    0.000    8.000 
#    0.000    0.000    0.000    0.000    0.000    1.000 
#    0.000    0.000    0.000    0.000    0.000    0.000 
#
# Total GULP energy -347122.261443 kJ/mol
# GULP energy per Si atom -12397.223623 kJ/mol
# Density = 1.844989 g / cm^3
# Si number density = 18.491979 Si / 1000 Ang^3
#
#
#
# Elastic Constant Matrix: (Units=GPa)
#
#
# Indices 1 2 3 4 5 6 
#
# 1 157.8945 80.4101 29.8790 0.0000 0.5410 0.0000
# 2 80.4101 140.0500 26.8627 0.0000 1.5787 0.0000
# 3 29.8790 26.8627 16.2367 0.0000 -0.9878 0.0000
# 4 0.0000 0.0000 0.0000 18.2837 0.0000 0.1254
# 5 0.5410 1.5787 -0.9878 0.0000 -11.0074 0.0000
# 6 0.0000 0.0000 0.0000 0.1254 0.0000 43.7119
#
#
#
# Elastic Compliance Matrix: (Units=1/GPa)
#
#
# Indices 1 2 3 4 5 6 
#
# 1 0.010749 -0.003525 -0.013871 0.000000 0.001268 0.000000
# 2 -0.003525 0.011515 -0.012405 0.000000 0.002591 0.000000
# 3 -0.013871 -0.012405 0.106905 0.000000 -0.012055 0.000000
# 4 0.000000 0.000000 0.000000 0.054695 0.000000 -0.000157
# 5 0.001268 0.002591 -0.012055 0.000000 -0.089332 0.000000
# 6 0.000000 0.000000 0.000000 -0.000157 0.000000 0.022878
#
#
# Mechanical properties :
#
#
# Convention : Reuss Voigt Hill
#
# Bulk Modulus (GPa) = 14.37499 65.38719 39.88109
# Shear Modulus (GPa) = 24.97495 21.99959 23.48727
#
# Velocity S-wave (km/s) = 3.67901 3.45292 3.56776
# Velocity P-wave (km/s) = 5.08305 7.16473 6.21171
#
# Compressibility (1/GPa) = 0.06956526
#
# Stress axis : x y z
#
# Youngs Moduli (GPa) = 93.02953 86.84632 9.35412
#
# Poissons Ratio (x) = 0.30617 0.12975
# Poissons Ratio (y) = 0.32797 0.11604
# Poissons Ratio (z) = 1.29044 1.07733
#
# Static dielectric constant tensor:
#      x y z
#    x 4.316130 0.000000 -0.076900 
#    y 0.000000 3.648790 0.000000 
#    z -0.076900 0.000000 2.846060 
# 
# 
# High freq. dielectric constant tensor:
#      x y z
#    x 1.740700 0.000000 -0.003290 
#    y 0.000000 1.735850 0.000000 
#    z -0.003290 0.000000 1.650850 
# 
# From -- ./inp_files/64148.got.cif
#   From: 2010.06.25/outbox.cif.g09.slc.cpg/sg11_33_cif.got.tgz:64148.got - 2010.06.27 23:14:04.
