data_PCOD8072856
_publ_section_title
;
Structure prediction by ZEFSAII (Michael W. Deem and Ramdas Pophale) SiO2 
 PCOD8072856
Probable space group: P 21/M
;
_chemical_formula_sum "Si O2"
_cell_formula_units_Z 32
_cell_length_a 15.337177
_cell_length_b 9.126169
_cell_length_c 27.282526
_cell_angle_alpha 90.000000
_cell_angle_beta 151.966614
_cell_angle_gamma 90.000000
_cell_volume 1794.747720
_symmetry_space_group_name_H-M "P 21/M"
_symmetry_group_IT_number 11
_symmetry_cell_setting 'monoclinic'
loop_
_space_group_symop_operation_xyz
x,y,z
-x,1/2+y,-z
-x,-y,-z
x,1/2-y,z
loop_
_atom_site_type_symbol
_atom_site_label
_atom_site_fract_x
_atom_site_fract_y
_atom_site_fract_z
Si Si1 0.678661 0.919208 0.766561
Si Si2 0.702871 0.083090 0.878310
Si Si3 0.683908 0.920455 0.149162
Si Si4 0.935663 0.419552 0.086144
Si Si5 0.925885 0.420092 0.345562
Si Si6 0.722253 0.583621 0.328321
Si Si7 0.307928 0.420335 0.960614
Si Si8 0.314174 0.081229 0.579269
O O1 0.638947 0.750000 0.756257
O O2 0.844232 0.942918 0.810005
O O3 0.737595 0.987547 0.847519
O O4 0.493855 0.990293 0.651753
O O5 0.752768 0.250000 0.889529
O O6 0.492751 0.070422 0.792956
O O7 0.834517 0.024287 0.986737
O O8 0.665048 0.750000 0.152538
O O9 0.728202 0.948503 0.114486
O O10 0.853083 0.988102 0.263494
O O11 0.493228 0.997800 0.070387
O O12 0.885964 0.250000 0.071139
O O13 0.868641 0.515365 0.098710
O O14 0.878130 0.250000 0.314440
O O15 0.836234 0.472711 0.351630
O O16 0.147591 0.445000 0.458533
O O17 0.792850 0.750000 0.355047
O O18 0.751063 0.533391 0.398759
O O19 0.332061 0.250000 0.984440
O O20 0.375962 0.250000 0.612287
#
# Coordination Sequence:
#
# PCOD8072856 Si02
#       8
#     4   4   4   4   4   4   4   4
#     4  10  20  32  49  74 101 133 173 211 248 292
#     4   9  18  32  48  69 102 139 168 199 246 298
#     4  10  21  37  55  77 106 133 158 198 251 299
#     4  10  20  33  51  76 104 133 166 207 254 297
#     4  11  21  32  51  77 100 129 172 211 246 297
#     4   9  17  30  48  71 101 136 168 202 249 296
#     4  10  21  36  56  80 102 130 166 199 240 299
#     4   9  20  36  50  68  99 137 173 210 251 291
#
# _framework density 17.829803999999999
#
# number of rings (size 3 to 8) (size 9 to 14) (size 15 to 20)
#    0.000    2.250    0.000    3.750    0.000    7.000 
#    0.000    0.000    0.000    0.750    0.000    0.000 
#    0.000    0.000    0.000    0.000    0.000    0.000 
#
# Total GULP energy -396907.134507 kJ/mol
# GULP energy per Si atom -12403.347953 kJ/mol
# Density = 1.778922 g / cm^3
# Si number density = 17.829804 Si / 1000 Ang^3
#
#
#
# Elastic Constant Matrix: (Units=GPa)
#
#
# Indices 1 2 3 4 5 6 
#
# 1 80.2969 55.9556 42.8466 0.0000 10.4113 0.0000
# 2 55.9556 105.1141 53.0189 0.0000 4.4607 0.0000
# 3 42.8466 53.0189 103.1258 0.0000 -1.4637 0.0000
# 4 0.0000 0.0000 0.0000 30.0574 0.0000 0.7705
# 5 10.4113 4.4607 -1.4637 0.0000 18.2893 0.0000
# 6 0.0000 0.0000 0.0000 0.7705 0.0000 31.7247
#
#
#
# Elastic Compliance Matrix: (Units=1/GPa)
#
#
# Indices 1 2 3 4 5 6 
#
# 1 0.023020 -0.009279 -0.004953 0.000000 -0.011238 0.000000
# 2 -0.009279 0.016835 -0.004789 0.000000 0.000793 0.000000
# 3 -0.004953 -0.004789 0.014290 0.000000 0.005131 0.000000
# 4 0.000000 0.000000 0.000000 0.033290 0.000000 -0.000808
# 5 -0.011238 0.000793 0.005131 0.000000 0.061291 0.000000
# 6 0.000000 0.000000 0.000000 -0.000808 0.000000 0.031541
#
#
# Mechanical properties :
#
#
# Convention : Reuss Voigt Hill
#
# Bulk Modulus (GPa) = 62.10178 65.79766 63.94972
# Shear Modulus (GPa) = 22.35375 25.12866 23.74121
#
# Velocity S-wave (km/s) = 3.54465 3.75822 3.65299
# Velocity P-wave (km/s) = 7.18739 7.47098 7.33056
#
# Compressibility (1/GPa) = 0.01610260
#
# Stress axis : x y z
#
# Youngs Moduli (GPa) = 43.44021 59.40137 69.98093
#
# Poissons Ratio (x) = 0.55119 0.34664
# Poissons Ratio (y) = 0.40308 0.33510
# Poissons Ratio (z) = 0.21518 0.28444
#
# Static dielectric constant tensor:
#      x y z
#    x 3.073030 0.000000 0.041240 
#    y 0.000000 3.338910 0.000000 
#    z 0.041240 0.000000 3.334040 
# 
# 
# High freq. dielectric constant tensor:
#      x y z
#    x 1.667130 0.000000 0.006360 
#    y 0.000000 1.697750 0.000000 
#    z 0.006360 0.000000 1.687510 
# 
# From -- ./inp_files/51707.got.cif
#   From: 2010.06.25/outbox.cif.g09.slc.cpg/sg11_26_cif.got.tgz:51707.got - 2010.06.27 23:14:04.
