data_PCOD8072610
_publ_section_title
;
Structure prediction by ZEFSAII (Michael W. Deem and Ramdas Pophale) SiO2 
 PCOD8072610
Probable space group: P 21/M
;
_chemical_formula_sum "Si O2"
_cell_formula_units_Z 32
_cell_length_a 14.601763
_cell_length_b 8.882791
_cell_length_c 12.535767
_cell_angle_alpha 90.000000
_cell_angle_beta 89.571025
_cell_angle_gamma 90.000000
_cell_volume 1625.898678
_symmetry_space_group_name_H-M "P 21/M"
_symmetry_group_IT_number 11
_symmetry_cell_setting 'monoclinic'
loop_
_space_group_symop_operation_xyz
x,y,z
-x,1/2+y,-z
-x,-y,-z
x,1/2-y,z
loop_
_atom_site_type_symbol
_atom_site_label
_atom_site_fract_x
_atom_site_fract_y
_atom_site_fract_z
Si Si1 0.345964 0.080389 0.721978
Si Si2 0.039475 0.923860 0.602843
Si Si3 0.210275 0.082020 0.542919
Si Si4 0.287903 0.073340 0.317408
Si Si5 0.476477 0.569439 0.385502
Si Si6 0.990602 0.576411 0.185622
Si Si7 0.809475 0.074499 0.882932
Si Si8 0.794301 0.929795 0.102019
O O1 0.354204 0.250000 0.762411
O O2 0.306331 0.072104 0.602430
O O3 0.447948 0.014343 0.703888
O O4 0.279034 0.004022 0.810695
O O5 0.020274 0.750000 0.596815
O O6 0.146841 0.961970 0.603677
O O7 0.989513 0.985264 0.707322
O O8 0.000000 0.000000 0.500000
O O9 0.168332 0.250000 0.556707
O O10 0.221777 0.043697 0.418689
O O11 0.308120 0.250000 0.302983
O O12 0.381624 0.986457 0.338063
O O13 0.236923 0.009238 0.215312
O O14 0.500000 0.500000 0.500000
O O15 0.476652 0.750000 0.396922
O O16 0.978627 0.750000 0.216304
O O17 0.897468 0.517256 0.131286
O O18 0.080483 0.549160 0.112908
O O19 0.785182 0.250000 0.875486
O O20 0.767230 0.004502 0.990395
O O21 0.791232 0.750000 0.092700
#
# Coordination Sequence:
#
# PCOD8072610 Si02
#       8
#     4   4   4   4   4   4   4   4
#     4   9  18  36  62  89 118 152 191 235 292 352
#     4  12  24  35  52  82 119 158 199 243 294 352
#     4  10  19  37  60  83 117 155 193 238 293 355
#     4  11  23  40  62  88 119 161 203 244 300 362
#     4  11  21  37  62  94 125 156 195 243 298 358
#     4  10  21  39  62  86 117 157 200 246 298 353
#     4  11  24  40  59  88 122 156 201 255 299 347
#     4  10  20  39  65  87 116 160 201 241 293 358
#
# _framework density 19.681424
#
# number of rings (size 3 to 8) (size 9 to 14) (size 15 to 20)
#    0.000    1.500    2.500    3.375    0.000    4.500 
#    0.000    1.875    0.000    0.000    0.000    0.000 
#    0.000    0.000    0.000    0.000    0.000    0.000 
#
# Total GULP energy -396687.611649 kJ/mol
# GULP energy per Si atom -12396.487864 kJ/mol
# Density = 1.963663 g / cm^3
# Si number density = 19.681424 Si / 1000 Ang^3
#
#
#
# Elastic Constant Matrix: (Units=GPa)
#
#
# Indices 1 2 3 4 5 6 
#
# 1 85.1983 26.7916 30.5772 0.0000 -11.1736 0.0000
# 2 26.7916 74.4433 39.1044 0.0000 -7.8277 0.0000
# 3 30.5772 39.1044 127.6741 0.0000 -10.8750 0.0000
# 4 0.0000 0.0000 0.0000 32.0026 0.0000 1.8348
# 5 -11.1736 -7.8277 -10.8750 0.0000 25.3192 0.0000
# 6 0.0000 0.0000 0.0000 1.8348 0.0000 27.5708
#
#
#
# Elastic Compliance Matrix: (Units=1/GPa)
#
#
# Indices 1 2 3 4 5 6 
#
# 1 0.014126 -0.003632 -0.001905 0.000000 0.004293 0.000000
# 2 -0.003632 0.017158 -0.004225 0.000000 0.001887 0.000000
# 3 -0.001905 -0.004225 0.009757 0.000000 0.002044 0.000000
# 4 0.000000 0.000000 0.000000 0.031367 0.000000 -0.002087
# 5 0.004293 0.001887 0.002044 0.000000 0.042852 0.000000
# 6 0.000000 0.000000 0.000000 -0.002087 0.000000 0.036409
#
#
# Mechanical properties :
#
#
# Convention : Reuss Voigt Hill
#
# Bulk Modulus (GPa) = 46.47357 53.36247 49.91802
# Shear Modulus (GPa) = 28.03260 29.70134 28.86697
#
# Velocity S-wave (km/s) = 3.77811 3.88893 3.83392
# Velocity P-wave (km/s) = 6.53424 6.88019 6.70945
#
# Compressibility (1/GPa) = 0.02151761
#
# Stress axis : x y z
#
# Youngs Moduli (GPa) = 70.79087 58.28308 102.49352
#
# Poissons Ratio (x) = 0.21167 0.19526
# Poissons Ratio (y) = 0.25709 0.43299
# Poissons Ratio (z) = 0.13487 0.24622
#
# Static dielectric constant tensor:
#      x y z
#    x 4.018180 0.000000 -0.251130 
#    y 0.000000 2.259530 0.000000 
#    z -0.251130 0.000000 3.631760 
# 
# 
# High freq. dielectric constant tensor:
#      x y z
#    x 1.769600 0.000000 -0.007350 
#    y 0.000000 1.753870 0.000000 
#    z -0.007350 0.000000 1.767500 
# 
# From -- ./inp_files/38174.got.cif
#   From: 2010.06.25/outbox.cif.g09.slc.cpg/sg11_20_cif.got.tgz:38174.got - 2010.06.27 23:14:04.
