data_PCOD8072747
_publ_section_title
;
Structure prediction by ZEFSAII (Michael W. Deem and Ramdas Pophale) SiO2 
 PCOD8072747
Probable space group: P 21/M
;
_chemical_formula_sum "Si O2"
_cell_formula_units_Z 32
_cell_length_a 30.526969
_cell_length_b 9.189269
_cell_length_c 22.752334
_cell_angle_alpha 90.000000
_cell_angle_beta 162.359057
_cell_angle_gamma 90.000000
_cell_volume 1934.221742
_symmetry_space_group_name_H-M "P 21/M"
_symmetry_group_IT_number 11
_symmetry_cell_setting 'monoclinic'
loop_
_space_group_symop_operation_xyz
x,y,z
-x,1/2+y,-z
-x,-y,-z
x,1/2-y,z
loop_
_atom_site_type_symbol
_atom_site_label
_atom_site_fract_x
_atom_site_fract_y
_atom_site_fract_z
Si Si1 0.821282 0.588051 0.438343
Si Si2 0.854059 0.419956 0.795731
Si Si3 0.612476 0.079751 0.102459
Si Si4 0.024803 0.580889 0.794888
Si Si5 0.645685 0.919067 0.614465
Si Si6 0.190522 0.917876 0.397910
Si Si7 0.322953 0.583757 0.227853
Si Si8 0.401576 0.089035 0.739240
O O1 0.838440 0.750000 0.434178
O O2 0.772057 0.484198 0.321355
O O3 0.704979 0.585288 0.341652
O O4 0.970994 0.533549 0.660577
O O5 0.868080 0.250000 0.829062
O O6 0.720273 0.488755 0.659139
O O7 0.822548 0.445974 0.687482
O O8 0.000000 0.500000 0.000000
O O9 0.610789 0.250000 0.114740
O O10 0.562198 0.050822 0.970372
O O11 0.500000 0.000000 0.000000
O O12 0.985788 0.750000 0.754095
O O13 0.943273 0.495833 0.742056
O O14 0.195857 0.551805 0.018637
O O15 0.688985 0.750000 0.664459
O O16 0.474019 0.944064 0.388120
O O17 0.698284 0.975651 0.744910
O O18 0.183354 0.750000 0.405377
O O19 0.346281 0.977989 0.619012
O O20 0.315687 0.750000 0.241923
O O21 0.403733 0.250000 0.713815
#
# Coordination Sequence:
#
# PCOD8072747 Si02
#       8
#     4   4   4   4   4   4   4   4
#     4   8  14  23  35  54  79 108 141 172 205 249
#     4  11  23  36  49  67  91 118 148 183 222 263
#     4   9  15  22  33  51  76 107 141 173 206 247
#     4   9  17  29  44  62  87 118 147 176 215 259
#     4  10  20  33  50  71  90 113 148 184 221 265
#     4  10  20  30  42  63  87 112 147 185 216 254
#     4   9  18  33  51  68  89 117 147 182 221 261
#     4   8  15  26  38  53  77 111 145 174 210 255
#
# _framework density 16.544121000000001
#
# number of rings (size 3 to 8) (size 9 to 14) (size 15 to 20)
#    0.000    2.750    0.000    3.750    0.000   10.000 
#    0.000    0.000    0.000    0.000    0.000    0.000 
#    0.000    1.000    0.000    2.250    0.000    5.125 
#
# Total GULP energy -396584.020156 kJ/mol
# GULP energy per Si atom -12393.250630 kJ/mol
# Density = 1.650647 g / cm^3
# Si number density = 16.544121 Si / 1000 Ang^3
#
#
#
# Elastic Constant Matrix: (Units=GPa)
#
#
# Indices 1 2 3 4 5 6 
#
# 1 45.4778 44.1352 47.4791 0.0000 -8.2419 0.0000
# 2 44.1352 102.2146 64.0354 0.0000 -14.8717 0.0000
# 3 47.4791 64.0354 141.2224 0.0000 -28.9342 0.0000
# 4 0.0000 0.0000 0.0000 26.9815 0.0000 -5.9393
# 5 -8.2419 -14.8717 -28.9342 0.0000 23.0976 0.0000
# 6 0.0000 0.0000 0.0000 -5.9393 0.0000 23.0683
#
#
#
# Elastic Compliance Matrix: (Units=1/GPa)
#
#
# Indices 1 2 3 4 5 6 
#
# 1 0.044860 -0.013985 -0.009828 0.000000 -0.005309 0.000000
# 2 -0.013985 0.018059 -0.002861 0.000000 0.003053 0.000000
# 3 -0.009828 -0.002861 0.014242 0.000000 0.012492 0.000000
# 4 0.000000 0.000000 0.000000 0.039289 0.000000 0.010116
# 5 -0.005309 0.003053 0.012492 0.000000 0.059014 0.000000
# 6 0.000000 0.000000 0.000000 0.010116 0.000000 0.045954
#
#
# Mechanical properties :
#
#
# Convention : Reuss Voigt Hill
#
# Bulk Modulus (GPa) = 41.99709 66.69048 54.34379
# Shear Modulus (GPa) = 17.68640 23.51383 20.60012
#
# Velocity S-wave (km/s) = 3.27317 3.77408 3.53251
# Velocity P-wave (km/s) = 6.30277 7.70647 7.03970
#
# Compressibility (1/GPa) = 0.02381118
#
# Stress axis : x y z
#
# Youngs Moduli (GPa) = 22.29178 55.37520 70.21518
#
# Poissons Ratio (x) = 0.77443 0.69008
# Poissons Ratio (y) = 0.31176 0.20090
# Poissons Ratio (z) = 0.21909 0.15844
#
# Static dielectric constant tensor:
#      x y z
#    x 2.836960 0.000000 -0.564480 
#    y 0.000000 3.371140 0.000000 
#    z -0.564480 0.000000 3.986010 
# 
# 
# High freq. dielectric constant tensor:
#      x y z
#    x 1.581100 0.000000 -0.034320 
#    y 0.000000 1.647520 0.000000 
#    z -0.034320 0.000000 1.645180 
# 
# From -- ./inp_files/67142.got.cif
#   From: 2010.06.25/outbox.cif.g09.slc.cpg/sg11_34_cif.got.tgz:67142.got - 2010.06.27 23:14:04.
