data_PCOD8072469
_publ_section_title
;
Structure prediction by ZEFSAII (Michael W. Deem and Ramdas Pophale) SiO2 
 PCOD8072469
Probable space group: P 21/M
;
_chemical_formula_sum "Si O2"
_cell_formula_units_Z 28
_cell_length_a 20.845873
_cell_length_b 9.628647
_cell_length_c 9.040358
_cell_angle_alpha 90.000000
_cell_angle_beta 129.973774
_cell_angle_gamma 90.000000
_cell_volume 1390.566220
_symmetry_space_group_name_H-M "P 21/M"
_symmetry_group_IT_number 11
_symmetry_cell_setting 'monoclinic'
loop_
_space_group_symop_operation_xyz
x,y,z
-x,1/2+y,-z
-x,-y,-z
x,1/2-y,z
loop_
_atom_site_type_symbol
_atom_site_label
_atom_site_fract_x
_atom_site_fract_y
_atom_site_fract_z
Si Si1 0.715314 0.911587 0.437863
Si Si2 0.613070 0.410526 0.777978
Si Si3 0.428795 0.091946 0.559531
Si Si4 0.120400 0.096357 0.176243
Si Si5 0.995346 0.473750 0.238687
Si Si6 0.743794 0.916045 0.152552
Si Si7 0.102038 0.897076 0.629706
O O1 0.736439 0.750000 0.458387
O O2 0.624897 0.941234 0.373901
O O3 0.791685 0.978096 0.647023
O O4 0.714615 0.968698 0.270490
O O5 0.642781 0.250000 0.808419
O O6 0.595146 0.472841 0.590673
O O7 0.527088 0.419530 0.745399
O O8 0.683540 0.507781 0.949699
O O9 0.409458 0.250000 0.473433
O O10 0.139291 0.250000 0.146608
O O11 0.060138 0.107127 0.229826
O O12 0.080871 0.019304 0.978648
O O13 0.046194 0.595643 0.397545
O O14 0.957349 0.382233 0.314423
O O15 0.740479 0.750000 0.124699
O O16 0.837842 0.969990 0.264733
O O17 0.151631 0.750000 0.692395
#
# Coordination Sequence:
#
# PCOD8072469 Si02
#       7
#     4   4   4   4   4   4   4
#     4   9  19  36  59  85 114 150 196 242 282 339
#     4  10  21  38  60  90 123 152 188 237 291 345
#     4   9  19  38  64  90 118 154 193 234 285 348
#     4  10  19  36  58  84 114 151 197 239 282 340
#     4  10  22  36  58  84 114 157 194 237 293 349
#     4  11  23  39  60  85 115 155 200 240 290 347
#     4  11  23  39  57  85 122 155 194 243 292 344
#
# _framework density 20.135681999999999
#
# number of rings (size 3 to 8) (size 9 to 14) (size 15 to 20)
#    0.000    2.000    1.429    1.714    2.000    4.000 
#    0.000    1.429    0.000    0.000    0.000    0.000 
#    0.000    0.000    0.000    0.000    0.000    0.000 
#
# Total GULP energy -346967.855867 kJ/mol
# GULP energy per Si atom -12391.709138 kJ/mol
# Density = 2.008985 g / cm^3
# Si number density = 20.135682 Si / 1000 Ang^3
#
#
#
# Elastic Constant Matrix: (Units=GPa)
#
#
# Indices 1 2 3 4 5 6 
#
# 1 75.0749 18.2911 7.1323 0.0000 1.0759 0.0000
# 2 18.2911 105.8722 29.8385 0.0000 6.0068 0.0000
# 3 7.1323 29.8385 73.9073 0.0000 -1.6340 0.0000
# 4 0.0000 0.0000 0.0000 19.9790 0.0000 7.3602
# 5 1.0759 6.0068 -1.6340 0.0000 24.9378 0.0000
# 6 0.0000 0.0000 0.0000 7.3602 0.0000 16.7005
#
#
#
# Elastic Compliance Matrix: (Units=1/GPa)
#
#
# Indices 1 2 3 4 5 6 
#
# 1 0.013917 -0.002280 -0.000424 0.000000 -0.000079 0.000000
# 2 -0.002280 0.011238 -0.004381 0.000000 -0.002896 0.000000
# 3 -0.000424 -0.004381 0.015386 0.000000 0.002082 0.000000
# 4 0.000000 0.000000 0.000000 0.059754 0.000000 -0.026335
# 5 -0.000079 -0.002896 0.002082 0.000000 0.040937 0.000000
# 6 0.000000 0.000000 0.000000 -0.026335 0.000000 0.071485
#
#
# Mechanical properties :
#
#
# Convention : Reuss Voigt Hill
#
# Bulk Modulus (GPa) = 37.92156 40.59758 39.25957
# Shear Modulus (GPa) = 21.21530 25.62964 23.42247
#
# Velocity S-wave (km/s) = 3.24947 3.57157 3.41432
# Velocity P-wave (km/s) = 5.74044 6.10032 5.92311
#
# Compressibility (1/GPa) = 0.02637023
#
# Stress axis : x y z
#
# Youngs Moduli (GPa) = 71.85437 88.98076 64.99316
#
# Poissons Ratio (x) = 0.20291 0.02757
# Poissons Ratio (y) = 0.16386 0.28475
# Poissons Ratio (z) = 0.03048 0.38984
#
# Static dielectric constant tensor:
#      x y z
#    x 3.690630 0.000000 0.059080 
#    y 0.000000 3.460590 0.000000 
#    z 0.059080 0.000000 3.684700 
# 
# 
# High freq. dielectric constant tensor:
#      x y z
#    x 1.788320 0.000000 0.003540 
#    y 0.000000 1.769530 0.000000 
#    z 0.003540 0.000000 1.786130 
# 
# From -- ./inp_files/26432.got.cif
#   From: 2010.06.25/outbox.cif.g09.slc.cpg/sg11_14_cif.got.tgz:26432.got - 2010.06.27 23:14:04.
