data_PCOD8072274
_publ_section_title
;
Structure prediction by ZEFSAII (Michael W. Deem and Ramdas Pophale) SiO2 
 PCOD8072274
Probable space group: P 21/M
;
_chemical_formula_sum "Si O2"
_cell_formula_units_Z 32
_cell_length_a 8.819229
_cell_length_b 19.117810
_cell_length_c 16.348372
_cell_angle_alpha 90.000000
_cell_angle_beta 37.372488
_cell_angle_gamma 90.000000
_cell_volume 1673.123092
_symmetry_space_group_name_H-M "P 21/M"
_symmetry_group_IT_number 11
_symmetry_cell_setting 'monoclinic'
loop_
_space_group_symop_operation_xyz
x,y,z
-x,1/2+y,-z
-x,-y,-z
x,1/2-y,z
loop_
_atom_site_type_symbol
_atom_site_label
_atom_site_fract_x
_atom_site_fract_y
_atom_site_fract_z
Si Si1 0.617024 0.897585 0.235362
Si Si2 0.653435 0.456222 0.497888
Si Si3 0.453676 0.105955 0.066295
Si Si4 0.007014 0.667411 0.183841
Si Si5 0.970851 0.171387 0.346758
Si Si6 0.992512 0.580564 0.345177
Si Si7 0.894608 0.173099 0.564940
Si Si8 0.549745 0.961433 0.097069
O O1 0.503364 0.950614 0.351456
O O2 0.401505 0.842177 0.307599
O O3 0.692450 0.940411 0.120199
O O4 0.861922 0.857858 0.164359
O O5 0.500000 0.500000 0.500000
O O6 0.898854 0.502931 0.404932
O O7 0.744684 0.381825 0.421147
O O8 0.235052 0.154464 0.193499
O O9 0.534067 0.045153 0.095536
O O10 0.697136 0.154221 0.949616
O O11 0.331341 0.071298 0.036648
O O12 0.960743 0.750000 0.218181
O O13 0.887590 0.621110 0.309614
O O14 0.888514 0.250000 0.356782
O O15 0.012462 0.165183 0.425477
O O16 0.935961 0.625089 0.450101
O O17 0.284810 0.575301 0.210112
O O18 0.924064 0.250000 0.588028
#
# Coordination Sequence:
#
# PCOD8072274 Si02
#       8
#     4   4   4   4   4   4   4   4
#     4  10  21  35  57  82 114 148 183 231 289 333
#     4  11  21  36  58  88 117 145 184 230 286 347
#     4  10  20  37  59  82 111 147 198 236 279 332
#     4  11  22  36  55  81 115 151 187 233 284 331
#     4  10  21  37  59  83 114 151 187 230 286 346
#     4  10  19  35  57  85 109 145 184 232 278 332
#     4   9  19  34  56  85 112 142 181 228 282 340
#     4   9  20  35  59  84 108 145 192 242 272 329
#
# _framework density 19.125907999999999
#
# number of rings (size 3 to 8) (size 9 to 14) (size 15 to 20)
#    0.000    2.000    2.500    1.125    1.750    2.500 
#    0.000    1.875    0.000    0.000    0.000    0.000 
#    0.000    0.000    0.000    0.000    0.000    0.000 
#
# Total GULP energy -396581.271988 kJ/mol
# GULP energy per Si atom -12393.164750 kJ/mol
# Density = 1.908238 g / cm^3
# Si number density = 19.125908 Si / 1000 Ang^3
#
#
#
# Elastic Constant Matrix: (Units=GPa)
#
#
# Indices 1 2 3 4 5 6 
#
# 1 78.4574 38.5867 22.0063 0.0000 7.7763 0.0000
# 2 38.5867 142.0395 35.1275 0.0000 10.0698 0.0000
# 3 22.0063 35.1275 70.5514 0.0000 7.4230 0.0000
# 4 0.0000 0.0000 0.0000 21.5613 0.0000 -0.0424
# 5 7.7763 10.0698 7.4230 0.0000 18.6841 0.0000
# 6 0.0000 0.0000 0.0000 -0.0424 0.0000 23.7973
#
#
#
# Elastic Compliance Matrix: (Units=1/GPa)
#
#
# Indices 1 2 3 4 5 6 
#
# 1 0.015496 -0.003255 -0.002837 0.000000 -0.003568 0.000000
# 2 -0.003255 0.008862 -0.003169 0.000000 -0.002162 0.000000
# 3 -0.002837 -0.003169 0.017046 0.000000 -0.003883 0.000000
# 4 0.000000 0.000000 0.000000 0.046380 0.000000 0.000083
# 5 -0.003568 -0.002162 -0.003883 0.000000 0.057714 0.000000
# 6 0.000000 0.000000 0.000000 0.000083 0.000000 0.042022
#
#
# Mechanical properties :
#
#
# Convention : Reuss Voigt Hill
#
# Bulk Modulus (GPa) = 43.70690 53.60993 48.65841
# Shear Modulus (GPa) = 23.40062 25.83040 24.61551
#
# Velocity S-wave (km/s) = 3.50166 3.67896 3.59140
# Velocity P-wave (km/s) = 6.26503 6.79244 6.53406
#
# Compressibility (1/GPa) = 0.02287968
#
# Stress axis : x y z
#
# Youngs Moduli (GPa) = 64.53206 112.84555 58.66569
#
# Poissons Ratio (x) = 0.36732 0.16646
# Poissons Ratio (y) = 0.21005 0.18594
# Poissons Ratio (z) = 0.18311 0.35766
#
# Static dielectric constant tensor:
#      x y z
#    x 3.594490 0.000000 0.277290 
#    y 0.000000 3.687640 0.000000 
#    z 0.277290 0.000000 3.808150 
# 
# 
# High freq. dielectric constant tensor:
#      x y z
#    x 1.728490 0.000000 0.010330 
#    y 0.000000 1.753260 0.000000 
#    z 0.010330 0.000000 1.735370 
# 
# From -- ./inp_files/48236.got.cif
#   From: 2010.06.25/outbox.cif.g09.slc.cpg/sg11_25_cif.got.tgz:48236.got - 2010.06.27 23:14:04.
