data_PCOD8072803
_publ_section_title
;
Structure prediction by ZEFSAII (Michael W. Deem and Ramdas Pophale) SiO2 
 PCOD8072803
Probable space group: P 21/M
;
_chemical_formula_sum "Si O2"
_cell_formula_units_Z 32
_cell_length_a 14.168549
_cell_length_b 9.146793
_cell_length_c 20.682496
_cell_angle_alpha 90.000000
_cell_angle_beta 132.339414
_cell_angle_gamma 90.000000
_cell_volume 1981.254679
_symmetry_space_group_name_H-M "P 21/M"
_symmetry_group_IT_number 11
_symmetry_cell_setting 'monoclinic'
loop_
_space_group_symop_operation_xyz
x,y,z
-x,1/2+y,-z
-x,-y,-z
x,1/2-y,z
loop_
_atom_site_type_symbol
_atom_site_label
_atom_site_fract_x
_atom_site_fract_y
_atom_site_fract_z
Si Si1 0.796129 0.916098 0.175418
Si Si2 0.582227 0.579713 0.182642
Si Si3 0.419182 0.081045 0.016239
Si Si4 0.517111 0.080437 0.410936
Si Si5 0.690844 0.581151 0.588644
Si Si6 0.036210 0.420954 0.328418
Si Si7 0.363891 0.583060 0.663183
Si Si8 0.080959 0.579979 0.483214
O O1 0.844355 0.750000 0.206519
O O2 0.697821 0.955766 0.187400
O O3 0.728728 0.934283 0.073862
O O4 0.914020 0.026397 0.231772
O O5 0.550371 0.750000 0.169820
O O6 0.452965 0.495180 0.100247
O O7 0.622165 0.526884 0.271514
O O8 0.459742 0.250000 0.037737
O O9 0.500000 0.000000 0.000000
O O10 0.544426 0.250000 0.434272
O O11 0.378202 0.034732 0.375685
O O12 0.526084 0.044400 0.338761
O O13 0.630061 0.000778 0.500369
O O14 0.666563 0.750000 0.563674
O O15 0.841331 0.546537 0.660653
O O16 0.023129 0.250000 0.338632
O O17 0.045552 0.509461 0.398776
O O18 0.376310 0.750000 0.693612
O O19 0.229381 0.557668 0.566276
O O20 0.042929 0.750000 0.463886
O O21 0.000000 0.500000 0.500000
#
# Coordination Sequence:
#
# PCOD8072803 Si02
#       8
#     4   4   4   4   4   4   4   4
#     4   9  19  33  48  68  94 127 160 191 227 275
#     4  10  20  32  48  70  96 125 157 194 235 277
#     4   9  17  31  50  70  93 121 156 195 235 275
#     4   9  17  32  50  67  89 120 157 198 240 280
#     4   9  18  31  48  69  92 118 154 198 242 281
#     4  11  21  31  46  70  96 125 157 193 235 279
#     4  10  20  32  47  67  91 124 161 193 231 279
#     4  11  22  34  46  63  91 128 165 195 227 271
#
# _framework density 16.151382999999999
#
# number of rings (size 3 to 8) (size 9 to 14) (size 15 to 20)
#    0.000    2.250    1.250    3.000    0.000    7.000 
#    0.000    0.000    0.000    0.000    0.000    0.875 
#    0.000    0.000    0.000    0.000    0.000    0.000 
#
# Total GULP energy -396690.592374 kJ/mol
# GULP energy per Si atom -12396.581012 kJ/mol
# Density = 1.611462 g / cm^3
# Si number density = 16.151383 Si / 1000 Ang^3
#
#
#
# Elastic Constant Matrix: (Units=GPa)
#
#
# Indices 1 2 3 4 5 6 
#
# 1 75.0280 38.4620 28.1644 0.0000 11.6626 0.0000
# 2 38.4620 87.8720 46.0034 0.0000 10.0569 0.0000
# 3 28.1644 46.0034 79.6853 0.0000 13.5096 0.0000
# 4 0.0000 0.0000 0.0000 31.7689 0.0000 -0.9243
# 5 11.6626 10.0569 13.5096 0.0000 9.6910 0.0000
# 6 0.0000 0.0000 0.0000 -0.9243 0.0000 19.5810
#
#
#
# Elastic Compliance Matrix: (Units=1/GPa)
#
#
# Indices 1 2 3 4 5 6 
#
# 1 0.019231 -0.006376 -0.000411 0.000000 -0.015953 0.000000
# 2 -0.006376 0.018609 -0.008533 0.000000 0.000258 0.000000
# 3 -0.000411 -0.008533 0.020999 0.000000 -0.019922 0.000000
# 4 0.000000 0.000000 0.000000 0.031521 0.000000 0.001488
# 5 -0.015953 0.000258 -0.019922 0.000000 0.149893 0.000000
# 6 0.000000 0.000000 0.000000 0.001488 0.000000 0.051140
#
#
# Mechanical properties :
#
#
# Convention : Reuss Voigt Hill
#
# Bulk Modulus (GPa) = 35.46472 51.98277 43.72374
# Shear Modulus (GPa) = 15.08597 20.87187 17.97892
#
# Velocity S-wave (km/s) = 3.05952 3.59871 3.34001
# Velocity P-wave (km/s) = 5.87250 7.03720 6.48107
#
# Compressibility (1/GPa) = 0.02819704
#
# Stress axis : x y z
#
# Youngs Moduli (GPa) = 51.99824 53.73711 47.62199
#
# Poissons Ratio (x) = 0.34265 0.01959
# Poissons Ratio (y) = 0.33157 0.40637
# Poissons Ratio (z) = 0.02139 0.45855
#
# Static dielectric constant tensor:
#      x y z
#    x 3.203110 0.000000 0.015760 
#    y 0.000000 3.281280 0.000000 
#    z 0.015760 0.000000 3.276620 
# 
# 
# High freq. dielectric constant tensor:
#      x y z
#    x 1.600420 0.000000 0.002260 
#    y 0.000000 1.634650 0.000000 
#    z 0.002260 0.000000 1.608010 
# 
# From -- ./inp_files/51346.got.cif
#   From: 2010.06.25/outbox.cif.g09.slc.cpg/sg11_26_cif.got.tgz:51346.got - 2010.06.27 23:14:04.
