data_PCOD8072611
_publ_section_title
;
Structure prediction by ZEFSAII (Michael W. Deem and Ramdas Pophale) SiO2 
 PCOD8072611
Probable space group: P 21/M
;
_chemical_formula_sum "Si O2"
_cell_formula_units_Z 32
_cell_length_a 28.407117
_cell_length_b 9.124846
_cell_length_c 12.407231
_cell_angle_alpha 90.000000
_cell_angle_beta 30.486636
_cell_angle_gamma 90.000000
_cell_volume 1631.640330
_symmetry_space_group_name_H-M "P 21/M"
_symmetry_group_IT_number 11
_symmetry_cell_setting 'monoclinic'
loop_
_space_group_symop_operation_xyz
x,y,z
-x,1/2+y,-z
-x,-y,-z
x,1/2-y,z
loop_
_atom_site_type_symbol
_atom_site_label
_atom_site_fract_x
_atom_site_fract_y
_atom_site_fract_z
Si Si1 0.854346 0.415372 0.580363
Si Si2 0.218575 0.919193 0.871012
Si Si3 0.459259 0.078299 0.683135
Si Si4 0.983350 0.077239 0.646856
Si Si5 0.506676 0.418865 0.176135
Si Si6 0.694496 0.919460 0.501979
Si Si7 0.705514 0.422118 0.694970
Si Si8 0.289554 0.586618 0.961283
O O1 0.886605 0.250000 0.488828
O O2 0.778244 0.469559 0.643730
O O3 0.942157 0.522928 0.410799
O O4 0.811332 0.419229 0.785514
O O5 0.221861 0.750000 0.829080
O O6 0.283763 0.947031 0.846024
O O7 0.255951 0.017478 0.701055
O O8 0.115120 0.966213 0.107917
O O9 0.472501 0.250000 0.648050
O O10 0.500000 0.000000 0.500000
O O11 0.511804 0.020660 0.684459
O O12 0.351419 0.033267 0.900651
O O13 0.992506 0.250000 0.610851
O O14 0.000000 0.000000 0.500000
O O15 0.515781 0.250000 0.194743
O O16 0.416931 0.442768 0.278394
O O17 0.600952 0.470872 0.932020
O O18 0.720409 0.750000 0.456796
O O19 0.735292 0.997760 0.526794
O O20 0.708905 0.250000 0.667875
O O21 0.331857 0.750000 0.895847
#
# Coordination Sequence:
#
# PCOD8072611 Si02
#       8
#     4   4   4   4   4   4   4   4
#     4  10  20  38  63  91 119 153 194 239 297 355
#     4  10  22  40  61  85 119 161 198 237 298 364
#     4  12  24  35  52  82 119 159 200 243 294 353
#     4  11  22  38  62  92 123 157 197 245 298 360
#     4  10  21  40  61  85 117 156 200 248 298 350
#     4  11  24  39  60  89 120 153 202 257 294 342
#     4  10  21  40  65  86 119 163 198 239 298 363
#     4  10  19  37  60  83 118 155 192 238 294 360
#
# _framework density 19.612165000000001
#
# number of rings (size 3 to 8) (size 9 to 14) (size 15 to 20)
#    0.000    1.500    2.500    3.000    0.000    6.000 
#    0.000    0.625    0.000    0.000    0.000    0.000 
#    0.000    0.000    0.000    0.000    0.000    0.000 
#
# Total GULP energy -396845.918000 kJ/mol
# GULP energy per Si atom -12401.434938 kJ/mol
# Density = 1.956753 g / cm^3
# Si number density = 19.612165 Si / 1000 Ang^3
#
#
#
# Elastic Constant Matrix: (Units=GPa)
#
#
# Indices 1 2 3 4 5 6 
#
# 1 97.0151 46.5503 38.2302 0.0000 9.0790 0.0000
# 2 46.5503 87.7418 31.0704 0.0000 5.4306 0.0000
# 3 38.2302 31.0704 62.8912 0.0000 2.4584 0.0000
# 4 0.0000 0.0000 0.0000 31.1179 0.0000 0.3778
# 5 9.0790 5.4306 2.4584 0.0000 35.1937 0.0000
# 6 0.0000 0.0000 0.0000 0.3778 0.0000 36.3596
#
#
#
# Elastic Compliance Matrix: (Units=1/GPa)
#
#
# Indices 1 2 3 4 5 6 
#
# 1 0.016082 -0.005985 -0.006711 0.000000 -0.002756 0.000000
# 2 -0.005985 0.016138 -0.004310 0.000000 -0.000645 0.000000
# 3 -0.006711 -0.004310 0.022076 0.000000 0.000854 0.000000
# 4 0.000000 0.000000 0.000000 0.032140 0.000000 -0.000334
# 5 -0.002756 -0.000645 0.000854 0.000000 0.029165 0.000000
# 6 0.000000 0.000000 0.000000 -0.000334 0.000000 0.027506
#
#
# Mechanical properties :
#
#
# Convention : Reuss Voigt Hill
#
# Bulk Modulus (GPa) = 49.29891 53.26113 51.28002
# Shear Modulus (GPa) = 27.19146 29.32072 28.25609
#
# Velocity S-wave (km/s) = 3.72756 3.87075 3.79983
# Velocity P-wave (km/s) = 6.61194 6.86972 6.74206
#
# Compressibility (1/GPa) = 0.02028442
#
# Stress axis : x y z
#
# Youngs Moduli (GPa) = 62.18086 61.96432 45.29830
#
# Poissons Ratio (x) = 0.37085 0.30402
# Poissons Ratio (y) = 0.37215 0.19521
# Poissons Ratio (z) = 0.41732 0.26704
#
# Static dielectric constant tensor:
#      x y z
#    x 3.639240 0.000000 -0.140910 
#    y 0.000000 3.697740 0.000000 
#    z -0.140910 0.000000 3.555930 
# 
# 
# High freq. dielectric constant tensor:
#      x y z
#    x 1.766800 0.000000 -0.002880 
#    y 0.000000 1.759270 0.000000 
#    z -0.002880 0.000000 1.757050 
# 
# From -- ./inp_files/38102.got.cif
#   From: 2010.06.25/outbox.cif.g09.slc.cpg/sg11_20_cif.got.tgz:38102.got - 2010.06.27 23:14:04.
