data_PCOD8072684
_publ_section_title
;
Structure prediction by ZEFSAII (Michael W. Deem and Ramdas Pophale) SiO2 
 PCOD8072684
Probable space group: P 21/M
;
_chemical_formula_sum "Si O2"
_cell_formula_units_Z 32
_cell_length_a 9.623723
_cell_length_b 18.437312
_cell_length_c 13.174263
_cell_angle_alpha 90.000000
_cell_angle_beta 135.110432
_cell_angle_gamma 90.000000
_cell_volume 1649.731910
_symmetry_space_group_name_H-M "P 21/M"
_symmetry_group_IT_number 11
_symmetry_cell_setting 'monoclinic'
loop_
_space_group_symop_operation_xyz
x,y,z
-x,1/2+y,-z
-x,-y,-z
x,1/2-y,z
loop_
_atom_site_type_symbol
_atom_site_label
_atom_site_fract_x
_atom_site_fract_y
_atom_site_fract_z
Si Si1 0.771291 0.580332 0.391276
Si Si2 0.123867 0.898810 0.877575
Si Si3 0.924188 0.931869 0.153973
Si Si4 0.221237 0.334825 0.415171
Si Si5 0.161392 0.570780 0.474408
Si Si6 0.534021 0.666832 0.649916
Si Si7 0.070552 0.333265 0.031186
Si Si8 0.453000 0.076641 0.928314
O O1 0.710570 0.645824 0.435475
O O2 0.776088 0.509279 0.462415
O O3 0.606596 0.570214 0.220474
O O4 0.982518 0.598219 0.451629
O O5 0.981480 0.878241 0.710988
O O6 0.068791 0.852260 0.946996
O O7 0.115008 0.984728 0.897023
O O8 0.347154 0.876201 0.961305
O O9 0.730387 0.892477 0.101764
O O10 0.101827 0.928875 0.325798
O O11 0.989608 0.885791 0.091240
O O12 0.179034 0.250000 0.381874
O O13 0.386662 0.358766 0.419314
O O14 0.345989 0.622316 0.587631
O O15 0.469616 0.750000 0.611569
O O16 0.702958 0.654053 0.820950
O O17 0.033272 0.250000 0.980545
O O18 0.500000 0.000000 0.000000
#
# Coordination Sequence:
#
# PCOD8072684 Si02
#       8
#     4   4   4   4   4   4   4   4
#     4  10  21  38  57  89 115 150 191 242 288 344
#     4  10  19  38  60  86 115 153 198 234 289 343
#     4  10  20  37  57  88 114 150 193 243 283 343
#     4  10  21  40  60  84 121 155 191 240 287 344
#     4  10  21  36  59  83 118 147 192 237 288 338
#     4   9  21  38  57  83 116 155 195 232 284 347
#     4  10  22  39  57  83 120 155 191 242 290 340
#     4   9  21  36  59  87 117 146 190 241 290 335
#
# _framework density 19.397092000000001
#
# number of rings (size 3 to 8) (size 9 to 14) (size 15 to 20)
#    0.000    2.250    1.250    1.500    5.250    2.500 
#    0.000    6.875    0.000    0.000    0.000    0.000 
#    0.000    0.000    0.000    0.000    0.000    0.000 
#
# Total GULP energy -396778.324378 kJ/mol
# GULP energy per Si atom -12399.322637 kJ/mol
# Density = 1.935294 g / cm^3
# Si number density = 19.397092 Si / 1000 Ang^3
#
#
#
# Elastic Constant Matrix: (Units=GPa)
#
#
# Indices 1 2 3 4 5 6 
#
# 1 62.4259 30.6055 39.4056 0.0000 9.6317 0.0000
# 2 30.6055 71.1468 28.8812 0.0000 1.3371 0.0000
# 3 39.4056 28.8812 88.2317 0.0000 -7.8728 0.0000
# 4 0.0000 0.0000 0.0000 29.9175 0.0000 1.0605
# 5 9.6317 1.3371 -7.8728 0.0000 39.3981 0.0000
# 6 0.0000 0.0000 0.0000 1.0605 0.0000 23.5310
#
#
#
# Elastic Compliance Matrix: (Units=1/GPa)
#
#
# Indices 1 2 3 4 5 6 
#
# 1 0.027790 -0.007425 -0.010757 0.000000 -0.008691 0.000000
# 2 -0.007425 0.018298 -0.002614 0.000000 0.000672 0.000000
# 3 -0.010757 -0.002614 0.017549 0.000000 0.006225 0.000000
# 4 0.000000 0.000000 0.000000 0.033479 0.000000 -0.001509
# 5 -0.008691 0.000672 0.006225 0.000000 0.028728 0.000000
# 6 0.000000 0.000000 0.000000 -0.001509 0.000000 0.042565
#
#
# Mechanical properties :
#
#
# Convention : Reuss Voigt Hill
#
# Bulk Modulus (GPa) = 45.35789 46.62100 45.98944
# Shear Modulus (GPa) = 23.00470 26.76345 24.88408
#
# Velocity S-wave (km/s) = 3.44755 3.71855 3.58561
# Velocity P-wave (km/s) = 6.26754 6.52105 6.39555
#
# Compressibility (1/GPa) = 0.02204688
#
# Stress axis : x y z
#
# Youngs Moduli (GPa) = 35.98409 54.65175 56.98397
#
# Poissons Ratio (x) = 0.40577 0.61295
# Poissons Ratio (y) = 0.26717 0.14893
# Poissons Ratio (z) = 0.38707 0.14283
#
# Static dielectric constant tensor:
#      x y z
#    x 3.678270 0.000000 0.080880 
#    y 0.000000 3.346200 0.000000 
#    z 0.080880 0.000000 3.638730 
# 
# 
# High freq. dielectric constant tensor:
#      x y z
#    x 1.756640 0.000000 -0.003250 
#    y 0.000000 1.737460 0.000000 
#    z -0.003250 0.000000 1.758720 
# 
# From -- ./inp_files/32836.got.cif
#   From: 2010.06.25/outbox.cif.g09.slc.cpg/sg11_17_cif.got.tgz:32836.got - 2010.06.27 23:14:04.
