data_PCOD8072417
_publ_section_title
;
Structure prediction by ZEFSAII (Michael W. Deem and Ramdas Pophale) SiO2 
 PCOD8072417
Probable space group: P 21/M
;
_chemical_formula_sum "Si O2"
_cell_formula_units_Z 32
_cell_length_a 11.542369
_cell_length_b 18.613451
_cell_length_c 13.668466
_cell_angle_alpha 90.000000
_cell_angle_beta 149.147283
_cell_angle_gamma 90.000000
_cell_volume 1505.974315
_symmetry_space_group_name_H-M "P 21/M"
_symmetry_group_IT_number 11
_symmetry_cell_setting 'monoclinic'
loop_
_space_group_symop_operation_xyz
x,y,z
-x,1/2+y,-z
-x,-y,-z
x,1/2-y,z
loop_
_atom_site_type_symbol
_atom_site_label
_atom_site_fract_x
_atom_site_fract_y
_atom_site_fract_z
Si Si1 0.502796 0.828646 0.236657
Si Si2 0.632829 0.567859 0.895358
Si Si3 0.027010 0.328523 0.528809
Si Si4 0.953740 0.832611 0.242766
Si Si5 0.729666 0.666544 0.595104
Si Si6 0.533998 0.332110 0.396859
Si Si7 0.838069 0.065239 0.104531
Si Si8 0.199507 0.958227 0.701105
O O1 0.387594 0.750000 0.153297
O O2 0.746097 0.824834 0.365891
O O3 0.541541 0.853940 0.376958
O O4 0.355466 0.879249 0.063137
O O5 0.531948 0.604035 0.725132
O O6 0.437906 0.529681 0.820158
O O7 0.763940 0.631980 0.040618
O O8 0.811920 0.501886 0.008885
O O9 0.919188 0.250000 0.465974
O O10 0.063174 0.365735 0.660410
O O11 0.844775 0.372929 0.336224
O O12 0.885880 0.750000 0.196748
O O13 0.205894 0.844300 0.383664
O O14 0.811183 0.750000 0.637831
O O15 0.620036 0.657705 0.620792
O O16 0.927405 0.607637 0.731995
O O17 0.504127 0.250000 0.333700
O O18 0.798973 0.026716 0.181791
O O19 0.000000 0.000000 0.500000
#
# Coordination Sequence:
#
# PCOD8072417 Si02
#       8
#     4   4   4   4   4   4   4   4
#     4  10  21  40  64  93 126 164 211 268 324 379
#     4  12  25  39  65  95 132 173 214 261 319 387
#     4  10  19  35  63  90 118 159 211 262 316 377
#     4  10  21  40  64  93 126 164 211 268 324 379
#     4  10  23  44  68  93 125 167 216 271 325 378
#     4  10  23  44  68  93 125 167 216 271 325 378
#     4  12  25  39  65  95 132 173 214 261 319 387
#     4  12  24  41  64  91 137 175 209 251 324 389
#
# _framework density 21.248702000000002
#
# number of rings (size 3 to 8) (size 9 to 14) (size 15 to 20)
#    0.000    1.250    2.500    3.375    0.000    2.500 
#    0.000    3.750    0.000    0.000    0.000    0.000 
#    0.000    0.000    0.000    0.000    0.000    0.000 
#
# Total GULP energy -396569.857565 kJ/mol
# GULP energy per Si atom -12392.808049 kJ/mol
# Density = 2.120034 g / cm^3
# Si number density = 21.248702 Si / 1000 Ang^3
#
#
#
# Elastic Constant Matrix: (Units=GPa)
#
#
# Indices 1 2 3 4 5 6 
#
# 1 93.5861 24.2806 26.0208 0.0000 -2.7260 0.0000
# 2 24.2806 83.1495 47.2036 0.0000 -8.7597 0.0000
# 3 26.0208 47.2036 96.1790 0.0000 -12.4202 0.0000
# 4 0.0000 0.0000 0.0000 45.1222 0.0000 -7.7806
# 5 -2.7260 -8.7597 -12.4202 0.0000 9.9548 0.0000
# 6 0.0000 0.0000 0.0000 -7.7806 0.0000 19.6593
#
#
#
# Elastic Compliance Matrix: (Units=1/GPa)
#
#
# Indices 1 2 3 4 5 6 
#
# 1 0.011880 -0.002353 -0.002273 0.000000 -0.001653 0.000000
# 2 -0.002353 0.017377 -0.007153 0.000000 0.005722 0.000000
# 3 -0.002273 -0.007153 0.016247 0.000000 0.013355 0.000000
# 4 0.000000 0.000000 0.000000 0.023785 0.000000 0.009414
# 5 -0.001653 0.005722 0.013355 0.000000 0.121699 0.000000
# 6 0.000000 0.000000 0.000000 0.009414 0.000000 0.054592
#
#
# Mechanical properties :
#
#
# Convention : Reuss Voigt Hill
#
# Bulk Modulus (GPa) = 45.56447 51.99162 48.77804
# Shear Modulus (GPa) = 18.08623 26.64123 22.36373
#
# Velocity S-wave (km/s) = 2.92064 3.54472 3.24771
# Velocity P-wave (km/s) = 5.73267 6.42453 6.08844
#
# Compressibility (1/GPa) = 0.02194693
#
# Stress axis : x y z
#
# Youngs Moduli (GPa) = 84.17836 57.54677 61.54870
#
# Poissons Ratio (x) = 0.13540 0.13988
# Poissons Ratio (y) = 0.19807 0.44026
# Poissons Ratio (z) = 0.19130 0.41163
#
# Static dielectric constant tensor:
#      x y z
#    x 3.815540 0.000000 -0.142260 
#    y 0.000000 4.289970 0.000000 
#    z -0.142260 0.000000 3.861300 
# 
# 
# High freq. dielectric constant tensor:
#      x y z
#    x 1.817610 0.000000 -0.006780 
#    y 0.000000 1.848890 0.000000 
#    z -0.006780 0.000000 1.835470 
# 
# From -- ./inp_files/50697.got.cif
#   From: 2010.06.25/outbox.cif.g09.slc.cpg/sg11_26_cif.got.tgz:50697.got - 2010.06.27 23:14:04.
