data_PCOD8072808
_publ_section_title
;
Structure prediction by ZEFSAII (Michael W. Deem and Ramdas Pophale) SiO2 
 PCOD8072808
Probable space group: P 21/M
;
_chemical_formula_sum "Si O2"
_cell_formula_units_Z 32
_cell_length_a 12.369783
_cell_length_b 9.126452
_cell_length_c 23.057139
_cell_angle_alpha 90.000000
_cell_angle_beta 43.827527
_cell_angle_gamma 90.000000
_cell_volume 1802.531602
_symmetry_space_group_name_H-M "P 21/M"
_symmetry_group_IT_number 11
_symmetry_cell_setting 'monoclinic'
loop_
_space_group_symop_operation_xyz
x,y,z
-x,1/2+y,-z
-x,-y,-z
x,1/2-y,z
loop_
_atom_site_type_symbol
_atom_site_label
_atom_site_fract_x
_atom_site_fract_y
_atom_site_fract_z
Si Si1 0.966515 0.419527 0.781083
Si Si2 0.345413 0.419661 0.816674
Si Si3 0.196981 0.083625 0.994395
Si Si4 0.867971 0.583311 0.518696
Si Si5 0.334959 0.422805 0.302015
Si Si6 0.646915 0.081218 0.968306
Si Si7 0.942243 0.078673 0.659049
Si Si8 0.877490 0.421294 0.177986
O O1 0.013606 0.250000 0.770070
O O2 0.790591 0.447196 0.869782
O O3 0.977444 0.472900 0.710580
O O4 0.085894 0.516042 0.772463
O O5 0.375283 0.250000 0.790764
O O6 0.221909 0.439131 0.916572
O O7 0.506092 0.494353 0.773934
O O8 0.275764 0.498893 0.787176
O O9 0.233913 0.250000 0.998893
O O10 0.019523 0.043685 0.079234
O O11 0.315501 0.979168 0.982533
O O12 0.904322 0.750000 0.517941
O O13 0.704020 0.544802 0.614005
O O14 0.000000 0.500000 0.500000
O O15 0.893580 0.551912 0.440049
O O16 0.354416 0.250000 0.282440
O O17 0.199265 0.484985 0.312888
O O18 0.604956 0.250000 0.990786
O O19 0.500000 0.000000 0.000000
O O20 0.893721 0.250000 0.676725
O O21 0.842028 0.250000 0.196799
#
# Coordination Sequence:
#
# PCOD8072808 Si02
#       8
#     4   4   4   4   4   4   4   4
#     4   9  19  34  52  73  98 131 170 205 243 297
#     4  11  22  35  53  74 100 133 169 210 252 301
#     4   9  20  36  52  71  95 129 171 210 250 296
#     4   8  15  29  49  72 101 133 163 199 245 297
#     4  10  20  32  48  77 109 133 163 205 253 299
#     4  10  20  32  47  69 101 137 167 203 247 293
#     4   9  17  32  54  77 102 135 169 202 245 301
#     4  10  20  36  55  74  98 128 167 213 256 295
#
# _framework density 17.752808999999999
#
# number of rings (size 3 to 8) (size 9 to 14) (size 15 to 20)
#    0.000    2.500    0.000    1.875    1.750    3.000 
#    0.000    0.000    0.000    0.750    0.000    0.000 
#    0.000    0.000    0.000    0.000    0.000    0.000 
#
# Total GULP energy -396633.646660 kJ/mol
# GULP energy per Si atom -12394.801458 kJ/mol
# Density = 1.771240 g / cm^3
# Si number density = 17.752809 Si / 1000 Ang^3
#
#
#
# Elastic Constant Matrix: (Units=GPa)
#
#
# Indices 1 2 3 4 5 6 
#
# 1 76.7307 44.5535 31.0535 0.0000 16.4426 0.0000
# 2 44.5535 85.2199 28.3258 0.0000 9.0703 0.0000
# 3 31.0535 28.3258 75.1439 0.0000 19.4149 0.0000
# 4 0.0000 0.0000 0.0000 21.7312 0.0000 1.2360
# 5 16.4426 9.0703 19.4149 0.0000 22.3212 0.0000
# 6 0.0000 0.0000 0.0000 1.2360 0.0000 32.9345
#
#
#
# Elastic Compliance Matrix: (Units=1/GPa)
#
#
# Indices 1 2 3 4 5 6 
#
# 1 0.021722 -0.009346 -0.002968 0.000000 -0.009622 0.000000
# 2 -0.009346 0.017468 -0.003440 0.000000 0.002779 0.000000
# 3 -0.002968 -0.003440 0.019226 0.000000 -0.013138 0.000000
# 4 0.000000 0.000000 0.000000 0.046115 0.000000 -0.001731
# 5 -0.009622 0.002779 -0.013138 0.000000 0.062187 0.000000
# 6 0.000000 0.000000 0.000000 -0.001731 0.000000 0.030428
#
#
# Mechanical properties :
#
#
# Convention : Reuss Voigt Hill
#
# Bulk Modulus (GPa) = 37.16369 49.44001 43.30185
# Shear Modulus (GPa) = 21.04160 24.27482 22.65821
#
# Velocity S-wave (km/s) = 3.44649 3.70182 3.57643
# Velocity P-wave (km/s) = 6.06771 6.79565 6.44197
#
# Compressibility (1/GPa) = 0.02690798
#
# Stress axis : x y z
#
# Youngs Moduli (GPa) = 46.03548 57.24664 52.01402
#
# Poissons Ratio (x) = 0.53503 0.15436
# Poissons Ratio (y) = 0.43025 0.17895
# Poissons Ratio (z) = 0.13662 0.19695
#
# Static dielectric constant tensor:
#      x y z
#    x 3.101430 0.000000 0.193000 
#    y 0.000000 3.374620 0.000000 
#    z 0.193000 0.000000 3.810790 
# 
# 
# High freq. dielectric constant tensor:
#      x y z
#    x 1.663500 0.000000 0.009800 
#    y 0.000000 1.697380 0.000000 
#    z 0.009800 0.000000 1.682990 
# 
# From -- ./inp_files/42858.got.cif
#   From: 2010.06.25/outbox.cif.g09.slc.cpg/sg11_22_cif.got.tgz:42858.got - 2010.06.27 23:14:04.
