data_PCOD8072664
_publ_section_title
;
Structure prediction by ZEFSAII (Michael W. Deem and Ramdas Pophale) SiO2 
 PCOD8072664
Probable space group: P 21/M
;
_chemical_formula_sum "Si O2"
_cell_formula_units_Z 32
_cell_length_a 12.157719
_cell_length_b 8.617554
_cell_length_c 15.549469
_cell_angle_alpha 90.000000
_cell_angle_beta 89.930203
_cell_angle_gamma 90.000000
_cell_volume 1629.113548
_symmetry_space_group_name_H-M "P 21/M"
_symmetry_group_IT_number 11
_symmetry_cell_setting 'monoclinic'
loop_
_space_group_symop_operation_xyz
x,y,z
-x,1/2+y,-z
-x,-y,-z
x,1/2-y,z
loop_
_atom_site_type_symbol
_atom_site_label
_atom_site_fract_x
_atom_site_fract_y
_atom_site_fract_z
Si Si1 0.499032 0.566693 0.407064
Si Si2 0.215835 0.433146 0.847836
Si Si3 0.377456 0.067532 0.001742
Si Si4 0.265183 0.933204 0.346095
Si Si5 0.877912 0.566123 0.501179
Si Si6 0.771910 0.068002 0.848206
Si Si7 0.728326 0.933347 0.344498
Si Si8 0.993860 0.568376 0.906978
O O1 0.500000 0.500000 0.500000
O O2 0.503452 0.750000 0.410214
O O3 0.388757 0.509149 0.361995
O O4 0.606163 0.499899 0.359290
O O5 0.190331 0.250000 0.855930
O O6 0.245478 0.484583 0.751842
O O7 0.108641 0.535294 0.862135
O O8 0.311155 0.481656 0.915345
O O9 0.389183 0.250000 0.005344
O O10 0.311193 0.013849 0.085877
O O11 0.500000 0.000000 0.000000
O O12 0.249458 0.750000 0.358423
O O13 0.248037 0.986381 0.248734
O O14 0.181735 0.016507 0.410904
O O15 0.884393 0.750000 0.498273
O O16 0.812368 0.500968 0.417078
O O17 0.000000 0.500000 0.500000
O O18 0.754404 0.250000 0.860505
O O19 0.897410 0.022533 0.860646
O O20 0.729560 0.750000 0.352790
O O21 0.967269 0.750000 0.908704
O O22 0.000000 0.500000 0.000000
#
# Coordination Sequence:
#
# PCOD8072664 Si02
#       8
#     4   4   4   4   4   4   4   4
#     4  10  19  37  63  89 118 154 200 250 299 359
#     4  10  22  41  65  90 120 162 208 254 304 364
#     4  11  24  41  64  91 126 166 206 252 308 368
#     4  10  23  40  63  91 121 162 206 250 309 371
#     4  11  23  40  61  87 123 162 202 252 306 365
#     4  11  24  42  65  91 123 162 208 258 309 370
#     4   9  20  38  62  88 118 158 201 245 304 363
#     4  12  24  41  65  92 123 160 204 255 311 367
#
# _framework density 19.642582999999998
#
# number of rings (size 3 to 8) (size 9 to 14) (size 15 to 20)
#    0.000    1.500    2.500    2.250    3.500    1.500 
#    0.000    1.250    0.000    0.000    0.000    0.000 
#    0.000    0.000    0.000    0.000    0.000    0.000 
#
# Total GULP energy -396737.167908 kJ/mol
# GULP energy per Si atom -12398.036497 kJ/mol
# Density = 1.959788 g / cm^3
# Si number density = 19.642583 Si / 1000 Ang^3
#
#
#
# Elastic Constant Matrix: (Units=GPa)
#
#
# Indices 1 2 3 4 5 6 
#
# 1 187.4035 31.0510 96.6804 0.0000 2.3553 0.0000
# 2 31.0510 30.3591 35.9617 0.0000 -0.9337 0.0000
# 3 96.6804 35.9617 188.0788 0.0000 2.9512 0.0000
# 4 0.0000 0.0000 0.0000 30.7115 0.0000 -3.6541
# 5 2.3553 -0.9337 2.9512 0.0000 39.8875 0.0000
# 6 0.0000 0.0000 0.0000 -3.6541 0.0000 33.7168
#
#
#
# Elastic Compliance Matrix: (Units=1/GPa)
#
#
# Indices 1 2 3 4 5 6 
#
# 1 0.007639 -0.004107 -0.003136 0.000000 -0.000315 0.000000
# 2 -0.004107 0.044895 -0.006501 0.000000 0.001774 0.000000
# 3 -0.003136 -0.006501 0.008181 0.000000 -0.000572 0.000000
# 4 0.000000 0.000000 0.000000 0.032986 0.000000 0.003575
# 5 -0.000315 0.001774 -0.000572 0.000000 0.025173 0.000000
# 6 0.000000 0.000000 0.000000 0.003575 0.000000 0.030046
#
#
# Mechanical properties :
#
#
# Convention : Reuss Voigt Hill
#
# Bulk Modulus (GPa) = 30.09691 81.46974 55.78333
# Shear Modulus (GPa) = 26.66895 37.00638 31.83767
#
# Velocity S-wave (km/s) = 3.68871 4.34520 4.03034
# Velocity P-wave (km/s) = 5.78772 8.16949 7.07948
#
# Compressibility (1/GPa) = 0.03322600
#
# Stress axis : x y z
#
# Youngs Moduli (GPa) = 130.91471 22.27426 122.23397
#
# Poissons Ratio (x) = 0.09149 0.38336
# Poissons Ratio (y) = 0.53771 0.79460
# Poissons Ratio (z) = 0.41058 0.14480
#
# Static dielectric constant tensor:
#      x y z
#    x 3.880110 0.000000 0.072940 
#    y 0.000000 3.440580 0.000000 
#    z 0.072940 0.000000 3.843930 
# 
# 
# High freq. dielectric constant tensor:
#      x y z
#    x 1.785280 0.000000 0.001270 
#    y 0.000000 1.753600 0.000000 
#    z 0.001270 0.000000 1.780310 
# 
# From -- ./inp_files/49314.got.cif
#   From: 2010.06.25/outbox.cif.g09.slc.cpg/sg11_25_cif.got.tgz:49314.got - 2010.06.27 23:14:04.
