data_PCOD8072957
_publ_section_title
;
Structure prediction by ZEFSAII (Michael W. Deem and Ramdas Pophale) SiO2 
 PCOD8072957
Probable space group: P 21/M
;
_chemical_formula_sum "Si O2"
_cell_formula_units_Z 32
_cell_length_a 13.066379
_cell_length_b 9.422507
_cell_length_c 23.098036
_cell_angle_alpha 90.000000
_cell_angle_beta 38.823763
_cell_angle_gamma 90.000000
_cell_volume 1782.845608
_symmetry_space_group_name_H-M "P 21/M"
_symmetry_group_IT_number 11
_symmetry_cell_setting 'monoclinic'
loop_
_space_group_symop_operation_xyz
x,y,z
-x,1/2+y,-z
-x,-y,-z
x,1/2-y,z
loop_
_atom_site_type_symbol
_atom_site_label
_atom_site_fract_x
_atom_site_fract_y
_atom_site_fract_z
Si Si1 0.477608 0.084758 0.227814
Si Si2 0.661440 0.409326 0.422675
Si Si3 0.453676 0.084272 0.106866
Si Si4 0.255966 0.585988 0.106696
Si Si5 0.839158 0.913322 0.561696
Si Si6 0.348967 0.410413 0.752855
Si Si7 0.888107 0.584259 0.239431
Si Si8 0.324482 0.596083 0.453237
O O1 0.520410 0.250000 0.213142
O O2 0.483359 0.030027 0.159266
O O3 0.294507 0.053035 0.330275
O O4 0.612131 0.006859 0.208473
O O5 0.500000 0.500000 0.500000
O O6 0.626479 0.250000 0.413547
O O7 0.796077 0.486739 0.325552
O O8 0.730131 0.396975 0.456816
O O9 0.409628 0.250000 0.126132
O O10 0.301696 0.003368 0.143937
O O11 0.618841 0.049732 0.999747
O O12 0.265032 0.750000 0.120515
O O13 0.078551 0.545433 0.160226
O O14 0.884598 0.750000 0.538679
O O15 0.769948 0.963237 0.531049
O O16 0.000000 0.000000 0.500000
O O17 0.344502 0.250000 0.778170
O O18 0.177323 0.449857 0.797019
O O19 0.482470 0.429756 0.642641
O O20 0.855611 0.750000 0.267937
O O21 0.278403 0.750000 0.445017
#
# Coordination Sequence:
#
# PCOD8072957 Si02
#       8
#     4   4   4   4   4   4   4   4
#     4   9  19  34  53  75  99 132 174 214 257 311
#     4  11  21  33  51  75 104 139 177 214 256 304
#     4   9  18  36  58  78 104 135 172 218 269 318
#     4   9  19  35  57  80 104 137 171 214 267 321
#     4  10  20  33  49  71  99 133 169 212 257 303
#     4   9  17  32  51  71 101 137 170 208 252 305
#     4  10  20  35  52  77 110 139 176 217 264 318
#     4   9  18  33  49  67  95 134 173 207 246 297
#
# _framework density 17.948833
#
# number of rings (size 3 to 8) (size 9 to 14) (size 15 to 20)
#    0.000    2.500    1.250    0.750    0.000    4.000 
#    0.000    4.375    0.000    0.000    0.000    0.000 
#    0.000    0.000    0.000    0.000    0.000    0.000 
#
# Total GULP energy -396655.237638 kJ/mol
# GULP energy per Si atom -12395.476176 kJ/mol
# Density = 1.790798 g / cm^3
# Si number density = 17.948833 Si / 1000 Ang^3
#
#
#
# Elastic Constant Matrix: (Units=GPa)
#
#
# Indices 1 2 3 4 5 6 
#
# 1 150.1357 67.5380 64.8777 0.0000 -1.6662 0.0000
# 2 67.5380 87.9274 49.9502 0.0000 -4.4614 0.0000
# 3 64.8777 49.9502 66.5109 0.0000 -2.1904 0.0000
# 4 0.0000 0.0000 0.0000 22.9855 0.0000 1.0992
# 5 -1.6662 -4.4614 -2.1904 0.0000 33.7064 0.0000
# 6 0.0000 0.0000 0.0000 1.0992 0.0000 34.4121
#
#
#
# Elastic Compliance Matrix: (Units=1/GPa)
#
#
# Indices 1 2 3 4 5 6 
#
# 1 0.012538 -0.004711 -0.008711 0.000000 -0.000570 0.000000
# 2 -0.004711 0.021699 -0.011639 0.000000 0.001883 0.000000
# 3 -0.008711 -0.011639 0.032277 0.000000 0.000126 0.000000
# 4 0.000000 0.000000 0.000000 0.043572 0.000000 -0.001392
# 5 -0.000570 0.001883 0.000126 0.000000 0.029897 0.000000
# 6 0.000000 0.000000 0.000000 -0.001392 0.000000 0.029104
#
#
# Mechanical properties :
#
#
# Convention : Reuss Voigt Hill
#
# Bulk Modulus (GPa) = 61.00264 74.36731 67.68498
# Shear Modulus (GPa) = 22.25473 26.36801 24.31137
#
# Velocity S-wave (km/s) = 3.52504 3.83700 3.68432
# Velocity P-wave (km/s) = 7.11538 7.82004 7.47601
#
# Compressibility (1/GPa) = 0.01639273
#
# Stress axis : x y z
#
# Youngs Moduli (GPa) = 79.76060 46.08552 30.98190
#
# Poissons Ratio (x) = 0.21710 0.26987
# Poissons Ratio (y) = 0.37573 0.36059
# Poissons Ratio (z) = 0.69476 0.53638
#
# Static dielectric constant tensor:
#      x y z
#    x 2.541130 0.000000 0.270090 
#    y 0.000000 3.495010 0.000000 
#    z 0.270090 0.000000 3.261420 
# 
# 
# High freq. dielectric constant tensor:
#      x y z
#    x 1.696910 0.000000 0.000030 
#    y 0.000000 1.700210 0.000000 
#    z 0.000030 0.000000 1.673310 
# 
# From -- ./inp_files/68967.got.cif
#   From: 2010.06.25/outbox.cif.g09.slc.cpg/sg11_35_cif.got.tgz:68967.got - 2010.06.27 23:14:04.
