data_PCOD8072718
_publ_section_title
;
Structure prediction by ZEFSAII (Michael W. Deem and Ramdas Pophale) SiO2 
 PCOD8072718
Probable space group: P 21/M
;
_chemical_formula_sum "Si O2"
_cell_formula_units_Z 32
_cell_length_a 21.066186
_cell_length_b 14.774436
_cell_length_c 15.759388
_cell_angle_alpha 90.000000
_cell_angle_beta 159.996023
_cell_angle_gamma 90.000000
_cell_volume 1677.917766
_symmetry_space_group_name_H-M "P 21/M"
_symmetry_group_IT_number 11
_symmetry_cell_setting 'monoclinic'
loop_
_space_group_symop_operation_xyz
x,y,z
-x,1/2+y,-z
-x,-y,-z
x,1/2-y,z
loop_
_atom_site_type_symbol
_atom_site_label
_atom_site_fract_x
_atom_site_fract_y
_atom_site_fract_z
Si Si1 0.342702 0.502781 0.372849
Si Si2 0.525414 0.647959 0.708523
Si Si3 0.981130 0.974167 0.812925
Si Si4 0.861663 0.522623 0.160601
Si Si5 0.353268 0.911396 0.656293
Si Si6 0.810928 0.350612 0.381264
Si Si7 0.396717 0.579648 0.038922
Si Si8 0.308377 0.352131 0.469442
O O1 0.500000 0.500000 0.500000
O O2 0.368574 0.595239 0.458244
O O3 0.361549 0.416372 0.457651
O O4 0.139288 0.500322 0.078164
O O5 0.548000 0.750000 0.702431
O O6 0.465242 0.651220 0.731374
O O7 0.718913 0.594957 0.941409
O O8 0.877632 0.884281 0.715615
O O9 0.064124 0.959513 0.822883
O O10 0.837545 0.057674 0.628674
O O11 0.027345 0.575636 0.414620
O O12 0.772787 0.457521 0.118102
O O13 0.314785 0.855380 0.692504
O O14 0.475855 0.998239 0.834946
O O15 0.897112 0.250000 0.483822
O O16 0.680064 0.365632 0.136644
O O17 0.519463 0.646973 0.249635
O O18 0.277517 0.250000 0.397909
#
# Coordination Sequence:
#
# PCOD8072718 Si02
#       8
#     4   4   4   4   4   4   4   4
#     4  12  22  41  62  85 120 156 194 242 296 349
#     4  11  21  37  60  86 117 155 198 242 291 346
#     4  10  20  39  62  81 117 154 193 242 289 349
#     4  10  20  39  59  82 117 158 193 240 300 341
#     4   9  20  37  58  82 116 154 192 240 299 341
#     4  11  21  33  56  89 116 148 199 246 288 355
#     4  10  19  39  60  83 115 161 192 239 296 356
#     4  11  23  40  62  89 119 156 198 243 293 351
#
# _framework density 19.071256000000002
#
# number of rings (size 3 to 8) (size 9 to 14) (size 15 to 20)
#    0.000    1.500    5.000    2.250    0.000    1.000 
#    0.000    3.125    0.000    0.000    0.000    0.000 
#    0.000    0.000    0.000    0.000    0.000    0.000 
#
# Total GULP energy -396853.259569 kJ/mol
# GULP energy per Si atom -12401.664362 kJ/mol
# Density = 1.902785 g / cm^3
# Si number density = 19.071256 Si / 1000 Ang^3
#
#
#
# Elastic Constant Matrix: (Units=GPa)
#
#
# Indices 1 2 3 4 5 6 
#
# 1 109.9864 47.3161 49.3680 0.0000 6.0179 0.0000
# 2 47.3161 108.3955 21.1563 0.0000 -3.2600 0.0000
# 3 49.3680 21.1563 97.2759 0.0000 -6.6276 0.0000
# 4 0.0000 0.0000 0.0000 13.3341 0.0000 2.9836
# 5 6.0179 -3.2600 -6.6276 0.0000 32.6806 0.0000
# 6 0.0000 0.0000 0.0000 2.9836 0.0000 10.7924
#
#
#
# Elastic Compliance Matrix: (Units=1/GPa)
#
#
# Indices 1 2 3 4 5 6 
#
# 1 0.014509 -0.005193 -0.006542 0.000000 -0.004516 0.000000
# 2 -0.005193 0.011502 0.000281 0.000000 0.002161 0.000000
# 3 -0.006542 0.000281 0.013814 0.000000 0.004034 0.000000
# 4 0.000000 0.000000 0.000000 0.079941 0.000000 -0.022100
# 5 -0.004516 0.002161 0.004034 0.000000 0.032465 0.000000
# 6 0.000000 0.000000 0.000000 -0.022100 0.000000 0.098768
#
#
# Mechanical properties :
#
#
# Convention : Reuss Voigt Hill
#
# Bulk Modulus (GPa) = 59.10803 61.25984 60.18393
# Shear Modulus (GPa) = 17.88619 24.54924 21.21771
#
# Velocity S-wave (km/s) = 3.06577 3.59170 3.33911
# Velocity P-wave (km/s) = 6.60246 7.02792 6.81851
#
# Compressibility (1/GPa) = 0.01691817
#
# Stress axis : x y z
#
# Youngs Moduli (GPa) = 68.92089 86.93944 72.39088
#
# Poissons Ratio (x) = 0.45144 0.47358
# Poissons Ratio (y) = 0.35787 -0.02033
# Poissons Ratio (z) = 0.45088 -0.02442
#
# Static dielectric constant tensor:
#      x y z
#    x 3.647170 0.000000 0.079200 
#    y 0.000000 3.246790 0.000000 
#    z 0.079200 0.000000 3.573010 
# 
# 
# High freq. dielectric constant tensor:
#      x y z
#    x 1.751740 0.000000 0.002580 
#    y 0.000000 1.721970 0.000000 
#    z 0.002580 0.000000 1.748860 
# 
# From -- ./inp_files/54982.got.cif
#   From: 2010.06.25/outbox.cif.g09.slc.cpg/sg11_28_cif.got.tgz:54982.got - 2010.06.27 23:14:04.
