data_PCOD8072958
_publ_section_title
;
Structure prediction by ZEFSAII (Michael W. Deem and Ramdas Pophale) SiO2 
 PCOD8072958
Probable space group: P 21/M
;
_chemical_formula_sum "Si O2"
_cell_formula_units_Z 24
_cell_length_a 11.375369
_cell_length_b 8.957354
_cell_length_c 19.749148
_cell_angle_alpha 90.000000
_cell_angle_beta 43.696028
_cell_angle_gamma 90.000000
_cell_volume 1390.164598
_symmetry_space_group_name_H-M "P 21/M"
_symmetry_group_IT_number 11
_symmetry_cell_setting 'monoclinic'
loop_
_space_group_symop_operation_xyz
x,y,z
-x,1/2+y,-z
-x,-y,-z
x,1/2-y,z
loop_
_atom_site_type_symbol
_atom_site_label
_atom_site_fract_x
_atom_site_fract_y
_atom_site_fract_z
Si Si1 0.817361 0.073687 0.081032
Si Si2 0.406847 0.575839 0.476718
Si Si3 0.665896 0.073757 0.287186
Si Si4 0.275341 0.077353 0.145075
Si Si5 0.600114 0.578383 0.057416
Si Si6 0.899521 0.423731 0.311546
O O1 0.840598 0.250000 0.068139
O O2 0.730504 0.023459 0.187199
O O3 0.699048 0.020646 0.069847
O O4 0.000000 0.000000 0.000000
O O5 0.500000 0.500000 0.500000
O O6 0.448581 0.750000 0.458144
O O7 0.479244 0.500521 0.378009
O O8 0.204883 0.548618 0.574764
O O9 0.642934 0.250000 0.302672
O O10 0.798521 0.011321 0.288375
O O11 0.294849 0.250000 0.158728
O O12 0.088760 0.008836 0.239270
O O13 0.407413 0.980067 0.133039
O O14 0.305145 0.058226 0.053025
O O15 0.598850 0.750000 0.081237
O O16 0.923795 0.250000 0.286542
#
# Coordination Sequence:
#
# PCOD8072958 Si02
#       6
#     4   4   4   4   4   4
#     4  11  22  35  52  73  99 131 164 198 240 292
#     4   9  16  27  45  70  98 127 160 199 242 287
#     4   9  18  32  48  69  99 131 160 195 242 291
#     4   9  17  32  52  70  94 129 163 198 241 288
#     4  10  20  33  49  72 100 128 161 200 241 287
#     4   8  14  27  48  71  94 122 157 195 238 284
#
# _framework density 17.264144000000002
#
# number of rings (size 3 to 8) (size 9 to 14) (size 15 to 20)
#    0.000    2.667    0.000    3.500    0.000    4.667 
#    0.000    4.167    0.000    1.000    0.000    0.000 
#    0.000    0.000    0.000    0.000    0.000    0.000 
#
# Total GULP energy -297483.127437 kJ/mol
# GULP energy per Si atom -12395.130310 kJ/mol
# Density = 1.722485 g / cm^3
# Si number density = 17.264144 Si / 1000 Ang^3
#
#
#
# Elastic Constant Matrix: (Units=GPa)
#
#
# Indices 1 2 3 4 5 6 
#
# 1 79.1024 26.0053 57.3130 0.0000 -9.8018 0.0000
# 2 26.0053 56.6244 50.7457 0.0000 -0.7654 0.0000
# 3 57.3130 50.7457 141.2156 0.0000 -18.7687 0.0000
# 4 0.0000 0.0000 0.0000 29.8782 0.0000 -0.6908
# 5 -9.8018 -0.7654 -18.7687 0.0000 27.1508 0.0000
# 6 0.0000 0.0000 0.0000 -0.6908 0.0000 25.7205
#
#
#
# Elastic Compliance Matrix: (Units=1/GPa)
#
#
# Indices 1 2 3 4 5 6 
#
# 1 0.018284 -0.002940 -0.006054 0.000000 0.002333 0.000000
# 2 -0.002940 0.027544 -0.009627 0.000000 -0.006940 0.000000
# 3 -0.006054 -0.009627 0.013953 0.000000 0.007189 0.000000
# 4 0.000000 0.000000 0.000000 0.033490 0.000000 0.000899
# 5 0.002333 -0.006940 0.007189 0.000000 0.042447 0.000000
# 6 0.000000 0.000000 0.000000 0.000899 0.000000 0.038904
#
#
# Mechanical properties :
#
#
# Convention : Reuss Voigt Hill
#
# Bulk Modulus (GPa) = 44.36730 60.56340 52.46535
# Shear Modulus (GPa) = 22.79170 26.07512 24.43341
#
# Velocity S-wave (km/s) = 3.63736 3.89055 3.76609
# Velocity P-wave (km/s) = 6.58752 7.43898 7.02616
#
# Compressibility (1/GPa) = 0.02253912
#
# Stress axis : x y z
#
# Youngs Moduli (GPa) = 54.69306 36.30507 71.66706
#
# Poissons Ratio (x) = 0.10674 0.43388
# Poissons Ratio (y) = 0.16080 0.68995
# Poissons Ratio (z) = 0.33112 0.34952
#
# Static dielectric constant tensor:
#      x y z
#    x 3.077400 0.000000 -0.175490 
#    y 0.000000 3.230600 0.000000 
#    z -0.175490 0.000000 3.705660 
# 
# 
# High freq. dielectric constant tensor:
#      x y z
#    x 1.634560 0.000000 -0.012580 
#    y 0.000000 1.660050 0.000000 
#    z -0.012580 0.000000 1.679630 
# 
# From -- ./inp_files/40488.got.cif
#   From: 2010.06.25/outbox.cif.g09.slc.cpg/sg11_21_cif.got.tgz:40488.got - 2010.06.27 23:14:04.
