data_PCOD8072361
_publ_section_title
;
Structure prediction by ZEFSAII (Michael W. Deem and Ramdas Pophale) SiO2 
 PCOD8072361
Probable space group: P 21/M
;
_chemical_formula_sum "Si O2"
_cell_formula_units_Z 32
_cell_length_a 11.975473
_cell_length_b 16.789810
_cell_length_c 14.170458
_cell_angle_alpha 90.000000
_cell_angle_beta 33.109845
_cell_angle_gamma 90.000000
_cell_volume 1556.361689
_symmetry_space_group_name_H-M "P 21/M"
_symmetry_group_IT_number 11
_symmetry_cell_setting 'monoclinic'
loop_
_space_group_symop_operation_xyz
x,y,z
-x,1/2+y,-z
-x,-y,-z
x,1/2-y,z
loop_
_atom_site_type_symbol
_atom_site_label
_atom_site_fract_x
_atom_site_fract_y
_atom_site_fract_z
Si Si1 0.961913 0.344534 0.036617
Si Si2 0.678011 0.409604 0.713494
Si Si3 0.498715 0.655897 0.657686
Si Si4 0.970688 0.841802 0.642851
Si Si5 0.880876 0.656003 0.272232
Si Si6 0.751949 0.157285 0.858047
Si Si7 0.625105 0.592100 0.768281
Si Si8 0.231664 0.155352 0.019444
O O1 0.970226 0.250000 0.028136
O O2 0.727172 0.372854 0.211388
O O3 0.085997 0.375842 0.038812
O O4 0.062748 0.380805 0.869830
O O5 0.821052 0.390751 0.522296
O O6 0.767998 0.356956 0.735358
O O7 0.695332 0.501447 0.727913
O O8 0.447433 0.386782 0.851741
O O9 0.505428 0.750000 0.672552
O O10 0.652779 0.630595 0.464650
O O11 0.566899 0.611800 0.703299
O O12 0.030607 0.750000 0.610236
O O13 0.812558 0.853174 0.668971
O O14 0.868595 0.873079 0.811714
O O15 0.895253 0.750000 0.253913
O O16 0.041700 0.627175 0.237487
O O17 0.709439 0.250000 0.909099
O O18 0.565867 0.105700 0.028501
O O19 0.263958 0.250000 0.995129
#
# Coordination Sequence:
#
# PCOD8072361 Si02
#       8
#     4   4   4   4   4   4   4   4
#     4   9  18  35  59  88 115 146 199 257 296 341
#     4  12  25  40  58  89 126 159 193 243 301 359
#     4  10  19  35  59  87 117 151 198 253 302 349
#     4  11  23  40  63  88 118 159 201 242 292 355
#     4   9  18  32  58  90 114 143 190 252 306 340
#     4  11  20  36  62  88 117 155 197 242 298 359
#     4  12  23  38  60  90 123 157 194 243 306 359
#     4  10  22  40  63  87 116 159 205 242 290 355
#
# _framework density 20.560773999999999
#
# number of rings (size 3 to 8) (size 9 to 14) (size 15 to 20)
#    0.000    1.500    2.500    3.750    0.000    2.000 
#    0.000    4.375    0.000    1.500    0.000    0.000 
#    0.000    0.000    0.000    0.000    0.000    0.000 
#
# Total GULP energy -396916.525945 kJ/mol
# GULP energy per Si atom -12403.641436 kJ/mol
# Density = 2.051398 g / cm^3
# Si number density = 20.560774 Si / 1000 Ang^3
#
#
#
# Elastic Constant Matrix: (Units=GPa)
#
#
# Indices 1 2 3 4 5 6 
#
# 1 141.8339 14.4027 63.4222 0.0000 -13.5283 0.0000
# 2 14.4027 35.1853 16.8380 0.0000 1.2613 0.0000
# 3 63.4222 16.8380 165.2963 0.0000 -8.2088 0.0000
# 4 0.0000 0.0000 0.0000 15.8302 0.0000 6.2426
# 5 -13.5283 1.2613 -8.2088 0.0000 16.4100 0.0000
# 6 0.0000 0.0000 0.0000 6.2426 0.0000 5.1802
#
#
#
# Elastic Compliance Matrix: (Units=1/GPa)
#
#
# Indices 1 2 3 4 5 6 
#
# 1 0.009245 -0.002591 -0.002969 0.000000 0.006336 0.000000
# 2 -0.002591 0.030851 -0.002433 0.000000 -0.005724 0.000000
# 3 -0.002969 -0.002433 0.007511 0.000000 0.001497 0.000000
# 4 0.000000 0.000000 0.000000 0.120375 0.000000 -0.145062
# 5 0.006336 -0.005724 0.001497 0.000000 0.067350 0.000000
# 6 0.000000 0.000000 0.000000 -0.145062 0.000000 0.367853
#
#
# Mechanical properties :
#
#
# Convention : Reuss Voigt Hill
#
# Bulk Modulus (GPa) = 31.62323 59.07124 45.34724
# Shear Modulus (GPa) = 7.94014 23.99428 15.96721
#
# Velocity S-wave (km/s) = 1.96728 3.41983 2.78975
# Velocity P-wave (km/s) = 4.53586 6.66229 5.69913
#
# Compressibility (1/GPa) = 0.03162232
#
# Stress axis : x y z
#
# Youngs Moduli (GPa) = 108.16130 32.41399 133.13838
#
# Poissons Ratio (x) = 0.08398 0.39526
# Poissons Ratio (y) = 0.28024 0.32390
# Poissons Ratio (z) = 0.32111 0.07886
#
# Static dielectric constant tensor:
#      x y z
#    x 3.845560 0.000000 0.062740 
#    y 0.000000 3.341650 0.000000 
#    z 0.062740 0.000000 4.025130 
# 
# 
# High freq. dielectric constant tensor:
#      x y z
#    x 1.801770 0.000000 -0.000980 
#    y 0.000000 1.770410 0.000000 
#    z -0.000980 0.000000 1.822100 
# 
# From -- ./inp_files/50666.got.cif
#   From: 2010.06.25/outbox.cif.g09.slc.cpg/sg11_26_cif.got.tgz:50666.got - 2010.06.27 23:14:04.
