data_PCOD8072165
_publ_section_title
;
Structure prediction by ZEFSAII (Michael W. Deem and Ramdas Pophale) SiO2 
 PCOD8072165
Probable space group: P 21/M
;
_chemical_formula_sum "Si O2"
_cell_formula_units_Z 32
_cell_length_a 13.041587
_cell_length_b 13.187705
_cell_length_c 16.412931
_cell_angle_alpha 90.000000
_cell_angle_beta 141.200523
_cell_angle_gamma 90.000000
_cell_volume 1768.780379
_symmetry_space_group_name_H-M "P 21/M"
_symmetry_group_IT_number 11
_symmetry_cell_setting 'monoclinic'
loop_
_space_group_symop_operation_xyz
x,y,z
-x,1/2+y,-z
-x,-y,-z
x,1/2-y,z
loop_
_atom_site_type_symbol
_atom_site_label
_atom_site_fract_x
_atom_site_fract_y
_atom_site_fract_z
Si Si1 0.170273 0.999864 0.058742
Si Si2 0.969432 0.132998 0.152343
Si Si3 0.862079 0.133661 0.524585
Si Si4 0.697207 0.867084 0.992940
Si Si5 0.360665 0.633923 0.459696
Si Si6 0.318342 0.867642 0.752539
Si Si7 0.859681 0.999081 0.227835
Si Si8 0.295140 0.463696 0.299990
O O1 0.192959 0.098663 0.015965
O O2 0.309372 0.998971 0.214615
O O3 0.000000 0.000000 0.000000
O O4 0.173286 0.903339 0.999182
O O5 0.943869 0.250000 0.154876
O O6 0.144196 0.112166 0.219347
O O7 0.961211 0.073571 0.232257
O O8 0.922180 0.250000 0.560229
O O9 0.721191 0.118703 0.503885
O O10 0.783898 0.101403 0.390480
O O11 0.016024 0.062746 0.638273
O O12 0.732476 0.750000 0.029494
O O13 0.508966 0.890087 0.855157
O O14 0.748216 0.922846 0.107233
O O15 0.349628 0.750000 0.423446
O O16 0.267641 0.564310 0.336728
O O17 0.547683 0.600215 0.578683
O O18 0.291238 0.750000 0.757553
O O19 0.260143 0.934978 0.791333
#
# Coordination Sequence:
#
# PCOD8072165 Si02
#       8
#     4   4   4   4   4   4   4   4
#     4   9  20  34  52  80 107 137 176 220 270 320
#     4  10  20  34  52  75 106 143 180 219 272 334
#     4  10  20  35  55  81 108 139 182 228 278 322
#     4  10  21  37  58  82 109 142 184 226 272 327
#     4  10  20  33  54  79 108 143 182 229 269 324
#     4  10  21  36  57  82 107 143 183 223 274 330
#     4  11  20  36  54  82 109 143 177 233 276 322
#     4  10  19  35  52  77 108 143 183 219 275 329
#
# _framework density 18.091563000000001
#
# number of rings (size 3 to 8) (size 9 to 14) (size 15 to 20)
#    0.000    2.000    1.250    2.625    0.000    4.000 
#    0.000    0.000    0.000    0.750    0.000    0.000 
#    0.000    0.000    0.000    0.000    0.000    0.000 
#
# Total GULP energy -396778.205863 kJ/mol
# GULP energy per Si atom -12399.318933 kJ/mol
# Density = 1.805039 g / cm^3
# Si number density = 18.091563 Si / 1000 Ang^3
#
#
#
# Elastic Constant Matrix: (Units=GPa)
#
#
# Indices 1 2 3 4 5 6 
#
# 1 82.8297 43.6418 29.2051 0.0000 -10.7645 0.0000
# 2 43.6418 112.2137 56.1472 0.0000 -5.2353 0.0000
# 3 29.2051 56.1472 106.6166 0.0000 -15.6918 0.0000
# 4 0.0000 0.0000 0.0000 18.5277 0.0000 -0.5350
# 5 -10.7645 -5.2353 -15.6918 0.0000 27.5599 0.0000
# 6 0.0000 0.0000 0.0000 -0.5350 0.0000 28.5207
#
#
#
# Elastic Compliance Matrix: (Units=1/GPa)
#
#
# Indices 1 2 3 4 5 6 
#
# 1 0.015892 -0.005608 -0.000702 0.000000 0.004742 0.000000
# 2 -0.005608 0.014132 -0.006367 0.000000 -0.003131 0.000000
# 3 -0.000702 -0.006367 0.013869 0.000000 0.006413 0.000000
# 4 0.000000 0.000000 0.000000 0.054002 0.000000 0.001013
# 5 0.004742 -0.003131 0.006413 0.000000 0.041193 0.000000
# 6 0.000000 0.000000 0.000000 0.001013 0.000000 0.035081
#
#
# Mechanical properties :
#
#
# Convention : Reuss Voigt Hill
#
# Bulk Modulus (GPa) = 53.94191 62.18313 58.06252
# Shear Modulus (GPa) = 24.30689 26.43272 25.36980
#
# Velocity S-wave (km/s) = 3.66942 3.82652 3.74879
# Velocity P-wave (km/s) = 6.91619 7.34636 7.13451
#
# Compressibility (1/GPa) = 0.01853846
#
# Stress axis : x y z
#
# Youngs Moduli (GPa) = 62.92665 70.75919 72.10540
#
# Poissons Ratio (x) = 0.39682 0.05060
# Poissons Ratio (y) = 0.35290 0.45911
# Poissons Ratio (z) = 0.04416 0.45054
#
# Static dielectric constant tensor:
#      x y z
#    x 3.278960 0.000000 -0.139100 
#    y 0.000000 3.348720 0.000000 
#    z -0.139100 0.000000 3.615740 
# 
# 
# High freq. dielectric constant tensor:
#      x y z
#    x 1.696980 0.000000 -0.007910 
#    y 0.000000 1.699360 0.000000 
#    z -0.007910 0.000000 1.710410 
# 
# From -- ./inp_files/52311.got.cif
#   From: 2010.06.25/outbox.cif.g09.slc.cpg/sg11_27_cif.got.tgz:52311.got - 2010.06.27 23:14:04.
