data_PCOD8072806
_publ_section_title
;
Structure prediction by ZEFSAII (Michael W. Deem and Ramdas Pophale) SiO2 
 PCOD8072806
Probable space group: P 21/M
;
_chemical_formula_sum "Si O2"
_cell_formula_units_Z 20
_cell_length_a 9.693812
_cell_length_b 9.419931
_cell_length_c 14.036130
_cell_angle_alpha 90.000000
_cell_angle_beta 90.000534
_cell_angle_gamma 90.000000
_cell_volume 1281.709775
_symmetry_space_group_name_H-M "P 21/M"
_symmetry_group_IT_number 11
_symmetry_cell_setting 'monoclinic'
loop_
_space_group_symop_operation_xyz
x,y,z
-x,1/2+y,-z
-x,-y,-z
x,1/2-y,z
loop_
_atom_site_type_symbol
_atom_site_label
_atom_site_fract_x
_atom_site_fract_y
_atom_site_fract_z
Si Si1 0.999997 0.089868 0.594199
Si Si2 0.847039 0.090207 0.774964
Si Si3 0.660666 0.085743 0.093437
Si Si4 0.847052 0.590207 0.225032
Si Si5 0.339342 0.085743 0.093441
O O1 0.999995 0.250000 0.558203
O O2 0.135423 0.062150 0.660852
O O3 0.864568 0.062147 0.660848
O O4 0.000000 0.000000 0.500000
O O5 0.790035 0.250000 0.792714
O O6 0.999993 0.076298 0.822522
O O7 0.743232 0.974688 0.816673
O O8 0.698148 0.250000 0.078199
O O9 0.500005 0.064238 0.114838
O O10 0.743248 0.025314 0.183321
O O11 0.706503 1.000000 0.999997
O O12 0.790047 0.750000 0.207278
O O13 0.301857 0.250000 0.078206
#
# Coordination Sequence:
#
# PCOD8072806 Si02
#       5
#     4   4   4   4   4
#     4   8  16  30  49  72  95 118 149 188 234 280
#     4   8  17  32  48  70  95 121 154 191 230 274
#     4  10  20  32  47  68  94 126 160 191 228 274
#     4   8  17  32  48  70  95 121 154 191 230 274
#     4  10  20  32  47  68  94 126 160 191 228 274
#
# _framework density 15.604157000000001
#
# number of rings (size 3 to 8) (size 9 to 14) (size 15 to 20)
#    1.200    2.000    0.000    1.200    0.000    5.600 
#    0.000    0.000    0.000    1.200    0.000    0.000 
#    0.000    0.000    0.000    0.000    0.000    0.000 
#
# Total GULP energy -247769.851304 kJ/mol
# GULP energy per Si atom -12388.492565 kJ/mol
# Density = 1.556864 g / cm^3
# Si number density = 15.604157 Si / 1000 Ang^3
#
#
#
# Elastic Constant Matrix: (Units=GPa)
#
#
# Indices 1 2 3 4 5 6 
#
# 1 45.7759 50.2033 43.4908 0.0000 0.8435 0.0000
# 2 50.2033 133.5136 78.4126 0.0000 2.6602 0.0000
# 3 43.4908 78.4126 104.0408 0.0000 4.6531 0.0000
# 4 0.0000 0.0000 0.0000 37.0783 0.0000 0.6682
# 5 0.8435 2.6602 4.6531 0.0000 5.9815 0.0000
# 6 0.0000 0.0000 0.0000 0.6682 0.0000 30.0051
#
#
#
# Elastic Compliance Matrix: (Units=1/GPa)
#
#
# Indices 1 2 3 4 5 6 
#
# 1 0.042783 -0.009942 -0.010691 0.000000 0.006705 0.000000
# 2 -0.009942 0.015771 -0.007749 0.000000 0.000416 0.000000
# 3 -0.010691 -0.007749 0.020409 0.000000 -0.010923 0.000000
# 4 0.000000 0.000000 0.000000 0.026981 0.000000 -0.000601
# 5 0.006705 0.000416 -0.010923 0.000000 0.174547 0.000000
# 6 0.000000 0.000000 0.000000 -0.000601 0.000000 0.033341
#
#
# Mechanical properties :
#
#
# Convention : Reuss Voigt Hill
#
# Bulk Modulus (GPa) = 45.04585 69.72710 57.38647
# Shear Modulus (GPa) = 13.22773 22.02789 17.62781
#
# Velocity S-wave (km/s) = 2.91470 3.76129 3.36473
# Velocity P-wave (km/s) = 6.34490 7.97779 7.20773
#
# Compressibility (1/GPa) = 0.02219960
#
# Stress axis : x y z
#
# Youngs Moduli (GPa) = 23.37403 63.40892 48.99789
#
# Poissons Ratio (x) = 0.63040 0.52383
# Poissons Ratio (y) = 0.23238 0.37967
# Poissons Ratio (z) = 0.24989 0.49134
#
# Static dielectric constant tensor:
#      x y z
#    x 2.721920 0.000000 0.001070 
#    y 0.000000 2.988750 0.000000 
#    z 0.001070 0.000000 2.733390 
# 
# 
# High freq. dielectric constant tensor:
#      x y z
#    x 1.574670 0.000000 0.000660 
#    y 0.000000 1.609480 0.000000 
#    z 0.000660 0.000000 1.581700 
# 
# From -- ./inp_files/26002.got.cif
#   From: 2010.06.25/outbox.cif.g09.slc.cpg/sg11_14_cif.got.tgz:26002.got - 2010.06.27 23:14:04.
