data_PCOD8072767
_publ_section_title
;
Structure prediction by ZEFSAII (Michael W. Deem and Ramdas Pophale) SiO2 
 PCOD8072767
Probable space group: P 21/M
;
_chemical_formula_sum "Si O2"
_cell_formula_units_Z 32
_cell_length_a 12.214364
_cell_length_b 9.043595
_cell_length_c 18.436145
_cell_angle_alpha 90.000000
_cell_angle_beta 121.334942
_cell_angle_gamma 90.000000
_cell_volume 1739.450503
_symmetry_space_group_name_H-M "P 21/M"
_symmetry_group_IT_number 11
_symmetry_cell_setting 'monoclinic'
loop_
_space_group_symop_operation_xyz
x,y,z
-x,1/2+y,-z
-x,-y,-z
x,1/2-y,z
loop_
_atom_site_type_symbol
_atom_site_label
_atom_site_fract_x
_atom_site_fract_y
_atom_site_fract_z
Si Si1 0.248797 0.575667 0.854626
Si Si2 0.690379 0.086607 0.973876
Si Si3 0.677350 0.077674 0.277987
Si Si4 0.809646 0.079230 0.771948
Si Si5 0.998792 0.079639 0.722504
Si Si6 0.925190 0.923900 0.409855
Si Si7 0.011886 0.914211 0.931156
Si Si8 0.610997 0.577256 0.801457
O O1 0.231169 0.750000 0.852963
O O2 0.323161 0.529326 0.806799
O O3 0.105341 0.509619 0.804630
O O4 0.339621 0.524062 0.954723
O O5 0.630601 0.250000 0.938559
O O6 0.655330 0.981475 0.895306
O O7 0.841376 0.103103 0.037247
O O8 0.711822 0.250000 0.297930
O O9 0.537898 0.041530 0.262362
O O10 0.779744 0.983339 0.358250
O O11 0.786298 0.250000 0.783640
O O12 0.851217 0.056663 0.701449
O O13 0.685824 0.992192 0.758606
O O14 0.938440 0.019473 0.851293
O O15 0.038535 0.250000 0.744078
O O16 0.001927 0.032076 0.639371
O O17 0.922039 0.750000 0.422058
O O18 0.000000 0.000000 0.500000
O O19 0.948157 0.750000 0.912837
O O20 0.000000 0.000000 0.000000
O O21 0.638058 0.750000 0.811629
#
# Coordination Sequence:
#
# PCOD8072767 Si02
#       8
#     4   4   4   4   4   4   4   4
#     4   9  17  32  52  72  99 135 177 224 270 309
#     4  10  20  31  46  70 100 137 182 228 270 309
#     4   9  20  38  56  77 106 139 174 215 261 312
#     4  11  21  33  50  72 102 140 179 221 262 304
#     4   9  19  33  52  80 109 133 166 211 261 307
#     4  10  20  37  63  92 113 132 158 199 254 315
#     4  11  20  30  45  68  97 134 180 231 272 305
#     4  11  23  35  49  71 103 145 187 222 260 307
#
# _framework density 18.396612999999999
#
# number of rings (size 3 to 8) (size 9 to 14) (size 15 to 20)
#    0.000    2.000    2.500    1.500    0.000    3.500 
#    0.000    0.000    0.000    0.750    0.000    0.000 
#    0.000    0.000    0.000    0.000    0.000    0.000 
#
# Total GULP energy -396461.132873 kJ/mol
# GULP energy per Si atom -12389.410402 kJ/mol
# Density = 1.835474 g / cm^3
# Si number density = 18.396613 Si / 1000 Ang^3
#
#
#
# Elastic Constant Matrix: (Units=GPa)
#
#
# Indices 1 2 3 4 5 6 
#
# 1 103.7804 51.2070 51.8793 0.0000 4.9059 0.0000
# 2 51.2070 86.7460 45.6048 0.0000 1.2014 0.0000
# 3 51.8793 45.6048 88.8517 0.0000 -3.9023 0.0000
# 4 0.0000 0.0000 0.0000 24.4182 0.0000 1.7042
# 5 4.9059 1.2014 -3.9023 0.0000 18.4369 0.0000
# 6 0.0000 0.0000 0.0000 1.7042 0.0000 25.1476
#
#
#
# Elastic Compliance Matrix: (Units=1/GPa)
#
#
# Indices 1 2 3 4 5 6 
#
# 1 0.016129 -0.005991 -0.006575 0.000000 -0.005293 0.000000
# 2 -0.005991 0.018155 -0.005857 0.000000 -0.000828 0.000000
# 3 -0.006575 -0.005857 0.018364 0.000000 0.006018 0.000000
# 4 0.000000 0.000000 0.000000 0.041148 0.000000 -0.002788
# 5 -0.005293 -0.000828 0.006018 0.000000 0.056975 0.000000
# 6 0.000000 0.000000 0.000000 -0.002788 0.000000 0.039954
#
#
# Mechanical properties :
#
#
# Convention : Reuss Voigt Hill
#
# Bulk Modulus (GPa) = 63.28050 64.08447 63.68249
# Shear Modulus (GPa) = 21.47423 22.31302 21.89363
#
# Velocity S-wave (km/s) = 3.42027 3.48643 3.45351
# Velocity P-wave (km/s) = 7.07604 7.14965 7.11294
#
# Compressibility (1/GPa) = 0.01580266
#
# Stress axis : x y z
#
# Youngs Moduli (GPa) = 62.00109 55.08133 54.45445
#
# Poissons Ratio (x) = 0.33000 0.35803
# Poissons Ratio (y) = 0.37145 0.31892
# Poissons Ratio (z) = 0.40764 0.32259
#
# Static dielectric constant tensor:
#      x y z
#    x 3.637570 0.000000 -0.190170 
#    y 0.000000 3.477190 0.000000 
#    z -0.190170 0.000000 3.134420 
# 
# 
# High freq. dielectric constant tensor:
#      x y z
#    x 1.723260 0.000000 -0.012620 
#    y 0.000000 1.720730 0.000000 
#    z -0.012620 0.000000 1.673670 
# 
# From -- ./inp_files/64420.got.cif
#   From: 2010.06.25/outbox.cif.g09.slc.cpg/sg11_33_cif.got.tgz:64420.got - 2010.06.27 23:14:04.
