data_PCOD8072082
_publ_section_title
;
Structure prediction by ZEFSAII (Michael W. Deem and Ramdas Pophale) SiO2 
 PCOD8072082
Probable space group: P 21/M
;
_chemical_formula_sum "Si O2"
_cell_formula_units_Z 32
_cell_length_a 21.440589
_cell_length_b 9.363284
_cell_length_c 27.466468
_cell_angle_alpha 90.000000
_cell_angle_beta 18.719446
_cell_angle_gamma 90.000000
_cell_volume 1769.636489
_symmetry_space_group_name_H-M "P 21/M"
_symmetry_group_IT_number 11
_symmetry_cell_setting 'monoclinic'
loop_
_space_group_symop_operation_xyz
x,y,z
-x,1/2+y,-z
-x,-y,-z
x,1/2-y,z
loop_
_atom_site_type_symbol
_atom_site_label
_atom_site_fract_x
_atom_site_fract_y
_atom_site_fract_z
Si Si1 0.992163 0.414846 0.456265
Si Si2 0.330301 0.916713 0.381323
Si Si3 0.336255 0.916384 0.823888
Si Si4 0.700556 0.581731 0.852748
Si Si5 0.189090 0.916433 0.662204
Si Si6 0.563456 0.085626 0.360381
Si Si7 0.953861 0.083879 0.126041
Si Si8 0.979377 0.418673 0.312895
O O1 0.010799 0.250000 0.455756
O O2 0.785578 0.444838 0.582998
O O3 0.000000 0.500000 0.500000
O O4 0.169798 0.459845 0.289903
O O5 0.382764 0.750000 0.348157
O O6 0.199623 0.975050 0.522487
O O7 0.528880 0.007528 0.235246
O O8 0.317345 0.750000 0.850377
O O9 0.429415 0.942717 0.702270
O O10 0.125237 0.986085 0.979771
O O11 0.659500 0.750000 0.884418
O O12 0.815663 0.528752 0.816227
O O13 0.500000 0.500000 0.000000
O O14 0.236540 0.750000 0.621379
O O15 0.075765 0.949539 0.795246
O O16 0.049477 0.969642 0.721311
O O17 0.393548 0.995828 0.510652
O O18 0.521994 0.250000 0.403038
O O19 0.764393 0.037542 0.236252
O O20 0.003919 0.250000 0.080309
O O21 0.978316 0.250000 0.319208
#
# Coordination Sequence:
#
# PCOD8072082 Si02
#       8
#     4   4   4   4   4   4   4   4
#     4   9  19  35  56  81 109 140 175 216 260 311
#     4   9  17  34  58  78 101 139 181 218 259 308
#     4  11  22  35  53  78 107 140 178 220 267 311
#     4   9  18  34  54  78 108 138 173 215 258 308
#     4  10  19  34  58  81 100 135 180 218 262 314
#     4  10  21  36  54  78 107 138 175 221 267 315
#     4  10  22  37  52  76 110 142 175 217 265 320
#     4   8  15  31  55  78 100 131 174 217 252 301
#
# _framework density 18.082809999999998
#
# number of rings (size 3 to 8) (size 9 to 14) (size 15 to 20)
#    0.000    2.500    1.250    2.625    0.000    2.500 
#    2.250    2.500    0.000    0.000    0.000    0.000 
#    0.000    0.000    0.000    0.000    0.000    0.000 
#
# Total GULP energy -396772.531504 kJ/mol
# GULP energy per Si atom -12399.141609 kJ/mol
# Density = 1.804165 g / cm^3
# Si number density = 18.082810 Si / 1000 Ang^3
#
#
#
# Elastic Constant Matrix: (Units=GPa)
#
#
# Indices 1 2 3 4 5 6 
#
# 1 100.4386 33.7130 24.8189 0.0000 -17.8494 0.0000
# 2 33.7130 55.4635 32.7743 0.0000 -9.5063 0.0000
# 3 24.8189 32.7743 64.5499 0.0000 -23.4067 0.0000
# 4 0.0000 0.0000 0.0000 35.4488 0.0000 -4.9722
# 5 -17.8494 -9.5063 -23.4067 0.0000 27.3281 0.0000
# 6 0.0000 0.0000 0.0000 -4.9722 0.0000 27.2412
#
#
#
# Elastic Compliance Matrix: (Units=1/GPa)
#
#
# Indices 1 2 3 4 5 6 
#
# 1 0.013529 -0.007807 0.001424 0.000000 0.007340 0.000000
# 2 -0.007807 0.030464 -0.015190 0.000000 -0.007512 0.000000
# 3 0.001424 -0.015190 0.030574 0.000000 0.021833 0.000000
# 4 0.000000 0.000000 0.000000 0.028951 0.000000 0.005284
# 5 0.007340 -0.007512 0.021833 0.000000 0.057473 0.000000
# 6 0.000000 0.000000 0.000000 0.005284 0.000000 0.037674
#
#
# Mechanical properties :
#
#
# Convention : Reuss Voigt Hill
#
# Bulk Modulus (GPa) = 31.82620 44.78493 38.30557
# Shear Modulus (GPa) = 19.81892 26.61334 23.21613
#
# Velocity S-wave (km/s) = 3.31419 3.84050 3.58701
# Velocity P-wave (km/s) = 5.68187 6.66980 6.19556
#
# Compressibility (1/GPa) = 0.03142065
#
# Stress axis : x y z
#
# Youngs Moduli (GPa) = 73.91257 32.82616 32.70786
#
# Poissons Ratio (x) = 0.25627 -0.04656
# Poissons Ratio (y) = 0.57703 0.49682
# Poissons Ratio (z) = -0.10522 0.49862
#
# Static dielectric constant tensor:
#      x y z
#    x 3.560580 0.000000 -0.112000 
#    y 0.000000 3.196150 0.000000 
#    z -0.112000 0.000000 3.178220 
# 
# 
# High freq. dielectric constant tensor:
#      x y z
#    x 1.710770 0.000000 -0.011300 
#    y 0.000000 1.684000 0.000000 
#    z -0.011300 0.000000 1.692100 
# 
# From -- ./inp_files/67152.got.cif
#   From: 2010.06.25/outbox.cif.g09.slc.cpg/sg11_34_cif.got.tgz:67152.got - 2010.06.27 23:14:04.
