data_PCOD8072057
_publ_section_title
;
Structure prediction by ZEFSAII (Michael W. Deem and Ramdas Pophale) SiO2 
 PCOD8072057
Probable space group: P 21/M
;
_chemical_formula_sum "Si O2"
_cell_formula_units_Z 32
_cell_length_a 28.701523
_cell_length_b 8.595982
_cell_length_c 12.050491
_cell_angle_alpha 90.000000
_cell_angle_beta 34.478201
_cell_angle_gamma 90.000000
_cell_volume 1683.033247
_symmetry_space_group_name_H-M "P 21/M"
_symmetry_group_IT_number 11
_symmetry_cell_setting 'monoclinic'
loop_
_space_group_symop_operation_xyz
x,y,z
-x,1/2+y,-z
-x,-y,-z
x,1/2-y,z
loop_
_atom_site_type_symbol
_atom_site_label
_atom_site_fract_x
_atom_site_fract_y
_atom_site_fract_z
Si Si1 0.765091 0.569057 0.042762
Si Si2 0.287696 0.932608 0.077188
Si Si3 0.370843 0.430946 0.511628
Si Si4 0.877623 0.431498 0.996602
Si Si5 0.198800 0.069814 0.459576
Si Si6 0.023351 0.567612 0.835674
Si Si7 0.528879 0.067638 0.327995
Si Si8 0.260572 0.570347 0.553927
O O1 0.767039 0.750000 0.007793
O O2 0.761691 0.467442 0.938371
O O3 0.685900 0.525377 0.272026
O O4 0.847634 0.523812 0.946941
O O5 0.283392 0.750000 0.112838
O O6 0.381376 0.993978 0.881834
O O7 0.248311 0.031492 0.252113
O O8 0.361352 0.250000 0.501616
O O9 0.464253 0.477795 0.358111
O O10 0.343568 0.528413 0.457695
O O11 0.877596 0.250000 0.969022
O O12 0.968769 0.488334 0.847244
O O13 0.818632 0.470189 0.216011
O O14 0.173769 0.250000 0.510243
O O15 0.117806 0.964360 0.622878
O O16 0.256585 0.031806 0.451025
O O17 0.006495 0.750000 0.869961
O O18 0.000000 0.500000 0.000000
O O19 0.531177 0.250000 0.340223
O O20 0.500000 0.000000 0.500000
O O21 0.262614 0.750000 0.516131
#
# Coordination Sequence:
#
# PCOD8072057 Si02
#       8
#     4   4   4   4   4   4   4   4
#     4  10  19  34  57  85 119 155 195 239 290 345
#     4  11  23  39  59  85 120 158 197 241 294 351
#     4   9  18  33  55  85 118 150 191 241 289 342
#     4  10  20  35  58  88 120 152 192 240 290 340
#     4  12  25  41  61  84 117 158 197 239 293 350
#     4  12  23  38  61  90 120 151 193 241 289 342
#     4  10  20  35  58  87 118 152 194 244 290 341
#     4  10  20  35  57  85 117 151 192 240 290 344
#
# _framework density 19.013290000000001
#
# number of rings (size 3 to 8) (size 9 to 14) (size 15 to 20)
#    0.000    1.500    2.500    3.750    0.000    2.500 
#    0.000    1.250    0.000    0.000    0.000    0.000 
#    0.000    0.000    0.000    0.000    0.000    0.000 
#
# Total GULP energy -396969.661209 kJ/mol
# GULP energy per Si atom -12405.301913 kJ/mol
# Density = 1.897001 g / cm^3
# Si number density = 19.013290 Si / 1000 Ang^3
#
#
#
# Elastic Constant Matrix: (Units=GPa)
#
#
# Indices 1 2 3 4 5 6 
#
# 1 123.8319 23.7061 45.2355 0.0000 -4.9276 0.0000
# 2 23.7061 58.0475 14.8988 0.0000 3.5140 0.0000
# 3 45.2355 14.8988 81.2495 0.0000 -2.5427 0.0000
# 4 0.0000 0.0000 0.0000 26.0715 0.0000 1.1936
# 5 -4.9276 3.5140 -2.5427 0.0000 25.2938 0.0000
# 6 0.0000 0.0000 0.0000 1.1936 0.0000 35.9936
#
#
#
# Elastic Compliance Matrix: (Units=1/GPa)
#
#
# Indices 1 2 3 4 5 6 
#
# 1 0.010696 -0.003123 -0.005320 0.000000 0.001983 0.000000
# 2 -0.003123 0.019197 -0.001890 0.000000 -0.003465 0.000000
# 3 -0.005320 -0.001890 0.015641 0.000000 0.000799 0.000000
# 4 0.000000 0.000000 0.000000 0.038414 0.000000 -0.001274
# 5 0.001983 -0.003465 0.000799 0.000000 0.040483 0.000000
# 6 0.000000 0.000000 0.000000 -0.001274 0.000000 0.027825
#
#
# Mechanical properties :
#
#
# Convention : Reuss Voigt Hill
#
# Bulk Modulus (GPa) = 40.21138 47.86777 44.03957
# Shear Modulus (GPa) = 27.59196 29.42435 28.50815
#
# Velocity S-wave (km/s) = 3.81359 3.93818 3.87638
# Velocity P-wave (km/s) = 6.37073 6.77566 6.57632
#
# Compressibility (1/GPa) = 0.02486858
#
# Stress axis : x y z
#
# Youngs Moduli (GPa) = 93.49684 52.09031 63.93318
#
# Poissons Ratio (x) = 0.16265 0.34013
# Poissons Ratio (y) = 0.29195 0.12085
# Poissons Ratio (z) = 0.49741 0.09846
#
# Static dielectric constant tensor:
#      x y z
#    x 3.650270 0.000000 -0.205660 
#    y 0.000000 3.612020 0.000000 
#    z -0.205660 0.000000 3.364290 
# 
# 
# High freq. dielectric constant tensor:
#      x y z
#    x 1.754010 0.000000 -0.009690 
#    y 0.000000 1.747650 0.000000 
#    z -0.009690 0.000000 1.708910 
# 
# From -- ./inp_files/45229.got.cif
#   From: 2010.06.25/outbox.cif.g09.slc.cpg/sg11_23_cif.got.tgz:45229.got - 2010.06.27 23:14:04.
