data_PCOD8072866
_publ_section_title
;
Structure prediction by ZEFSAII (Michael W. Deem and Ramdas Pophale) SiO2 
 PCOD8072866
Probable space group: P 21/M
;
_chemical_formula_sum "Si O2"
_cell_formula_units_Z 32
_cell_length_a 23.160031
_cell_length_b 8.789323
_cell_length_c 16.877236
_cell_angle_alpha 90.000000
_cell_angle_beta 31.288608
_cell_angle_gamma 90.000000
_cell_volume 1784.248584
_symmetry_space_group_name_H-M "P 21/M"
_symmetry_group_IT_number 11
_symmetry_cell_setting 'monoclinic'
loop_
_space_group_symop_operation_xyz
x,y,z
-x,1/2+y,-z
-x,-y,-z
x,1/2-y,z
loop_
_atom_site_type_symbol
_atom_site_label
_atom_site_fract_x
_atom_site_fract_y
_atom_site_fract_z
Si Si1 0.165706 0.931007 0.155637
Si Si2 0.396457 0.071856 0.447634
Si Si3 0.942563 0.431396 0.385535
Si Si4 0.827329 0.423845 0.676671
Si Si5 0.390238 0.925318 0.160971
Si Si6 0.382482 0.425751 0.635478
Si Si7 0.638556 0.570690 0.169196
Si Si8 0.737531 0.929192 0.548218
O O1 0.159825 0.750000 0.160390
O O2 0.155294 0.998584 0.257466
O O3 0.064407 0.002562 0.224027
O O4 0.282992 0.982559 0.983305
O O5 0.426554 0.250000 0.405671
O O6 0.332353 0.036078 0.607073
O O7 0.309488 0.023284 0.482363
O O8 0.511147 0.979267 0.304677
O O9 0.942593 0.250000 0.382910
O O10 0.903312 0.496310 0.517908
O O11 0.856470 0.489742 0.420236
O O12 0.862559 0.250000 0.642028
O O13 0.698860 0.441112 0.804464
O O14 0.409640 0.750000 0.161342
O O15 0.351890 0.015035 0.283319
O O16 0.500000 0.000000 0.000000
O O17 0.500000 0.500000 0.500000
O O18 0.405086 0.250000 0.617161
O O19 0.318367 0.474600 0.791499
O O20 0.648376 0.750000 0.141695
O O21 0.754290 0.750000 0.536820
#
# Coordination Sequence:
#
# PCOD8072866 Si02
#       8
#     4   4   4   4   4   4   4   4
#     4  11  21  34  53  75 101 134 170 211 255 304
#     4   9  18  33  54  77 103 136 170 205 248 306
#     4  10  20  37  55  73  99 131 171 217 258 298
#     4   8  18  34  51  70  95 130 170 209 248 294
#     4  10  20  34  49  70 102 138 171 207 253 299
#     4   8  15  30  50  72 101 134 165 201 248 301
#     4  10  20  32  49  78 109 134 165 207 256 303
#     4  10  20  34  53  76 100 132 172 210 251 303
#
# _framework density 17.934721
#
# number of rings (size 3 to 8) (size 9 to 14) (size 15 to 20)
#    0.000    2.500    0.000    3.000    1.750    1.500 
#    0.000    6.250    0.000    0.750    0.000    0.000 
#    0.000    0.000    0.000    0.000    0.000    0.000 
#
# Total GULP energy -396524.537742 kJ/mol
# GULP energy per Si atom -12391.391804 kJ/mol
# Density = 1.789390 g / cm^3
# Si number density = 17.934721 Si / 1000 Ang^3
#
#
#
# Elastic Constant Matrix: (Units=GPa)
#
#
# Indices 1 2 3 4 5 6 
#
# 1 123.9662 38.5384 36.4562 0.0000 8.9562 0.0000
# 2 38.5384 65.4323 24.7685 0.0000 -1.3506 0.0000
# 3 36.4562 24.7685 50.4367 0.0000 -3.6858 0.0000
# 4 0.0000 0.0000 0.0000 26.6323 0.0000 -3.3841
# 5 8.9562 -1.3506 -3.6858 0.0000 19.4423 0.0000
# 6 0.0000 0.0000 0.0000 -3.3841 0.0000 24.2746
#
#
#
# Elastic Compliance Matrix: (Units=1/GPa)
#
#
# Indices 1 2 3 4 5 6 
#
# 1 0.012079 -0.004617 -0.006990 0.000000 -0.007210 0.000000
# 2 -0.004617 0.020541 -0.006582 0.000000 0.002306 0.000000
# 3 -0.006990 -0.006582 0.028711 0.000000 0.008206 0.000000
# 4 0.000000 0.000000 0.000000 0.038225 0.000000 0.005329
# 5 -0.007210 0.002306 0.008206 0.000000 0.056471 0.000000
# 6 0.000000 0.000000 0.000000 0.005329 0.000000 0.041938
#
#
# Mechanical properties :
#
#
# Convention : Reuss Voigt Hill
#
# Bulk Modulus (GPa) = 40.07456 48.81791 44.44624
# Shear Modulus (GPa) = 20.60483 23.40798 22.00641
#
# Velocity S-wave (km/s) = 3.39319 3.61664 3.50670
# Velocity P-wave (km/s) = 6.14368 6.68723 6.42121
#
# Compressibility (1/GPa) = 0.02495349
#
# Stress axis : x y z
#
# Youngs Moduli (GPa) = 82.79122 48.68254 34.82954
#
# Poissons Ratio (x) = 0.22476 0.24346
# Poissons Ratio (y) = 0.38223 0.22924
# Poissons Ratio (z) = 0.57873 0.32042
#
# Static dielectric constant tensor:
#      x y z
#    x 3.848850 0.000000 0.376140 
#    y 0.000000 3.294710 0.000000 
#    z 0.376140 0.000000 3.312360 
# 
# 
# High freq. dielectric constant tensor:
#      x y z
#    x 1.696220 0.000000 0.007840 
#    y 0.000000 1.695340 0.000000 
#    z 0.007840 0.000000 1.673920 
# 
# From -- ./inp_files/61764.got.cif
#   From: 2010.06.25/outbox.cif.g09.slc.cpg/sg11_31_cif.got.tgz:61764.got - 2010.06.27 23:14:04.
