data_PCOD8072462
_publ_section_title
;
Structure prediction by ZEFSAII (Michael W. Deem and Ramdas Pophale) SiO2 
 PCOD8072462
Probable space group: P 21/M
;
_chemical_formula_sum "Si O2"
_cell_formula_units_Z 24
_cell_length_a 23.878600
_cell_length_b 8.798469
_cell_length_c 12.449294
_cell_angle_alpha 90.000000
_cell_angle_beta 150.205305
_cell_angle_gamma 90.000000
_cell_volume 1299.643102
_symmetry_space_group_name_H-M "P 21/M"
_symmetry_group_IT_number 11
_symmetry_cell_setting 'monoclinic'
loop_
_space_group_symop_operation_xyz
x,y,z
-x,1/2+y,-z
-x,-y,-z
x,1/2-y,z
loop_
_atom_site_type_symbol
_atom_site_label
_atom_site_fract_x
_atom_site_fract_y
_atom_site_fract_z
Si Si1 0.362567 0.072419 0.105896
Si Si2 0.996586 0.927113 0.377353
Si Si3 0.614078 0.429870 0.481082
Si Si4 0.774903 0.429758 0.933298
Si Si5 0.243155 0.924497 0.715225
Si Si6 0.391762 0.926314 0.767021
O O1 0.346842 0.250000 0.104990
O O2 0.492773 0.021932 0.326095
O O3 0.295228 0.972780 0.078527
O O4 0.314297 0.037083 0.908050
O O5 0.974787 0.750000 0.357001
O O6 0.111289 0.961799 0.504647
O O7 0.000000 0.000000 0.500000
O O8 0.897762 0.996296 0.140591
O O9 0.622558 0.250000 0.491817
O O10 0.710621 0.493572 0.720909
O O11 0.631417 0.496834 0.389875
O O12 0.788707 0.250000 0.953552
O O13 0.267169 0.750000 0.789240
O O14 0.281476 0.954120 0.656500
O O15 0.420066 0.750000 0.801757
O O16 0.500000 0.000000 0.000000
#
# Coordination Sequence:
#
# PCOD8072462 Si02
#       6
#     4   4   4   4   4   4
#     4  11  20  33  56  84 113 143 180 229 276 329
#     4  11  22  37  56  81 110 145 186 231 275 322
#     4   9  20  36  55  81 114 148 182 223 277 332
#     4  11  22  37  55  79 113 151 186 224 276 332
#     4  10  21  35  56  83 111 141 180 227 277 326
#     4  10  19  36  58  82 110 144 181 224 274 327
#
# _framework density 18.466608999999998
#
# number of rings (size 3 to 8) (size 9 to 14) (size 15 to 20)
#    0.000    1.667    3.333    2.000    0.000    0.667 
#    0.000    5.000    0.000    0.000    0.000    0.000 
#    0.000    0.000    0.000    0.000    0.000    0.000 
#
# Total GULP energy -297639.439126 kJ/mol
# GULP energy per Si atom -12401.643297 kJ/mol
# Density = 1.842458 g / cm^3
# Si number density = 18.466609 Si / 1000 Ang^3
#
#
#
# Elastic Constant Matrix: (Units=GPa)
#
#
# Indices 1 2 3 4 5 6 
#
# 1 81.7224 18.1507 36.8200 0.0000 14.1318 0.0000
# 2 18.1507 55.9986 33.8038 0.0000 9.0813 0.0000
# 3 36.8200 33.8038 139.4470 0.0000 11.5672 0.0000
# 4 0.0000 0.0000 0.0000 29.0958 0.0000 1.2999
# 5 14.1318 9.0813 11.5672 0.0000 31.1262 0.0000
# 6 0.0000 0.0000 0.0000 1.2999 0.0000 15.2773
#
#
#
# Elastic Compliance Matrix: (Units=1/GPa)
#
#
# Indices 1 2 3 4 5 6 
#
# 1 0.014947 -0.002224 -0.002991 0.000000 -0.005026 0.000000
# 2 -0.002224 0.021837 -0.004397 0.000000 -0.003727 0.000000
# 3 -0.002991 -0.004397 0.009088 0.000000 -0.000737 0.000000
# 4 0.000000 0.000000 0.000000 0.034500 0.000000 -0.002936
# 5 -0.005026 -0.003727 -0.000737 0.000000 0.035770 0.000000
# 6 0.000000 0.000000 0.000000 -0.002936 0.000000 0.065706
#
#
# Mechanical properties :
#
#
# Convention : Reuss Voigt Hill
#
# Bulk Modulus (GPa) = 37.52627 50.52413 44.02520
# Shear Modulus (GPa) = 23.81449 27.65942 25.73696
#
# Velocity S-wave (km/s) = 3.59499 3.87435 3.73728
# Velocity P-wave (km/s) = 6.13166 6.88718 6.52037
#
# Compressibility (1/GPa) = 0.02664800
#
# Stress axis : x y z
#
# Youngs Moduli (GPa) = 66.90270 45.79302 110.03704
#
# Poissons Ratio (x) = 0.10187 0.32907
# Poissons Ratio (y) = 0.14882 0.48385
# Poissons Ratio (z) = 0.20007 0.20136
#
# Static dielectric constant tensor:
#      x y z
#    x 3.651020 0.000000 -0.048200 
#    y 0.000000 3.337310 0.000000 
#    z -0.048200 0.000000 3.684060 
# 
# 
# High freq. dielectric constant tensor:
#      x y z
#    x 1.719580 0.000000 0.003860 
#    y 0.000000 1.707160 0.000000 
#    z 0.003860 0.000000 1.716390 
# 
# From -- ./inp_files/33688.got.cif
#   From: 2010.06.25/outbox.cif.g09.slc.cpg/sg11_17_cif.got.tgz:33688.got - 2010.06.27 23:14:04.
