data_PCOD8072549
_publ_section_title
;
Structure prediction by ZEFSAII (Michael W. Deem and Ramdas Pophale) SiO2 
 PCOD8072549
Probable space group: P 21/M
;
_chemical_formula_sum "Si O2"
_cell_formula_units_Z 32
_cell_length_a 10.857028
_cell_length_b 8.779642
_cell_length_c 30.826561
_cell_angle_alpha 90.000000
_cell_angle_beta 148.478506
_cell_angle_gamma 90.000000
_cell_volume 1536.256371
_symmetry_space_group_name_H-M "P 21/M"
_symmetry_group_IT_number 11
_symmetry_cell_setting 'monoclinic'
loop_
_space_group_symop_operation_xyz
x,y,z
-x,1/2+y,-z
-x,-y,-z
x,1/2-y,z
loop_
_atom_site_type_symbol
_atom_site_label
_atom_site_fract_x
_atom_site_fract_y
_atom_site_fract_z
Si Si1 0.712979 0.073726 0.972318
Si Si2 0.804651 0.926767 0.161354
Si Si3 0.948918 0.419035 0.285488
Si Si4 0.409944 0.417752 0.145740
Si Si5 0.999203 0.433267 0.451289
Si Si6 0.991745 0.923916 0.857821
Si Si7 0.509993 0.074150 0.266966
Si Si8 0.262649 0.931711 0.449992
O O1 0.694764 0.250000 0.958385
O O2 0.464086 0.014279 0.916568
O O3 0.760937 0.999972 0.939727
O O4 0.925921 0.032594 0.068723
O O5 0.822924 0.750000 0.177199
O O6 0.986861 0.009539 0.249158
O O7 0.884383 0.959795 0.136788
O O8 0.063976 0.250000 0.322680
O O9 0.671180 0.408776 0.205802
O O10 0.052279 0.524724 0.354335
O O11 0.299742 0.250000 0.119779
O O12 0.430860 0.505462 0.198073
O O13 0.019766 0.250000 0.459053
O O14 0.748247 0.494704 0.357969
O O15 0.000000 0.500000 0.500000
O O16 0.203561 0.498993 0.480405
O O17 0.067867 0.750000 0.870350
O O18 0.710766 0.943441 0.767055
O O19 0.565297 0.250000 0.272821
O O20 0.285765 0.750000 0.461213
O O21 0.500000 0.000000 0.500000
#
# Coordination Sequence:
#
# PCOD8072549 Si02
#       8
#     4   4   4   4   4   4   4   4
#     4   9  19  33  51  79 113 150 194 249 302 350
#     4  10  20  34  52  79 116 154 196 249 301 353
#     4  10  19  36  61  86 113 150 194 240 294 359
#     4   9  17  33  57  81 107 147 191 234 290 354
#     4  11  23  44  68  94 128 167 210 258 319 387
#     4  10  20  35  54  78 112 156 202 246 298 358
#     4   9  19  37  60  82 111 151 194 241 294 358
#     4  12  25  42  66  97 128 162 204 258 316 376
#
# _framework density 20.829857000000001
#
# number of rings (size 3 to 8) (size 9 to 14) (size 15 to 20)
#    0.000    2.000    1.250    2.625    0.000    3.000 
#    0.000    5.625    0.000    0.000    0.000    0.000 
#    0.000    0.000    0.000    0.000    0.000    0.000 
#
# Total GULP energy -396568.079040 kJ/mol
# GULP energy per Si atom -12392.752470 kJ/mol
# Density = 2.078245 g / cm^3
# Si number density = 20.829857 Si / 1000 Ang^3
#
#
#
# Elastic Constant Matrix: (Units=GPa)
#
#
# Indices 1 2 3 4 5 6 
#
# 1 94.0722 40.5481 61.0719 0.0000 -7.7910 0.0000
# 2 40.5481 82.4206 33.0338 0.0000 -5.1307 0.0000
# 3 61.0719 33.0338 82.0468 0.0000 -13.8314 0.0000
# 4 0.0000 0.0000 0.0000 27.7733 0.0000 -11.4840
# 5 -7.7910 -5.1307 -13.8314 0.0000 32.3255 0.0000
# 6 0.0000 0.0000 0.0000 -11.4840 0.0000 26.1467
#
#
#
# Elastic Compliance Matrix: (Units=1/GPa)
#
#
# Indices 1 2 3 4 5 6 
#
# 1 0.022354 -0.005150 -0.014868 0.000000 -0.001791 0.000000
# 2 -0.005150 0.015655 -0.002436 0.000000 0.000201 0.000000
# 3 -0.014868 -0.002436 0.025398 0.000000 0.006898 0.000000
# 4 0.000000 0.000000 0.000000 0.043996 0.000000 0.019324
# 5 -0.001791 0.000201 0.006898 0.000000 0.033487 0.000000
# 6 0.000000 0.000000 0.000000 0.019324 0.000000 0.046733
#
#
# Mechanical properties :
#
#
# Convention : Reuss Voigt Hill
#
# Bulk Modulus (GPa) = 54.05197 58.64969 56.35083
# Shear Modulus (GPa) = 20.94710 25.50816 23.22763
#
# Velocity S-wave (km/s) = 3.17461 3.50322 3.34295
# Velocity P-wave (km/s) = 6.28037 6.67691 6.48167
#
# Compressibility (1/GPa) = 0.01850071
#
# Stress axis : x y z
#
# Youngs Moduli (GPa) = 44.73557 63.87628 39.37255
#
# Poissons Ratio (x) = 0.32895 0.58537
# Poissons Ratio (y) = 0.23038 0.09591
# Poissons Ratio (z) = 0.66511 0.15559
#
# Static dielectric constant tensor:
#      x y z
#    x 3.761200 0.000000 -0.077230 
#    y 0.000000 3.734020 0.000000 
#    z -0.077230 0.000000 3.850900 
# 
# 
# High freq. dielectric constant tensor:
#      x y z
#    x 1.817660 0.000000 -0.006840 
#    y 0.000000 1.796140 0.000000 
#    z -0.006840 0.000000 1.817110 
# 
# From -- ./inp_files/73201.got.cif
#   From: 2010.06.25/outbox.cif.g09.slc.cpg/sg11_37_cif.got.tgz:73201.got - 2010.06.27 23:14:04.
