data_PCOD8072437
_publ_section_title
;
Structure prediction by ZEFSAII (Michael W. Deem and Ramdas Pophale) SiO2 
 PCOD8072437
Probable space group: P 21/M
;
_chemical_formula_sum "Si O2"
_cell_formula_units_Z 32
_cell_length_a 9.412406
_cell_length_b 17.901742
_cell_length_c 12.393755
_cell_angle_alpha 90.000000
_cell_angle_beta 124.642837
_cell_angle_gamma 90.000000
_cell_volume 1718.092212
_symmetry_space_group_name_H-M "P 21/M"
_symmetry_group_IT_number 11
_symmetry_cell_setting 'monoclinic'
loop_
_space_group_symop_operation_xyz
x,y,z
-x,1/2+y,-z
-x,-y,-z
x,1/2-y,z
loop_
_atom_site_type_symbol
_atom_site_label
_atom_site_fract_x
_atom_site_fract_y
_atom_site_fract_z
Si Si1 0.365486 0.921987 0.522398
Si Si2 0.868654 0.665832 0.547162
Si Si3 0.139340 0.553411 0.614302
Si Si4 0.592037 0.835937 0.247594
Si Si5 0.996202 0.034272 0.880511
Si Si6 0.724913 0.338598 0.732270
Si Si7 0.269105 0.063120 0.354609
Si Si8 0.669277 0.962391 0.121613
O O1 0.249019 0.900918 0.573296
O O2 0.338930 0.863416 0.413700
O O3 0.564211 0.925074 0.649435
O O4 0.315929 0.006322 0.470676
O O5 0.926381 0.750000 0.581197
O O6 0.762948 0.650056 0.392305
O O7 0.758011 0.644182 0.604259
O O8 0.040174 0.617687 0.633758
O O9 0.262382 0.510931 0.749616
O O10 0.000000 0.500000 0.500000
O O11 0.578262 0.750000 0.206663
O O12 0.422971 0.858044 0.244368
O O13 0.609923 0.882912 0.145365
O O14 0.895218 0.113496 0.835807
O O15 0.184222 0.047144 0.907711
O O16 0.897657 0.969130 0.774998
O O17 0.000000 0.000000 0.000000
O O18 0.767745 0.250000 0.749693
O O19 0.500000 0.000000 0.000000
#
# Coordination Sequence:
#
# PCOD8072437 Si02
#       8
#     4   4   4   4   4   4   4   4
#     4  10  20  31  60  88 121 150 193 247 304 354
#     4  11  21  37  61  90 124 160 200 248 312 374
#     4  12  21  38  59  91 124 157 202 252 307 356
#     4  10  21  38  62  92 126 162 200 251 314 370
#     4  11  24  40  62  86 117 162 215 248 298 369
#     4  10  21  38  61  92 125 154 197 257 309 359
#     4  10  19  36  56  88 116 155 192 247 296 356
#     4  12  25  40  63  91 123 164 209 257 307 372
#
# _framework density 18.625309000000001
#
# number of rings (size 3 to 8) (size 9 to 14) (size 15 to 20)
#    0.000    1.250    5.000    1.500    5.250    1.000 
#    0.000    1.250    0.000    0.000    0.000    0.000 
#    0.000    0.000    0.000    0.000    0.000    0.000 
#
# Total GULP energy -396624.868945 kJ/mol
# GULP energy per Si atom -12394.527155 kJ/mol
# Density = 1.858292 g / cm^3
# Si number density = 18.625309 Si / 1000 Ang^3
#
#
#
# Elastic Constant Matrix: (Units=GPa)
#
#
# Indices 1 2 3 4 5 6 
#
# 1 144.4177 49.3244 51.0592 0.0000 -4.6812 0.0000
# 2 49.3244 110.2066 51.5475 0.0000 0.0936 0.0000
# 3 51.0592 51.5475 79.2530 0.0000 4.9951 0.0000
# 4 0.0000 0.0000 0.0000 26.8334 0.0000 -3.4449
# 5 -4.6812 0.0936 4.9951 0.0000 31.9127 0.0000
# 6 0.0000 0.0000 0.0000 -3.4449 0.0000 31.2783
#
#
#
# Elastic Compliance Matrix: (Units=1/GPa)
#
#
# Indices 1 2 3 4 5 6 
#
# 1 0.009392 -0.001885 -0.004961 0.000000 0.002160 0.000000
# 2 -0.001885 0.013473 -0.007604 0.000000 0.000874 0.000000
# 3 -0.004961 -0.007604 0.021012 0.000000 -0.003994 0.000000
# 4 0.000000 0.000000 0.000000 0.037801 0.000000 0.004163
# 5 0.002160 0.000874 -0.003994 0.000000 0.032275 0.000000
# 6 0.000000 0.000000 0.000000 0.004163 0.000000 0.032430
#
#
# Mechanical properties :
#
#
# Convention : Reuss Voigt Hill
#
# Bulk Modulus (GPa) = 66.76903 70.85995 68.81449
# Shear Modulus (GPa) = 27.73531 30.13462 28.93496
#
# Velocity S-wave (km/s) = 3.86310 4.02673 3.94576
# Velocity P-wave (km/s) = 7.47157 7.72961 7.60169
#
# Compressibility (1/GPa) = 0.01497700
#
# Stress axis : x y z
#
# Youngs Moduli (GPa) = 106.47189 74.22014 47.59285
#
# Poissons Ratio (x) = 0.13990 0.23611
# Poissons Ratio (y) = 0.20069 0.36190
# Poissons Ratio (z) = 0.52821 0.56437
#
# Static dielectric constant tensor:
#      x y z
#    x 3.774770 0.000000 -0.031540 
#    y 0.000000 3.461610 0.000000 
#    z -0.031540 0.000000 3.860250 
# 
# 
# High freq. dielectric constant tensor:
#      x y z
#    x 1.744360 0.000000 0.005060 
#    y 0.000000 1.717140 0.000000 
#    z 0.005060 0.000000 1.697490 
# 
# From -- ./inp_files/32370.got.cif
#   From: 2010.06.25/outbox.cif.g09.slc.cpg/sg11_17_cif.got.tgz:32370.got - 2010.06.27 23:14:04.
