data_PCOD8072678
_publ_section_title
;
Structure prediction by ZEFSAII (Michael W. Deem and Ramdas Pophale) SiO2 
 PCOD8072678
Probable space group: P 21/M
;
_chemical_formula_sum "Si O2"
_cell_formula_units_Z 18
_cell_length_a 12.816279
_cell_length_b 10.098312
_cell_length_c 9.317683
_cell_angle_alpha 90.000000
_cell_angle_beta 140.734707
_cell_angle_gamma 90.000000
_cell_volume 763.241541
_symmetry_space_group_name_H-M "P 21/M"
_symmetry_group_IT_number 11
_symmetry_cell_setting 'monoclinic'
loop_
_space_group_symop_operation_xyz
x,y,z
-x,1/2+y,-z
-x,-y,-z
x,1/2-y,z
loop_
_atom_site_type_symbol
_atom_site_label
_atom_site_fract_x
_atom_site_fract_y
_atom_site_fract_z
Si Si1 0.346090 0.250000 0.833862
Si Si2 0.695860 0.024078 0.184368
Si Si3 0.547489 0.750000 0.370789
Si Si4 0.327282 0.750000 0.645286
Si Si5 0.714142 0.457988 0.881948
Si Si6 0.218328 0.250000 0.141210
Si Si7 0.146511 0.750000 0.167077
O O1 0.226325 0.377349 0.712623
O O2 0.452017 0.250000 0.800177
O O3 0.477953 0.250000 0.107235
O O4 0.760465 0.121784 0.376572
O O5 0.749452 0.076344 0.085898
O O6 0.500000 0.000000 0.000000
O O7 0.459536 0.884219 0.335784
O O8 0.728232 0.750000 0.634530
O O9 0.296786 0.750000 0.442668
O O10 0.710250 0.616739 0.857407
O O11 0.847434 0.383456 0.923137
O O12 0.021763 0.250000 0.922645
#
# Coordination Sequence:
#
# PCOD8072678 Si02
#       7
#     2   4   2   2   4   2   2
#     4  10  20  36  64 101 129 158 216 273 339 371
#     4  10  19  37  67  97 131 161 213 277 330 384
#     4  11  22  40  69  99 131 168 215 285 334 378
#     4  10  20  39  64  87 133 176 208 262 332 387
#     4  11  23  45  68 101 130 176 225 273 332 394
#     4  12  27  42  67  97 140 174 226 271 328 401
#     4  11  27  45  64  94 139 188 217 263 333 399
#
# _framework density 23.583622999999999
#
# number of rings (size 3 to 8) (size 9 to 14) (size 15 to 20)
#    0.000    1.333    4.444    2.667    3.111    7.111 
#    0.000    1.111    4.889    0.000    0.000    0.000 
#    0.000    0.000    0.000    0.000    0.000    0.000 
#
# Total GULP energy -223011.614321 kJ/mol
# GULP energy per Si atom -12389.534129 kJ/mol
# Density = 2.352995 g / cm^3
# Si number density = 23.583623 Si / 1000 Ang^3
#
#
#
# Elastic Constant Matrix: (Units=GPa)
#
#
# Indices 1 2 3 4 5 6 
#
# 1 87.0138 34.0468 42.2456 0.0000 -32.8982 0.0000
# 2 34.0468 208.9606 26.2298 0.0000 -21.5959 0.0000
# 3 42.2456 26.2298 42.1876 0.0000 -12.9477 0.0000
# 4 0.0000 0.0000 0.0000 12.9676 0.0000 -13.3030
# 5 -32.8982 -21.5959 -12.9477 0.0000 30.5741 0.0000
# 6 0.0000 0.0000 0.0000 -13.3030 0.0000 32.8919
#
#
#
# Elastic Compliance Matrix: (Units=1/GPa)
#
#
# Indices 1 2 3 4 5 6 
#
# 1 0.033621 0.000429 -0.026135 0.000000 0.025412 0.000000
# 2 0.000429 0.005389 -0.002839 0.000000 0.003066 0.000000
# 3 -0.026135 -0.002839 0.048726 0.000000 -0.009492 0.000000
# 4 0.000000 0.000000 0.000000 0.131800 0.000000 0.053306
# 5 0.025412 0.003066 -0.009492 0.000000 0.058197 0.000000
# 6 0.000000 0.000000 0.000000 0.053306 0.000000 0.051962
#
#
# Mechanical properties :
#
#
# Convention : Reuss Voigt Hill
#
# Bulk Modulus (GPa) = 32.63034 60.35627 46.49331
# Shear Modulus (GPa) = 12.59447 30.99604 21.79525
#
# Velocity S-wave (km/s) = 2.31343 3.62927 3.04331
# Velocity P-wave (km/s) = 4.58279 6.57344 5.66622
#
# Compressibility (1/GPa) = 0.03064632
#
# Stress axis : x y z
#
# Youngs Moduli (GPa) = 29.74343 185.56586 20.52274
#
# Poissons Ratio (x) = -0.07959 0.53636
# Poissons Ratio (y) = -0.01276 0.05827
# Poissons Ratio (z) = 0.77734 0.52685
#
# Static dielectric constant tensor:
#      x y z
#    x 3.923580 0.000000 -0.380100 
#    y 0.000000 5.627400 0.000000 
#    z -0.380100 0.000000 3.625040 
# 
# 
# High freq. dielectric constant tensor:
#      x y z
#    x 1.916620 0.000000 -0.042880 
#    y 0.000000 1.968090 0.000000 
#    z -0.042880 0.000000 1.882270 
# 
# From -- ./inp_files/16762.got.cif
#   From: 2010.06.25/outbox.cif.g09.slc.cpg/sg11_9_cif.got.tgz:16762.got - 2010.06.27 23:14:04.
