data_PCOD8072249
_publ_section_title
;
Structure prediction by ZEFSAII (Michael W. Deem and Ramdas Pophale) SiO2 
 PCOD8072249
Probable space group: P 21/M
;
_chemical_formula_sum "Si O2"
_cell_formula_units_Z 24
_cell_length_a 19.130612
_cell_length_b 12.120559
_cell_length_c 14.303343
_cell_angle_alpha 90.000000
_cell_angle_beta 21.445693
_cell_angle_gamma 90.000000
_cell_volume 1212.601318
_symmetry_space_group_name_H-M "P 21/M"
_symmetry_group_IT_number 11
_symmetry_cell_setting 'monoclinic'
loop_
_space_group_symop_operation_xyz
x,y,z
-x,1/2+y,-z
-x,-y,-z
x,1/2-y,z
loop_
_atom_site_type_symbol
_atom_site_label
_atom_site_fract_x
_atom_site_fract_y
_atom_site_fract_z
Si Si1 0.087939 0.127786 0.289545
Si Si2 0.896984 0.622547 0.028980
Si Si3 0.595463 0.623452 0.250932
Si Si4 0.742258 0.519230 0.399741
Si Si5 0.222215 0.466373 0.304449
Si Si6 0.535003 0.877703 0.834129
O O1 0.010383 0.250000 0.363769
O O2 0.116026 0.115734 0.365863
O O3 0.288818 0.108307 0.989016
O O4 0.930469 0.041049 0.449183
O O5 0.939636 0.750000 0.955225
O O6 0.727211 0.580591 0.172335
O O7 0.836512 0.607072 0.211888
O O8 0.091699 0.557141 0.763445
O O9 0.534803 0.750000 0.343273
O O10 0.403946 0.552783 0.480010
O O11 0.639780 0.585059 0.609624
O O12 0.330414 0.391155 0.243525
O O13 0.350967 0.547367 0.080844
O O14 0.475071 0.750000 0.899215
#
# Coordination Sequence:
#
# PCOD8072249 Si02
#       6
#     4   4   4   4   4   4
#     4  10  19  35  57  81 111 146 187 234 281 334
#     4  10  22  38  59  84 114 150 189 238 292 345
#     4  10  20  36  58  85 112 146 192 236 286 343
#     4  11  21  38  59  84 115 149 191 239 289 343
#     4  10  21  36  55  81 115 149 189 230 283 339
#     4  11  22  37  56  82 114 151 191 235 286 341
#
# _framework density 19.792161
#
# number of rings (size 3 to 8) (size 9 to 14) (size 15 to 20)
#    0.000    1.667    1.667    3.500    0.000    0.000 
#    0.000    1.667    0.000    4.000    0.000    0.000 
#    0.000    0.000    0.000    0.000    0.000    0.000 
#
# Total GULP energy -297640.287258 kJ/mol
# GULP energy per Si atom -12401.678636 kJ/mol
# Density = 1.974711 g / cm^3
# Si number density = 19.792161 Si / 1000 Ang^3
#
#
#
# Elastic Constant Matrix: (Units=GPa)
#
#
# Indices 1 2 3 4 5 6 
#
# 1 75.8734 20.4288 14.0483 0.0000 -1.9852 0.0000
# 2 20.4288 72.3023 20.2837 0.0000 2.0583 0.0000
# 3 14.0483 20.2837 52.1367 0.0000 -7.5178 0.0000
# 4 0.0000 0.0000 0.0000 23.4440 0.0000 -1.4586
# 5 -1.9852 2.0583 -7.5178 0.0000 28.5655 0.0000
# 6 0.0000 0.0000 0.0000 -1.4586 0.0000 22.0290
#
#
#
# Elastic Compliance Matrix: (Units=1/GPa)
#
#
# Indices 1 2 3 4 5 6 
#
# 1 0.014585 -0.003435 -0.002507 0.000000 0.000601 0.000000
# 2 -0.003435 0.016555 -0.005947 0.000000 -0.002997 0.000000
# 3 -0.002507 -0.005947 0.023082 0.000000 0.006329 0.000000
# 4 0.000000 0.000000 0.000000 0.042831 0.000000 0.002836
# 5 0.000601 -0.002997 0.006329 0.000000 0.036931 0.000000
# 6 0.000000 0.000000 0.000000 0.002836 0.000000 0.045582
#
#
# Mechanical properties :
#
#
# Convention : Reuss Voigt Hill
#
# Bulk Modulus (GPa) = 32.84712 34.42599 33.63656
# Shear Modulus (GPa) = 23.42008 24.51114 23.96561
#
# Velocity S-wave (km/s) = 3.44365 3.52295 3.48352
# Velocity P-wave (km/s) = 5.69593 5.82921 5.76296
#
# Compressibility (1/GPa) = 0.03044407
#
# Stress axis : x y z
#
# Youngs Moduli (GPa) = 68.56592 60.40446 43.32337
#
# Poissons Ratio (x) = 0.20747 0.10860
# Poissons Ratio (y) = 0.23550 0.25766
# Poissons Ratio (z) = 0.17188 0.35925
#
# Static dielectric constant tensor:
#      x y z
#    x 3.542350 0.000000 -0.051650 
#    y 0.000000 3.458700 0.000000 
#    z -0.051650 0.000000 3.573160 
# 
# 
# High freq. dielectric constant tensor:
#      x y z
#    x 1.775480 0.000000 -0.001300 
#    y 0.000000 1.768410 0.000000 
#    z -0.001300 0.000000 1.774000 
# 
# From -- ./inp_files/16914.got.cif
#   From: 2010.06.25/outbox.cif.g09.slc.cpg/sg11_9_cif.got.tgz:16914.got - 2010.06.27 23:14:04.
