data_PCOD8072990
_publ_section_title
;
Structure prediction by ZEFSAII (Michael W. Deem and Ramdas Pophale) SiO2 
 PCOD8072990
Probable space group: P 21/M
;
_chemical_formula_sum "Si O2"
_cell_formula_units_Z 32
_cell_length_a 22.958436
_cell_length_b 8.906172
_cell_length_c 28.416078
_cell_angle_alpha 90.000000
_cell_angle_beta 162.271801
_cell_angle_gamma 90.000000
_cell_volume 1769.243089
_symmetry_space_group_name_H-M "P 21/M"
_symmetry_group_IT_number 11
_symmetry_cell_setting 'monoclinic'
loop_
_space_group_symop_operation_xyz
x,y,z
-x,1/2+y,-z
-x,-y,-z
x,1/2-y,z
loop_
_atom_site_type_symbol
_atom_site_label
_atom_site_fract_x
_atom_site_fract_y
_atom_site_fract_z
Si Si1 0.204804 0.419376 0.892147
Si Si2 0.543742 0.416668 0.227667
Si Si3 0.472790 0.573170 0.029328
Si Si4 0.201443 0.425278 0.646164
Si Si5 0.294351 0.929445 0.348692
Si Si6 0.300411 0.584518 0.107518
Si Si7 0.999368 0.571144 0.948643
Si Si8 0.954014 0.580864 0.768300
O O1 0.149198 0.250000 0.834970
O O2 0.017395 0.503307 0.768101
O O3 0.366983 0.418565 0.056353
O O4 0.280729 0.506725 0.904790
O O5 0.625105 0.250000 0.297338
O O6 0.713677 0.518480 0.338147
O O7 0.471691 0.475747 0.223029
O O8 0.446974 0.750000 0.004373
O O9 0.656561 0.531291 0.202202
O O10 0.500000 0.500000 0.000000
O O11 0.170700 0.250000 0.618536
O O12 0.000000 0.500000 0.500000
O O13 0.301811 0.750000 0.353148
O O14 0.500000 0.000000 0.500000
O O15 0.165721 0.990603 0.207501
O O16 0.213856 0.983312 0.337256
O O17 0.390062 0.750000 0.181061
O O18 0.206322 0.534255 0.084547
O O19 0.132939 0.586703 0.940536
O O20 0.962525 0.750000 0.921150
O O21 0.000000 0.500000 0.000000
O O22 0.880505 0.750000 0.701560
#
# Coordination Sequence:
#
# PCOD8072990 Si02
#       8
#     4   4   4   4   4   4   4   4
#     4   9  16  27  45  70  97 126 161 202 244 288
#     4   9  16  26  44  69  95 123 159 200 241 283
#     4  10  20  33  50  73 100 131 164 202 246 293
#     4  10  20  33  50  72  99 129 162 199 242 289
#     4  11  21  34  52  75 103 135 170 209 252 300
#     4   8  15  27  44  67  96 126 159 200 243 285
#     4  10  20  34  52  76 104 135 169 207 252 301
#     4   9  16  28  46  70  98 127 162 205 248 291
#
# _framework density 18.086829999999999
#
# number of rings (size 3 to 8) (size 9 to 14) (size 15 to 20)
#    0.000    2.500    0.000    4.125    0.000    8.000 
#    0.000    0.000    0.000    1.500    0.000    3.500 
#    0.000    0.000    0.000    0.000    0.000    0.000 
#
# Total GULP energy -396723.086322 kJ/mol
# GULP energy per Si atom -12397.596448 kJ/mol
# Density = 1.804566 g / cm^3
# Si number density = 18.086830 Si / 1000 Ang^3
#
#
#
# Elastic Constant Matrix: (Units=GPa)
#
#
# Indices 1 2 3 4 5 6 
#
# 1 162.6356 82.2944 50.2058 0.0000 34.5683 0.0000
# 2 82.2944 151.0336 51.8408 0.0000 21.9352 0.0000
# 3 50.2058 51.8408 59.3970 0.0000 26.8569 0.0000
# 4 0.0000 0.0000 0.0000 25.7546 0.0000 8.8148
# 5 34.5683 21.9352 26.8569 0.0000 25.8386 0.0000
# 6 0.0000 0.0000 0.0000 8.8148 0.0000 37.2692
#
#
#
# Elastic Compliance Matrix: (Units=1/GPa)
#
#
# Indices 1 2 3 4 5 6 
#
# 1 0.010534 -0.003967 -0.001117 0.000000 -0.009564 0.000000
# 2 -0.003967 0.010962 -0.008313 0.000000 0.004642 0.000000
# 3 -0.001117 -0.008313 0.039940 0.000000 -0.032962 0.000000
# 4 0.000000 0.000000 0.000000 0.042248 0.000000 -0.009992
# 5 -0.009564 0.004642 -0.032962 0.000000 0.081817 0.000000
# 6 0.000000 0.000000 0.000000 -0.009992 0.000000 0.029195
#
#
# Mechanical properties :
#
#
# Convention : Reuss Voigt Hill
#
# Bulk Modulus (GPa) = 28.86769 82.41647 55.64208
# Shear Modulus (GPa) = 19.76000 30.35415 25.05707
#
# Velocity S-wave (km/s) = 3.30890 4.10108 3.72610
# Velocity P-wave (km/s) = 5.53115 8.25174 7.02442
#
# Compressibility (1/GPa) = 0.03464080
#
# Stress axis : x y z
#
# Youngs Moduli (GPa) = 94.93329 91.22562 25.03787
#
# Poissons Ratio (x) = 0.36191 0.02796
# Poissons Ratio (y) = 0.37662 0.20814
# Poissons Ratio (z) = 0.10602 0.75837
#
# Static dielectric constant tensor:
#      x y z
#    x 3.492850 0.000000 0.340200 
#    y 0.000000 3.633150 0.000000 
#    z 0.340200 0.000000 2.950200 
# 
# 
# High freq. dielectric constant tensor:
#      x y z
#    x 1.704610 0.000000 0.035360 
#    y 0.000000 1.719730 0.000000 
#    z 0.035360 0.000000 1.650870 
# 
# From -- ./inp_files/72147.got.cif
#   From: 2010.06.25/outbox.cif.g09.slc.cpg/sg11_37_cif.got.tgz:72147.got - 2010.06.27 23:14:04.
