data_PCOD8072697
_publ_section_title
;
Structure prediction by ZEFSAII (Michael W. Deem and Ramdas Pophale) SiO2 
 PCOD8072697
Probable space group: P 21/M
;
_chemical_formula_sum "Si O2"
_cell_formula_units_Z 28
_cell_length_a 14.862714
_cell_length_b 8.691893
_cell_length_c 11.006805
_cell_angle_alpha 90.000000
_cell_angle_beta 67.252801
_cell_angle_gamma 90.000000
_cell_volume 1311.318664
_symmetry_space_group_name_H-M "P 21/M"
_symmetry_group_IT_number 11
_symmetry_cell_setting 'monoclinic'
loop_
_space_group_symop_operation_xyz
x,y,z
-x,1/2+y,-z
-x,-y,-z
x,1/2-y,z
loop_
_atom_site_type_symbol
_atom_site_label
_atom_site_fract_x
_atom_site_fract_y
_atom_site_fract_z
Si Si1 0.448057 0.074354 0.708130
Si Si2 0.413563 0.927589 0.972285
Si Si3 0.665995 0.072150 0.571095
Si Si4 0.753685 0.925340 0.312072
Si Si5 0.751521 0.430120 0.780219
Si Si6 0.967780 0.065345 0.647834
Si Si7 0.945265 0.067761 0.147402
O O1 0.452089 0.250000 0.754763
O O2 0.553257 0.031441 0.595629
O O3 0.358967 0.049281 0.664349
O O4 0.424959 0.956535 0.825968
O O5 0.415698 0.750000 0.002439
O O6 0.308717 0.993537 0.072404
O O7 0.500000 0.000000 0.000000
O O8 0.687301 0.250000 0.533418
O O9 0.684654 0.026836 0.700131
O O10 0.747986 0.976923 0.455048
O O11 0.787830 0.750000 0.281740
O O12 0.829864 0.027750 0.194885
O O13 0.769077 0.250000 0.778149
O O14 0.858732 0.502357 0.721446
O O15 0.976380 0.250000 0.640541
O O16 0.000000 0.000000 0.500000
O O17 0.024808 0.004262 0.737459
O O18 0.961459 0.250000 0.140144
O O19 0.000000 0.000000 0.000000
#
# Coordination Sequence:
#
# PCOD8072697 Si02
#       7
#     4   4   4   4   4   4   4
#     4  10  22  39  60  89 128 166 206 256 309 369
#     4  11  21  37  59  87 122 164 208 253 308 372
#     4  10  19  38  63  90 129 170 204 247 307 377
#     4  11  24  41  63  94 127 162 210 265 316 378
#     4   9  20  37  61  89 123 162 203 251 312 373
#     4  11  23  43  70 102 134 171 220 275 332 395
#     4  12  27  48  70  95 129 175 224 279 340 396
#
# _framework density 21.352551999999999
#
# number of rings (size 3 to 8) (size 9 to 14) (size 15 to 20)
#    0.000    1.429    1.429    3.857    2.000    2.857 
#    0.000    2.857    0.000    0.000    0.000    0.000 
#    0.000    0.000    0.000    0.000    0.000    0.000 
#
# Total GULP energy -347013.246132 kJ/mol
# GULP energy per Si atom -12393.330219 kJ/mol
# Density = 2.130395 g / cm^3
# Si number density = 21.352552 Si / 1000 Ang^3
#
#
#
# Elastic Constant Matrix: (Units=GPa)
#
#
# Indices 1 2 3 4 5 6 
#
# 1 84.6611 32.1582 32.6239 0.0000 -16.6592 0.0000
# 2 32.1582 86.8068 50.6342 0.0000 -5.7072 0.0000
# 3 32.6239 50.6342 143.7330 0.0000 -17.1036 0.0000
# 4 0.0000 0.0000 0.0000 38.7421 0.0000 -1.1211
# 5 -16.6592 -5.7072 -17.1036 0.0000 38.6926 0.0000
# 6 0.0000 0.0000 0.0000 -1.1211 0.0000 28.2050
#
#
#
# Elastic Compliance Matrix: (Units=1/GPa)
#
#
# Indices 1 2 3 4 5 6 
#
# 1 0.015028 -0.004527 -0.001188 0.000000 0.005277 0.000000
# 2 -0.004527 0.015864 -0.004765 0.000000 -0.001716 0.000000
# 3 -0.001188 -0.004765 0.009248 0.000000 0.002873 0.000000
# 4 0.000000 0.000000 0.000000 0.025841 0.000000 0.001027
# 5 0.005277 -0.001716 0.002873 0.000000 0.029134 0.000000
# 6 0.000000 0.000000 0.000000 0.001027 0.000000 0.035496
#
#
# Mechanical properties :
#
#
# Convention : Reuss Voigt Hill
#
# Bulk Modulus (GPa) = 52.14236 60.67039 56.40638
# Shear Modulus (GPa) = 31.65298 34.44692 33.04995
#
# Velocity S-wave (km/s) = 3.85437 4.02088 3.93850
# Velocity P-wave (km/s) = 6.65439 7.07333 6.86706
#
# Compressibility (1/GPa) = 0.01917826
#
# Stress axis : x y z
#
# Youngs Moduli (GPa) = 66.54391 63.03757 108.13667
#
# Poissons Ratio (x) = 0.28538 0.12848
# Poissons Ratio (y) = 0.30125 0.51527
# Poissons Ratio (z) = 0.07906 0.30037
#
# Static dielectric constant tensor:
#      x y z
#    x 3.655380 0.000000 -0.859230 
#    y 0.000000 3.678680 0.000000 
#    z -0.859230 0.000000 2.841320 
# 
# 
# High freq. dielectric constant tensor:
#      x y z
#    x 1.846250 0.000000 -0.013700 
#    y 0.000000 1.822850 0.000000 
#    z -0.013700 0.000000 1.851970 
# 
# From -- ./inp_files/37902.got.cif
#   From: 2010.06.25/outbox.cif.g09.slc.cpg/sg11_19_cif.got.tgz:37902.got - 2010.06.27 23:14:04.
