data_PCOD8072562
_publ_section_title
;
Structure prediction by ZEFSAII (Michael W. Deem and Ramdas Pophale) SiO2 
 PCOD8072562
Probable space group: P 21/M
;
_chemical_formula_sum "Si O2"
_cell_formula_units_Z 32
_cell_length_a 9.150605
_cell_length_b 18.683851
_cell_length_c 11.548237
_cell_angle_alpha 90.000000
_cell_angle_beta 48.536935
_cell_angle_gamma 90.000000
_cell_volume 1479.570159
_symmetry_space_group_name_H-M "P 21/M"
_symmetry_group_IT_number 11
_symmetry_cell_setting 'monoclinic'
loop_
_space_group_symop_operation_xyz
x,y,z
-x,1/2+y,-z
-x,-y,-z
x,1/2-y,z
loop_
_atom_site_type_symbol
_atom_site_label
_atom_site_fract_x
_atom_site_fract_y
_atom_site_fract_z
Si Si1 0.294674 0.169613 0.526485
Si Si2 0.237494 0.423999 0.256443
Si Si3 0.259906 0.421648 0.763793
Si Si4 0.049111 0.833206 0.940853
Si Si5 0.920024 0.448150 0.260064
Si Si6 0.320381 0.551477 0.381231
Si Si7 0.454019 0.668798 0.831205
Si Si8 0.951442 0.331781 0.544445
O O1 0.331609 0.250000 0.552141
O O2 0.337897 0.114822 0.605988
O O3 0.442992 0.151536 0.345421
O O4 0.069727 0.161609 0.603137
O O5 0.144312 0.457131 0.188494
O O6 0.244004 0.482389 0.353981
O O7 0.449904 0.386600 0.126193
O O8 0.088854 0.360738 0.369888
O O9 0.145621 0.364421 0.900746
O O10 0.446152 0.448511 0.738216
O O11 0.120030 0.488516 0.809910
O O12 0.019076 0.750000 0.927679
O O13 0.101113 0.872642 0.794126
O O14 0.224144 0.843822 0.941296
O O15 0.764798 0.452045 0.444871
O O16 0.246327 0.621673 0.350480
O O17 0.499500 0.750000 0.845800
O O18 0.894852 0.250000 0.548402
#
# Coordination Sequence:
#
# PCOD8072562 Si02
#       8
#     4   4   4   4   4   4   4   4
#     4   9  17  33  59  85 111 147 192 239 288 341
#     4  10  19  36  61  90 116 145 190 245 292 339
#     4  12  23  38  57  85 121 157 193 237 288 341
#     4  11  25  42  57  80 117 157 197 238 285 344
#     4  11  22  38  62  86 114 151 193 240 289 348
#     4  11  22  36  61  91 119 149 188 241 294 349
#     4   9  18  36  61  85 112 150 195 241 289 344
#     4   9  18  33  55  86 118 146 183 235 290 342
#
# _framework density 21.627903
#
# number of rings (size 3 to 8) (size 9 to 14) (size 15 to 20)
#    0.000    1.750    0.000    7.500    0.000    3.500 
#    0.000    3.750    0.000    0.000    0.000    0.000 
#    0.000    0.000    0.000    0.000    0.000    0.000 
#
# Total GULP energy -396794.225027 kJ/mol
# GULP energy per Si atom -12399.819532 kJ/mol
# Density = 2.157868 g / cm^3
# Si number density = 21.627903 Si / 1000 Ang^3
#
#
#
# Elastic Constant Matrix: (Units=GPa)
#
#
# Indices 1 2 3 4 5 6 
#
# 1 107.7063 44.6117 17.5930 0.0000 -18.5463 0.0000
# 2 44.6117 123.7458 19.2318 0.0000 -6.2820 0.0000
# 3 17.5930 19.2318 34.0940 0.0000 -13.9142 0.0000
# 4 0.0000 0.0000 0.0000 23.2898 0.0000 -0.4849
# 5 -18.5463 -6.2820 -13.9142 0.0000 15.2638 0.0000
# 6 0.0000 0.0000 0.0000 -0.4849 0.0000 43.5455
#
#
#
# Elastic Compliance Matrix: (Units=1/GPa)
#
#
# Indices 1 2 3 4 5 6 
#
# 1 0.013644 -0.004427 0.002355 0.000000 0.016903 0.000000
# 2 -0.004427 0.010314 -0.006364 0.000000 -0.006935 0.000000
# 3 0.002355 -0.006364 0.050646 0.000000 0.046410 0.000000
# 4 0.000000 0.000000 0.000000 0.042947 0.000000 0.000478
# 5 0.016903 -0.006935 0.046410 0.000000 0.125505 0.000000
# 6 0.000000 0.000000 0.000000 0.000478 0.000000 0.022970
#
#
# Mechanical properties :
#
#
# Convention : Reuss Voigt Hill
#
# Bulk Modulus (GPa) = 17.32138 47.60213 32.46176
# Shear Modulus (GPa) = 16.54853 28.69379 22.62116
#
# Velocity S-wave (km/s) = 2.76913 3.64634 3.23758
# Velocity P-wave (km/s) = 4.27204 6.30755 5.38681
#
# Compressibility (1/GPa) = 0.05773212
#
# Stress axis : x y z
#
# Youngs Moduli (GPa) = 73.29258 96.95607 19.74489
#
# Poissons Ratio (x) = 0.42919 -0.04650
# Poissons Ratio (y) = 0.32444 0.12566
# Poissons Ratio (z) = -0.17259 0.61703
#
# Static dielectric constant tensor:
#      x y z
#    x 4.273070 0.000000 -0.132670 
#    y 0.000000 4.089900 0.000000 
#    z -0.132670 0.000000 3.336960 
# 
# 
# High freq. dielectric constant tensor:
#      x y z
#    x 1.856960 0.000000 -0.012020 
#    y 0.000000 1.865640 0.000000 
#    z -0.012020 0.000000 1.801840 
# 
# From -- ./inp_files/32795.got.cif
#   From: 2010.06.25/outbox.cif.g09.slc.cpg/sg11_17_cif.got.tgz:32795.got - 2010.06.27 23:14:04.
