data_PCOD8072020
_publ_section_title
;
Structure prediction by ZEFSAII (Michael W. Deem and Ramdas Pophale) SiO2 
 PCOD8072020
Probable space group: P 21/M
;
_chemical_formula_sum "Si O2"
_cell_formula_units_Z 32
_cell_length_a 9.843878
_cell_length_b 8.731562
_cell_length_c 19.051520
_cell_angle_alpha 90.000000
_cell_angle_beta 94.923964
_cell_angle_gamma 90.000000
_cell_volume 1631.481148
_symmetry_space_group_name_H-M "P 21/M"
_symmetry_group_IT_number 11
_symmetry_cell_setting 'monoclinic'
loop_
_space_group_symop_operation_xyz
x,y,z
-x,1/2+y,-z
-x,-y,-z
x,1/2-y,z
loop_
_atom_site_type_symbol
_atom_site_label
_atom_site_fract_x
_atom_site_fract_y
_atom_site_fract_z
Si Si1 0.496434 0.933635 0.770342
Si Si2 0.452485 0.573427 0.612733
Si Si3 0.208884 0.931779 0.194035
Si Si4 0.668236 0.419392 0.531092
Si Si5 0.995881 0.432004 0.076540
Si Si6 0.992977 0.930043 0.712807
Si Si7 0.775962 0.430116 0.173551
Si Si8 0.025780 0.919312 0.429125
O O1 0.512566 0.750000 0.771360
O O2 0.453728 0.000416 0.690863
O O3 0.377617 0.991331 0.819370
O O4 0.636754 0.007625 0.802685
O O5 0.440978 0.750000 0.628985
O O6 0.590861 0.537217 0.577408
O O7 0.332474 0.523863 0.551711
O O8 0.209217 0.750000 0.187910
O O9 0.121854 0.001768 0.126323
O O10 0.141350 0.983373 0.264636
O O11 0.598145 0.250000 0.529430
O O12 0.813837 0.405588 0.571463
O O13 0.011593 0.250000 0.075639
O O14 0.848124 0.479560 0.103476
O O15 0.000000 0.500000 0.000000
O O16 0.967185 0.750000 0.719358
O O17 0.124153 0.988186 0.760928
O O18 0.028848 0.974059 0.635143
O O19 0.767285 0.250000 0.177639
O O20 0.958866 0.750000 0.423277
O O21 0.000000 0.000000 0.500000
#
# Coordination Sequence:
#
# PCOD8072020 Si02
#       8
#     4   4   4   4   4   4   4   4
#     4  10  19  34  57  82 109 144 189 235 283 334
#     4   9  18  31  52  73  95 132 177 224 278 335
#     4  11  22  37  58  87 120 152 188 230 275 332
#     4   9  19  34  48  67  97 133 178 228 280 335
#     4  10  20  39  65  93 120 153 192 228 276 333
#     4  10  20  37  59  80 108 148 194 242 291 346
#     4   8  18  35  59  86 113 146 187 234 283 338
#     4  11  23  35  50  73 104 141 186 239 292 345
#
# _framework density 19.614079
#
# number of rings (size 3 to 8) (size 9 to 14) (size 15 to 20)
#    0.000    2.250    0.000    3.750    1.750    3.500 
#    0.000    4.375    0.000    0.000    0.000    0.000 
#    0.000    0.000    0.000    0.000    0.000    0.000 
#
# Total GULP energy -396478.927338 kJ/mol
# GULP energy per Si atom -12389.966479 kJ/mol
# Density = 1.956944 g / cm^3
# Si number density = 19.614079 Si / 1000 Ang^3
#
#
#
# Elastic Constant Matrix: (Units=GPa)
#
#
# Indices 1 2 3 4 5 6 
#
# 1 100.4098 31.8106 44.2419 0.0000 -14.9576 0.0000
# 2 31.8106 72.1158 40.4833 0.0000 -1.5358 0.0000
# 3 44.2419 40.4833 137.8923 0.0000 -15.1560 0.0000
# 4 0.0000 0.0000 0.0000 31.7016 0.0000 0.3151
# 5 -14.9576 -1.5358 -15.1560 0.0000 21.4010 0.0000
# 6 0.0000 0.0000 0.0000 0.3151 0.0000 19.9981
#
#
#
# Elastic Compliance Matrix: (Units=1/GPa)
#
#
# Indices 1 2 3 4 5 6 
#
# 1 0.013486 -0.004581 -0.002149 0.000000 0.007575 0.000000
# 2 -0.004581 0.018278 -0.004451 0.000000 -0.005042 0.000000
# 3 -0.002149 -0.004451 0.009812 0.000000 0.005127 0.000000
# 4 0.000000 0.000000 0.000000 0.031549 0.000000 -0.000497
# 5 0.007575 -0.005042 0.005127 0.000000 0.055290 0.000000
# 6 0.000000 0.000000 0.000000 -0.000497 0.000000 0.050013
#
#
# Mechanical properties :
#
#
# Convention : Reuss Voigt Hill
#
# Bulk Modulus (GPa) = 52.04492 60.38773 56.21632
# Shear Modulus (GPa) = 24.13194 27.54559 25.83877
#
# Velocity S-wave (km/s) = 3.51142 3.75157 3.63348
# Velocity P-wave (km/s) = 6.55989 7.04418 6.80635
#
# Compressibility (1/GPa) = 0.01921417
#
# Stress axis : x y z
#
# Youngs Moduli (GPa) = 74.15190 54.70982 101.91745
#
# Poissons Ratio (x) = 0.25061 0.21907
# Poissons Ratio (y) = 0.33967 0.45360
# Poissons Ratio (z) = 0.15939 0.24350
#
# Static dielectric constant tensor:
#      x y z
#    x 3.600260 0.000000 0.027910 
#    y 0.000000 3.452530 0.000000 
#    z 0.027910 0.000000 3.686980 
# 
# 
# High freq. dielectric constant tensor:
#      x y z
#    x 1.759670 0.000000 -0.001010 
#    y 0.000000 1.751930 0.000000 
#    z -0.001010 0.000000 1.759940 
# 
# From -- ./inp_files/58707.got.cif
#   From: 2010.06.25/outbox.cif.g09.slc.cpg/sg11_30_cif.got.tgz:58707.got - 2010.06.27 23:14:04.
