data_PCOD8072884
_publ_section_title
;
Structure prediction by ZEFSAII (Michael W. Deem and Ramdas Pophale) SiO2 
 PCOD8072884
Probable space group: P 21/M
;
_chemical_formula_sum "Si O2"
_cell_formula_units_Z 32
_cell_length_a 11.584984
_cell_length_b 8.970758
_cell_length_c 16.549781
_cell_angle_alpha 90.000000
_cell_angle_beta 93.392200
_cell_angle_gamma 90.000000
_cell_volume 1716.940450
_symmetry_space_group_name_H-M "P 21/M"
_symmetry_group_IT_number 11
_symmetry_cell_setting 'monoclinic'
loop_
_space_group_symop_operation_xyz
x,y,z
-x,1/2+y,-z
-x,-y,-z
x,1/2-y,z
loop_
_atom_site_type_symbol
_atom_site_label
_atom_site_fract_x
_atom_site_fract_y
_atom_site_fract_z
Si Si1 0.066141 0.426082 0.273645
Si Si2 0.437982 0.924825 0.117006
Si Si3 0.841489 0.424855 0.181738
Si Si4 0.951852 0.926653 0.419001
Si Si5 0.264275 0.925002 0.655354
Si Si6 0.659210 0.074629 0.053991
Si Si7 0.495720 0.423586 0.413107
Si Si8 0.670272 0.924607 0.733810
O O1 0.055366 0.250000 0.291820
O O2 0.195575 0.469873 0.254802
O O3 0.975060 0.476739 0.199371
O O4 0.033608 0.518116 0.350804
O O5 0.452841 0.750000 0.127525
O O6 0.560725 0.992911 0.100235
O O7 0.394719 0.990075 0.198669
O O8 0.346957 0.964588 0.041279
O O9 0.842555 0.250000 0.177778
O O10 0.760937 0.474940 0.253620
O O11 0.782364 0.482863 0.096046
O O12 0.955381 0.750000 0.425044
O O13 0.820391 0.981410 0.405184
O O14 0.000000 0.000000 0.500000
O O15 0.239437 0.750000 0.642160
O O16 0.394116 0.968286 0.636687
O O17 0.641132 0.250000 0.067193
O O18 0.500000 0.500000 0.500000
O O19 0.494438 0.250000 0.431451
O O20 0.382904 0.470542 0.355827
O O21 0.651475 0.750000 0.747212
#
# Coordination Sequence:
#
# PCOD8072884 Si02
#       8
#     4   4   4   4   4   4   4   4
#     4   9  19  36  56  78 102 136 181 219 260 317
#     4  10  20  32  51  82 112 141 178 221 265 312
#     4   8  14  30  56  78 100 134 176 218 258 309
#     4  11  22  35  54  77 103 133 171 219 268 314
#     4   9  18  34  53  75 102 133 174 215 260 315
#     4   9  17  32  55  80 109 142 178 219 266 316
#     4  10  22  37  54  78 105 138 177 219 267 320
#     4  10  21  38  57  75 106 146 178 212 264 326
#
# _framework density 18.637805
#
# number of rings (size 3 to 8) (size 9 to 14) (size 15 to 20)
#    0.000    2.500    0.000    3.000    1.750    4.000 
#    0.000    5.625    0.000    0.000    0.000    0.000 
#    0.000    0.000    0.000    0.000    0.000    0.000 
#
# Total GULP energy -396624.977767 kJ/mol
# GULP energy per Si atom -12394.530555 kJ/mol
# Density = 1.859538 g / cm^3
# Si number density = 18.637805 Si / 1000 Ang^3
#
#
#
# Elastic Constant Matrix: (Units=GPa)
#
#
# Indices 1 2 3 4 5 6 
#
# 1 89.1805 51.7899 71.6835 0.0000 3.5922 0.0000
# 2 51.7899 27.5183 8.9536 0.0000 21.9160 0.0000
# 3 71.6835 8.9536 87.8848 0.0000 39.8593 0.0000
# 4 0.0000 0.0000 0.0000 26.5426 0.0000 0.1638
# 5 3.5922 21.9160 39.8593 0.0000 21.7660 0.0000
# 6 0.0000 0.0000 0.0000 0.1638 0.0000 21.5648
#
#
#
# Elastic Compliance Matrix: (Units=1/GPa)
#
#
# Indices 1 2 3 4 5 6 
#
# 1 0.002682 0.008271 0.005590 0.000000 -0.019008 0.000000
# 2 0.008271 0.008789 -0.017757 0.000000 0.022303 0.000000
# 3 0.005590 -0.017757 0.005532 0.000000 0.006826 0.000000
# 4 0.000000 0.000000 0.000000 0.037677 0.000000 -0.000286
# 5 -0.019008 0.022303 0.006826 0.000000 0.014124 0.000000
# 6 0.000000 0.000000 0.000000 -0.000286 0.000000 0.046374
#
#
# Mechanical properties :
#
#
# Convention : Reuss Voigt Hill
#
# Bulk Modulus (GPa) = 108.56043 52.15973 80.36008
# Shear Modulus (GPa) = 39.66983 18.78513 29.22748
#
# Velocity S-wave (km/s) = 4.61853 3.17820 3.96432
# Velocity P-wave (km/s) = 9.31745 6.44319 8.01029
#
# Compressibility (1/GPa) = 0.00921146
#
# Stress axis : x y z
#
# Youngs Moduli (GPa) = 372.80850 113.78276 180.75850
#
# Poissons Ratio (x) = -0.94107 -1.01048
# Poissons Ratio (y) = -3.08342 3.20971
# Poissons Ratio (z) = -2.08407 2.02043
#
# Static dielectric constant tensor:
#      x y z
#    x 3.740010 0.000000 0.285070 
#    y 0.000000 3.274660 0.000000 
#    z 0.285070 0.000000 3.470250 
# 
# 
# High freq. dielectric constant tensor:
#      x y z
#    x 1.726420 0.000000 0.020610 
#    y 0.000000 1.706240 0.000000 
#    z 0.020610 0.000000 1.722450 
# 
# From -- ./inp_files/49395.got.cif
#   From: 2010.06.25/outbox.cif.g09.slc.cpg/sg11_25_cif.got.tgz:49395.got - 2010.06.27 23:14:04.
