data_PCOD8072131
_publ_section_title
;
Structure prediction by ZEFSAII (Michael W. Deem and Ramdas Pophale) SiO2 
 PCOD8072131
Probable space group: P 21/M
;
_chemical_formula_sum "Si O2"
_cell_formula_units_Z 28
_cell_length_a 27.832222
_cell_length_b 9.060451
_cell_length_c 9.657432
_cell_angle_alpha 90.000000
_cell_angle_beta 141.998121
_cell_angle_gamma 90.000000
_cell_volume 1499.407098
_symmetry_space_group_name_H-M "P 21/M"
_symmetry_group_IT_number 11
_symmetry_cell_setting 'monoclinic'
loop_
_space_group_symop_operation_xyz
x,y,z
-x,1/2+y,-z
-x,-y,-z
x,1/2-y,z
loop_
_atom_site_type_symbol
_atom_site_label
_atom_site_fract_x
_atom_site_fract_y
_atom_site_fract_z
Si Si1 0.142469 0.078930 0.479197
Si Si2 0.129104 0.077005 0.132300
Si Si3 0.451638 0.080930 0.275680
Si Si4 0.699712 0.080838 0.163392
Si Si5 0.286286 0.581072 0.483134
Si Si6 0.002275 0.923869 0.654629
Si Si7 0.451042 0.916788 0.777206
O O1 0.166216 0.250000 0.534447
O O2 0.113323 0.036374 0.257825
O O3 0.076844 0.041545 0.442315
O O4 0.217074 0.984360 0.693044
O O5 0.118524 0.250000 0.080162
O O6 0.216145 0.028626 0.287426
O O7 0.071600 0.987331 0.904191
O O8 0.437020 0.250000 0.282559
O O9 0.506376 0.064091 0.268947
O O10 0.500000 0.000000 0.500000
O O11 0.367996 0.006294 0.068084
O O12 0.696546 0.250000 0.108526
O O13 0.687896 0.062789 0.299603
O O14 0.260749 0.750000 0.394157
O O15 0.360952 0.528672 0.562285
O O16 0.014638 0.750000 0.662495
O O17 0.000000 0.000000 0.500000
O O18 0.447204 0.750000 0.820886
O O19 0.500000 0.000000 0.000000
#
# Coordination Sequence:
#
# PCOD8072131 Si02
#       7
#     4   4   4   4   4   4   4
#     4   9  20  38  61  87 114 146 187 232 279 333
#     4  10  20  36  60  88 115 146 187 232 278 334
#     4  11  23  38  56  80 114 155 194 235 283 336
#     4  10  19  34  59  86 114 147 186 233 284 335
#     4   9  18  34  56  85 115 144 184 234 282 330
#     4  11  23  40  60  84 117 153 186 228 280 335
#     4  10  20  35  58  84 112 147 189 235 284 334
#
# _framework density 18.674047999999999
#
# number of rings (size 3 to 8) (size 9 to 14) (size 15 to 20)
#    0.000    2.000    1.429    2.143    0.000    3.429 
#    2.571    0.000    0.000    0.000    0.000    0.000 
#    0.000    0.000    0.000    0.000    0.000    0.000 
#
# Total GULP energy -347217.833082 kJ/mol
# GULP energy per Si atom -12400.636896 kJ/mol
# Density = 1.863154 g / cm^3
# Si number density = 18.674048 Si / 1000 Ang^3
#
#
#
# Elastic Constant Matrix: (Units=GPa)
#
#
# Indices 1 2 3 4 5 6 
#
# 1 97.1733 65.2304 67.9654 0.0000 18.6358 0.0000
# 2 65.2304 118.9083 87.1322 0.0000 7.7778 0.0000
# 3 67.9654 87.1322 140.1262 0.0000 14.0072 0.0000
# 4 0.0000 0.0000 0.0000 41.3580 0.0000 3.1973
# 5 18.6358 7.7778 14.0072 0.0000 21.8219 0.0000
# 6 0.0000 0.0000 0.0000 3.1973 0.0000 27.2882
#
#
#
# Elastic Compliance Matrix: (Units=1/GPa)
#
#
# Indices 1 2 3 4 5 6 
#
# 1 0.020493 -0.007448 -0.004087 0.000000 -0.012223 0.000000
# 2 -0.007448 0.018166 -0.008198 0.000000 0.005148 0.000000
# 3 -0.004087 -0.008198 0.014506 0.000000 -0.002899 0.000000
# 4 0.000000 0.000000 0.000000 0.024400 0.000000 -0.002859
# 5 -0.012223 0.005148 -0.002899 0.000000 0.056290 0.000000
# 6 0.000000 0.000000 0.000000 -0.002859 0.000000 0.036981
#
#
# Mechanical properties :
#
#
# Convention : Reuss Voigt Hill
#
# Bulk Modulus (GPa) = 72.99322 88.54044 80.76683
# Shear Modulus (GPa) = 23.27006 27.15226 25.21116
#
# Velocity S-wave (km/s) = 3.53387 3.81729 3.67831
# Velocity P-wave (km/s) = 7.47154 8.18202 7.83484
#
# Compressibility (1/GPa) = 0.01369990
#
# Stress axis : x y z
#
# Youngs Moduli (GPa) = 48.79726 55.04746 68.93664
#
# Poissons Ratio (x) = 0.40999 0.28172
# Poissons Ratio (y) = 0.36344 0.56515
# Poissons Ratio (z) = 0.19942 0.45128
#
# Static dielectric constant tensor:
#      x y z
#    x 2.599720 0.000000 0.298530 
#    y 0.000000 3.576620 0.000000 
#    z 0.298530 0.000000 3.423630 
# 
# 
# High freq. dielectric constant tensor:
#      x y z
#    x 1.725470 0.000000 0.015760 
#    y 0.000000 1.734180 0.000000 
#    z 0.015760 0.000000 1.723080 
# 
# From -- ./inp_files/28602.got.cif
#   From: 2010.06.25/outbox.cif.g09.slc.cpg/sg11_15_cif.got.tgz:28602.got - 2010.06.27 23:14:04.
