data_PCOD8072495
_publ_section_title
;
Structure prediction by ZEFSAII (Michael W. Deem and Ramdas Pophale) SiO2 
 PCOD8072495
Probable space group: P 21/M
;
_chemical_formula_sum "Si O2"
_cell_formula_units_Z 32
_cell_length_a 16.611032
_cell_length_b 8.955778
_cell_length_c 23.845333
_cell_angle_alpha 90.000000
_cell_angle_beta 27.286748
_cell_angle_gamma 90.000000
_cell_volume 1626.258695
_symmetry_space_group_name_H-M "P 21/M"
_symmetry_group_IT_number 11
_symmetry_cell_setting 'monoclinic'
loop_
_space_group_symop_operation_xyz
x,y,z
-x,1/2+y,-z
-x,-y,-z
x,1/2-y,z
loop_
_atom_site_type_symbol
_atom_site_label
_atom_site_fract_x
_atom_site_fract_y
_atom_site_fract_z
Si Si1 0.734107 0.422119 0.923688
Si Si2 0.479641 0.573044 0.771855
Si Si3 0.081901 0.927475 0.003738
Si Si4 0.375014 0.078160 0.201163
Si Si5 0.642361 0.074976 0.451035
Si Si6 0.994721 0.075915 0.168094
Si Si7 0.289344 0.426998 0.476030
Si Si8 0.890641 0.074709 0.709394
O O1 0.790718 0.250000 0.898607
O O2 0.786000 0.476288 0.829648
O O3 0.828917 0.523857 0.910658
O O4 0.526679 0.442844 0.060667
O O5 0.474121 0.750000 0.779676
O O6 0.281880 0.514338 0.886141
O O7 0.562035 0.508823 0.778461
O O8 0.598343 0.519535 0.646707
O O9 0.070375 0.750000 0.006641
O O10 0.000000 0.000000 0.000000
O O11 0.970154 0.984610 0.125911
O O12 0.325586 0.250000 0.239729
O O13 0.199976 0.996245 0.288869
O O14 0.605533 0.250000 0.476992
O O15 0.833313 0.038188 0.308433
O O16 0.500000 0.000000 0.500000
O O17 0.626809 0.005715 0.522210
O O18 0.006003 0.250000 0.146752
O O19 0.298746 0.250000 0.479239
O O20 0.090230 0.481975 0.590041
O O21 0.884258 0.250000 0.705282
#
# Coordination Sequence:
#
# PCOD8072495 Si02
#       8
#     4   4   4   4   4   4   4   4
#     4  10  19  36  59  85 117 156 197 241 300 356
#     4   9  20  39  61  84 115 157 197 239 292 351
#     4  11  23  41  63  89 124 158 199 245 295 355
#     4  10  20  36  58  83 116 157 196 237 295 355
#     4  11  25  42  62  90 121 155 198 244 296 355
#     4  11  23  39  62  91 121 154 197 246 298 352
#     4  10  21  40  63  85 117 157 198 245 297 350
#     4  10  21  35  56  87 118 151 196 245 296 352
#
# _framework density 19.677067000000001
#
# number of rings (size 3 to 8) (size 9 to 14) (size 15 to 20)
#    0.000    1.750    2.500    1.500    1.750    3.500 
#    0.000    1.250    0.000    0.000    0.000    0.000 
#    0.000    0.000    0.000    0.000    0.000    0.000 
#
# Total GULP energy -396932.987829 kJ/mol
# GULP energy per Si atom -12404.155870 kJ/mol
# Density = 1.963228 g / cm^3
# Si number density = 19.677067 Si / 1000 Ang^3
#
#
#
# Elastic Constant Matrix: (Units=GPa)
#
#
# Indices 1 2 3 4 5 6 
#
# 1 155.2094 39.3527 45.3705 0.0000 -0.4220 0.0000
# 2 39.3527 54.3005 26.9377 0.0000 -0.8098 0.0000
# 3 45.3705 26.9377 79.3919 0.0000 10.9735 0.0000
# 4 0.0000 0.0000 0.0000 22.7304 0.0000 -3.6089
# 5 -0.4220 -0.8098 10.9735 0.0000 37.4419 0.0000
# 6 0.0000 0.0000 0.0000 -3.6089 0.0000 40.7095
#
#
#
# Elastic Compliance Matrix: (Units=1/GPa)
#
#
# Indices 1 2 3 4 5 6 
#
# 1 0.008617 -0.004467 -0.003553 0.000000 0.001042 0.000000
# 2 -0.004467 0.024743 -0.006159 0.000000 0.002290 0.000000
# 3 -0.003553 -0.006159 0.017446 0.000000 -0.005286 0.000000
# 4 0.000000 0.000000 0.000000 0.044622 0.000000 0.003956
# 5 0.001042 0.002290 -0.005286 0.000000 0.028319 0.000000
# 6 0.000000 0.000000 0.000000 0.003956 0.000000 0.024915
#
#
# Mechanical properties :
#
#
# Convention : Reuss Voigt Hill
#
# Bulk Modulus (GPa) = 44.54555 56.91375 50.72965
# Shear Modulus (GPa) = 27.10000 31.99243 29.54621
#
# Velocity S-wave (km/s) = 3.71514 4.03659 3.87920
# Velocity P-wave (km/s) = 6.41019 7.12124 6.77505
#
# Compressibility (1/GPa) = 0.02244893
#
# Stress axis : x y z
#
# Youngs Moduli (GPa) = 116.05252 40.41581 57.31816
#
# Poissons Ratio (x) = 0.18053 0.20363
# Poissons Ratio (y) = 0.51838 0.35303
# Poissons Ratio (z) = 0.41230 0.24892
#
# Static dielectric constant tensor:
#      x y z
#    x 3.759670 0.000000 0.070770 
#    y 0.000000 3.385270 0.000000 
#    z 0.070770 0.000000 3.776240 
# 
# 
# High freq. dielectric constant tensor:
#      x y z
#    x 1.778980 0.000000 0.001700 
#    y 0.000000 1.749400 0.000000 
#    z 0.001700 0.000000 1.770480 
# 
# From -- ./inp_files/68993.got.cif
#   From: 2010.06.25/outbox.cif.g09.slc.cpg/sg11_35_cif.got.tgz:68993.got - 2010.06.27 23:14:04.
