data_PCOD8072153
_publ_section_title
;
Structure prediction by ZEFSAII (Michael W. Deem and Ramdas Pophale) SiO2 
 PCOD8072153
Probable space group: P 21/M
;
_chemical_formula_sum "Si O2"
_cell_formula_units_Z 32
_cell_length_a 9.309161
_cell_length_b 14.478725
_cell_length_c 11.966133
_cell_angle_alpha 90.000000
_cell_angle_beta 88.766252
_cell_angle_gamma 90.000000
_cell_volume 1612.478729
_symmetry_space_group_name_H-M "P 21/M"
_symmetry_group_IT_number 11
_symmetry_cell_setting 'monoclinic'
loop_
_space_group_symop_operation_xyz
x,y,z
-x,1/2+y,-z
-x,-y,-z
x,1/2-y,z
loop_
_atom_site_type_symbol
_atom_site_label
_atom_site_fract_x
_atom_site_fract_y
_atom_site_fract_z
Si Si1 0.676484 0.856967 0.395567
Si Si2 0.651030 0.353575 0.609038
Si Si3 0.551988 0.407499 0.054184
Si Si4 0.747725 0.148153 0.852323
Si Si5 0.923705 0.525247 0.802499
Si Si6 0.154614 0.017501 0.446478
Si Si7 0.753527 0.979478 0.183278
Si Si8 0.753490 0.646696 0.966553
O O1 0.718040 0.750000 0.372785
O O2 0.510431 0.866522 0.431698
O O3 0.771248 0.895681 0.495287
O O4 0.704485 0.917060 0.285925
O O5 0.706016 0.250000 0.581082
O O6 0.652861 0.370531 0.742994
O O7 0.751635 0.424397 0.540155
O O8 0.643687 0.434724 0.163239
O O9 0.406828 0.351632 0.086221
O O10 0.500000 0.500000 0.000000
O O11 0.647515 0.352763 0.962837
O O12 0.819319 0.250000 0.844509
O O13 0.872610 0.071920 0.857877
O O14 0.856748 0.541583 0.682755
O O15 0.870142 0.609807 0.877547
O O16 0.094517 0.525756 0.792550
O O17 0.000000 0.000000 0.500000
O O18 0.760513 0.915782 0.075186
O O19 0.797853 0.750000 0.998292
#
# Coordination Sequence:
#
# PCOD8072153 Si02
#       8
#     4   4   4   4   4   4   4   4
#     4  11  23  40  66  96 119 154 211 262 308 364
#     4   9  20  38  64  95 119 153 208 260 305 359
#     4  10  19  35  59  85 124 163 198 248 300 364
#     4  10  19  34  60  91 124 160 200 251 306 363
#     4  11  23  41  60  88 126 163 204 247 307 372
#     4  11  23  42  63  86 124 167 200 253 315 363
#     4  11  22  39  63  91 127 158 201 257 307 357
#     4  11  23  39  62  92 125 164 203 248 304 366
#
# _framework density 19.845223000000001
#
# number of rings (size 3 to 8) (size 9 to 14) (size 15 to 20)
#    0.000    1.500    3.750    3.000    1.750    3.000 
#    0.000    0.625    0.000    0.750    0.000    0.000 
#    0.000    0.000    0.000    0.000    0.000    0.000 
#
# Total GULP energy -396789.036229 kJ/mol
# GULP energy per Si atom -12399.657382 kJ/mol
# Density = 1.980005 g / cm^3
# Si number density = 19.845223 Si / 1000 Ang^3
#
#
#
# Elastic Constant Matrix: (Units=GPa)
#
#
# Indices 1 2 3 4 5 6 
#
# 1 93.7318 22.5384 19.0391 0.0000 4.4815 0.0000
# 2 22.5384 59.8433 29.4428 0.0000 0.4400 0.0000
# 3 19.0391 29.4428 71.2871 0.0000 -0.2871 0.0000
# 4 0.0000 0.0000 0.0000 28.9771 0.0000 2.0682
# 5 4.4815 0.4400 -0.2871 0.0000 31.6670 0.0000
# 6 0.0000 0.0000 0.0000 2.0682 0.0000 19.5328
#
#
#
# Elastic Compliance Matrix: (Units=1/GPa)
#
#
# Indices 1 2 3 4 5 6 
#
# 1 0.011973 -0.003665 -0.001691 0.000000 -0.001659 0.000000
# 2 -0.003665 0.022098 -0.008147 0.000000 0.000138 0.000000
# 3 -0.001691 -0.008147 0.017846 0.000000 0.000514 0.000000
# 4 0.000000 0.000000 0.000000 0.034773 0.000000 -0.003682
# 5 -0.001659 0.000138 0.000514 0.000000 0.031816 0.000000
# 6 0.000000 0.000000 0.000000 -0.003682 0.000000 0.051586
#
#
# Mechanical properties :
#
#
# Convention : Reuss Voigt Hill
#
# Bulk Modulus (GPa) = 40.14312 40.76697 40.45505
# Shear Modulus (GPa) = 24.34248 26.29152 25.31700
#
# Velocity S-wave (km/s) = 3.50611 3.64377 3.57560
# Velocity P-wave (km/s) = 6.05495 6.18787 6.12177
#
# Compressibility (1/GPa) = 0.02491087
#
# Stress axis : x y z
#
# Youngs Moduli (GPa) = 83.52284 45.25241 56.03372
#
# Poissons Ratio (x) = 0.16586 0.09473
# Poissons Ratio (y) = 0.30614 0.45653
# Poissons Ratio (z) = 0.14120 0.36869
#
# Static dielectric constant tensor:
#      x y z
#    x 3.863700 0.000000 0.198620 
#    y 0.000000 3.815100 0.000000 
#    z 0.198620 0.000000 3.645420 
# 
# 
# High freq. dielectric constant tensor:
#      x y z
#    x 1.781060 0.000000 0.004740 
#    y 0.000000 1.771410 0.000000 
#    z 0.004740 0.000000 1.759160 
# 
# From -- ./inp_files/27773.got.cif
#   From: 2010.06.25/outbox.cif.g09.slc.cpg/sg11_14_cif.got.tgz:27773.got - 2010.06.27 23:14:04.
