data_PCOD8072363
_publ_section_title
;
Structure prediction by ZEFSAII (Michael W. Deem and Ramdas Pophale) SiO2 
 PCOD8072363
Probable space group: P 21/M
;
_chemical_formula_sum "Si O2"
_cell_formula_units_Z 32
_cell_length_a 22.625852
_cell_length_b 9.030514
_cell_length_c 15.114909
_cell_angle_alpha 90.000000
_cell_angle_beta 31.703526
_cell_angle_gamma 90.000000
_cell_volume 1622.988757
_symmetry_space_group_name_H-M "P 21/M"
_symmetry_group_IT_number 11
_symmetry_cell_setting 'monoclinic'
loop_
_space_group_symop_operation_xyz
x,y,z
-x,1/2+y,-z
-x,-y,-z
x,1/2-y,z
loop_
_atom_site_type_symbol
_atom_site_label
_atom_site_fract_x
_atom_site_fract_y
_atom_site_fract_z
Si Si1 0.757814 0.926412 0.509359
Si Si2 0.063967 0.417758 0.342208
Si Si3 0.659088 0.925317 0.449725
Si Si4 0.621059 0.073558 0.841813
Si Si5 0.410008 0.581502 0.759434
Si Si6 0.012818 0.579711 0.754983
Si Si7 0.772001 0.924908 0.128357
Si Si8 0.717221 0.083368 0.907026
O O1 0.748907 0.750000 0.533026
O O2 0.703311 0.983612 0.487311
O O3 0.693768 0.008274 0.669685
O O4 0.887655 0.974128 0.339665
O O5 0.076915 0.250000 0.355145
O O6 0.994017 0.433530 0.341762
O O7 0.187609 0.481883 0.171658
O O8 0.000000 0.500000 0.500000
O O9 0.650971 0.750000 0.464836
O O10 0.534297 0.987261 0.586978
O O11 0.743318 0.976169 0.264677
O O12 0.609341 0.250000 0.846686
O O13 0.682641 0.028745 0.854116
O O14 0.500000 0.000000 0.000000
O O15 0.403171 0.750000 0.733867
O O16 0.318725 0.488962 0.823089
O O17 0.388562 0.574500 0.892277
O O18 0.036223 0.750000 0.752775
O O19 0.897537 0.519752 0.945906
O O20 0.766457 0.750000 0.123791
O O21 0.764531 0.250000 0.840674
#
# Coordination Sequence:
#
# PCOD8072363 Si02
#       8
#     4   4   4   4   4   4   4   4
#     4  11  23  40  61  86 117 157 204 246 291 351
#     4  11  22  36  55  81 112 148 190 236 288 347
#     4   9  20  38  60  85 116 155 195 241 300 352
#     4  11  23  40  61  87 120 159 198 241 292 347
#     4  10  19  35  59  87 118 148 187 241 295 353
#     4  10  22  39  57  82 119 155 192 246 301 348
#     4  10  20  38  61  85 117 155 193 240 298 356
#     4  10  21  36  56  82 115 151 188 233 288 345
#
# _framework density 19.716711
#
# number of rings (size 3 to 8) (size 9 to 14) (size 15 to 20)
#    0.000    1.750    1.250    3.000    0.000    8.000 
#    0.000    3.750    0.000    0.000    0.000    0.000 
#    0.000    0.000    0.000    0.000    0.000    0.000 
#
# Total GULP energy -396856.678587 kJ/mol
# GULP energy per Si atom -12401.771206 kJ/mol
# Density = 1.967183 g / cm^3
# Si number density = 19.716711 Si / 1000 Ang^3
#
#
#
# Elastic Constant Matrix: (Units=GPa)
#
#
# Indices 1 2 3 4 5 6 
#
# 1 105.8851 33.8923 47.9717 0.0000 -2.3320 0.0000
# 2 33.8923 61.7074 30.8934 0.0000 -5.0419 0.0000
# 3 47.9717 30.8934 134.9580 0.0000 -4.7267 0.0000
# 4 0.0000 0.0000 0.0000 31.5574 0.0000 -5.8279
# 5 -2.3320 -5.0419 -4.7267 0.0000 39.4369 0.0000
# 6 0.0000 0.0000 0.0000 -5.8279 0.0000 29.4337
#
#
#
# Elastic Compliance Matrix: (Units=1/GPa)
#
#
# Indices 1 2 3 4 5 6 
#
# 1 0.012626 -0.005318 -0.003282 0.000000 -0.000327 0.000000
# 2 -0.005318 0.020678 -0.002773 0.000000 0.001997 0.000000
# 3 -0.003282 -0.002773 0.009231 0.000000 0.000558 0.000000
# 4 0.000000 0.000000 0.000000 0.032891 0.000000 0.006512
# 5 -0.000327 0.001997 0.000558 0.000000 0.025660 0.000000
# 6 0.000000 0.000000 0.000000 0.006512 0.000000 0.035264
#
#
# Mechanical properties :
#
#
# Convention : Reuss Voigt Hill
#
# Bulk Modulus (GPa) = 50.53587 58.67391 54.60489
# Shear Modulus (GPa) = 30.17626 32.73846 31.45736
#
# Velocity S-wave (km/s) = 3.91639 4.07927 3.99866
# Velocity P-wave (km/s) = 6.79246 7.21182 7.00528
#
# Compressibility (1/GPa) = 0.01978792
#
# Stress axis : x y z
#
# Youngs Moduli (GPa) = 79.19960 48.36038 108.33444
#
# Poissons Ratio (x) = 0.25720 0.35556
# Poissons Ratio (y) = 0.42122 0.30042
# Poissons Ratio (z) = 0.25994 0.13411
#
# Static dielectric constant tensor:
#      x y z
#    x 3.640630 0.000000 0.020330 
#    y 0.000000 3.549560 0.000000 
#    z 0.020330 0.000000 3.879140 
# 
# 
# High freq. dielectric constant tensor:
#      x y z
#    x 1.770820 0.000000 0.002460 
#    y 0.000000 1.754990 0.000000 
#    z 0.002460 0.000000 1.787280 
# 
# From -- ./inp_files/55557.got.cif
#   From: 2010.06.25/outbox.cif.g09.slc.cpg/sg11_28_cif.got.tgz:55557.got - 2010.06.27 23:14:04.
