data_PCOD8072329
_publ_section_title
;
Structure prediction by ZEFSAII (Michael W. Deem and Ramdas Pophale) SiO2 
 PCOD8072329
Probable space group: P 21/M
;
_chemical_formula_sum "Si O2"
_cell_formula_units_Z 32
_cell_length_a 16.265267
_cell_length_b 22.539151
_cell_length_c 9.463264
_cell_angle_alpha 90.000000
_cell_angle_beta 28.074247
_cell_angle_gamma 90.000000
_cell_volume 1632.697715
_symmetry_space_group_name_H-M "P 21/M"
_symmetry_group_IT_number 11
_symmetry_cell_setting 'monoclinic'
loop_
_space_group_symop_operation_xyz
x,y,z
-x,1/2+y,-z
-x,-y,-z
x,1/2-y,z
loop_
_atom_site_type_symbol
_atom_site_label
_atom_site_fract_x
_atom_site_fract_y
_atom_site_fract_z
Si Si1 0.578450 0.181156 0.303752
Si Si2 0.132608 0.855288 0.351075
Si Si3 0.606674 0.122708 0.555391
Si Si4 0.766170 0.610205 0.212567
Si Si5 0.777923 0.901407 0.866344
Si Si6 0.269398 0.518321 0.228196
Si Si7 0.892374 0.316590 0.304906
Si Si8 0.663878 0.505396 0.561701
O O1 0.539123 0.250000 0.392429
O O2 0.644241 0.149820 0.345915
O O3 0.404031 0.151080 0.507587
O O4 0.735404 0.174287 0.956723
O O5 0.169775 0.923376 0.331766
O O6 0.136164 0.815074 0.484377
O O7 0.935132 0.856481 0.587483
O O8 0.718596 0.155931 0.502353
O O9 0.653503 0.053147 0.480814
O O10 0.402643 0.129812 0.907412
O O11 0.764388 0.554639 0.320061
O O12 0.775361 0.586655 0.038599
O O13 0.936408 0.647018 0.998392
O O14 0.805660 0.963538 0.746051
O O15 0.232535 0.507723 0.450386
O O16 0.472926 0.529320 0.890588
O O17 0.916486 0.250000 0.212283
#
# Coordination Sequence:
#
# PCOD8072329 Si02
#       8
#     4   4   4   4   4   4   4   4
#     4  11  23  39  60  86 117 156 201 247 292 343
#     4  11  21  39  59  90 116 160 197 241 292 353
#     4  10  22  40  60  86 120 156 194 244 298 352
#     4  10  22  39  62  88 116 154 198 245 296 354
#     4   9  22  36  59  88 122 153 191 239 302 351
#     4  10  19  35  58  91 125 152 187 243 297 360
#     4  11  23  42  61  83 117 159 204 241 290 353
#     4  10  20  36  61  91 122 152 193 243 306 355
#
# _framework density 19.599463
#
# number of rings (size 3 to 8) (size 9 to 14) (size 15 to 20)
#    0.000    1.750    2.500    1.500    1.750    3.000 
#    0.000    1.875    0.000    0.000    0.000    0.000 
#    0.000    0.000    0.000    0.000    0.000    0.000 
#
# Total GULP energy -396903.467659 kJ/mol
# GULP energy per Si atom -12403.233364 kJ/mol
# Density = 1.955485 g / cm^3
# Si number density = 19.599463 Si / 1000 Ang^3
#
#
#
# Elastic Constant Matrix: (Units=GPa)
#
#
# Indices 1 2 3 4 5 6 
#
# 1 73.5227 44.9554 36.3564 0.0000 -17.8016 0.0000
# 2 44.9554 112.9207 43.0773 0.0000 -5.1352 0.0000
# 3 36.3564 43.0773 87.8132 0.0000 -6.6692 0.0000
# 4 0.0000 0.0000 0.0000 22.8853 0.0000 2.0909
# 5 -17.8016 -5.1352 -6.6692 0.0000 30.8381 0.0000
# 6 0.0000 0.0000 0.0000 2.0909 0.0000 15.2058
#
#
#
# Elastic Compliance Matrix: (Units=1/GPa)
#
#
# Indices 1 2 3 4 5 6 
#
# 1 0.022974 -0.006565 -0.005457 0.000000 0.010989 0.000000
# 2 -0.006565 0.012784 -0.003741 0.000000 -0.002470 0.000000
# 3 -0.005457 -0.003741 0.015449 0.000000 -0.000432 0.000000
# 4 0.000000 0.000000 0.000000 0.044252 0.000000 -0.006085
# 5 0.010989 -0.002470 -0.000432 0.000000 0.038266 0.000000
# 6 0.000000 0.000000 0.000000 -0.006085 0.000000 0.066601
#
#
# Mechanical properties :
#
#
# Convention : Reuss Voigt Hill
#
# Bulk Modulus (GPa) = 50.80640 58.11497 54.46069
# Shear Modulus (GPa) = 20.97196 23.77701 22.37449
#
# Velocity S-wave (km/s) = 3.27468 3.48680 3.38240
# Velocity P-wave (km/s) = 6.34639 6.77688 6.56516
#
# Compressibility (1/GPa) = 0.01968256
#
# Stress axis : x y z
#
# Youngs Moduli (GPa) = 43.52658 78.22167 64.72777
#
# Poissons Ratio (x) = 0.51353 0.35320
# Poissons Ratio (y) = 0.28576 0.24214
# Poissons Ratio (z) = 0.23751 0.29262
#
# Static dielectric constant tensor:
#      x y z
#    x 3.625250 0.000000 -0.148120 
#    y 0.000000 3.510450 0.000000 
#    z -0.148120 0.000000 3.652350 
# 
# 
# High freq. dielectric constant tensor:
#      x y z
#    x 1.763590 0.000000 -0.009480 
#    y 0.000000 1.761910 0.000000 
#    z -0.009480 0.000000 1.767510 
# 
# From -- ./inp_files/23364.got.cif
#   From: 2010.06.25/outbox.cif.g09.slc.cpg/sg11_12_cif.got.tgz:23364.got - 2010.06.27 23:14:04.
