data_PCOD8072915
_publ_section_title
;
Structure prediction by ZEFSAII (Michael W. Deem and Ramdas Pophale) SiO2 
 PCOD8072915
Probable space group: P 21/M
;
_chemical_formula_sum "Si O2"
_cell_formula_units_Z 32
_cell_length_a 21.639487
_cell_length_b 8.898773
_cell_length_c 28.341979
_cell_angle_alpha 90.000000
_cell_angle_beta 18.631033
_cell_angle_gamma 90.000000
_cell_volume 1743.575982
_symmetry_space_group_name_H-M "P 21/M"
_symmetry_group_IT_number 11
_symmetry_cell_setting 'monoclinic'
loop_
_space_group_symop_operation_xyz
x,y,z
-x,1/2+y,-z
-x,-y,-z
x,1/2-y,z
loop_
_atom_site_type_symbol
_atom_site_label
_atom_site_fract_x
_atom_site_fract_y
_atom_site_fract_z
Si Si1 0.899231 0.572919 0.435839
Si Si2 0.420163 0.922646 0.397165
Si Si3 0.178677 0.922606 0.153676
Si Si4 0.854754 0.571796 0.068646
Si Si5 0.105804 0.423100 0.063755
Si Si6 0.856213 0.071398 0.566960
Si Si7 0.869328 0.079914 0.318371
Si Si8 0.429008 0.072658 0.902017
O O1 0.877004 0.750000 0.460624
O O2 0.712452 0.518069 0.541965
O O3 0.914144 0.485146 0.473639
O O4 0.101311 0.536849 0.262150
O O5 0.409471 0.750000 0.387814
O O6 0.638460 0.981421 0.237952
O O7 0.347776 0.938616 0.504309
O O8 0.235395 0.750000 0.109133
O O9 0.999225 0.956857 0.249656
O O10 0.365901 0.014493 0.999915
O O11 0.877431 0.750000 0.055119
O O12 0.903191 0.504018 0.981592
O O13 0.000000 0.500000 0.000000
O O14 0.154971 0.250000 0.019674
O O15 0.898330 0.445463 0.240952
O O16 0.279468 0.489824 0.970468
O O17 0.871066 0.250000 0.558030
O O18 0.641265 0.014064 0.735383
O O19 0.000000 0.000000 0.500000
O O20 0.944800 0.250000 0.275552
O O21 0.424254 0.250000 0.907429
#
# Coordination Sequence:
#
# PCOD8072915 Si02
#       8
#     4   4   4   4   4   4   4   4
#     4  10  20  34  54  81 109 135 167 208 255 308
#     4   9  17  31  52  74  96 127 167 208 249 298
#     4   9  17  29  49  79 109 131 158 204 256 303
#     4  10  20  33  47  66  96 131 167 206 250 300
#     4   8  14  28  50  71  91 120 158 198 241 292
#     4  11  23  38  55  76 105 140 177 215 256 302
#     4   8  14  27  48  71  94 123 161 202 246 297
#     4   9  18  34  56  78  99 129 170 211 253 304
#
# _framework density 18.353085
#
# number of rings (size 3 to 8) (size 9 to 14) (size 15 to 20)
#    0.000    2.750    0.000    2.625    0.000    5.000 
#    0.000    3.750    0.000    0.000    0.000    0.000 
#    0.000    0.000    0.000    0.000    0.000    0.000 
#
# Total GULP energy -396490.634089 kJ/mol
# GULP energy per Si atom -12390.332315 kJ/mol
# Density = 1.831131 g / cm^3
# Si number density = 18.353085 Si / 1000 Ang^3
#
#
#
# Elastic Constant Matrix: (Units=GPa)
#
#
# Indices 1 2 3 4 5 6 
#
# 1 117.0465 34.2685 92.5974 0.0000 15.6506 0.0000
# 2 34.2685 41.2111 34.3982 0.0000 7.3797 0.0000
# 3 92.5974 34.3982 122.4571 0.0000 36.6269 0.0000
# 4 0.0000 0.0000 0.0000 23.2503 0.0000 0.6213
# 5 15.6506 7.3797 36.6269 0.0000 26.2914 0.0000
# 6 0.0000 0.0000 0.0000 0.6213 0.0000 26.8634
#
#
#
# Elastic Compliance Matrix: (Units=1/GPa)
#
#
# Indices 1 2 3 4 5 6 
#
# 1 0.027460 -0.005292 -0.025428 0.000000 0.020564 0.000000
# 2 -0.005292 0.033281 -0.005992 0.000000 0.002156 0.000000
# 3 -0.025428 -0.005992 0.041224 0.000000 -0.040611 0.000000
# 4 0.000000 0.000000 0.000000 0.043037 0.000000 -0.000995
# 5 0.020564 0.002156 -0.040611 0.000000 0.081764 0.000000
# 6 0.000000 0.000000 0.000000 -0.000995 0.000000 0.037248
#
#
# Mechanical properties :
#
#
# Convention : Reuss Voigt Hill
#
# Bulk Modulus (GPa) = 35.03786 67.02701 51.03244
# Shear Modulus (GPa) = 14.41118 23.24440 18.82779
#
# Velocity S-wave (km/s) = 2.80521 3.56267 3.20639
# Velocity P-wave (km/s) = 5.44286 7.31598 6.44780
#
# Compressibility (1/GPa) = 0.02854056
#
# Stress axis : x y z
#
# Youngs Moduli (GPa) = 36.41636 30.04715 24.25771
#
# Poissons Ratio (x) = 0.15900 0.61684
# Poissons Ratio (y) = 0.19271 0.14535
# Poissons Ratio (z) = 0.92601 0.18004
#
# Static dielectric constant tensor:
#      x y z
#    x 3.176560 0.000000 0.422610 
#    y 0.000000 3.240320 0.000000 
#    z 0.422610 0.000000 3.804820 
# 
# 
# High freq. dielectric constant tensor:
#      x y z
#    x 1.683710 0.000000 0.033430 
#    y 0.000000 1.696510 0.000000 
#    z 0.033430 0.000000 1.723390 
# 
# From -- ./inp_files/72079.got.cif
#   From: 2010.06.25/outbox.cif.g09.slc.cpg/sg11_37_cif.got.tgz:72079.got - 2010.06.27 23:14:04.
