data_PCOD8072891
_publ_section_title
;
Structure prediction by ZEFSAII (Michael W. Deem and Ramdas Pophale) SiO2 
 PCOD8072891
Probable space group: P 21/M
;
_chemical_formula_sum "Si O2"
_cell_formula_units_Z 32
_cell_length_a 15.904540
_cell_length_b 8.828479
_cell_length_c 23.313867
_cell_angle_alpha 90.000000
_cell_angle_beta 149.943966
_cell_angle_gamma 90.000000
_cell_volume 1639.555584
_symmetry_space_group_name_H-M "P 21/M"
_symmetry_group_IT_number 11
_symmetry_cell_setting 'monoclinic'
loop_
_space_group_symop_operation_xyz
x,y,z
-x,1/2+y,-z
-x,-y,-z
x,1/2-y,z
loop_
_atom_site_type_symbol
_atom_site_label
_atom_site_fract_x
_atom_site_fract_y
_atom_site_fract_z
Si Si1 0.662203 0.571862 0.534436
Si Si2 0.684099 0.928712 0.675646
Si Si3 0.998067 0.069041 0.062421
Si Si4 0.628602 0.927670 0.304529
Si Si5 0.845082 0.926807 0.533863
Si Si6 0.517574 0.077530 0.949337
Si Si7 0.319058 0.070089 0.061179
Si Si8 0.165024 0.083052 0.680060
O O1 0.632578 0.750000 0.517022
O O2 0.492190 0.498728 0.409437
O O3 0.717356 0.514407 0.629875
O O4 0.810320 0.522381 0.578592
O O5 0.668992 0.750000 0.668586
O O6 0.831211 0.983128 0.804818
O O7 0.983108 0.250000 0.049625
O O8 0.000000 0.000000 0.000000
O O9 0.847692 0.004587 0.011807
O O10 0.575797 0.750000 0.271590
O O11 0.695809 0.989736 0.405036
O O12 0.788287 0.956720 0.357540
O O13 0.469963 0.027348 0.192967
O O14 0.833198 0.750000 0.519430
O O15 0.031439 0.969220 0.626578
O O16 0.581711 0.250000 0.993980
O O17 0.333891 0.071694 0.815359
O O18 0.646625 0.991355 0.982994
O O19 0.500000 0.000000 0.000000
O O20 0.298267 0.250000 0.046562
O O21 0.086052 0.250000 0.637828
#
# Coordination Sequence:
#
# PCOD8072891 Si02
#       8
#     4   4   4   4   4   4   4   4
#     4   9  19  36  57  83 111 145 184 229 286 346
#     4   9  20  39  59  80 111 145 184 233 290 350
#     4  11  24  41  61  87 119 156 200 252 305 358
#     4   9  19  36  54  77 114 153 187 231 284 337
#     4  10  20  32  53  83 110 143 188 231 281 342
#     4  10  21  39  61  86 117 155 196 242 293 347
#     4  11  23  39  59  87 117 154 199 240 296 360
#     4   9  19  34  51  76 112 148 184 228 279 332
#
# _framework density 19.517485000000001
#
# number of rings (size 3 to 8) (size 9 to 14) (size 15 to 20)
#    0.000    2.250    0.000    3.000    1.750    5.500 
#    0.000    1.250    0.000    0.000    0.000    0.000 
#    0.000    0.000    0.000    0.000    0.000    0.000 
#
# Total GULP energy -396700.670082 kJ/mol
# GULP energy per Si atom -12396.895940 kJ/mol
# Density = 1.947306 g / cm^3
# Si number density = 19.517485 Si / 1000 Ang^3
#
#
#
# Elastic Constant Matrix: (Units=GPa)
#
#
# Indices 1 2 3 4 5 6 
#
# 1 115.2586 44.3436 58.8195 0.0000 -5.5334 0.0000
# 2 44.3436 68.6443 34.5597 0.0000 -1.9956 0.0000
# 3 58.8195 34.5597 85.1631 0.0000 1.8097 0.0000
# 4 0.0000 0.0000 0.0000 32.7017 0.0000 3.9975
# 5 -5.5334 -1.9956 1.8097 0.0000 23.9763 0.0000
# 6 0.0000 0.0000 0.0000 3.9975 0.0000 32.4301
#
#
#
# Elastic Compliance Matrix: (Units=1/GPa)
#
#
# Indices 1 2 3 4 5 6 
#
# 1 0.015252 -0.005533 -0.008367 0.000000 0.003691 0.000000
# 2 -0.005533 0.020420 -0.004482 0.000000 0.000761 0.000000
# 3 -0.008367 -0.004482 0.019420 0.000000 -0.003770 0.000000
# 4 0.000000 0.000000 0.000000 0.031047 0.000000 -0.003827
# 5 0.003691 0.000761 -0.003770 0.000000 0.042908 0.000000
# 6 0.000000 0.000000 0.000000 -0.003827 0.000000 0.031307
#
#
# Mechanical properties :
#
#
# Convention : Reuss Voigt Hill
#
# Bulk Modulus (GPa) = 54.55808 60.50130 57.52969
# Shear Modulus (GPa) = 24.60295 26.57782 25.59038
#
# Velocity S-wave (km/s) = 3.55429 3.69418 3.62491
# Velocity P-wave (km/s) = 6.69762 7.01868 6.86002
#
# Compressibility (1/GPa) = 0.01832909
#
# Stress axis : x y z
#
# Youngs Moduli (GPa) = 65.56495 48.97066 51.49335
#
# Poissons Ratio (x) = 0.27094 0.43086
# Poissons Ratio (y) = 0.36276 0.23077
# Poissons Ratio (z) = 0.54860 0.21947
#
# Static dielectric constant tensor:
#      x y z
#    x 3.242480 0.000000 0.162690 
#    y 0.000000 3.563950 0.000000 
#    z 0.162690 0.000000 3.382070 
# 
# 
# High freq. dielectric constant tensor:
#      x y z
#    x 1.772790 0.000000 -0.004940 
#    y 0.000000 1.755070 0.000000 
#    z -0.004940 0.000000 1.756170 
# 
# From -- ./inp_files/69142.got.cif
#   From: 2010.06.25/outbox.cif.g09.slc.cpg/sg11_35_cif.got.tgz:69142.got - 2010.06.27 23:14:04.
