data_PCOD8072079
_publ_section_title
;
Structure prediction by ZEFSAII (Michael W. Deem and Ramdas Pophale) SiO2 
 PCOD8072079
Probable space group: P 21/M
;
_chemical_formula_sum "Si O2"
_cell_formula_units_Z 28
_cell_length_a 11.069199
_cell_length_b 8.587315
_cell_length_c 16.248459
_cell_angle_alpha 90.000000
_cell_angle_beta 119.485454
_cell_angle_gamma 90.000000
_cell_volume 1344.450775
_symmetry_space_group_name_H-M "P 21/M"
_symmetry_group_IT_number 11
_symmetry_cell_setting 'monoclinic'
loop_
_space_group_symop_operation_xyz
x,y,z
-x,1/2+y,-z
-x,-y,-z
x,1/2-y,z
loop_
_atom_site_type_symbol
_atom_site_label
_atom_site_fract_x
_atom_site_fract_y
_atom_site_fract_z
Si Si1 0.402236 0.067097 0.037440
Si Si2 0.818104 0.070466 0.595734
Si Si3 0.827832 0.930821 0.770382
Si Si4 0.864846 0.570685 0.305065
Si Si5 0.321911 0.568251 0.618412
Si Si6 0.145998 0.931227 0.870263
Si Si7 0.583910 0.068078 0.781252
O O1 0.424746 0.250000 0.053777
O O2 0.446166 0.985568 0.136481
O O3 0.500000 0.000000 0.000000
O O4 0.242205 0.029633 0.963699
O O5 0.799419 0.250000 0.614545
O O6 0.716779 0.022518 0.487750
O O7 0.975241 0.036338 0.619714
O O8 0.777969 0.967571 0.661094
O O9 0.805901 0.750000 0.781055
O O10 0.987824 0.980812 0.835227
O O11 0.740594 0.028025 0.807427
O O12 0.841152 0.750000 0.273560
O O13 0.774475 0.529178 0.353269
O O14 0.815407 0.468098 0.211157
O O15 0.296313 0.750000 0.625537
O O16 0.481525 0.523190 0.685438
O O17 0.171780 0.750000 0.895413
O O18 0.555759 0.250000 0.764672
#
# Coordination Sequence:
#
# PCOD8072079 Si02
#       7
#     4   4   4   4   4   4   4
#     4  12  25  43  66  92 122 154 192 237 289 347
#     4   9  20  37  59  86 118 157 198 243 292 348
#     4  10  22  41  64  89 118 153 196 244 291 344
#     4  10  19  34  57  88 122 155 196 242 293 349
#     4  11  22  37  57  84 119 158 200 245 296 348
#     4  10  21  39  63  90 120 155 194 238 292 349
#     4  12  26  43  62  85 117 156 198 244 292 346
#
# _framework density 20.826347999999999
#
# number of rings (size 3 to 8) (size 9 to 14) (size 15 to 20)
#    0.000    1.429    0.000    5.571    0.000    4.571 
#    0.000    0.000    0.000    0.000    0.000    0.000 
#    0.000    0.000    0.000    0.000    0.000    0.000 
#
# Total GULP energy -347406.076042 kJ/mol
# GULP energy per Si atom -12407.359859 kJ/mol
# Density = 2.077895 g / cm^3
# Si number density = 20.826348 Si / 1000 Ang^3
#
#
#
# Elastic Constant Matrix: (Units=GPa)
#
#
# Indices 1 2 3 4 5 6 
#
# 1 91.5619 19.0274 23.7504 0.0000 -6.0887 0.0000
# 2 19.0274 55.2140 18.1236 0.0000 0.8035 0.0000
# 3 23.7504 18.1236 87.6961 0.0000 16.2914 0.0000
# 4 0.0000 0.0000 0.0000 37.3690 0.0000 -1.4674
# 5 -6.0887 0.8035 16.2914 0.0000 27.8670 0.0000
# 6 0.0000 0.0000 0.0000 -1.4674 0.0000 37.6183
#
#
#
# Elastic Compliance Matrix: (Units=1/GPa)
#
#
# Indices 1 2 3 4 5 6 
#
# 1 0.012925 -0.003290 -0.003772 0.000000 0.005124 0.000000
# 2 -0.003290 0.020367 -0.003450 0.000000 0.000711 0.000000
# 3 -0.003772 -0.003450 0.014889 0.000000 -0.009429 0.000000
# 4 0.000000 0.000000 0.000000 0.026801 0.000000 0.001045
# 5 0.005124 0.000711 -0.009429 0.000000 0.042496 0.000000
# 6 0.000000 0.000000 0.000000 0.001045 0.000000 0.026624
#
#
# Mechanical properties :
#
#
# Convention : Reuss Voigt Hill
#
# Bulk Modulus (GPa) = 36.82442 39.58608 38.20525
# Shear Modulus (GPa) = 28.70603 32.14226 30.42415
#
# Velocity S-wave (km/s) = 3.71664 3.93281 3.82625
# Velocity P-wave (km/s) = 6.01149 6.29854 6.15668
#
# Compressibility (1/GPa) = 0.02715589
#
# Stress axis : x y z
#
# Youngs Moduli (GPa) = 77.37216 49.09815 67.16230
#
# Poissons Ratio (x) = 0.16155 0.25335
# Poissons Ratio (y) = 0.25458 0.23172
# Poissons Ratio (z) = 0.29186 0.16940
#
# Static dielectric constant tensor:
#      x y z
#    x 3.712400 0.000000 0.149960 
#    y 0.000000 3.803450 0.000000 
#    z 0.149960 0.000000 3.843310 
# 
# 
# High freq. dielectric constant tensor:
#      x y z
#    x 1.816130 0.000000 0.005720 
#    y 0.000000 1.822910 0.000000 
#    z 0.005720 0.000000 1.818320 
# 
# From -- ./inp_files/49452.got.cif
#   From: 2010.06.25/outbox.cif.g09.slc.cpg/sg11_25_cif.got.tgz:49452.got - 2010.06.27 23:14:04.
