data_PCOD8072297
_publ_section_title
;
Structure prediction by ZEFSAII (Michael W. Deem and Ramdas Pophale) SiO2 
 PCOD8072297
Probable space group: P 21/M
;
_chemical_formula_sum "Si O2"
_cell_formula_units_Z 28
_cell_length_a 14.173161
_cell_length_b 8.854329
_cell_length_c 17.678805
_cell_angle_alpha 90.000000
_cell_angle_beta 43.285636
_cell_angle_gamma 90.000000
_cell_volume 1521.138706
_symmetry_space_group_name_H-M "P 21/M"
_symmetry_group_IT_number 11
_symmetry_cell_setting 'monoclinic'
loop_
_space_group_symop_operation_xyz
x,y,z
-x,1/2+y,-z
-x,-y,-z
x,1/2-y,z
loop_
_atom_site_type_symbol
_atom_site_label
_atom_site_fract_x
_atom_site_fract_y
_atom_site_fract_z
Si Si1 0.882917 0.926290 0.349446
Si Si2 0.719243 0.927024 0.584202
Si Si3 0.618281 0.928648 0.084167
Si Si4 0.170808 0.427568 0.167742
Si Si5 0.589602 0.429716 0.256156
Si Si6 0.670359 0.928396 0.778193
Si Si7 0.366929 0.072872 0.615307
O O1 0.914091 0.750000 0.336475
O O2 0.833561 0.993222 0.460098
O O3 0.765405 0.963123 0.357728
O O4 0.020590 0.006683 0.242776
O O5 0.715078 0.750000 0.572831
O O6 0.568143 0.987744 0.650698
O O7 0.751664 0.967251 0.652655
O O8 0.610703 0.750000 0.099663
O O9 0.659010 0.007341 0.139330
O O10 0.474235 0.986473 0.135116
O O11 0.735258 0.977649 0.956928
O O12 0.158222 0.250000 0.180330
O O13 0.237198 0.488760 0.207023
O O14 0.602527 0.250000 0.249904
O O15 0.664699 0.500284 0.284695
O O16 0.639596 0.750000 0.801167
O O17 0.393143 0.250000 0.607836
O O18 0.500000 0.000000 0.500000
#
# Coordination Sequence:
#
# PCOD8072297 Si02
#       7
#     4   4   4   4   4   4   4
#     4  10  21  36  53  77 111 147 182 221 267 326
#     4   8  15  31  52  77 108 138 172 219 269 316
#     4  10  20  35  55  81 111 140 183 233 273 319
#     4  10  22  37  52  77 112 148 185 229 272 318
#     4  10  19  35  58  83 110 139 179 227 279 327
#     4   9  18  34  57  80 107 144 184 226 274 322
#     4  11  21  35  57  85 113 142 181 225 272 324
#
# _framework density 18.407263
#
# number of rings (size 3 to 8) (size 9 to 14) (size 15 to 20)
#    0.000    2.286    1.429    2.571    0.000    3.429 
#    0.000    1.429    0.000    0.000    0.000    0.000 
#    0.000    0.000    0.000    0.000    0.000    0.000 
#
# Total GULP energy -347179.144645 kJ/mol
# GULP energy per Si atom -12399.255166 kJ/mol
# Density = 1.836537 g / cm^3
# Si number density = 18.407263 Si / 1000 Ang^3
#
#
#
# Elastic Constant Matrix: (Units=GPa)
#
#
# Indices 1 2 3 4 5 6 
#
# 1 106.0826 45.7042 81.3945 0.0000 20.6363 0.0000
# 2 45.7042 54.4188 40.7871 0.0000 6.0986 0.0000
# 3 81.3945 40.7871 126.9032 0.0000 11.6386 0.0000
# 4 0.0000 0.0000 0.0000 28.1609 0.0000 0.5558
# 5 20.6363 6.0986 11.6386 0.0000 28.8965 0.0000
# 6 0.0000 0.0000 0.0000 0.5558 0.0000 28.3341
#
#
#
# Elastic Compliance Matrix: (Units=1/GPa)
#
#
# Indices 1 2 3 4 5 6 
#
# 1 0.025392 -0.011382 -0.011614 0.000000 -0.011054 0.000000
# 2 -0.011382 0.029427 -0.002423 0.000000 0.002894 0.000000
# 3 -0.011614 -0.002423 0.015887 0.000000 0.002407 0.000000
# 4 0.000000 0.000000 0.000000 0.035524 0.000000 -0.000697
# 5 -0.011054 0.002894 0.002407 0.000000 0.040920 0.000000
# 6 0.000000 0.000000 0.000000 -0.000697 0.000000 0.035307
#
#
# Mechanical properties :
#
#
# Convention : Reuss Voigt Hill
#
# Bulk Modulus (GPa) = 50.33263 69.24180 59.78722
# Shear Modulus (GPa) = 20.84043 25.04622 22.94333
#
# Velocity S-wave (km/s) = 3.36845 3.69273 3.53431
# Velocity P-wave (km/s) = 6.52164 7.47529 7.01469
#
# Compressibility (1/GPa) = 0.01986783
#
# Stress axis : x y z
#
# Youngs Moduli (GPa) = 39.38262 33.98223 62.94344
#
# Poissons Ratio (x) = 0.38679 0.73103
# Poissons Ratio (y) = 0.44826 0.15251
# Poissons Ratio (z) = 0.45740 0.08234
#
# Static dielectric constant tensor:
#      x y z
#    x 3.485800 0.000000 0.241330 
#    y 0.000000 3.252970 0.000000 
#    z 0.241330 0.000000 3.574970 
# 
# 
# High freq. dielectric constant tensor:
#      x y z
#    x 1.710550 0.000000 0.020320 
#    y 0.000000 1.703450 0.000000 
#    z 0.020320 0.000000 1.715370 
# 
# From -- ./inp_files/53208.got.cif
#   From: 2010.06.25/outbox.cif.g09.slc.cpg/sg11_27_cif.got.tgz:53208.got - 2010.06.27 23:14:04.
