data_PCOD8072746
_publ_section_title
;
Structure prediction by ZEFSAII (Michael W. Deem and Ramdas Pophale) SiO2 
 PCOD8072746
Probable space group: P 21/M
;
_chemical_formula_sum "Si O2"
_cell_formula_units_Z 32
_cell_length_a 11.370914
_cell_length_b 18.466962
_cell_length_c 15.141341
_cell_angle_alpha 90.000000
_cell_angle_beta 151.769509
_cell_angle_gamma 90.000000
_cell_volume 1503.953466
_symmetry_space_group_name_H-M "P 21/M"
_symmetry_group_IT_number 11
_symmetry_cell_setting 'monoclinic'
loop_
_space_group_symop_operation_xyz
x,y,z
-x,1/2+y,-z
-x,-y,-z
x,1/2-y,z
loop_
_atom_site_type_symbol
_atom_site_label
_atom_site_fract_x
_atom_site_fract_y
_atom_site_fract_z
Si Si1 0.405875 0.329725 0.903804
Si Si2 0.131535 0.665317 0.075143
Si Si3 0.327971 0.423615 0.280706
Si Si4 0.645242 0.052867 0.328018
Si Si5 0.242465 0.925919 0.305343
Si Si6 0.172004 0.895884 0.732610
Si Si7 0.911451 0.543530 0.248545
Si Si8 0.379506 0.387497 0.693857
O O1 0.300731 0.250000 0.855097
O O2 0.362285 0.344082 0.772630
O O3 0.270551 0.388302 0.875782
O O4 0.697731 0.332638 0.124060
O O5 0.070015 0.750000 0.028337
O O6 0.124219 0.640428 0.172837
O O7 0.406369 0.648615 0.222443
O O8 0.926630 0.621569 0.882099
O O9 0.444813 0.410228 0.260725
O O10 0.511033 0.397738 0.480637
O O11 0.296684 0.510195 0.270857
O O12 0.684577 0.099174 0.266115
O O13 0.910609 0.052188 0.550117
O O14 0.561968 0.971528 0.248049
O O15 0.051252 0.959619 0.248245
O O16 0.880078 0.879241 0.530555
O O17 0.226626 0.967888 0.826949
#
# Coordination Sequence:
#
# PCOD8072746 Si02
#       8
#     4   4   4   4   4   4   4   4
#     4  12  26  39  59  94 131 172 208 254 326 386
#     4  12  27  42  64  95 133 178 210 254 323 390
#     4  10  23  42  69  98 124 163 221 270 310 373
#     4  10  19  42  72  96 118 160 216 270 320 357
#     4  10  23  42  69  96 126 167 216 270 319 366
#     4  11  23  41  70  95 124 167 215 264 319 373
#     4  10  21  41  67  98 125 159 217 272 312 370
#     4  11  23  44  66  93 129 162 213 270 312 375
#
# _framework density 21.277256000000001
#
# number of rings (size 3 to 8) (size 9 to 14) (size 15 to 20)
#    0.000    1.250    3.750    1.875    5.250    2.000 
#    0.000    1.875    0.000    0.000    0.000    0.000 
#    0.000    0.000    0.000    0.000    0.000    0.000 
#
# Total GULP energy -396833.876556 kJ/mol
# GULP energy per Si atom -12401.058642 kJ/mol
# Density = 2.122883 g / cm^3
# Si number density = 21.277256 Si / 1000 Ang^3
#
#
#
# Elastic Constant Matrix: (Units=GPa)
#
#
# Indices 1 2 3 4 5 6 
#
# 1 85.0063 21.9255 32.5464 0.0000 3.1198 0.0000
# 2 21.9255 91.6748 51.5199 0.0000 4.1236 0.0000
# 3 32.5464 51.5199 106.8733 0.0000 3.3584 0.0000
# 4 0.0000 0.0000 0.0000 13.9171 0.0000 0.1381
# 5 3.1198 4.1236 3.3584 0.0000 22.6673 0.0000
# 6 0.0000 0.0000 0.0000 0.1381 0.0000 17.7905
#
#
#
# Elastic Compliance Matrix: (Units=1/GPa)
#
#
# Indices 1 2 3 4 5 6 
#
# 1 0.013448 -0.001213 -0.003476 0.000000 -0.001115 0.000000
# 2 -0.001213 0.015133 -0.006877 0.000000 -0.001567 0.000000
# 3 -0.003476 -0.006877 0.013740 0.000000 -0.000306 0.000000
# 4 0.000000 0.000000 0.000000 0.071860 0.000000 -0.000558
# 5 -0.001115 -0.001567 -0.000306 0.000000 0.044600 0.000000
# 6 0.000000 0.000000 0.000000 -0.000558 0.000000 0.056214
#
#
# Mechanical properties :
#
#
# Convention : Reuss Voigt Hill
#
# Bulk Modulus (GPa) = 52.10747 55.05977 53.58362
# Shear Modulus (GPa) = 20.44795 22.71248 21.58021
#
# Velocity S-wave (km/s) = 3.10340 3.27073 3.18817
# Velocity P-wave (km/s) = 6.11428 6.34012 6.22822
#
# Compressibility (1/GPa) = 0.01919111
#
# Stress axis : x y z
#
# Youngs Moduli (GPa) = 74.35852 66.07960 72.78054
#
# Poissons Ratio (x) = 0.08015 0.25296
# Poissons Ratio (y) = 0.09019 0.50048
# Poissons Ratio (z) = 0.25845 0.45440
#
# Static dielectric constant tensor:
#      x y z
#    x 3.836370 0.000000 0.033640 
#    y 0.000000 3.596240 0.000000 
#    z 0.033640 0.000000 4.031650 
# 
# 
# High freq. dielectric constant tensor:
#      x y z
#    x 1.838060 0.000000 -0.002190 
#    y 0.000000 1.802590 0.000000 
#    z -0.002190 0.000000 1.849650 
# 
# From -- ./inp_files/50738.got.cif
#   From: 2010.06.25/outbox.cif.g09.slc.cpg/sg11_26_cif.got.tgz:50738.got - 2010.06.27 23:14:04.
