data_PCOD8072158
_publ_section_title
;
Structure prediction by ZEFSAII (Michael W. Deem and Ramdas Pophale) SiO2 
 PCOD8072158
Probable space group: P 21/M
;
_chemical_formula_sum "Si O2"
_cell_formula_units_Z 24
_cell_length_a 11.366812
_cell_length_b 13.458130
_cell_length_c 14.559976
_cell_angle_alpha 90.000000
_cell_angle_beta 150.550756
_cell_angle_gamma 90.000000
_cell_volume 1095.070749
_symmetry_space_group_name_H-M "P 21/M"
_symmetry_group_IT_number 11
_symmetry_cell_setting 'monoclinic'
loop_
_space_group_symop_operation_xyz
x,y,z
-x,1/2+y,-z
-x,-y,-z
x,1/2-y,z
loop_
_atom_site_type_symbol
_atom_site_label
_atom_site_fract_x
_atom_site_fract_y
_atom_site_fract_z
Si Si1 0.397643 0.860967 0.183380
Si Si2 0.345772 0.960653 0.713162
Si Si3 0.947777 0.009893 0.313255
Si Si4 0.813788 0.463177 0.799588
Si Si5 0.812566 0.863421 0.070127
Si Si6 0.109740 0.361638 0.262641
O O1 0.499991 0.750000 0.259867
O O2 0.396641 0.907577 0.287017
O O3 0.572340 0.924150 0.237570
O O4 0.137178 0.862040 0.961253
O O5 0.150271 0.943388 0.500881
O O6 0.230966 0.941117 0.734611
O O7 0.570723 0.887623 0.847992
O O8 0.799593 0.935099 0.148927
O O9 0.063764 0.100914 0.334974
O O10 0.719447 0.558462 0.675191
O O11 0.949031 0.384765 0.825968
O O12 0.000000 0.500000 0.000000
O O13 0.812789 0.750000 0.101576
O O14 0.219471 0.250000 0.338299
#
# Coordination Sequence:
#
# PCOD8072158 Si02
#       6
#     4   4   4   4   4   4
#     4  10  19  34  61  89 117 155 199 238 292 355
#     4  11  22  40  60  86 116 161 196 241 294 348
#     4  10  23  40  59  84 124 150 199 249 289 341
#     4   9  16  35  58  88 117 149 193 241 290 346
#     4  11  22  38  62  87 117 155 194 240 297 347
#     4   9  18  34  59  86 115 154 192 236 289 346
#
# _framework density 21.916391999999998
#
# number of rings (size 3 to 8) (size 9 to 14) (size 15 to 20)
#    0.000    2.000    5.000    1.000    0.000    3.333 
#    0.000    6.667    0.000    2.000    0.000    0.000 
#    0.000    0.000    0.000    0.000    0.000    0.000 
#
# Total GULP energy -297528.250737 kJ/mol
# GULP energy per Si atom -12397.010447 kJ/mol
# Density = 2.186651 g / cm^3
# Si number density = 21.916392 Si / 1000 Ang^3
#
#
#
# Elastic Constant Matrix: (Units=GPa)
#
#
# Indices 1 2 3 4 5 6 
#
# 1 108.4662 42.3969 6.4031 0.0000 -13.7034 0.0000
# 2 42.3969 130.4990 7.3179 0.0000 -5.2187 0.0000
# 3 6.4031 7.3179 28.6951 0.0000 -1.9848 0.0000
# 4 0.0000 0.0000 0.0000 16.3212 0.0000 1.6383
# 5 -13.7034 -5.2187 -1.9848 0.0000 28.5740 0.0000
# 6 0.0000 0.0000 0.0000 1.6383 0.0000 21.8955
#
#
#
# Elastic Compliance Matrix: (Units=1/GPa)
#
#
# Indices 1 2 3 4 5 6 
#
# 1 0.011208 -0.003381 -0.001316 0.000000 0.004666 0.000000
# 2 -0.003381 0.008841 -0.001508 0.000000 -0.000111 0.000000
# 3 -0.001316 -0.001508 0.035636 0.000000 0.001569 0.000000
# 4 0.000000 0.000000 0.000000 0.061734 0.000000 -0.004619
# 5 0.004666 -0.000111 0.001569 0.000000 0.037323 0.000000
# 6 0.000000 0.000000 0.000000 -0.004619 0.000000 0.046017
#
#
# Mechanical properties :
#
#
# Convention : Reuss Voigt Hill
#
# Bulk Modulus (GPa) = 23.10777 42.21069 32.65923
# Shear Modulus (GPa) = 21.96885 27.46097 24.71491
#
# Velocity S-wave (km/s) = 3.16949 3.54360 3.36175
# Velocity P-wave (km/s) = 4.89497 6.00370 5.47746
#
# Compressibility (1/GPa) = 0.04327549
#
# Stress axis : x y z
#
# Youngs Moduli (GPa) = 89.22021 113.10402 28.06154
#
# Poissons Ratio (x) = 0.38240 0.03693
# Poissons Ratio (y) = 0.30165 0.04232
# Poissons Ratio (z) = 0.11742 0.17056
#
# Static dielectric constant tensor:
#      x y z
#    x 4.460430 0.000000 -0.048700 
#    y 0.000000 5.312550 0.000000 
#    z -0.048700 0.000000 3.899530 
# 
# 
# High freq. dielectric constant tensor:
#      x y z
#    x 1.859360 0.000000 -0.013210 
#    y 0.000000 1.846510 0.000000 
#    z -0.013210 0.000000 1.856670 
# 
# From -- ./inp_files/50440.got.cif
#   From: 2010.06.25/outbox.cif.g09.slc.cpg/sg11_26_cif.got.tgz:50440.got - 2010.06.27 23:14:04.
