data_PCOD8072554
_publ_section_title
;
Structure prediction by ZEFSAII (Michael W. Deem and Ramdas Pophale) SiO2 
 PCOD8072554
Probable space group: P 21/M
;
_chemical_formula_sum "Si O2"
_cell_formula_units_Z 32
_cell_length_a 22.635664
_cell_length_b 8.966595
_cell_length_c 15.158267
_cell_angle_alpha 90.000000
_cell_angle_beta 148.324008
_cell_angle_gamma 90.000000
_cell_volume 1615.566546
_symmetry_space_group_name_H-M "P 21/M"
_symmetry_group_IT_number 11
_symmetry_cell_setting 'monoclinic'
loop_
_space_group_symop_operation_xyz
x,y,z
-x,1/2+y,-z
-x,-y,-z
x,1/2-y,z
loop_
_atom_site_type_symbol
_atom_site_label
_atom_site_fract_x
_atom_site_fract_y
_atom_site_fract_z
Si Si1 0.230258 0.073986 0.628527
Si Si2 0.345332 0.072926 0.950180
Si Si3 0.378790 0.425240 0.343363
Si Si4 0.991898 0.073239 0.253525
Si Si5 0.298781 0.582380 0.409606
Si Si6 0.236616 0.072974 0.992620
Si Si7 0.049365 0.578052 0.147055
Si Si8 0.404306 0.922860 0.722539
O O1 0.241520 0.250000 0.639833
O O2 0.267963 0.012047 0.772124
O O3 0.101953 0.024201 0.448776
O O4 0.310245 0.013262 0.654208
O O5 0.345904 0.250000 0.953719
O O6 0.299625 0.014053 0.985380
O O7 0.472451 0.016134 0.095032
O O8 0.500000 0.500000 0.500000
O O9 0.396925 0.250000 0.363692
O O10 0.309039 0.468578 0.341884
O O11 0.309021 0.478827 0.169301
O O12 0.981046 0.250000 0.232814
O O13 0.883886 0.005775 0.163915
O O14 0.997857 0.006411 0.164068
O O15 0.308489 0.750000 0.383446
O O16 0.183021 0.560539 0.314921
O O17 0.394271 0.553269 0.604151
O O18 0.218865 0.250000 0.970302
O O19 0.011626 0.750000 0.102916
O O20 0.000000 0.500000 0.000000
O O21 0.388552 0.750000 0.726829
#
# Coordination Sequence:
#
# PCOD8072554 Si02
#       8
#     4   4   4   4   4   4   4   4
#     4  10  21  37  58  87 120 153 191 241 299 350
#     4   9  19  37  61  85 113 152 196 245 299 353
#     4  11  23  38  59  86 116 153 194 239 289 346
#     4  11  23  38  57  84 122 157 193 243 294 348
#     4  10  21  36  56  83 114 149 190 235 284 343
#     4  10  22  41  62  83 113 156 204 245 291 350
#     4  11  22  37  58  84 114 150 193 237 287 344
#     4  10  19  36  61  87 116 150 192 240 295 358
#
# _framework density 19.807293000000001
#
# number of rings (size 3 to 8) (size 9 to 14) (size 15 to 20)
#    0.000    1.750    1.250    3.000    0.000    7.500 
#    0.000    1.250    0.000    0.000    0.000    0.000 
#    0.000    0.000    0.000    0.000    0.000    0.000 
#
# Total GULP energy -396890.083856 kJ/mol
# GULP energy per Si atom -12402.815121 kJ/mol
# Density = 1.976221 g / cm^3
# Si number density = 19.807293 Si / 1000 Ang^3
#
#
#
# Elastic Constant Matrix: (Units=GPa)
#
#
# Indices 1 2 3 4 5 6 
#
# 1 100.7447 26.6385 49.6931 0.0000 3.1984 0.0000
# 2 26.6385 39.8413 40.0178 0.0000 5.0515 0.0000
# 3 49.6931 40.0178 146.6606 0.0000 2.4256 0.0000
# 4 0.0000 0.0000 0.0000 26.0594 0.0000 3.9132
# 5 3.1984 5.0515 2.4256 0.0000 35.2095 0.0000
# 6 0.0000 0.0000 0.0000 3.9132 0.0000 32.4189
#
#
#
# Elastic Compliance Matrix: (Units=1/GPa)
#
#
# Indices 1 2 3 4 5 6 
#
# 1 0.012823 -0.005777 -0.002766 0.000000 -0.000145 0.000000
# 2 -0.005777 0.037846 -0.008298 0.000000 -0.004333 0.000000
# 3 -0.002766 -0.008298 0.010007 0.000000 0.000752 0.000000
# 4 0.000000 0.000000 0.000000 0.039082 0.000000 -0.004718
# 5 -0.000145 -0.004333 0.000752 0.000000 0.028985 0.000000
# 6 0.000000 0.000000 0.000000 -0.004718 0.000000 0.031416
#
#
# Mechanical properties :
#
#
# Convention : Reuss Voigt Hill
#
# Bulk Modulus (GPa) = 37.04386 57.77172 47.40779
# Shear Modulus (GPa) = 24.65036 30.13071 27.39053
#
# Velocity S-wave (km/s) = 3.53159 3.90448 3.72270
# Velocity P-wave (km/s) = 5.94745 7.03966 6.51648
#
# Compressibility (1/GPa) = 0.02699503
#
# Stress axis : x y z
#
# Youngs Moduli (GPa) = 77.98787 26.42308 99.92678
#
# Poissons Ratio (x) = 0.15264 0.27640
# Poissons Ratio (y) = 0.45050 0.82915
# Poissons Ratio (z) = 0.21572 0.21925
#
# Static dielectric constant tensor:
#      x y z
#    x 3.659630 0.000000 0.058280 
#    y 0.000000 3.577090 0.000000 
#    z 0.058280 0.000000 4.042100 
# 
# 
# High freq. dielectric constant tensor:
#      x y z
#    x 1.775930 0.000000 0.000780 
#    y 0.000000 1.755380 0.000000 
#    z 0.000780 0.000000 1.790330 
# 
# From -- ./inp_files/55680.got.cif
#   From: 2010.06.25/outbox.cif.g09.slc.cpg/sg11_28_cif.got.tgz:55680.got - 2010.06.27 23:14:04.
