data_PCOD8072113
_publ_section_title
;
Structure prediction by ZEFSAII (Michael W. Deem and Ramdas Pophale) SiO2 
 PCOD8072113
Probable space group: P 21/M
;
_chemical_formula_sum "Si O2"
_cell_formula_units_Z 32
_cell_length_a 9.338614
_cell_length_b 19.359226
_cell_length_c 13.085006
_cell_angle_alpha 90.000000
_cell_angle_beta 132.251172
_cell_angle_gamma 90.000000
_cell_volume 1751.039680
_symmetry_space_group_name_H-M "P 21/M"
_symmetry_group_IT_number 11
_symmetry_cell_setting 'monoclinic'
loop_
_space_group_symop_operation_xyz
x,y,z
-x,1/2+y,-z
-x,-y,-z
x,1/2-y,z
loop_
_atom_site_type_symbol
_atom_site_label
_atom_site_fract_x
_atom_site_fract_y
_atom_site_fract_z
Si Si1 0.232664 0.517955 0.506818
Si Si2 0.102293 0.392401 0.578114
Si Si3 0.363462 0.535458 0.019071
Si Si4 0.065732 0.446258 0.235306
Si Si5 0.418052 0.328945 0.875319
Si Si6 0.501665 0.172444 0.138532
Si Si7 0.621178 0.943463 0.779076
Si Si8 0.067808 0.671203 0.694707
O O1 0.209230 0.458126 0.580275
O O2 0.188080 0.492337 0.372037
O O3 0.451528 0.545365 0.614998
O O4 0.093636 0.582312 0.462965
O O5 0.232512 0.354346 0.724265
O O6 0.050084 0.336554 0.466838
O O7 0.405222 0.617230 0.056073
O O8 0.396908 0.501904 0.144642
O O9 0.500000 0.500000 0.000000
O O10 0.144963 0.520667 0.880111
O O11 0.173608 0.444712 0.179001
O O12 0.042237 0.369403 0.268723
O O13 0.477051 0.250000 0.871632
O O14 0.369717 0.330097 0.973180
O O15 0.528244 0.250000 0.191995
O O16 0.397441 0.130961 0.177495
O O17 0.714702 0.140868 0.215283
O O18 0.076441 0.750000 0.733902
#
# Coordination Sequence:
#
# PCOD8072113 Si02
#       8
#     4   4   4   4   4   4   4   4
#     4  10  21  35  57  86 115 152 189 242 287 353
#     4  10  19  34  58  88 112 144 197 238 290 332
#     4  12  22  39  61  86 115 151 196 246 290 347
#     4  11  24  36  56  87 116 153 189 240 300 350
#     4  11  21  35  59  88 115 148 194 249 293 338
#     4  10  21  37  59  85 112 150 196 242 291 345
#     4  12  22  39  58  83 121 151 190 240 300 355
#     4  10  19  36  58  81 110 148 196 237 280 345
#
# _framework density 18.274857000000001
#
# number of rings (size 3 to 8) (size 9 to 14) (size 15 to 20)
#    0.000    1.250    5.000    1.875    1.750    0.500 
#    0.000    0.000    0.000    0.000    0.000    0.000 
#    0.000    0.000    0.000    0.000    0.000    0.000 
#
# Total GULP energy -396813.588584 kJ/mol
# GULP energy per Si atom -12400.424643 kJ/mol
# Density = 1.823326 g / cm^3
# Si number density = 18.274857 Si / 1000 Ang^3
#
#
#
# Elastic Constant Matrix: (Units=GPa)
#
#
# Indices 1 2 3 4 5 6 
#
# 1 120.8467 40.8858 41.8299 0.0000 -3.8277 0.0000
# 2 40.8858 97.0397 33.7829 0.0000 -3.0176 0.0000
# 3 41.8299 33.7829 125.2122 0.0000 7.3911 0.0000
# 4 0.0000 0.0000 0.0000 27.6512 0.0000 3.0608
# 5 -3.8277 -3.0176 7.3911 0.0000 23.2158 0.0000
# 6 0.0000 0.0000 0.0000 3.0608 0.0000 16.1620
#
#
#
# Elastic Compliance Matrix: (Units=1/GPa)
#
#
# Indices 1 2 3 4 5 6 
#
# 1 0.010421 -0.003386 -0.002694 0.000000 0.002135 0.000000
# 2 -0.003386 0.012618 -0.002382 0.000000 0.001840 0.000000
# 3 -0.002694 -0.002382 0.009757 0.000000 -0.003860 0.000000
# 4 0.000000 0.000000 0.000000 0.036939 0.000000 -0.006996
# 5 0.002135 0.001840 -0.003860 0.000000 0.044894 0.000000
# 6 0.000000 0.000000 0.000000 -0.006996 0.000000 0.063199
#
#
# Mechanical properties :
#
#
# Convention : Reuss Voigt Hill
#
# Bulk Modulus (GPa) = 63.00380 64.01063 63.50721
# Shear Modulus (GPa) = 24.99476 28.51247 26.75361
#
# Velocity S-wave (km/s) = 3.70227 3.95422 3.83032
# Velocity P-wave (km/s) = 7.26817 7.48001 7.37485
#
# Compressibility (1/GPa) = 0.01587206
#
# Stress axis : x y z
#
# Youngs Moduli (GPa) = 95.96301 79.25029 102.49290
#
# Poissons Ratio (x) = 0.26837 0.27608
# Poissons Ratio (y) = 0.32497 0.24412
# Poissons Ratio (z) = 0.25849 0.18876
#
# Static dielectric constant tensor:
#      x y z
#    x 3.076270 0.000000 0.057440 
#    y 0.000000 3.417000 0.000000 
#    z 0.057440 0.000000 3.546730 
# 
# 
# High freq. dielectric constant tensor:
#      x y z
#    x 1.676070 0.000000 0.002220 
#    y 0.000000 1.709660 0.000000 
#    z 0.002220 0.000000 1.728730 
# 
# From -- ./inp_files/19365.got.cif
#   From: 2010.06.25/outbox.cif.g09.slc.cpg/sg11_10_cif.got.tgz:19365.got - 2010.06.27 23:14:04.
