data_PCOD8072700
_publ_section_title
;
Structure prediction by ZEFSAII (Michael W. Deem and Ramdas Pophale) SiO2 
 PCOD8072700
Probable space group: P 21/M
;
_chemical_formula_sum "Si O2"
_cell_formula_units_Z 24
_cell_length_a 9.530457
_cell_length_b 14.162087
_cell_length_c 8.993774
_cell_angle_alpha 90.000000
_cell_angle_beta 100.023016
_cell_angle_gamma 90.000000
_cell_volume 1195.373477
_symmetry_space_group_name_H-M "P 21/M"
_symmetry_group_IT_number 11
_symmetry_cell_setting 'monoclinic'
loop_
_space_group_symop_operation_xyz
x,y,z
-x,1/2+y,-z
-x,-y,-z
x,1/2-y,z
loop_
_atom_site_type_symbol
_atom_site_label
_atom_site_fract_x
_atom_site_fract_y
_atom_site_fract_z
Si Si1 0.812876 0.353604 0.327132
Si Si2 0.458254 0.521801 0.661106
Si Si3 0.303224 0.359168 0.130745
Si Si4 0.000164 0.409025 0.602763
Si Si5 0.304229 0.142628 0.783535
Si Si6 0.968965 0.540930 0.836022
O O1 0.769733 0.250000 0.257462
O O2 0.677191 0.410620 0.357687
O O3 0.910952 0.333682 0.491406
O O4 0.890091 0.412443 0.210627
O O5 0.500000 0.500000 0.500000
O O6 0.582474 0.572881 0.773899
O O7 0.425447 0.422641 0.734821
O O8 0.343290 0.250000 0.165536
O O9 0.153257 0.380068 0.183345
O O10 0.287143 0.382921 0.953753
O O11 0.000000 0.500000 0.500000
O O12 0.155774 0.369518 0.669352
O O13 0.921954 0.446530 0.737046
O O14 0.356099 0.250000 0.774449
O O15 0.000000 0.500000 0.000000
#
# Coordination Sequence:
#
# PCOD8072700 Si02
#       6
#     4   4   4   4   4   4
#     4  11  23  40  64  93 130 170 215 265 320 384
#     4  12  25  44  64  93 131 173 218 269 322 386
#     4  11  24  41  66  98 132 170 214 262 326 395
#     4  10  19  38  63  92 125 167 207 265 323 374
#     4  11  23  42  66  93 128 172 219 268 327 388
#     4  11  20  39  66  95 129 164 209 265 323 380
#
# _framework density 20.077406
#
# number of rings (size 3 to 8) (size 9 to 14) (size 15 to 20)
#    0.000    1.000    5.000    3.000    2.333    1.333 
#    0.000    0.000    0.000    1.000    0.000    0.000 
#    0.000    0.000    0.000    0.000    0.000    0.000 
#
# Total GULP energy -297471.582700 kJ/mol
# GULP energy per Si atom -12394.649279 kJ/mol
# Density = 2.003171 g / cm^3
# Si number density = 20.077406 Si / 1000 Ang^3
#
#
#
# Elastic Constant Matrix: (Units=GPa)
#
#
# Indices 1 2 3 4 5 6 
#
# 1 118.5693 51.0685 53.5623 0.0000 -6.0847 0.0000
# 2 51.0685 123.2523 46.8391 0.0000 -9.2025 0.0000
# 3 53.5623 46.8391 125.5571 0.0000 -4.5597 0.0000
# 4 0.0000 0.0000 0.0000 27.6085 0.0000 1.2399
# 5 -6.0847 -9.2025 -4.5597 0.0000 39.4993 0.0000
# 6 0.0000 0.0000 0.0000 1.2399 0.0000 24.5048
#
#
#
# Elastic Compliance Matrix: (Units=1/GPa)
#
#
# Indices 1 2 3 4 5 6 
#
# 1 0.011562 -0.003357 -0.003659 0.000000 0.000577 0.000000
# 2 -0.003357 0.010558 -0.002446 0.000000 0.001660 0.000000
# 3 -0.003659 -0.002446 0.010441 0.000000 0.000072 0.000000
# 4 0.000000 0.000000 0.000000 0.036303 0.000000 -0.001837
# 5 0.000577 0.001660 0.000072 0.000000 0.025801 0.000000
# 6 0.000000 0.000000 0.000000 -0.001837 0.000000 0.040901
#
#
# Mechanical properties :
#
#
# Convention : Reuss Voigt Hill
#
# Bulk Modulus (GPa) = 73.33526 74.47983 73.90754
# Shear Modulus (GPa) = 31.43926 32.71645 32.07785
#
# Velocity S-wave (km/s) = 3.96144 4.04111 4.00147
# Velocity P-wave (km/s) = 7.58483 7.67795 7.63153
#
# Compressibility (1/GPa) = 0.01363601
#
# Stress axis : x y z
#
# Youngs Moduli (GPa) = 86.48722 94.71452 95.77927
#
# Poissons Ratio (x) = 0.31797 0.35047
# Poissons Ratio (y) = 0.29035 0.23430
# Poissons Ratio (z) = 0.31647 0.23169
#
# Static dielectric constant tensor:
#      x y z
#    x 3.726470 0.000000 0.072380 
#    y 0.000000 3.930330 0.000000 
#    z 0.072380 0.000000 4.678920 
# 
# 
# High freq. dielectric constant tensor:
#      x y z
#    x 1.773280 0.000000 0.002460 
#    y 0.000000 1.796070 0.000000 
#    z 0.002460 0.000000 1.797810 
# 
# From -- ./inp_files/12539.got.cif
#   From: 2010.06.25/outbox.cif.g09.slc.cpg/sg11_7_cif.got.tgz:12539.got - 2010.06.27 23:14:04.
