data_PCOD8072820
_publ_section_title
;
Structure prediction by ZEFSAII (Michael W. Deem and Ramdas Pophale) SiO2 
 PCOD8072820
Probable space group: P 21/M
;
_chemical_formula_sum "Si O2"
_cell_formula_units_Z 32
_cell_length_a 9.129718
_cell_length_b 19.486146
_cell_length_c 13.671461
_cell_angle_alpha 90.000000
_cell_angle_beta 48.102956
_cell_angle_gamma 90.000000
_cell_volume 1810.394002
_symmetry_space_group_name_H-M "P 21/M"
_symmetry_group_IT_number 11
_symmetry_cell_setting 'monoclinic'
loop_
_space_group_symop_operation_xyz
x,y,z
-x,1/2+y,-z
-x,-y,-z
x,1/2-y,z
loop_
_atom_site_type_symbol
_atom_site_label
_atom_site_fract_x
_atom_site_fract_y
_atom_site_fract_z
Si Si1 0.714443 0.076093 0.363524
Si Si2 0.293127 0.418496 0.628335
Si Si3 0.576802 0.169560 0.840906
Si Si4 0.059410 0.825945 0.864530
Si Si5 0.711530 0.825945 0.864530
Si Si6 0.758615 0.669560 0.159093
Si Si7 0.058510 0.076093 0.363523
Si Si8 0.950204 0.081504 0.628334
O O1 0.505591 0.103758 0.493723
O O2 0.775120 0.119357 0.240431
O O3 0.867048 0.087534 0.382952
O O4 0.702464 0.996974 0.336832
O O5 0.231988 0.371237 0.744981
O O6 0.139923 0.407671 0.610078
O O7 0.620452 0.250000 0.812096
O O8 0.429937 0.145856 0.820063
O O9 0.778051 0.128763 0.744980
O O10 0.483533 0.152650 0.988691
O O11 0.155210 0.750000 0.829992
O O12 0.888901 0.823728 0.861099
O O13 0.960916 0.847350 0.011308
O O14 0.684807 0.750000 0.829992
O O15 0.755981 0.880643 0.759570
O O16 0.744644 0.750000 0.187905
O O17 0.006966 0.103758 0.493721
O O18 0.123873 0.996974 0.336832
#
# Coordination Sequence:
#
# PCOD8072820 Si02
#       8
#     4   4   4   4   4   4   4   4
#     4   9  18  33  51  71  97 129 164 200 238 283
#     4  10  20  32  47  71 102 131 159 196 241 287
#     4   9  18  33  52  72  94 123 160 200 241 287
#     4   8  15  30  52  74  93 118 159 205 240 278
#     4   8  15  30  52  74  93 118 159 205 240 278
#     4   9  18  33  52  72  94 123 160 200 241 287
#     4   9  18  33  51  71  97 129 164 200 238 283
#     4  10  20  32  47  71 102 131 159 196 241 287
#
# _framework density 17.675709999999999
#
# number of rings (size 3 to 8) (size 9 to 14) (size 15 to 20)
#    0.000    3.000    0.000    2.250    0.000    3.500 
#    0.000    3.750    0.000    1.500    0.000    0.000 
#    0.000    0.000    0.000    0.000    0.000    0.000 
#
# Total GULP energy -396766.508849 kJ/mol
# GULP energy per Si atom -12398.953402 kJ/mol
# Density = 1.763548 g / cm^3
# Si number density = 17.675710 Si / 1000 Ang^3
#
#
#
# Elastic Constant Matrix: (Units=GPa)
#
#
# Indices 1 2 3 4 5 6 
#
# 1 39.6580 28.6062 40.3485 0.0000 -2.9875 0.0000
# 2 28.6062 72.6154 76.8102 0.0000 -3.2398 0.0000
# 3 40.3485 76.8102 151.1863 0.0000 -4.5093 0.0000
# 4 0.0000 0.0000 0.0000 34.5836 0.0000 -0.7053
# 5 -2.9875 -3.2398 -4.5093 0.0000 21.9781 0.0000
# 6 0.0000 0.0000 0.0000 -0.7053 0.0000 24.0988
#
#
#
# Elastic Compliance Matrix: (Units=1/GPa)
#
#
# Indices 1 2 3 4 5 6 
#
# 1 0.037282 -0.008923 -0.005337 0.000000 0.002657 0.000000
# 2 -0.008923 0.031941 -0.013827 0.000000 0.000659 0.000000
# 3 -0.005337 -0.013827 0.015073 0.000000 0.000329 0.000000
# 4 0.000000 0.000000 0.000000 0.028933 0.000000 0.000847
# 5 0.002657 0.000659 0.000329 0.000000 0.046026 0.000000
# 6 0.000000 0.000000 0.000000 0.000847 0.000000 0.041521
#
#
# Mechanical properties :
#
#
# Convention : Reuss Voigt Hill
#
# Bulk Modulus (GPa) = 35.55824 61.66549 48.61187
# Shear Modulus (GPa) = 18.77417 23.97845 21.37631
#
# Velocity S-wave (km/s) = 3.26259 3.68717 3.48136
# Velocity P-wave (km/s) = 5.86117 7.28628 6.61223
#
# Compressibility (1/GPa) = 0.02812288
#
# Stress axis : x y z
#
# Youngs Moduli (GPa) = 26.82240 31.30771 66.34265
#
# Poissons Ratio (x) = 0.27935 0.35410
# Poissons Ratio (y) = 0.23933 0.91730
# Poissons Ratio (z) = 0.14316 0.43288
#
# Static dielectric constant tensor:
#      x y z
#    x 3.001720 0.000000 -0.032290 
#    y 0.000000 3.398850 0.000000 
#    z -0.032290 0.000000 3.482030 
# 
# 
# High freq. dielectric constant tensor:
#      x y z
#    x 1.657490 0.000000 -0.002360 
#    y 0.000000 1.681330 0.000000 
#    z -0.002360 0.000000 1.692620 
# 
# From -- ./inp_files/32800.got.cif
#   From: 2010.06.25/outbox.cif.g09.slc.cpg/sg11_17_cif.got.tgz:32800.got - 2010.06.27 23:14:04.
