data_PCOD8072432
_publ_section_title
;
Structure prediction by ZEFSAII (Michael W. Deem and Ramdas Pophale) SiO2 
 PCOD8072432
Probable space group: P 21/M
;
_chemical_formula_sum "Si O2"
_cell_formula_units_Z 24
_cell_length_a 11.097439
_cell_length_b 16.082601
_cell_length_c 18.643854
_cell_angle_alpha 90.000000
_cell_angle_beta 158.615501
_cell_angle_gamma 90.000000
_cell_volume 1213.280022
_symmetry_space_group_name_H-M "P 21/M"
_symmetry_group_IT_number 11
_symmetry_cell_setting 'monoclinic'
loop_
_space_group_symop_operation_xyz
x,y,z
-x,1/2+y,-z
-x,-y,-z
x,1/2-y,z
loop_
_atom_site_type_symbol
_atom_site_label
_atom_site_fract_x
_atom_site_fract_y
_atom_site_fract_z
Si Si1 0.836957 0.015573 0.333909
Si Si2 0.739384 0.027928 0.069489
Si Si3 0.533072 0.053392 0.372519
Si Si4 0.704726 0.653984 0.623847
Si Si5 0.836807 0.092890 0.775943
Si Si6 0.526639 0.844285 0.806311
O O1 0.714222 0.112167 0.267981
O O2 0.000000 0.000000 0.500000
O O3 0.105182 0.991494 0.421744
O O4 0.502623 0.961541 0.134501
O O5 0.935928 0.113333 0.192416
O O6 0.001183 0.954376 0.201900
O O7 0.500000 0.000000 0.000000
O O8 0.477296 0.111790 0.409808
O O9 0.498869 0.108060 0.282833
O O10 0.273044 0.977604 0.227727
O O11 0.765083 0.750000 0.674618
O O12 0.474344 0.644663 0.426115
O O13 0.094162 0.154337 0.956895
O O14 0.409206 0.750000 0.731387
#
# Coordination Sequence:
#
# PCOD8072432 Si02
#       6
#     4   4   4   4   4   4
#     4   9  19  35  56  78 106 148 185 214 265 334
#     4  10  19  36  56  76 107 146 182 215 268 336
#     4  10  19  37  59  79 108 150 186 218 273 340
#     4  11  22  36  56  86 113 139 183 237 276 315
#     4  10  20  35  57  80 109 148 185 219 275 341
#     4  10  20  35  55  83 112 141 183 237 277 314
#
# _framework density 19.781089000000001
#
# number of rings (size 3 to 8) (size 9 to 14) (size 15 to 20)
#    0.000    2.000    0.000    5.500    0.000    1.333 
#    0.000   15.000    0.000    0.000    0.000    0.000 
#    0.000    0.000    0.000    0.000    0.000    0.000 
#
# Total GULP energy -297410.794794 kJ/mol
# GULP energy per Si atom -12392.116450 kJ/mol
# Density = 1.973607 g / cm^3
# Si number density = 19.781089 Si / 1000 Ang^3
#
#
#
# Elastic Constant Matrix: (Units=GPa)
#
#
# Indices 1 2 3 4 5 6 
#
# 1 77.8833 54.8085 41.3985 0.0000 16.9627 0.0000
# 2 54.8085 130.7177 56.6795 0.0000 14.0794 0.0000
# 3 41.3985 56.6795 133.0860 0.0000 3.8361 0.0000
# 4 0.0000 0.0000 0.0000 25.5166 0.0000 -0.4732
# 5 16.9627 14.0794 3.8361 0.0000 35.4162 0.0000
# 6 0.0000 0.0000 0.0000 -0.4732 0.0000 25.9900
#
#
#
# Elastic Compliance Matrix: (Units=1/GPa)
#
#
# Indices 1 2 3 4 5 6 
#
# 1 0.020756 -0.006422 -0.003519 0.000000 -0.007007 0.000000
# 2 -0.006422 0.011773 -0.002979 0.000000 -0.001282 0.000000
# 3 -0.003519 -0.002979 0.009825 0.000000 0.001806 0.000000
# 4 0.000000 0.000000 0.000000 0.039203 0.000000 0.000714
# 5 -0.007007 -0.001282 0.001806 0.000000 0.031905 0.000000
# 6 0.000000 0.000000 0.000000 0.000714 0.000000 0.038489
#
#
# Mechanical properties :
#
#
# Convention : Reuss Voigt Hill
#
# Bulk Modulus (GPa) = 60.55948 71.94000 66.24974
# Shear Modulus (GPa) = 27.27807 29.97126 28.62467
#
# Velocity S-wave (km/s) = 3.71751 3.89671 3.80817
# Velocity P-wave (km/s) = 7.00770 7.52946 7.27326
#
# Compressibility (1/GPa) = 0.01651269
#
# Stress axis : x y z
#
# Youngs Moduli (GPa) = 48.17929 84.94347 101.77640
#
# Poissons Ratio (x) = 0.54550 0.35820
# Poissons Ratio (y) = 0.30940 0.30321
# Poissons Ratio (z) = 0.16956 0.25306
#
# Static dielectric constant tensor:
#      x y z
#    x 3.690880 0.000000 0.166300 
#    y 0.000000 3.438910 0.000000 
#    z 0.166300 0.000000 4.115910 
# 
# 
# High freq. dielectric constant tensor:
#      x y z
#    x 1.768290 0.000000 -0.001880 
#    y 0.000000 1.746720 0.000000 
#    z -0.001880 0.000000 1.791350 
# 
# From -- ./inp_files/47519.got.cif
#   From: 2010.06.25/outbox.cif.g09.slc.cpg/sg11_24_cif.got.tgz:47519.got - 2010.06.27 23:14:04.
