data_PCOD8072752
_publ_section_title
;
Structure prediction by ZEFSAII (Michael W. Deem and Ramdas Pophale) SiO2 
 PCOD8072752
Probable space group: P 21/M
;
_chemical_formula_sum "Si O2"
_cell_formula_units_Z 32
_cell_length_a 30.422425
_cell_length_b 9.220618
_cell_length_c 15.737817
_cell_angle_alpha 90.000000
_cell_angle_beta 29.395524
_cell_angle_gamma 90.000000
_cell_volume 2166.878128
_symmetry_space_group_name_H-M "P 21/M"
_symmetry_group_IT_number 11
_symmetry_cell_setting 'monoclinic'
loop_
_space_group_symop_operation_xyz
x,y,z
-x,1/2+y,-z
-x,-y,-z
x,1/2-y,z
loop_
_atom_site_type_symbol
_atom_site_label
_atom_site_fract_x
_atom_site_fract_y
_atom_site_fract_z
Si Si1 0.160870 0.581109 0.851051
Si Si2 0.531420 0.419356 0.073451
Si Si3 0.490922 0.414679 0.718745
Si Si4 0.586685 0.583323 0.323666
Si Si5 0.997037 0.416677 0.092611
Si Si6 0.200589 0.585321 0.589744
Si Si7 0.672791 0.081108 0.315288
Si Si8 0.636291 0.580644 0.758837
O O1 0.138341 0.750000 0.896859
O O2 0.191166 0.542657 0.704489
O O3 0.238875 0.533049 0.783376
O O4 0.071164 0.491930 0.028443
O O5 0.553056 0.250000 0.036346
O O6 0.532098 0.475457 0.168017
O O7 0.435199 0.454051 0.194405
O O8 0.609184 0.499999 0.890815
O O9 0.495212 0.250000 0.746550
O O10 0.411656 0.428717 0.781723
O O11 0.586821 0.457344 0.517524
O O12 0.500000 0.500000 0.500000
O O13 0.580724 0.750000 0.362160
O O14 0.670771 0.508070 0.229622
O O15 0.023608 0.250000 0.033508
O O16 0.894964 0.428716 0.298416
O O17 0.000000 0.500000 0.000000
O O18 0.236975 0.750000 0.521262
O O19 0.267787 0.475455 0.432330
O O20 0.673540 0.250000 0.291262
O O21 0.642457 0.750000 0.768141
#
# Coordination Sequence:
#
# PCOD8072752 Si02
#       8
#     4   4   4   4   4   4   4   4
#     4   9  17  28  42  61  85 112 140 171 207 244
#     4  10  20  31  43  60  81 106 137 172 207 242
#     4   9  17  29  43  58  80 110 140 170 205 242
#     4   9  17  28  41  58  81 109 139 171 206 243
#     4   9  17  28  41  58  81 109 139 171 206 243
#     4   9  17  29  43  58  80 110 140 170 205 242
#     4   9  17  28  42  61  85 112 140 171 207 244
#     4  10  20  31  43  60  81 106 137 172 207 242
#
# _framework density 14.76779
#
# number of rings (size 3 to 8) (size 9 to 14) (size 15 to 20)
#    0.000    2.750    0.000    3.750    0.000    8.000 
#    0.000    0.000    0.000    0.000    0.000    0.000 
#    0.000    1.000    0.000    3.250    0.000    4.750 
#
# Total GULP energy -396664.599404 kJ/mol
# GULP energy per Si atom -12395.768731 kJ/mol
# Density = 1.473418 g / cm^3
# Si number density = 14.767790 Si / 1000 Ang^3
#
#
#
# Elastic Constant Matrix: (Units=GPa)
#
#
# Indices 1 2 3 4 5 6 
#
# 1 102.0424 51.8816 40.6696 0.0000 -11.5060 0.0000
# 2 51.8816 88.5440 43.8264 0.0000 -4.1117 0.0000
# 3 40.6696 43.8264 61.4633 0.0000 -9.2090 0.0000
# 4 0.0000 0.0000 0.0000 26.3810 0.0000 -0.9666
# 5 -11.5060 -4.1117 -9.2090 0.0000 20.5897 0.0000
# 6 0.0000 0.0000 0.0000 -0.9666 0.0000 28.2745
#
#
#
# Elastic Compliance Matrix: (Units=1/GPa)
#
#
# Indices 1 2 3 4 5 6 
#
# 1 0.015661 -0.006479 -0.004957 0.000000 0.005241 0.000000
# 2 -0.006479 0.020231 -0.010799 0.000000 -0.004411 0.000000
# 3 -0.004957 -0.010799 0.028417 0.000000 0.007783 0.000000
# 4 0.000000 0.000000 0.000000 0.037954 0.000000 0.001297
# 5 0.005241 -0.004411 0.007783 0.000000 0.054097 0.000000
# 6 0.000000 0.000000 0.000000 0.001297 0.000000 0.035412
#
#
# Mechanical properties :
#
#
# Convention : Reuss Voigt Hill
#
# Bulk Modulus (GPa) = 50.41202 58.31163 54.36182
# Shear Modulus (GPa) = 20.58852 22.76050 21.67451
#
# Velocity S-wave (km/s) = 3.73788 3.93010 3.83520
# Velocity P-wave (km/s) = 7.26908 7.75665 7.51682
#
# Compressibility (1/GPa) = 0.01983654
#
# Stress axis : x y z
#
# Youngs Moduli (GPa) = 63.85377 49.42994 35.19080
#
# Poissons Ratio (x) = 0.32027 0.17445
# Poissons Ratio (y) = 0.41372 0.38003
# Poissons Ratio (z) = 0.31655 0.53380
#
# Static dielectric constant tensor:
#      x y z
#    x 3.240260 0.000000 -0.253870 
#    y 0.000000 3.009680 0.000000 
#    z -0.253870 0.000000 2.742970 
# 
# 
# High freq. dielectric constant tensor:
#      x y z
#    x 1.554150 0.000000 -0.013810 
#    y 0.000000 1.579100 0.000000 
#    z -0.013810 0.000000 1.527090 
# 
# From -- ./inp_files/51390.got.cif
#   From: 2010.06.25/outbox.cif.g09.slc.cpg/sg11_26_cif.got.tgz:51390.got - 2010.06.27 23:14:04.
