data_PCOD8072424
_publ_section_title
;
Structure prediction by ZEFSAII (Michael W. Deem and Ramdas Pophale) SiO2 
 PCOD8072424
Probable space group: P 21/M
;
_chemical_formula_sum "Si O2"
_cell_formula_units_Z 32
_cell_length_a 8.648221
_cell_length_b 18.629842
_cell_length_c 14.028358
_cell_angle_alpha 90.000000
_cell_angle_beta 125.131752
_cell_angle_gamma 90.000000
_cell_volume 1848.444122
_symmetry_space_group_name_H-M "P 21/M"
_symmetry_group_IT_number 11
_symmetry_cell_setting 'monoclinic'
loop_
_space_group_symop_operation_xyz
x,y,z
-x,1/2+y,-z
-x,-y,-z
x,1/2-y,z
loop_
_atom_site_type_symbol
_atom_site_label
_atom_site_fract_x
_atom_site_fract_y
_atom_site_fract_z
Si Si1 0.513031 0.548894 0.809529
Si Si2 0.835818 0.332522 0.846291
Si Si3 0.859700 0.445019 0.209012
Si Si4 0.108953 0.043168 0.954548
Si Si5 0.678257 0.834108 0.747460
Si Si6 0.429331 0.557650 0.340557
Si Si7 0.889747 0.170437 0.076223
Si Si8 0.731954 0.567231 0.595819
O O1 0.307889 0.534746 0.780005
O O2 0.529360 0.626642 0.764552
O O3 0.549460 0.485632 0.748725
O O4 0.668390 0.544268 0.947417
O O5 0.869024 0.250000 0.825661
O O6 0.678060 0.368374 0.722953
O O7 0.031239 0.376626 0.911071
O O8 0.775205 0.335047 0.936460
O O9 0.922895 0.506685 0.158670
O O10 0.790447 0.378166 0.120186
O O11 0.042503 0.425742 0.337988
O O12 0.000000 0.000000 0.000000
O O13 0.631582 0.750000 0.728370
O O14 0.655263 0.868060 0.634619
O O15 0.889569 0.852041 0.860993
O O16 0.633344 0.576399 0.458008
O O17 0.313167 0.510937 0.375929
O O18 0.884836 0.250000 0.116476
#
# Coordination Sequence:
#
# PCOD8072424 Si02
#       8
#     4   4   4   4   4   4   4   4
#     4  11  21  30  53  82 111 144 174 216 279 329
#     4  11  20  32  57  81 101 134 178 228 273 312
#     4  11  20  32  51  82 111 144 178 217 272 329
#     4  12  18  35  55  75 109 142 179 225 266 319
#     4   9  17  32  52  76 104 137 178 223 264 312
#     4  10  19  36  53  78 102 137 187 226 262 309
#     4   9  17  31  51  76 106 138 175 218 264 314
#     4   9  19  34  56  75 102 141 185 229 260 306
#
# _framework density 17.311855999999999
#
# number of rings (size 3 to 8) (size 9 to 14) (size 15 to 20)
#    0.000    1.750    5.000    1.125    0.000    1.500 
#    0.000    0.000    0.000    0.750    0.000    0.000 
#    0.000    0.000    0.000    0.000    0.000    0.000 
#
# Total GULP energy -396710.228996 kJ/mol
# GULP energy per Si atom -12397.194656 kJ/mol
# Density = 1.727245 g / cm^3
# Si number density = 17.311856 Si / 1000 Ang^3
#
#
#
# Elastic Constant Matrix: (Units=GPa)
#
#
# Indices 1 2 3 4 5 6 
#
# 1 52.7106 15.5583 15.4283 0.0000 11.6214 0.0000
# 2 15.5583 116.2629 35.5487 0.0000 1.1359 0.0000
# 3 15.4283 35.5487 116.3459 0.0000 13.4184 0.0000
# 4 0.0000 0.0000 0.0000 21.9760 0.0000 4.1131
# 5 11.6214 1.1359 13.4184 0.0000 15.4881 0.0000
# 6 0.0000 0.0000 0.0000 4.1131 0.0000 13.2504
#
#
#
# Elastic Compliance Matrix: (Units=1/GPa)
#
#
# Indices 1 2 3 4 5 6 
#
# 1 0.023742 -0.002932 -0.000248 0.000000 -0.017385 0.000000
# 2 -0.002932 0.009907 -0.003120 0.000000 0.004176 0.000000
# 3 -0.000248 -0.003120 0.010592 0.000000 -0.008762 0.000000
# 4 0.000000 0.000000 0.000000 0.048311 0.000000 -0.014996
# 5 -0.017385 0.004176 -0.008762 0.000000 0.084895 0.000000
# 6 0.000000 0.000000 0.000000 -0.014996 0.000000 0.080124
#
#
# Mechanical properties :
#
#
# Convention : Reuss Voigt Hill
#
# Bulk Modulus (GPa) = 31.60295 46.48778 39.04537
# Shear Modulus (GPa) = 17.81154 24.72851 21.27002
#
# Velocity S-wave (km/s) = 3.21107 3.78354 3.50900
# Velocity P-wave (km/s) = 5.66063 6.78221 6.24664
#
# Compressibility (1/GPa) = 0.03164261
#
# Stress axis : x y z
#
# Youngs Moduli (GPa) = 42.11883 100.94265 94.41423
#
# Poissons Ratio (x) = 0.29593 0.02337
# Poissons Ratio (y) = 0.12348 0.29455
# Poissons Ratio (z) = 0.01043 0.31492
#
# Static dielectric constant tensor:
#      x y z
#    x 2.837320 0.000000 0.029570 
#    y 0.000000 3.295740 0.000000 
#    z 0.029570 0.000000 3.353050 
# 
# 
# High freq. dielectric constant tensor:
#      x y z
#    x 1.628250 0.000000 0.002360 
#    y 0.000000 1.671470 0.000000 
#    z 0.002360 0.000000 1.671860 
# 
# From -- ./inp_files/47931.got.cif
#   From: 2010.06.25/outbox.cif.g09.slc.cpg/sg11_24_cif.got.tgz:47931.got - 2010.06.27 23:14:04.
