data_PCOD8072940
_publ_section_title
;
Structure prediction by ZEFSAII (Michael W. Deem and Ramdas Pophale) SiO2 
 PCOD8072940
Probable space group: P 21/M
;
_chemical_formula_sum "Si O2"
_cell_formula_units_Z 32
_cell_length_a 29.016855
_cell_length_b 9.046748
_cell_length_c 14.464133
_cell_angle_alpha 90.000000
_cell_angle_beta 27.645880
_cell_angle_gamma 90.000000
_cell_volume 1761.807225
_symmetry_space_group_name_H-M "P 21/M"
_symmetry_group_IT_number 11
_symmetry_cell_setting 'monoclinic'
loop_
_space_group_symop_operation_xyz
x,y,z
-x,1/2+y,-z
-x,-y,-z
x,1/2-y,z
loop_
_atom_site_type_symbol
_atom_site_label
_atom_site_fract_x
_atom_site_fract_y
_atom_site_fract_z
Si Si1 0.723982 0.074124 0.666035
Si Si2 0.212892 0.420832 0.117614
Si Si3 0.864479 0.577069 0.548009
Si Si4 0.605001 0.924621 0.329062
Si Si5 0.534242 0.578453 0.031189
Si Si6 0.321721 0.579970 0.456292
Si Si7 0.084566 0.921876 0.200626
Si Si8 0.264821 0.924011 0.753373
O O1 0.717590 0.250000 0.682139
O O2 0.714642 0.010743 0.577050
O O3 0.825729 0.015764 0.529333
O O4 0.633819 0.004680 0.887905
O O5 0.193667 0.250000 0.132216
O O6 0.205374 0.456759 0.239505
O O7 0.124517 0.503667 0.222302
O O8 0.321555 0.467021 0.886645
O O9 0.863895 0.750000 0.523895
O O10 0.975415 0.518838 0.370420
O O11 0.590157 0.750000 0.363791
O O12 0.500000 0.000000 0.500000
O O13 0.651601 0.986427 0.340329
O O14 0.558742 0.750000 0.970701
O O15 0.440012 0.559675 0.266884
O O16 0.500000 0.500000 0.000000
O O17 0.294734 0.750000 0.493932
O O18 0.264824 0.516748 0.647258
O O19 0.079932 0.750000 0.230756
O O20 0.156308 0.957758 0.986846
O O21 0.291004 0.750000 0.712098
#
# Coordination Sequence:
#
# PCOD8072940 Si02
#       8
#     4   4   4   4   4   4   4   4
#     4  10  20  33  48  71  99 130 166 204 241 283
#     4   9  19  34  52  71  97 130 161 192 240 299
#     4  10  20  34  50  72  99 128 159 199 248 293
#     4  10  20  34  50  73 102 131 160 195 236 283
#     4   9  16  29  48  69  94 126 159 195 235 281
#     4   8  16  31  51  71  95 129 165 193 234 291
#     4   9  18  32  53  76  96 120 159 204 244 285
#     4   9  17  33  54  73  95 128 163 198 238 287
#
# _framework density 18.163167000000001
#
# number of rings (size 3 to 8) (size 9 to 14) (size 15 to 20)
#    0.000    2.750    0.000    2.250    0.000    2.500 
#    0.000    9.375    0.000    0.000    0.000    0.000 
#    0.000    0.000    0.000    0.000    0.000    0.000 
#
# Total GULP energy -396621.022913 kJ/mol
# GULP energy per Si atom -12394.406966 kJ/mol
# Density = 1.812183 g / cm^3
# Si number density = 18.163167 Si / 1000 Ang^3
#
#
#
# Elastic Constant Matrix: (Units=GPa)
#
#
# Indices 1 2 3 4 5 6 
#
# 1 102.9649 37.0141 60.5747 0.0000 -5.1433 0.0000
# 2 37.0141 60.4092 35.1693 0.0000 -6.8865 0.0000
# 3 60.5747 35.1693 96.9982 0.0000 -9.8954 0.0000
# 4 0.0000 0.0000 0.0000 23.6554 0.0000 -7.1380
# 5 -5.1433 -6.8865 -9.8954 0.0000 31.9473 0.0000
# 6 0.0000 0.0000 0.0000 -7.1380 0.0000 29.5091
#
#
#
# Elastic Compliance Matrix: (Units=1/GPa)
#
#
# Indices 1 2 3 4 5 6 
#
# 1 0.016600 -0.005320 -0.008552 0.000000 -0.001123 0.000000
# 2 -0.005320 0.022844 -0.004694 0.000000 0.002614 0.000000
# 3 -0.008552 -0.004694 0.017666 0.000000 0.003084 0.000000
# 4 0.000000 0.000000 0.000000 0.045602 0.000000 0.011031
# 5 -0.001123 0.002614 0.003084 0.000000 0.032639 0.000000
# 6 0.000000 0.000000 0.000000 0.011031 0.000000 0.036556
#
#
# Mechanical properties :
#
#
# Convention : Reuss Voigt Hill
#
# Bulk Modulus (GPa) = 50.05357 58.43204 54.24281
# Shear Modulus (GPa) = 23.18045 25.52996 24.35521
#
# Velocity S-wave (km/s) = 3.57632 3.75319 3.66582
# Velocity P-wave (km/s) = 6.68363 7.14299 6.91713
#
# Compressibility (1/GPa) = 0.01997860
#
# Stress axis : x y z
#
# Youngs Moduli (GPa) = 60.24236 43.77492 56.60441
#
# Poissons Ratio (x) = 0.23289 0.48408
# Poissons Ratio (y) = 0.32050 0.26568
# Poissons Ratio (z) = 0.51519 0.20546
#
# Static dielectric constant tensor:
#      x y z
#    x 3.333930 0.000000 0.057990 
#    y 0.000000 3.300590 0.000000 
#    z 0.057990 0.000000 3.717250 
# 
# 
# High freq. dielectric constant tensor:
#      x y z
#    x 1.691060 0.000000 -0.000590 
#    y 0.000000 1.693640 0.000000 
#    z -0.000590 0.000000 1.705910 
# 
# From -- ./inp_files/56146.got.cif
#   From: 2010.06.25/outbox.cif.g09.slc.cpg/sg11_29_cif.got.tgz:56146.got - 2010.06.27 23:14:04.
