data_PCOD8072155
_publ_section_title
;
Structure prediction by ZEFSAII (Michael W. Deem and Ramdas Pophale) SiO2 
 PCOD8072155
Probable space group: P 21/M
;
_chemical_formula_sum "Si O2"
_cell_formula_units_Z 32
_cell_length_a 13.323654
_cell_length_b 14.224483
_cell_length_c 8.078680
_cell_angle_alpha 90.000000
_cell_angle_beta 98.436243
_cell_angle_gamma 90.000000
_cell_volume 1514.521526
_symmetry_space_group_name_H-M "P 21/M"
_symmetry_group_IT_number 11
_symmetry_cell_setting 'monoclinic'
loop_
_space_group_symop_operation_xyz
x,y,z
-x,1/2+y,-z
-x,-y,-z
x,1/2-y,z
loop_
_atom_site_type_symbol
_atom_site_label
_atom_site_fract_x
_atom_site_fract_y
_atom_site_fract_z
Si Si1 0.416307 0.539491 0.857498
Si Si2 0.011444 0.646617 0.600681
Si Si3 0.669257 0.524125 0.493864
Si Si4 0.177248 0.144833 0.649132
Si Si5 0.077328 0.000276 0.167735
Si Si6 0.745111 0.943315 0.007560
Si Si7 0.814408 0.359109 0.592514
Si Si8 0.581702 0.645699 0.759228
O O1 0.397039 0.475172 0.690113
O O2 0.465097 0.636344 0.799711
O O3 0.500000 0.500000 0.000000
O O4 0.310397 0.539658 0.936324
O O5 0.000243 0.750000 0.682535
O O6 0.941837 0.643021 0.419776
O O7 0.977173 0.565633 0.713412
O O8 0.127454 0.632043 0.570004
O O9 0.766878 0.589483 0.485492
O O10 0.710587 0.419876 0.553702
O O11 0.600687 0.567430 0.622862
O O12 0.221444 0.250000 0.663452
O O13 0.187202 0.099096 0.830934
O O14 0.185626 0.039981 0.134473
O O15 0.107639 0.898896 0.249426
O O16 0.000000 0.000000 0.000000
O O17 0.658823 0.869815 0.930511
O O18 0.788395 0.250000 0.626640
O O19 0.595065 0.750000 0.689976
#
# Coordination Sequence:
#
# PCOD8072155 Si02
#       8
#     4   4   4   4   4   4   4   4
#     4   9  22  40  63  87 125 163 205 260 324 386
#     4  10  22  39  61  90 125 164 215 262 308 374
#     4  11  21  38  65  89 125 165 210 265 325 384
#     4  10  19  34  60  92 124 163 207 255 316 377
#     4  12  24  38  66  91 130 172 211 262 317 374
#     4  10  21  38  59  94 128 165 202 258 318 376
#     4  11  24  42  61  88 127 175 224 263 312 382
#     4  11  21  39  65  95 125 158 209 269 326 380
#
# _framework density 21.128786999999999
#
# number of rings (size 3 to 8) (size 9 to 14) (size 15 to 20)
#    0.000    1.500    2.500    2.250    3.500    3.000 
#    0.000    1.250    0.000    0.750    0.000    0.000 
#    0.000    0.000    0.000    0.000    0.000    0.000 
#
# Total GULP energy -396496.636748 kJ/mol
# GULP energy per Si atom -12390.519898 kJ/mol
# Density = 2.108070 g / cm^3
# Si number density = 21.128787 Si / 1000 Ang^3
#
#
#
# Elastic Constant Matrix: (Units=GPa)
#
#
# Indices 1 2 3 4 5 6 
#
# 1 63.0781 41.9006 17.5130 0.0000 -3.6001 0.0000
# 2 41.9006 138.8211 41.3748 0.0000 -6.7364 0.0000
# 3 17.5130 41.3748 99.0923 0.0000 8.5424 0.0000
# 4 0.0000 0.0000 0.0000 16.3206 0.0000 -3.0784
# 5 -3.6001 -6.7364 8.5424 0.0000 32.8932 0.0000
# 6 0.0000 0.0000 0.0000 -3.0784 0.0000 27.8393
#
#
#
# Elastic Compliance Matrix: (Units=1/GPa)
#
#
# Indices 1 2 3 4 5 6 
#
# 1 0.020005 -0.005575 -0.001328 0.000000 0.001393 0.000000
# 2 -0.005575 0.010011 -0.003395 0.000000 0.002322 0.000000
# 3 -0.001328 -0.003395 0.012087 0.000000 -0.003979 0.000000
# 4 0.000000 0.000000 0.000000 0.062578 0.000000 0.006920
# 5 0.001393 0.002322 -0.003979 0.000000 0.032063 0.000000
# 6 0.000000 0.000000 0.000000 0.006920 0.000000 0.036686
#
#
# Mechanical properties :
#
#
# Convention : Reuss Voigt Hill
#
# Bulk Modulus (GPa) = 46.49571 55.84093 51.16832
# Shear Modulus (GPa) = 24.85195 28.75749 26.80472
#
# Velocity S-wave (km/s) = 3.43332 3.69325 3.56565
# Velocity P-wave (km/s) = 6.14577 6.68379 6.42042
#
# Compressibility (1/GPa) = 0.02150736
#
# Stress axis : x y z
#
# Youngs Moduli (GPa) = 49.98853 99.89469 82.73518
#
# Poissons Ratio (x) = 0.55688 0.10987
# Poissons Ratio (y) = 0.27867 0.28086
# Poissons Ratio (z) = 0.06638 0.33911
#
# Static dielectric constant tensor:
#      x y z
#    x 4.135010 0.000000 0.027050 
#    y 0.000000 3.864940 0.000000 
#    z 0.027050 0.000000 4.023990 
# 
# 
# High freq. dielectric constant tensor:
#      x y z
#    x 1.833690 0.000000 0.003610 
#    y 0.000000 1.805660 0.000000 
#    z 0.003610 0.000000 1.833790 
# 
# From -- ./inp_files/21894.got.cif
#   From: 2010.06.25/outbox.cif.g09.slc.cpg/sg11_11_cif.got.tgz:21894.got - 2010.06.27 23:14:04.
