data_PCOD8072342
_publ_section_title
;
Structure prediction by ZEFSAII (Michael W. Deem and Ramdas Pophale) SiO2 
 PCOD8072342
Probable space group: P 21/M
;
_chemical_formula_sum "Si O2"
_cell_formula_units_Z 16
_cell_length_a 7.163692
_cell_length_b 15.883943
_cell_length_c 8.379331
_cell_angle_alpha 90.000000
_cell_angle_beta 126.238975
_cell_angle_gamma 90.000000
_cell_volume 769.024851
_symmetry_space_group_name_H-M "P 21/M"
_symmetry_group_IT_number 11
_symmetry_cell_setting 'monoclinic'
loop_
_space_group_symop_operation_xyz
x,y,z
-x,1/2+y,-z
-x,-y,-z
x,1/2-y,z
loop_
_atom_site_type_symbol
_atom_site_label
_atom_site_fract_x
_atom_site_fract_y
_atom_site_fract_z
Si Si1 0.549977 0.656075 0.279863
Si Si2 0.316524 0.002508 0.047515
Si Si3 0.983314 0.930728 0.356169
Si Si4 0.508223 0.090869 0.428448
O O1 0.471523 0.750000 0.191617
O O2 0.339105 0.589828 0.141564
O O3 0.780036 0.634333 0.296205
O O4 0.604783 0.654240 0.499242
O O5 0.370212 0.081848 0.192063
O O6 0.067785 0.021577 0.840123
O O7 0.500000 0.000000 0.000000
O O8 0.225446 0.881514 0.468520
O O9 0.000000 0.000000 0.500000
O O10 0.500000 0.000000 0.500000
#
# Coordination Sequence:
#
# PCOD8072342 Si02
#       4
#     4   4   4   4
#     4  10  22  38  55  85 123 146 188 246 289 333
#     4   9  18  35  62  82 110 148 196 230 278 345
#     4  11  19  37  64  84 109 153 201 229 283 343
#     4  10  19  35  59  84 111 148 193 231 282 342
#
# _framework density 20.805569999999999
#
# number of rings (size 3 to 8) (size 9 to 14) (size 15 to 20)
#    0.000    2.000    7.500    0.000    0.000    5.000 
#    0.000    6.250    0.000    0.000    0.000    0.000 
#    0.000    0.000    0.000    0.000    0.000    0.000 
#
# Total GULP energy -198211.011241 kJ/mol
# GULP energy per Si atom -12388.188203 kJ/mol
# Density = 2.075822 g / cm^3
# Si number density = 20.805570 Si / 1000 Ang^3
#
#
#
# Elastic Constant Matrix: (Units=GPa)
#
#
# Indices 1 2 3 4 5 6 
#
# 1 59.8478 13.8151 14.2228 0.0000 1.1075 0.0000
# 2 13.8151 97.0183 37.1504 0.0000 -1.2733 0.0000
# 3 14.2228 37.1504 149.3942 0.0000 -6.2060 0.0000
# 4 0.0000 0.0000 0.0000 16.4499 0.0000 -1.3032
# 5 1.1075 -1.2733 -6.2060 0.0000 31.1523 0.0000
# 6 0.0000 0.0000 0.0000 -1.3032 0.0000 21.5647
#
#
#
# Elastic Compliance Matrix: (Units=1/GPa)
#
#
# Indices 1 2 3 4 5 6 
#
# 1 0.017482 -0.002044 -0.001195 0.000000 -0.000943 0.000000
# 2 -0.002044 0.011631 -0.002697 0.000000 0.000011 0.000000
# 3 -0.001195 -0.002697 0.007538 0.000000 0.001434 0.000000
# 4 0.000000 0.000000 0.000000 0.061083 0.000000 0.003691
# 5 -0.000943 0.000011 0.001434 0.000000 0.032420 0.000000
# 6 0.000000 0.000000 0.000000 0.003691 0.000000 0.046595
#
#
# Mechanical properties :
#
#
# Convention : Reuss Voigt Hill
#
# Bulk Modulus (GPa) = 40.35810 48.51520 44.43665
# Shear Modulus (GPa) = 25.39585 29.90487 27.65036
#
# Velocity S-wave (km/s) = 3.49754 3.79535 3.64948
# Velocity P-wave (km/s) = 5.97915 6.52497 6.25801
#
# Compressibility (1/GPa) = 0.02477818
#
# Stress axis : x y z
#
# Youngs Moduli (GPa) = 57.20035 85.97393 132.66435
#
# Poissons Ratio (x) = 0.17574 0.15856
# Poissons Ratio (y) = 0.11693 0.35785
# Poissons Ratio (z) = 0.06837 0.23190
#
# Static dielectric constant tensor:
#      x y z
#    x 5.237400 0.000000 -0.402960 
#    y 0.000000 2.999850 0.000000 
#    z -0.402960 0.000000 5.070350 
# 
# 
# High freq. dielectric constant tensor:
#      x y z
#    x 1.821490 0.000000 -0.022760 
#    y 0.000000 1.760550 0.000000 
#    z -0.022760 0.000000 1.819980 
# 
# From -- ./inp_files/12664.got.cif
#   From: 2010.06.25/outbox.cif.g09.slc.cpg/sg11_7_cif.got.tgz:12664.got - 2010.06.27 23:14:04.
