data_PCOD8072408
_publ_section_title
;
Structure prediction by ZEFSAII (Michael W. Deem and Ramdas Pophale) SiO2 
 PCOD8072408
Probable space group: P 21/M
;
_chemical_formula_sum "Si O2"
_cell_formula_units_Z 32
_cell_length_a 31.207620
_cell_length_b 8.841343
_cell_length_c 12.750828
_cell_angle_alpha 90.000000
_cell_angle_beta 27.756943
_cell_angle_gamma 90.000000
_cell_volume 1638.490034
_symmetry_space_group_name_H-M "P 21/M"
_symmetry_group_IT_number 11
_symmetry_cell_setting 'monoclinic'
loop_
_space_group_symop_operation_xyz
x,y,z
-x,1/2+y,-z
-x,-y,-z
x,1/2-y,z
loop_
_atom_site_type_symbol
_atom_site_label
_atom_site_fract_x
_atom_site_fract_y
_atom_site_fract_z
Si Si1 0.831707 0.075460 0.964836
Si Si2 0.791362 0.569780 0.845444
Si Si3 0.590801 0.917865 0.337535
Si Si4 0.868848 0.071751 0.468809
Si Si5 0.215112 0.571172 0.568962
Si Si6 0.348102 0.080124 0.567019
Si Si7 0.593204 0.427036 0.760688
Si Si8 0.060510 0.575471 0.065706
O O1 0.801247 0.250000 0.020463
O O2 0.752770 0.977052 0.188291
O O3 0.918220 0.060736 0.856003
O O4 0.853677 0.007461 0.801920
O O5 0.797959 0.750000 0.844566
O O6 0.827053 0.520727 0.655503
O O7 0.686095 0.510548 0.087214
O O8 0.584739 0.750000 0.304999
O O9 0.589271 0.919559 0.465950
O O10 0.500000 0.000000 0.500000
O O11 0.857917 0.250000 0.512040
O O12 0.815806 0.017746 0.479180
O O13 0.975113 0.030803 0.223686
O O14 0.218194 0.750000 0.568886
O O15 0.317524 0.507370 0.370505
O O16 0.144656 0.515039 0.811616
O O17 0.341600 0.250000 0.534504
O O18 0.396159 0.965532 0.383937
O O19 0.585093 0.250000 0.794827
O O20 0.500000 0.500000 0.000000
O O21 0.037323 0.750000 0.088666
#
# Coordination Sequence:
#
# PCOD8072408 Si02
#       8
#     4   4   4   4   4   4   4   4
#     4  10  19  35  62  88 112 150 194 237 289 348
#     4  10  22  40  57  81 120 156 192 243 295 345
#     4   9  20  36  57  83 111 147 192 238 288 344
#     4  11  23  38  59  87 117 156 199 241 292 352
#     4   9  20  40  61  83 118 156 195 243 294 346
#     4  10  20  36  56  83 116 149 188 238 290 342
#     4  11  22  39  60  87 118 153 195 243 295 349
#     4  10  20  38  62  87 116 153 193 241 299 352
#
# _framework density 19.530176999999998
#
# number of rings (size 3 to 8) (size 9 to 14) (size 15 to 20)
#    0.000    2.000    1.250    3.000    0.000    5.500 
#    0.000    6.875    0.000    0.000    0.000    0.000 
#    0.000    0.000    0.000    0.000    0.000    0.000 
#
# Total GULP energy -396768.965181 kJ/mol
# GULP energy per Si atom -12399.030162 kJ/mol
# Density = 1.948573 g / cm^3
# Si number density = 19.530177 Si / 1000 Ang^3
#
#
#
# Elastic Constant Matrix: (Units=GPa)
#
#
# Indices 1 2 3 4 5 6 
#
# 1 118.0669 44.0749 70.1137 0.0000 1.5188 0.0000
# 2 44.0749 61.0754 18.5227 0.0000 -8.2697 0.0000
# 3 70.1137 18.5227 104.5670 0.0000 -2.4716 0.0000
# 4 0.0000 0.0000 0.0000 35.7874 0.0000 1.1711
# 5 1.5188 -8.2697 -2.4716 0.0000 33.7742 0.0000
# 6 0.0000 0.0000 0.0000 1.1711 0.0000 27.2567
#
#
#
# Elastic Compliance Matrix: (Units=1/GPa)
#
#
# Indices 1 2 3 4 5 6 
#
# 1 0.019227 -0.011127 -0.011025 0.000000 -0.004396 0.000000
# 2 -0.011127 0.024304 0.003314 0.000000 0.006694 0.000000
# 3 -0.011025 0.003314 0.016428 0.000000 0.002509 0.000000
# 4 0.000000 0.000000 0.000000 0.027982 0.000000 -0.001202
# 5 -0.004396 0.006694 0.002509 0.000000 0.031629 0.000000
# 6 0.000000 0.000000 0.000000 -0.001202 0.000000 0.036740
#
#
# Mechanical properties :
#
#
# Convention : Reuss Voigt Hill
#
# Bulk Modulus (GPa) = 44.87688 61.01466 52.94577
# Shear Modulus (GPa) = 24.82447 29.43021 27.12734
#
# Velocity S-wave (km/s) = 3.56909 3.88610 3.73097
# Velocity P-wave (km/s) = 6.32556 7.17250 6.76230
#
# Compressibility (1/GPa) = 0.02228319
#
# Stress axis : x y z
#
# Youngs Moduli (GPa) = 52.00959 41.14508 60.87156
#
# Poissons Ratio (x) = 0.45782 0.67111
# Poissons Ratio (y) = 0.57870 -0.20171
# Poissons Ratio (z) = 0.57341 -0.13635
#
# Static dielectric constant tensor:
#      x y z
#    x 3.172890 0.000000 -0.383470 
#    y 0.000000 3.508480 0.000000 
#    z -0.383470 0.000000 3.246770 
# 
# 
# High freq. dielectric constant tensor:
#      x y z
#    x 1.768200 0.000000 0.002690 
#    y 0.000000 1.755630 0.000000 
#    z 0.002690 0.000000 1.755190 
# 
# From -- ./inp_files/45141.got.cif
#   From: 2010.06.25/outbox.cif.g09.slc.cpg/sg11_23_cif.got.tgz:45141.got - 2010.06.27 23:14:04.
