data_PCOD8072605
_publ_section_title
;
Structure prediction by ZEFSAII (Michael W. Deem and Ramdas Pophale) SiO2 
 PCOD8072605
Probable space group: P 21/M
;
_chemical_formula_sum "Si O2"
_cell_formula_units_Z 28
_cell_length_a 8.055694
_cell_length_b 19.039731
_cell_length_c 14.414325
_cell_angle_alpha 90.000000
_cell_angle_beta 35.427258
_cell_angle_gamma 90.000000
_cell_volume 1281.557444
_symmetry_space_group_name_H-M "P 21/M"
_symmetry_group_IT_number 11
_symmetry_cell_setting 'monoclinic'
loop_
_space_group_symop_operation_xyz
x,y,z
-x,1/2+y,-z
-x,-y,-z
x,1/2-y,z
loop_
_atom_site_type_symbol
_atom_site_label
_atom_site_fract_x
_atom_site_fract_y
_atom_site_fract_z
Si Si1 0.349840 0.403436 0.294383
Si Si2 0.807510 0.462876 0.976151
Si Si3 0.078639 0.170028 0.583902
Si Si4 0.578433 0.409510 0.892176
Si Si5 0.847104 0.670213 0.789555
Si Si6 0.569031 0.111475 0.465641
Si Si7 0.552244 0.988040 0.327582
O O1 0.273342 0.344528 0.404426
O O2 0.161971 0.388035 0.288941
O O3 0.325229 0.480657 0.355480
O O4 0.677972 0.403022 0.104778
O O5 0.784935 0.440730 0.878413
O O6 0.133796 0.474583 0.859652
O O7 0.607779 0.532269 0.076283
O O8 0.982985 0.250000 0.627569
O O9 0.272747 0.152892 0.585074
O O10 0.786638 0.124837 0.720239
O O11 0.367844 0.350703 0.030619
O O12 0.776515 0.750000 0.789896
O O13 0.175255 0.665708 0.672248
O O14 0.571748 0.083018 0.570774
O O15 0.605136 0.046158 0.381479
#
# Coordination Sequence:
#
# PCOD8072605 Si02
#       7
#     4   4   4   4   4   4   4
#     4  10  24  35  60  86 118 156 184 242 309 340
#     4  10  19  37  59  90 123 145 195 252 301 351
#     4  11  22  40  58  84 118 158 202 238 286 361
#     4  10  21  35  63  88 113 154 199 246 296 339
#     4  11  22  40  58  84 118 158 202 238 286 361
#     4  10  21  35  63  88 113 154 199 246 296 339
#     4  10  19  37  59  90 123 145 195 252 301 351
#
# _framework density 21.848414999999999
#
# number of rings (size 3 to 8) (size 9 to 14) (size 15 to 20)
#    0.000    1.714    2.857    1.714    0.000    2.286 
#    0.000    0.000    0.000    0.000    0.000    0.000 
#    0.000    0.000    0.000    0.000    0.000    0.000 
#
# Total GULP energy -346923.007477 kJ/mol
# GULP energy per Si atom -12390.107410 kJ/mol
# Density = 2.179869 g / cm^3
# Si number density = 21.848415 Si / 1000 Ang^3
#
#
#
# Elastic Constant Matrix: (Units=GPa)
#
#
# Indices 1 2 3 4 5 6 
#
# 1 39.1663 18.0537 34.8786 0.0000 -3.9622 0.0000
# 2 18.0537 89.5419 60.7333 0.0000 -4.5030 0.0000
# 3 34.8786 60.7333 121.6530 0.0000 -8.2277 0.0000
# 4 0.0000 0.0000 0.0000 33.4779 0.0000 -1.3920
# 5 -3.9622 -4.5030 -8.2277 0.0000 37.8433 0.0000
# 6 0.0000 0.0000 0.0000 -1.3920 0.0000 23.2105
#
#
#
# Elastic Compliance Matrix: (Units=1/GPa)
#
#
# Indices 1 2 3 4 5 6 
#
# 1 0.034375 -0.000362 -0.009575 0.000000 0.001474 0.000000
# 2 -0.000362 0.016891 -0.008317 0.000000 0.000164 0.000000
# 3 -0.009575 -0.008317 0.015206 0.000000 0.001314 0.000000
# 4 0.000000 0.000000 0.000000 0.029945 0.000000 0.001796
# 5 0.001474 0.000164 0.001314 0.000000 0.026884 0.000000
# 6 0.000000 0.000000 0.000000 0.001796 0.000000 0.043192
#
#
# Mechanical properties :
#
#
# Convention : Reuss Voigt Hill
#
# Bulk Modulus (GPa) = 33.37470 53.07692 43.22581
# Shear Modulus (GPa) = 23.47528 28.01940 25.74734
#
# Velocity S-wave (km/s) = 3.28145 3.58501 3.43659
# Velocity P-wave (km/s) = 5.44665 6.44068 5.96441
#
# Compressibility (1/GPa) = 0.02996281
#
# Stress axis : x y z
#
# Youngs Moduli (GPa) = 29.09095 59.20424 65.76137
#
# Poissons Ratio (x) = 0.02145 0.62966
# Poissons Ratio (y) = 0.01054 0.54697
# Poissons Ratio (z) = 0.27854 0.49243
#
# Static dielectric constant tensor:
#      x y z
#    x 3.778740 0.000000 0.178630 
#    y 0.000000 3.705330 0.000000 
#    z 0.178630 0.000000 4.114600 
# 
# 
# High freq. dielectric constant tensor:
#      x y z
#    x 1.842760 0.000000 0.004710 
#    y 0.000000 1.831110 0.000000 
#    z 0.004710 0.000000 1.875600 
# 
# From -- ./inp_files/23233.got.cif
#   From: 2010.06.25/outbox.cif.g09.slc.cpg/sg11_12_cif.got.tgz:23233.got - 2010.06.27 23:14:04.
