data_PCOD8072321
_publ_section_title
;
Structure prediction by ZEFSAII (Michael W. Deem and Ramdas Pophale) SiO2 
 PCOD8072321
Probable space group: P 21/M
;
_chemical_formula_sum "Si O2"
_cell_formula_units_Z 32
_cell_length_a 9.952342
_cell_length_b 18.009123
_cell_length_c 11.558195
_cell_angle_alpha 90.000000
_cell_angle_beta 54.765724
_cell_angle_gamma 90.000000
_cell_volume 1692.090379
_symmetry_space_group_name_H-M "P 21/M"
_symmetry_group_IT_number 11
_symmetry_cell_setting 'monoclinic'
loop_
_space_group_symop_operation_xyz
x,y,z
-x,1/2+y,-z
-x,-y,-z
x,1/2-y,z
loop_
_atom_site_type_symbol
_atom_site_label
_atom_site_fract_x
_atom_site_fract_y
_atom_site_fract_z
Si Si1 0.179196 0.092379 0.430615
Si Si2 0.284083 0.931618 0.097925
Si Si3 0.228967 0.164007 0.648778
Si Si4 0.997099 0.079166 0.937607
Si Si5 0.643522 0.900826 0.887076
Si Si6 0.182660 0.921284 0.408405
Si Si7 0.213082 0.333695 0.978949
Si Si8 0.494782 0.834237 0.321694
O O1 0.223976 0.141605 0.518097
O O2 0.315107 0.110078 0.267038
O O3 0.996598 0.112642 0.473906
O O4 0.187641 0.004976 0.453487
O O5 0.199826 0.911773 0.261311
O O6 0.176675 0.909494 0.039275
O O7 0.314449 0.019171 0.080607
O O8 0.451029 0.884783 0.000914
O O9 0.163800 0.250000 0.696341
O O10 0.129755 0.102015 0.772529
O O11 0.419597 0.161101 0.594768
O O12 0.038171 0.132720 0.025305
O O13 0.000000 0.000000 0.000000
O O14 0.757965 0.842798 0.899150
O O15 0.325635 0.879471 0.405925
O O16 0.204992 0.250000 0.942522
O O17 0.373850 0.369146 0.835171
O O18 0.450051 0.750000 0.310136
#
# Coordination Sequence:
#
# PCOD8072321 Si02
#       8
#     4   4   4   4   4   4   4   4
#     4  10  22  35  57  85 119 155 191 244 297 353
#     4  10  19  35  58  86 115 148 201 249 290 342
#     4  10  22  40  59  86 124 159 195 242 303 365
#     4  11  20  34  61  88 115 155 200 248 296 350
#     4  10  20  35  57  84 116 155 191 248 302 353
#     4  10  19  36  57  84 116 147 203 248 285 347
#     4  10  20  36  56  85 119 154 198 250 307 357
#     4   9  19  36  59  84 112 153 200 245 291 355
#
# _framework density 18.911518999999998
#
# number of rings (size 3 to 8) (size 9 to 14) (size 15 to 20)
#    0.000    2.000    3.750    1.125    0.000    1.500 
#    0.000    2.500    0.000    1.500    0.000    0.000 
#    0.000    0.000    0.000    0.000    0.000    0.000 
#
# Total GULP energy -396472.820831 kJ/mol
# GULP energy per Si atom -12389.775651 kJ/mol
# Density = 1.886848 g / cm^3
# Si number density = 18.911519 Si / 1000 Ang^3
#
#
#
# Elastic Constant Matrix: (Units=GPa)
#
#
# Indices 1 2 3 4 5 6 
#
# 1 139.6154 47.9643 30.6691 0.0000 5.4778 0.0000
# 2 47.9643 69.3487 34.2452 0.0000 2.4030 0.0000
# 3 30.6691 34.2452 57.3849 0.0000 1.5913 0.0000
# 4 0.0000 0.0000 0.0000 23.6006 0.0000 -0.8895
# 5 5.4778 2.4030 1.5913 0.0000 28.7366 0.0000
# 6 0.0000 0.0000 0.0000 -0.8895 0.0000 28.2793
#
#
#
# Elastic Compliance Matrix: (Units=1/GPa)
#
#
# Indices 1 2 3 4 5 6 
#
# 1 0.009547 -0.005752 -0.001635 0.000000 -0.001248 0.000000
# 2 -0.005752 0.023942 -0.011205 0.000000 -0.000285 0.000000
# 3 -0.001635 -0.011205 0.024991 0.000000 -0.000135 0.000000
# 4 0.000000 0.000000 0.000000 0.042422 0.000000 0.001334
# 5 -0.001248 -0.000285 -0.000135 0.000000 0.035068 0.000000
# 6 0.000000 0.000000 0.000000 0.001334 0.000000 0.035403
#
#
# Mechanical properties :
#
#
# Convention : Reuss Voigt Hill
#
# Bulk Modulus (GPa) = 46.96145 54.67848 50.81997
# Shear Modulus (GPa) = 23.18509 26.35465 24.76987
#
# Velocity S-wave (km/s) = 3.50519 3.73711 3.62301
# Velocity P-wave (km/s) = 6.42401 6.89905 6.66577
#
# Compressibility (1/GPa) = 0.02129406
#
# Stress axis : x y z
#
# Youngs Moduli (GPa) = 104.74662 41.76823 40.01511
#
# Poissons Ratio (x) = 0.24027 0.06542
# Poissons Ratio (y) = 0.60255 0.44838
# Poissons Ratio (z) = 0.17124 0.46802
#
# Static dielectric constant tensor:
#      x y z
#    x 3.650290 0.000000 -0.003500 
#    y 0.000000 3.372860 0.000000 
#    z -0.003500 0.000000 3.341520 
# 
# 
# High freq. dielectric constant tensor:
#      x y z
#    x 1.749460 0.000000 0.007830 
#    y 0.000000 1.718090 0.000000 
#    z 0.007830 0.000000 1.712860 
# 
# From -- ./inp_files/32658.got.cif
#   From: 2010.06.25/outbox.cif.g09.slc.cpg/sg11_17_cif.got.tgz:32658.got - 2010.06.27 23:14:04.
