data_PCOD8072035
_publ_section_title
;
Structure prediction by ZEFSAII (Michael W. Deem and Ramdas Pophale) SiO2 
 PCOD8072035
Probable space group: P 21/M
;
_chemical_formula_sum "Si O2"
_cell_formula_units_Z 28
_cell_length_a 11.943060
_cell_length_b 14.200616
_cell_length_c 9.104996
_cell_angle_alpha 90.000000
_cell_angle_beta 63.637768
_cell_angle_gamma 90.000000
_cell_volume 1383.607237
_symmetry_space_group_name_H-M "P 21/M"
_symmetry_group_IT_number 11
_symmetry_cell_setting 'monoclinic'
loop_
_space_group_symop_operation_xyz
x,y,z
-x,1/2+y,-z
-x,-y,-z
x,1/2-y,z
loop_
_atom_site_type_symbol
_atom_site_label
_atom_site_fract_x
_atom_site_fract_y
_atom_site_fract_z
Si Si1 0.417364 0.973075 0.184942
Si Si2 0.360997 0.139728 0.849868
Si Si3 0.804663 0.148383 0.799537
Si Si4 0.154711 0.450370 0.782179
Si Si5 0.088031 0.639563 0.951565
Si Si6 0.942981 0.906442 0.470435
Si Si7 0.287004 0.146612 0.226036
O O1 0.499394 0.906196 0.241337
O O2 0.286196 0.926218 0.219169
O O3 0.370405 0.074021 0.275598
O O4 0.500000 0.000000 0.000000
O O5 0.371395 0.250000 0.806067
O O6 0.286481 0.084637 0.767666
O O7 0.297225 0.123653 0.046170
O O8 0.739258 0.250000 0.825209
O O9 0.939183 0.157055 0.642326
O O10 0.825851 0.122762 0.956728
O O11 0.140413 0.564535 0.802393
O O12 0.146271 0.425781 0.616378
O O13 0.053395 0.390682 0.932964
O O14 0.092295 0.750000 0.896852
O O15 0.858976 0.856934 0.644033
O O16 0.000000 0.000000 0.500000
O O17 0.341491 0.250000 0.225835
#
# Coordination Sequence:
#
# PCOD8072035 Si02
#       7
#     4   4   4   4   4   4   4
#     4  10  19  34  57  83 117 148 193 242 282 332
#     4  10  21  37  60  88 116 154 198 241 287 342
#     4  10  19  34  58  85 114 147 188 235 287 341
#     4  10  21  35  56  81 114 152 189 238 294 343
#     4   9  18  32  54  82 111 146 189 238 289 342
#     4  11  22  38  59  83 116 152 189 238 292 351
#     4  10  21  37  59  87 117 154 196 238 290 348
#
# _framework density 20.236958000000001
#
# number of rings (size 3 to 8) (size 9 to 14) (size 15 to 20)
#    0.000    2.000    1.429    3.000    4.000    2.286 
#    0.000    2.143    0.000    0.000    0.000    0.000 
#    0.000    0.000    0.000    0.000    0.000    0.000 
#
# Total GULP energy -346966.744611 kJ/mol
# GULP energy per Si atom -12391.669450 kJ/mol
# Density = 2.019090 g / cm^3
# Si number density = 20.236958 Si / 1000 Ang^3
#
#
#
# Elastic Constant Matrix: (Units=GPa)
#
#
# Indices 1 2 3 4 5 6 
#
# 1 121.1151 58.3309 25.6286 0.0000 -3.2784 0.0000
# 2 58.3309 146.2094 14.5438 0.0000 -2.2767 0.0000
# 3 25.6286 14.5438 46.3891 0.0000 -8.2283 0.0000
# 4 0.0000 0.0000 0.0000 15.7841 0.0000 -7.0947
# 5 -3.2784 -2.2767 -8.2283 0.0000 21.0874 0.0000
# 6 0.0000 0.0000 0.0000 -7.0947 0.0000 23.7751
#
#
#
# Elastic Compliance Matrix: (Units=1/GPa)
#
#
# Indices 1 2 3 4 5 6 
#
# 1 0.011232 -0.003987 -0.005073 0.000000 -0.000664 0.000000
# 2 -0.003987 0.008475 -0.000432 0.000000 0.000127 0.000000
# 3 -0.005073 -0.000432 0.026157 0.000000 0.009371 0.000000
# 4 0.000000 0.000000 0.000000 0.073169 0.000000 0.021834
# 5 -0.000664 0.000127 0.009371 0.000000 0.050989 0.000000
# 6 0.000000 0.000000 0.000000 0.021834 0.000000 0.048576
#
#
# Mechanical properties :
#
#
# Convention : Reuss Voigt Hill
#
# Bulk Modulus (GPa) = 37.20192 56.74668 46.97430
# Shear Modulus (GPa) = 20.28044 26.47667 23.37856
#
# Velocity S-wave (km/s) = 3.16911 3.62101 3.40257
# Velocity P-wave (km/s) = 5.64040 6.75161 6.22087
#
# Compressibility (1/GPa) = 0.02688033
#
# Stress axis : x y z
#
# Youngs Moduli (GPa) = 89.02890 117.99377 38.23023
#
# Poissons Ratio (x) = 0.47042 0.19395
# Poissons Ratio (y) = 0.35495 0.01652
# Poissons Ratio (z) = 0.45167 0.05097
#
# Static dielectric constant tensor:
#      x y z
#    x 3.744110 0.000000 -0.224830 
#    y 0.000000 3.134330 0.000000 
#    z -0.224830 0.000000 3.705430 
# 
# 
# High freq. dielectric constant tensor:
#      x y z
#    x 1.781750 0.000000 -0.011150 
#    y 0.000000 1.813010 0.000000 
#    z -0.011150 0.000000 1.752440 
# 
# From -- ./inp_files/17810.got.cif
#   From: 2010.06.25/outbox.cif.g09.slc.cpg/sg11_9_cif.got.tgz:17810.got - 2010.06.27 23:14:04.
