data_PCOD8072687
_publ_section_title
;
Structure prediction by ZEFSAII (Michael W. Deem and Ramdas Pophale) SiO2 
 PCOD8072687
Probable space group: P 21/M
;
_chemical_formula_sum "Si O2"
_cell_formula_units_Z 28
_cell_length_a 9.536977
_cell_length_b 8.494484
_cell_length_c 27.243592
_cell_angle_alpha 90.000000
_cell_angle_beta 40.663649
_cell_angle_gamma 90.000000
_cell_volume 1438.151694
_symmetry_space_group_name_H-M "P 21/M"
_symmetry_group_IT_number 11
_symmetry_cell_setting 'monoclinic'
loop_
_space_group_symop_operation_xyz
x,y,z
-x,1/2+y,-z
-x,-y,-z
x,1/2-y,z
loop_
_atom_site_type_symbol
_atom_site_label
_atom_site_fract_x
_atom_site_fract_y
_atom_site_fract_z
Si Si1 0.131811 0.063444 0.289430
Si Si2 0.122993 0.577380 0.190285
Si Si3 0.657515 0.938545 0.416982
Si Si4 0.266159 0.431008 0.057282
Si Si5 0.621018 0.921046 0.321458
Si Si6 0.468827 0.438725 0.761384
Si Si7 0.940569 0.566484 0.068664
O O1 0.134672 0.250000 0.286346
O O2 0.216610 0.992630 0.215668
O O3 0.298589 0.001729 0.285556
O O4 0.893663 0.005479 0.366139
O O5 0.230860 0.750000 0.151433
O O6 0.160309 0.450438 0.138303
O O7 0.872724 0.603161 0.260953
O O8 0.668850 0.750000 0.413325
O O9 0.560873 0.002596 0.389829
O O10 0.500000 0.000000 0.500000
O O11 0.266521 0.250000 0.041116
O O12 0.139570 0.531550 0.050999
O O13 0.500000 0.500000 0.000000
O O14 0.507674 0.750000 0.348822
O O15 0.567534 0.009324 0.284437
O O16 0.459433 0.250000 0.762773
O O17 0.280022 0.502468 0.848191
O O18 0.910960 0.750000 0.070366
O O19 0.000000 0.500000 0.000000
#
# Coordination Sequence:
#
# PCOD8072687 Si02
#       7
#     4   4   4   4   4   4   4
#     4  11  23  37  57  90 123 156 198 243 291 352
#     4  10  19  38  61  83 111 150 197 246 297 353
#     4  10  20  38  64  92 122 156 193 242 296 356
#     4  12  25  40  59  84 115 152 199 253 307 362
#     4   8  16  34  61  86 110 147 192 235 286 346
#     4  10  20  39  62  84 115 159 201 245 298 357
#     4  11  24  42  62  85 119 160 205 253 310 366
#
# _framework density 19.469434
#
# number of rings (size 3 to 8) (size 9 to 14) (size 15 to 20)
#    0.000    1.714    1.429    4.714    2.000    1.143 
#    0.000    2.143    0.000    0.000    0.000    0.000 
#    0.000    0.000    0.000    0.000    0.000    0.000 
#
# Total GULP energy -346983.477285 kJ/mol
# GULP energy per Si atom -12392.267046 kJ/mol
# Density = 1.942512 g / cm^3
# Si number density = 19.469434 Si / 1000 Ang^3
#
#
#
# Elastic Constant Matrix: (Units=GPa)
#
#
# Indices 1 2 3 4 5 6 
#
# 1 152.6230 27.9160 71.8350 0.0000 15.6495 0.0000
# 2 27.9160 62.7826 23.7619 0.0000 6.3888 0.0000
# 3 71.8350 23.7619 118.4337 0.0000 25.5777 0.0000
# 4 0.0000 0.0000 0.0000 29.6675 0.0000 1.3486
# 5 15.6495 6.3888 25.5777 0.0000 31.4326 0.0000
# 6 0.0000 0.0000 0.0000 1.3486 0.0000 26.1671
#
#
#
# Elastic Compliance Matrix: (Units=1/GPa)
#
#
# Indices 1 2 3 4 5 6 
#
# 1 0.009442 -0.002199 -0.005298 0.000000 0.000057 0.000000
# 2 -0.002199 0.017767 -0.002047 0.000000 -0.000851 0.000000
# 3 -0.005298 -0.002047 0.013841 0.000000 -0.008209 0.000000
# 4 0.000000 0.000000 0.000000 0.033786 0.000000 -0.001741
# 5 0.000057 -0.000851 -0.008209 0.000000 0.038638 0.000000
# 6 0.000000 0.000000 0.000000 -0.001741 0.000000 0.038306
#
#
# Mechanical properties :
#
#
# Convention : Reuss Voigt Hill
#
# Bulk Modulus (GPa) = 45.53519 64.54058 55.03789
# Shear Modulus (GPa) = 28.06008 31.47520 29.76764
#
# Velocity S-wave (km/s) = 3.80048 4.02512 3.91441
# Velocity P-wave (km/s) = 6.53430 7.40431 6.98286
#
# Compressibility (1/GPa) = 0.02196104
#
# Stress axis : x y z
#
# Youngs Moduli (GPa) = 105.90807 56.28374 72.25076
#
# Poissons Ratio (x) = 0.12377 0.38280
# Poissons Ratio (y) = 0.23289 0.14792
# Poissons Ratio (z) = 0.56113 0.11523
#
# Static dielectric constant tensor:
#      x y z
#    x 3.745340 0.000000 0.153960 
#    y 0.000000 3.608050 0.000000 
#    z 0.153960 0.000000 3.735520 
# 
# 
# High freq. dielectric constant tensor:
#      x y z
#    x 1.766760 0.000000 0.014840 
#    y 0.000000 1.748460 0.000000 
#    z 0.014840 0.000000 1.749930 
# 
# From -- ./inp_files/70860.got.cif
#   From: 2010.06.25/outbox.cif.g09.slc.cpg/sg11_36_cif.got.tgz:70860.got - 2010.06.27 23:14:04.
