data_PCOD8072833
_publ_section_title
;
Structure prediction by ZEFSAII (Michael W. Deem and Ramdas Pophale) SiO2 
 PCOD8072833
Probable space group: P 21/M
;
_chemical_formula_sum "Si O2"
_cell_formula_units_Z 28
_cell_length_a 14.346651
_cell_length_b 8.961039
_cell_length_c 17.780713
_cell_angle_alpha 90.000000
_cell_angle_beta 42.900993
_cell_angle_gamma 90.000000
_cell_volume 1556.091885
_symmetry_space_group_name_H-M "P 21/M"
_symmetry_group_IT_number 11
_symmetry_cell_setting 'monoclinic'
loop_
_space_group_symop_operation_xyz
x,y,z
-x,1/2+y,-z
-x,-y,-z
x,1/2-y,z
loop_
_atom_site_type_symbol
_atom_site_label
_atom_site_fract_x
_atom_site_fract_y
_atom_site_fract_z
Si Si1 0.862641 0.926797 0.112463
Si Si2 0.071348 0.073411 0.764047
Si Si3 0.229980 0.926226 0.077159
Si Si4 0.630753 0.425050 0.153340
Si Si5 0.891423 0.573332 0.421182
Si Si6 0.320498 0.425610 0.332840
Si Si7 0.797231 0.074117 0.741673
O O1 0.875699 0.750000 0.095005
O O2 0.845243 0.973077 0.210799
O O3 0.727721 0.984677 0.151596
O O4 0.000000 0.000000 0.000000
O O5 0.062314 0.250000 0.763185
O O6 0.138508 0.013316 0.646249
O O7 0.917038 0.008969 0.862144
O O8 0.218539 0.750000 0.087858
O O9 0.264585 0.981184 0.141323
O O10 0.341915 0.975830 0.949366
O O11 0.662014 0.250000 0.144638
O O12 0.475097 0.465494 0.265284
O O13 0.877527 0.750000 0.430532
O O14 0.780140 0.504647 0.544394
O O15 0.043373 0.526009 0.357403
O O16 0.300789 0.250000 0.336942
O O17 0.289099 0.494032 0.270851
O O18 0.782007 0.250000 0.740039
#
# Coordination Sequence:
#
# PCOD8072833 Si02
#       7
#     4   4   4   4   4   4   4
#     4  11  20  32  54  79  99 125 161 203 244 289
#     4   8  14  27  50  73  93 122 162 199 232 288
#     4   8  14  28  48  69  92 126 165 195 235 293
#     4  10  20  34  49  69 102 136 163 196 243 296
#     4   8  15  30  51  73  94 127 170 199 235 291
#     4  10  20  32  48  71 101 132 162 204 249 284
#     4   9  17  30  52  72  91 126 172 209 236 286
#
# _framework density 17.993796
#
# number of rings (size 3 to 8) (size 9 to 14) (size 15 to 20)
#    0.000    2.857    1.429    2.571    0.000    1.143 
#    0.000    1.429    0.000    1.714    0.000    0.000 
#    0.000    0.000    0.000    0.000    0.000    0.000 
#
# Total GULP energy -346979.055207 kJ/mol
# GULP energy per Si atom -12392.109115 kJ/mol
# Density = 1.795284 g / cm^3
# Si number density = 17.993796 Si / 1000 Ang^3
#
#
#
# Elastic Constant Matrix: (Units=GPa)
#
#
# Indices 1 2 3 4 5 6 
#
# 1 123.8822 40.1021 43.4688 0.0000 12.6474 0.0000
# 2 40.1021 32.1835 23.6112 0.0000 -0.1102 0.0000
# 3 43.4688 23.6112 64.4307 0.0000 7.0674 0.0000
# 4 0.0000 0.0000 0.0000 14.3990 0.0000 2.0806
# 5 12.6474 -0.1102 7.0674 0.0000 26.4844 0.0000
# 6 0.0000 0.0000 0.0000 2.0806 0.0000 28.0073
#
#
#
# Elastic Compliance Matrix: (Units=1/GPa)
#
#
# Indices 1 2 3 4 5 6 
#
# 1 0.015324 -0.016480 -0.003595 0.000000 -0.006427 0.000000
# 2 -0.016480 0.060738 -0.012393 0.000000 0.011430 0.000000
# 3 -0.003595 -0.012393 0.022977 0.000000 -0.004467 0.000000
# 4 0.000000 0.000000 0.000000 0.070203 0.000000 -0.005215
# 5 -0.006427 0.011430 -0.004467 0.000000 0.042067 0.000000
# 6 0.000000 0.000000 0.000000 -0.005215 0.000000 0.036092
#
#
# Mechanical properties :
#
#
# Convention : Reuss Voigt Hill
#
# Bulk Modulus (GPa) = 29.32207 48.31785 38.81996
# Shear Modulus (GPa) = 15.44616 21.33244 18.38930
#
# Velocity S-wave (km/s) = 2.93305 3.44691 3.20031
# Velocity P-wave (km/s) = 5.27271 6.53853 5.93944
#
# Compressibility (1/GPa) = 0.03410401
#
# Stress axis : x y z
#
# Youngs Moduli (GPa) = 65.25565 16.46418 43.52127
#
# Poissons Ratio (x) = 0.27133 0.15644
# Poissons Ratio (y) = 1.07540 0.53938
# Poissons Ratio (z) = 0.23456 0.20405
#
# Static dielectric constant tensor:
#      x y z
#    x 3.395540 0.000000 0.312320 
#    y 0.000000 2.900650 0.000000 
#    z 0.312320 0.000000 3.778070 
# 
# 
# High freq. dielectric constant tensor:
#      x y z
#    x 1.695950 0.000000 0.017400 
#    y 0.000000 1.651780 0.000000 
#    z 0.017400 0.000000 1.699640 
# 
# From -- ./inp_files/34308.got.cif
#   From: 2010.06.25/outbox.cif.g09.slc.cpg/sg11_18_cif.got.tgz:34308.got - 2010.06.27 23:14:04.
