data_PCOD8072682
_publ_section_title
;
Structure prediction by ZEFSAII (Michael W. Deem and Ramdas Pophale) SiO2 
 PCOD8072682
Probable space group: P 21/M
;
_chemical_formula_sum "Si O2"
_cell_formula_units_Z 22
_cell_length_a 17.309246
_cell_length_b 14.429216
_cell_length_c 8.861168
_cell_angle_alpha 90.000000
_cell_angle_beta 31.064586
_cell_angle_gamma 90.000000
_cell_volume 1141.996851
_symmetry_space_group_name_H-M "P 21/M"
_symmetry_group_IT_number 11
_symmetry_cell_setting 'monoclinic'
loop_
_space_group_symop_operation_xyz
x,y,z
-x,1/2+y,-z
-x,-y,-z
x,1/2-y,z
loop_
_atom_site_type_symbol
_atom_site_label
_atom_site_fract_x
_atom_site_fract_y
_atom_site_fract_z
Si Si1 0.358430 0.250000 0.597126
Si Si2 0.693455 0.250000 0.961210
Si Si3 0.054675 0.904737 0.982892
Si Si4 0.722337 0.422193 0.121618
Si Si5 0.767002 0.250000 0.492220
Si Si6 0.575883 0.750000 0.023022
Si Si7 0.174726 0.250000 0.625165
Si Si8 0.602236 0.603475 0.221954
O O1 0.514055 0.250000 0.243515
O O2 0.211299 0.250000 0.741105
O O3 0.347171 0.158742 0.715570
O O4 0.749029 0.337397 0.964487
O O5 0.769794 0.250000 0.669305
O O6 0.141406 0.930031 0.990527
O O7 0.152769 0.843052 0.702465
O O8 0.913620 0.843031 0.269934
O O9 0.000000 0.000000 0.000000
O O10 0.705053 0.512237 0.043888
O O11 0.574325 0.415718 0.471532
O O12 0.600173 0.250000 0.707905
O O13 0.663425 0.750000 0.721513
O O14 0.628373 0.659336 0.025558
#
# Coordination Sequence:
#
# PCOD8072682 Si02
#       8
#     2   2   4   4   2   2   2   4
#     4   9  17  34  55  87 120 147 198 248 295 341
#     4  10  20  35  62  88 116 153 201 253 293 338
#     4  11  24  42  62  85 126 167 198 236 305 371
#     4  10  19  38  59  88 117 160 200 242 297 354
#     4  11  22  42  63  88 118 157 201 247 301 358
#     4  11  20  40  61  94 116 150 203 258 299 341
#     4  11  23  37  59  91 126 157 195 250 302 358
#     4   9  19  34  64  87 114 152 206 251 288 347
#
# _framework density 19.264500999999999
#
# number of rings (size 3 to 8) (size 9 to 14) (size 15 to 20)
#    0.000    1.818    2.727    2.727    0.000    1.455 
#    0.000   14.545    0.000    0.000    0.000    0.000 
#    0.000    0.000    0.000    0.000    0.000    0.000 
#
# Total GULP energy -272784.888462 kJ/mol
# GULP energy per Si atom -12399.313112 kJ/mol
# Density = 1.922065 g / cm^3
# Si number density = 19.264501 Si / 1000 Ang^3
#
#
#
# Elastic Constant Matrix: (Units=GPa)
#
#
# Indices 1 2 3 4 5 6 
#
# 1 139.9739 65.0741 34.8746 0.0000 -13.8582 0.0000
# 2 65.0741 166.9629 41.8564 0.0000 -5.6467 0.0000
# 3 34.8746 41.8564 74.1947 0.0000 1.5041 0.0000
# 4 0.0000 0.0000 0.0000 -3.8097 0.0000 -0.0221
# 5 -13.8582 -5.6467 1.5041 0.0000 28.2738 0.0000
# 6 0.0000 0.0000 0.0000 -0.0221 0.0000 15.5556
#
#
#
# Elastic Compliance Matrix: (Units=1/GPa)
#
#
# Indices 1 2 3 4 5 6 
#
# 1 0.009652 -0.002861 -0.003010 0.000000 0.004320 0.000000
# 2 -0.002861 0.007898 -0.003117 0.000000 0.000341 0.000000
# 3 -0.003010 -0.003117 0.016712 0.000000 -0.002987 0.000000
# 4 0.000000 0.000000 0.000000 -0.262483 0.000000 -0.000374
# 5 0.004320 0.000341 -0.002987 0.000000 0.037713 0.000000
# 6 0.000000 0.000000 0.000000 -0.000374 0.000000 0.064285
#
#
# Mechanical properties :
#
#
# Convention : Reuss Voigt Hill
#
# Bulk Modulus (GPa) = 61.40968 73.86019 67.63493
# Shear Modulus (GPa) = -48.62967 23.95903 -12.33532
#
# Velocity S-wave (km/s) = -5.02971 3.53042 -2.53319
# Velocity P-wave (km/s) = 1.33577 7.41902 5.16031
#
# Compressibility (1/GPa) = 0.01628408
#
# Stress axis : x y z
#
# Youngs Moduli (GPa) = 103.60523 126.62199 59.83642
#
# Poissons Ratio (x) = 0.36228 0.18013
# Poissons Ratio (y) = 0.29643 0.18653
# Poissons Ratio (z) = 0.31189 0.39473
#
# Static dielectric constant tensor:
#      x y z
#    x 3.494130 0.000000 -0.086990 
#    y 0.000000 3.673200 0.000000 
#    z -0.086990 0.000000 3.285050 
# 
# 
# High freq. dielectric constant tensor:
#      x y z
#    x 1.761160 0.000000 -0.007960 
#    y 0.000000 1.761040 0.000000 
#    z -0.007960 0.000000 1.725580 
# 
# From -- ./inp_files/12316.got.cif
#   From: 2010.06.25/outbox.cif.g09.slc.cpg/sg11_7_cif.got.tgz:12316.got - 2010.06.27 23:14:04.
