data_PCOD8072144
_publ_section_title
;
Structure prediction by ZEFSAII (Michael W. Deem and Ramdas Pophale) SiO2 
 PCOD8072144
Probable space group: P 21/M
;
_chemical_formula_sum "Si O2"
_cell_formula_units_Z 24
_cell_length_a 10.093585
_cell_length_b 8.382284
_cell_length_c 14.037797
_cell_angle_alpha 90.000000
_cell_angle_beta 89.606594
_cell_angle_gamma 90.000000
_cell_volume 1187.672050
_symmetry_space_group_name_H-M "P 21/M"
_symmetry_group_IT_number 11
_symmetry_cell_setting 'monoclinic'
loop_
_space_group_symop_operation_xyz
x,y,z
-x,1/2+y,-z
-x,-y,-z
x,1/2-y,z
loop_
_atom_site_type_symbol
_atom_site_label
_atom_site_fract_x
_atom_site_fract_y
_atom_site_fract_z
Si Si1 0.132283 0.435070 0.896622
Si Si2 0.240507 0.567567 0.294281
Si Si3 0.491529 0.065839 0.394011
Si Si4 0.991371 0.434710 0.394713
Si Si5 0.740291 0.932434 0.295297
Si Si6 0.151567 0.066455 0.108750
O O1 0.088271 0.250000 0.897378
O O2 0.246618 0.466433 0.818089
O O3 0.004019 0.538788 0.870768
O O4 0.187490 0.484810 0.000305
O O5 0.203983 0.750000 0.315687
O O6 0.384380 0.532107 0.335181
O O7 0.240878 0.536360 0.180639
O O8 0.132937 0.453990 0.343826
O O9 0.451052 0.250000 0.397471
O O10 0.500000 0.000000 0.500000
O O11 0.632181 0.048300 0.341192
O O12 0.950587 0.250000 0.395048
O O13 0.882586 0.537622 0.340728
O O14 0.000000 0.500000 0.500000
O O15 0.698343 0.750000 0.314651
O O16 0.185035 0.250000 0.126844
#
# Coordination Sequence:
#
# PCOD8072144 Si02
#       6
#     4   4   4   4   4   4
#     4   9  19  35  59  90 126 162 199 246 303 363
#     4  12  24  41  62  89 122 161 205 254 306 361
#     4  12  26  45  65  88 120 162 206 252 307 370
#     4  12  24  39  60  89 120 156 200 254 305 360
#     4  11  22  40  63  91 124 160 201 249 303 363
#     4  10  19  34  59  92 125 160 202 249 302 362
#
# _framework density 20.207597
#
# number of rings (size 3 to 8) (size 9 to 14) (size 15 to 20)
#    0.000    1.000    1.667    6.500    0.000    1.333 
#    0.000    0.833    0.000    0.000    0.000    0.000 
#    0.000    0.000    0.000    0.000    0.000    0.000 
#
# Total GULP energy -297738.523455 kJ/mol
# GULP energy per Si atom -12405.771811 kJ/mol
# Density = 2.016160 g / cm^3
# Si number density = 20.207597 Si / 1000 Ang^3
#
#
#
# Elastic Constant Matrix: (Units=GPa)
#
#
# Indices 1 2 3 4 5 6 
#
# 1 81.3039 10.0665 50.2139 0.0000 -0.0510 0.0000
# 2 10.0665 82.8341 32.9987 0.0000 4.1855 0.0000
# 3 50.2139 32.9987 156.0723 0.0000 5.4043 0.0000
# 4 0.0000 0.0000 0.0000 29.8079 0.0000 0.0615
# 5 -0.0510 4.1855 5.4043 0.0000 34.6460 0.0000
# 6 0.0000 0.0000 0.0000 0.0615 0.0000 32.0817
#
#
#
# Elastic Compliance Matrix: (Units=1/GPa)
#
#
# Indices 1 2 3 4 5 6 
#
# 1 0.015372 0.000080 -0.004990 0.000000 0.000791 0.000000
# 2 0.000080 0.013230 -0.002783 0.000000 -0.001164 0.000000
# 3 -0.004990 -0.002783 0.008636 0.000000 -0.001018 0.000000
# 4 0.000000 0.000000 0.000000 0.033548 0.000000 -0.000064
# 5 0.000791 -0.001164 -0.001018 0.000000 0.029164 0.000000
# 6 0.000000 0.000000 0.000000 -0.000064 0.000000 0.031170
#
#
# Mechanical properties :
#
#
# Convention : Reuss Voigt Hill
#
# Bulk Modulus (GPa) = 45.76093 56.30761 51.03427
# Shear Modulus (GPa) = 32.51168 34.43588 33.47378
#
# Velocity S-wave (km/s) = 4.01544 4.13256 4.07442
# Velocity P-wave (km/s) = 6.64778 7.12010 6.88799
#
# Compressibility (1/GPa) = 0.02185270
#
# Stress axis : x y z
#
# Youngs Moduli (GPa) = 65.05329 75.58601 115.78989
#
# Poissons Ratio (x) = -0.00603 0.57779
# Poissons Ratio (y) = -0.00519 0.32220
# Poissons Ratio (z) = 0.32461 0.21033
#
# Static dielectric constant tensor:
#      x y z
#    x 3.341500 0.000000 0.055380 
#    y 0.000000 3.702170 0.000000 
#    z 0.055380 0.000000 3.747170 
# 
# 
# High freq. dielectric constant tensor:
#      x y z
#    x 1.761380 0.000000 0.001940 
#    y 0.000000 1.798830 0.000000 
#    z 0.001940 0.000000 1.810650 
# 
# From -- ./inp_files/46532.got.cif
#   From: 2010.06.25/outbox.cif.g09.slc.cpg/sg11_24_cif.got.tgz:46532.got - 2010.06.27 23:14:04.
