data_PCOD8072521
_publ_section_title
;
Structure prediction by ZEFSAII (Michael W. Deem and Ramdas Pophale) SiO2 
 PCOD8072521
Probable space group: P 21/M
;
_chemical_formula_sum "Si O2"
_cell_formula_units_Z 28
_cell_length_a 13.916877
_cell_length_b 8.972496
_cell_length_c 11.802008
_cell_angle_alpha 90.000000
_cell_angle_beta 105.964037
_cell_angle_gamma 90.000000
_cell_volume 1416.872192
_symmetry_space_group_name_H-M "P 21/M"
_symmetry_group_IT_number 11
_symmetry_cell_setting 'monoclinic'
loop_
_space_group_symop_operation_xyz
x,y,z
-x,1/2+y,-z
-x,-y,-z
x,1/2-y,z
loop_
_atom_site_type_symbol
_atom_site_label
_atom_site_fract_x
_atom_site_fract_y
_atom_site_fract_z
Si Si1 0.359670 0.421059 0.712241
Si Si2 0.021492 0.920820 0.329572
Si Si3 0.290258 0.426474 0.165261
Si Si4 0.474233 0.425504 0.372682
Si Si5 0.394822 0.422241 0.975046
Si Si6 0.934967 0.573468 0.882100
Si Si7 0.852437 0.920430 0.452112
O O1 0.390884 0.250000 0.699997
O O2 0.447756 0.527070 0.698499
O O3 0.337036 0.446768 0.837847
O O4 0.260744 0.462607 0.611588
O O5 0.036996 0.750000 0.298039
O O6 0.917788 0.944479 0.361105
O O7 0.015680 0.026003 0.219471
O O8 0.113804 0.969599 0.437998
O O9 0.285401 0.250000 0.156401
O O10 0.364201 0.474217 0.292110
O O11 0.179001 0.488631 0.150858
O O12 0.330193 0.490414 0.057677
O O13 0.500000 0.500000 0.500000
O O14 0.479764 0.250000 0.391736
O O15 0.415360 0.250000 0.006397
O O16 0.500000 0.500000 0.000000
O O17 0.938376 0.750000 0.897099
O O18 0.000000 0.500000 0.000000
O O19 0.862443 0.750000 0.497769
#
# Coordination Sequence:
#
# PCOD8072521 Si02
#       7
#     4   4   4   4   4   4   4
#     4  10  21  36  60  89 116 153 196 239 293 354
#     4  10  21  39  62  88 118 153 197 248 298 353
#     4   9  21  40  62  83 115 159 196 234 297 358
#     4  11  23  40  60  87 121 159 199 244 294 356
#     4  10  19  36  60  85 113 147 189 236 284 344
#     4  11  24  42  63  87 118 159 203 248 295 357
#     4   9  20  38  61  86 117 156 195 240 299 361
#
# _framework density 19.761838999999998
#
# number of rings (size 3 to 8) (size 9 to 14) (size 15 to 20)
#    0.000    2.000    1.429    1.286    4.000    1.143 
#    0.000    3.571    0.000    0.000    0.000    0.000 
#    0.000    0.000    0.000    0.000    0.000    0.000 
#
# Total GULP energy -347237.911514 kJ/mol
# GULP energy per Si atom -12401.353983 kJ/mol
# Density = 1.971686 g / cm^3
# Si number density = 19.761839 Si / 1000 Ang^3
#
#
#
# Elastic Constant Matrix: (Units=GPa)
#
#
# Indices 1 2 3 4 5 6 
#
# 1 90.7816 38.2449 52.0339 0.0000 17.9608 0.0000
# 2 38.2449 66.6119 44.8298 0.0000 4.5412 0.0000
# 3 52.0339 44.8298 124.4657 0.0000 3.2425 0.0000
# 4 0.0000 0.0000 0.0000 36.0045 0.0000 -1.9121
# 5 17.9608 4.5412 3.2425 0.0000 33.1360 0.0000
# 6 0.0000 0.0000 0.0000 -1.9121 0.0000 29.5800
#
#
#
# Elastic Compliance Matrix: (Units=1/GPa)
#
#
# Indices 1 2 3 4 5 6 
#
# 1 0.018397 -0.006537 -0.005113 0.000000 -0.008575 0.000000
# 2 -0.006537 0.022274 -0.005316 0.000000 0.001011 0.000000
# 3 -0.005113 -0.005316 0.012026 0.000000 0.002323 0.000000
# 4 0.000000 0.000000 0.000000 0.027870 0.000000 0.001802
# 5 -0.008575 0.001011 0.002323 0.000000 0.034461 0.000000
# 6 0.000000 0.000000 0.000000 0.001802 0.000000 0.033923
#
#
# Mechanical properties :
#
#
# Convention : Reuss Voigt Hill
#
# Bulk Modulus (GPa) = 53.29069 61.34182 57.31625
# Shear Modulus (GPa) = 26.43572 29.52747 27.98159
#
# Velocity S-wave (km/s) = 3.66145 3.86964 3.76698
# Velocity P-wave (km/s) = 6.70074 7.14657 6.92724
#
# Compressibility (1/GPa) = 0.01876501
#
# Stress axis : x y z
#
# Youngs Moduli (GPa) = 54.35815 44.89484 83.15159
#
# Poissons Ratio (x) = 0.29346 0.42516
# Poissons Ratio (y) = 0.35531 0.44207
# Poissons Ratio (z) = 0.27794 0.23868
#
# Static dielectric constant tensor:
#      x y z
#    x 3.770110 0.000000 -0.042750 
#    y 0.000000 3.424830 0.000000 
#    z -0.042750 0.000000 3.952810 
# 
# 
# High freq. dielectric constant tensor:
#      x y z
#    x 1.771880 0.000000 0.000420 
#    y 0.000000 1.754870 0.000000 
#    z 0.000420 0.000000 1.785100 
# 
# From -- ./inp_files/37706.got.cif
#   From: 2010.06.25/outbox.cif.g09.slc.cpg/sg11_19_cif.got.tgz:37706.got - 2010.06.27 23:14:04.
