data_PCOD8072569
_publ_section_title
;
Structure prediction by ZEFSAII (Michael W. Deem and Ramdas Pophale) SiO2 
 PCOD8072569
Probable space group: P 21/M
;
_chemical_formula_sum "Si O2"
_cell_formula_units_Z 32
_cell_length_a 12.724220
_cell_length_b 9.152308
_cell_length_c 31.366261
_cell_angle_alpha 90.000000
_cell_angle_beta 152.495231
_cell_angle_gamma 90.000000
_cell_volume 1686.939787
_symmetry_space_group_name_H-M "P 21/M"
_symmetry_group_IT_number 11
_symmetry_cell_setting 'monoclinic'
loop_
_space_group_symop_operation_xyz
x,y,z
-x,1/2+y,-z
-x,-y,-z
x,1/2-y,z
loop_
_atom_site_type_symbol
_atom_site_label
_atom_site_fract_x
_atom_site_fract_y
_atom_site_fract_z
Si Si1 0.568627 0.910703 0.640344
Si Si2 0.429576 0.422302 0.214729
Si Si3 0.775690 0.415259 0.407813
Si Si4 0.845051 0.922128 0.210664
Si Si5 0.069729 0.577113 0.938921
Si Si6 0.922655 0.084093 0.154544
Si Si7 0.636079 0.419000 0.585058
Si Si8 0.465504 0.423383 0.129514
O O1 0.564595 0.750000 0.617105
O O2 0.374630 0.924096 0.604615
O O3 0.806956 0.934592 0.749498
O O4 0.524786 0.033910 0.589509
O O5 0.426713 0.250000 0.220471
O O6 0.634375 0.486875 0.317595
O O7 0.479555 0.466453 0.184192
O O8 0.184936 0.480772 0.142900
O O9 0.843350 0.250000 0.420725
O O10 0.000000 0.500000 0.500000
O O11 0.795660 0.750000 0.192981
O O12 0.096999 0.960288 0.318356
O O13 0.675789 0.002907 0.181370
O O14 0.810506 0.979139 0.149714
O O15 0.090641 0.750000 0.955609
O O16 0.152738 0.541890 0.920487
O O17 0.230132 0.486836 0.027799
O O18 0.851062 0.250000 0.139806
O O19 0.500000 0.500000 0.500000
O O20 0.598100 0.250000 0.564436
O O21 0.473032 0.250000 0.125424
#
# Coordination Sequence:
#
# PCOD8072569 Si02
#       8
#     4   4   4   4   4   4   4   4
#     4   9  17  33  56  79 107 143 184 231 280 335
#     4   9  19  38  60  81 112 152 192 231 280 338
#     4  10  20  36  57  84 114 147 187 232 284 339
#     4  10  22  39  56  79 114 150 186 234 285 333
#     4  10  19  36  62  86 110 147 190 234 286 341
#     4   9  17  33  60  85 105 141 187 231 282 337
#     4  10  21  36  57  83 110 144 187 233 282 338
#     4  11  23  37  56  84 117 154 191 232 279 337
#
# _framework density 18.969259999999998
#
# number of rings (size 3 to 8) (size 9 to 14) (size 15 to 20)
#    0.000    2.250    1.250    1.500    0.000    4.000 
#    0.000    5.000    0.000    0.000    0.000    0.000 
#    0.000    0.000    0.000    0.000    0.000    0.000 
#
# Total GULP energy -396756.058818 kJ/mol
# GULP energy per Si atom -12398.626838 kJ/mol
# Density = 1.892609 g / cm^3
# Si number density = 18.969260 Si / 1000 Ang^3
#
#
#
# Elastic Constant Matrix: (Units=GPa)
#
#
# Indices 1 2 3 4 5 6 
#
# 1 109.9396 53.6487 62.1109 0.0000 -3.3160 0.0000
# 2 53.6487 77.6344 57.6265 0.0000 -3.3043 0.0000
# 3 62.1109 57.6265 130.4294 0.0000 -15.0442 0.0000
# 4 0.0000 0.0000 0.0000 32.5181 0.0000 1.5610
# 5 -3.3160 -3.3043 -15.0442 0.0000 23.8255 0.0000
# 6 0.0000 0.0000 0.0000 1.5610 0.0000 24.1472
#
#
#
# Elastic Compliance Matrix: (Units=1/GPa)
#
#
# Indices 1 2 3 4 5 6 
#
# 1 0.014929 -0.007404 -0.004009 0.000000 -0.001480 0.000000
# 2 -0.007404 0.023026 -0.006901 0.000000 -0.002194 0.000000
# 3 -0.004009 -0.006901 0.013428 0.000000 0.006964 0.000000
# 4 0.000000 0.000000 0.000000 0.030848 0.000000 -0.001994
# 5 -0.001480 -0.002194 0.006964 0.000000 0.045859 0.000000
# 6 0.000000 0.000000 0.000000 -0.001994 0.000000 0.041542
#
#
# Mechanical properties :
#
#
# Convention : Reuss Voigt Hill
#
# Bulk Modulus (GPa) = 67.76743 73.86396 70.81570
# Shear Modulus (GPa) = 23.67677 25.73932 24.70805
#
# Velocity S-wave (km/s) = 3.53677 3.68760 3.61297
# Velocity P-wave (km/s) = 7.24436 7.56006 7.40389
#
# Compressibility (1/GPa) = 0.01475635
#
# Stress axis : x y z
#
# Youngs Moduli (GPa) = 66.98353 43.42864 74.47036
#
# Poissons Ratio (x) = 0.32154 0.29854
# Poissons Ratio (y) = 0.49594 0.51391
# Poissons Ratio (z) = 0.26852 0.29969
#
# Static dielectric constant tensor:
#      x y z
#    x 3.951540 0.000000 0.027860 
#    y 0.000000 3.482120 0.000000 
#    z 0.027860 0.000000 3.772280 
# 
# 
# High freq. dielectric constant tensor:
#      x y z
#    x 1.744110 0.000000 -0.004700 
#    y 0.000000 1.723890 0.000000 
#    z -0.004700 0.000000 1.740730 
# 
# From -- ./inp_files/54358.got.cif
#   From: 2010.06.25/outbox.cif.g09.slc.cpg/sg11_28_cif.got.tgz:54358.got - 2010.06.27 23:14:04.
