data_PCOD8072886
_publ_section_title
;
Structure prediction by ZEFSAII (Michael W. Deem and Ramdas Pophale) SiO2 
 PCOD8072886
Probable space group: P 21/M
;
_chemical_formula_sum "Si O2"
_cell_formula_units_Z 32
_cell_length_a 24.546063
_cell_length_b 9.085585
_cell_length_c 16.374645
_cell_angle_alpha 90.000000
_cell_angle_beta 27.149543
_cell_angle_gamma 90.000000
_cell_volume 1666.367922
_symmetry_space_group_name_H-M "P 21/M"
_symmetry_group_IT_number 11
_symmetry_cell_setting 'monoclinic'
loop_
_space_group_symop_operation_xyz
x,y,z
-x,1/2+y,-z
-x,-y,-z
x,1/2-y,z
loop_
_atom_site_type_symbol
_atom_site_label
_atom_site_fract_x
_atom_site_fract_y
_atom_site_fract_z
Si Si1 0.626251 0.577109 0.319671
Si Si2 0.705363 0.918714 0.788969
Si Si3 0.292405 0.079509 0.397176
Si Si4 0.494364 0.085095 0.820309
Si Si5 0.925090 0.579662 0.205303
Si Si6 0.156456 0.077245 0.862564
Si Si7 0.708661 0.923841 0.030050
Si Si8 0.874733 0.425836 0.686391
O O1 0.500000 0.500000 0.500000
O O2 0.602263 0.750000 0.355531
O O3 0.716812 0.523185 0.270020
O O4 0.688442 0.534357 0.151060
O O5 0.755121 0.750000 0.725045
O O6 0.697894 0.981706 0.707366
O O7 0.789213 0.028566 0.726534
O O8 0.573513 0.923229 0.002635
O O9 0.322157 0.250000 0.359009
O O10 0.159534 0.045601 0.605542
O O11 0.386142 0.008725 0.334165
O O12 0.533863 0.250000 0.746985
O O13 0.409527 0.025216 0.861354
O O14 0.957964 0.750000 0.154042
O O15 0.855861 0.528686 0.215301
O O16 0.046895 0.492642 0.058767
O O17 0.146866 0.250000 0.887973
O O18 0.731342 0.750000 0.986058
O O19 0.822159 0.012007 0.842356
O O20 0.886724 0.250000 0.675780
O O21 0.000000 0.500000 0.500000
#
# Coordination Sequence:
#
# PCOD8072886 Si02
#       8
#     4   4   4   4   4   4   4   4
#     4  10  22  38  59  86 117 151 189 236 288 338
#     4   9  19  36  52  74 110 144 177 222 272 323
#     4  10  20  32  52  80 108 140 178 225 274 322
#     4   9  18  32  51  73 106 145 179 221 271 326
#     4   9  19  35  54  78 106 140 181 227 276 325
#     4   9  19  37  56  76 107 143 180 226 275 326
#     4   9  20  39  56  79 114 149 187 234 284 332
#     4  11  22  37  59  83 108 145 186 228 280 338
#
# _framework density 19.203441999999999
#
# number of rings (size 3 to 8) (size 9 to 14) (size 15 to 20)
#    0.000    2.500    0.000    2.250    1.750    5.000 
#    0.000    2.500    0.000    0.000    0.000    0.000 
#    0.000    0.000    0.000    0.000    0.000    0.000 
#
# Total GULP energy -396782.377917 kJ/mol
# GULP energy per Si atom -12399.449310 kJ/mol
# Density = 1.915973 g / cm^3
# Si number density = 19.203442 Si / 1000 Ang^3
#
#
#
# Elastic Constant Matrix: (Units=GPa)
#
#
# Indices 1 2 3 4 5 6 
#
# 1 82.6384 28.3958 43.4958 0.0000 -9.1305 0.0000
# 2 28.3958 63.2666 41.0062 0.0000 -8.8798 0.0000
# 3 43.4958 41.0062 84.3178 0.0000 -12.2403 0.0000
# 4 0.0000 0.0000 0.0000 34.5604 0.0000 -5.9414
# 5 -9.1305 -8.8798 -12.2403 0.0000 30.6283 0.0000
# 6 0.0000 0.0000 0.0000 -5.9414 0.0000 26.9659
#
#
#
# Elastic Compliance Matrix: (Units=1/GPa)
#
#
# Indices 1 2 3 4 5 6 
#
# 1 0.017006 -0.002750 -0.007235 0.000000 0.001381 0.000000
# 2 -0.002750 0.023686 -0.009791 0.000000 0.002134 0.000000
# 3 -0.007235 -0.009791 0.020837 0.000000 0.003332 0.000000
# 4 0.000000 0.000000 0.000000 0.030074 0.000000 0.006626
# 5 0.001381 0.002134 0.003332 0.000000 0.035012 0.000000
# 6 0.000000 0.000000 0.000000 0.006626 0.000000 0.038544
#
#
# Mechanical properties :
#
#
# Convention : Reuss Voigt Hill
#
# Bulk Modulus (GPa) = 45.49905 50.66869 48.08387
# Shear Modulus (GPa) = 23.58086 26.25259 24.91673
#
# Velocity S-wave (km/s) = 3.50801 3.70141 3.60601
# Velocity P-wave (km/s) = 6.33662 6.68654 6.51393
#
# Compressibility (1/GPa) = 0.02197848
#
# Stress axis : x y z
#
# Youngs Moduli (GPa) = 58.80112 42.21956 47.99066
#
# Poissons Ratio (x) = 0.11609 0.34722
# Poissons Ratio (y) = 0.16168 0.46986
# Poissons Ratio (z) = 0.42543 0.41336
#
# Static dielectric constant tensor:
#      x y z
#    x 3.602420 0.000000 0.090250 
#    y 0.000000 3.461680 0.000000 
#    z 0.090250 0.000000 3.526380 
# 
# 
# High freq. dielectric constant tensor:
#      x y z
#    x 1.745160 0.000000 0.002200 
#    y 0.000000 1.734450 0.000000 
#    z 0.002200 0.000000 1.749350 
# 
# From -- ./inp_files/55627.got.cif
#   From: 2010.06.25/outbox.cif.g09.slc.cpg/sg11_28_cif.got.tgz:55627.got - 2010.06.27 23:14:04.
