data_PCOD8072613
_publ_section_title
;
Structure prediction by ZEFSAII (Michael W. Deem and Ramdas Pophale) SiO2 
 PCOD8072613
Probable space group: P 21/M
;
_chemical_formula_sum "Si O2"
_cell_formula_units_Z 20
_cell_length_a 14.184470
_cell_length_b 12.576142
_cell_length_c 10.737756
_cell_angle_alpha 90.000000
_cell_angle_beta 30.681276
_cell_angle_gamma 90.000000
_cell_volume 977.388476
_symmetry_space_group_name_H-M "P 21/M"
_symmetry_group_IT_number 11
_symmetry_cell_setting 'monoclinic'
loop_
_space_group_symop_operation_xyz
x,y,z
-x,1/2+y,-z
-x,-y,-z
x,1/2-y,z
loop_
_atom_site_type_symbol
_atom_site_label
_atom_site_fract_x
_atom_site_fract_y
_atom_site_fract_z
Si Si1 0.522822 0.868194 0.381453
Si Si2 0.752014 0.971511 0.727939
Si Si3 0.884552 0.124145 0.776583
Si Si4 0.571766 0.130386 0.786082
Si Si5 0.823541 0.466125 0.117095
O O1 0.584094 0.750000 0.344038
O O2 0.528977 0.891706 0.228634
O O3 0.308770 0.880189 0.666880
O O4 0.681854 0.935983 0.265789
O O5 0.924757 0.894677 0.514078
O O6 0.745252 0.049928 0.856765
O O7 0.739209 0.047921 0.620132
O O8 0.578389 0.892358 0.935261
O O9 0.833685 0.250000 0.829887
O O10 0.894789 0.082983 0.906602
O O11 0.648838 0.250000 0.708136
O O12 0.000000 0.500000 0.000000
#
# Coordination Sequence:
#
# PCOD8072613 Si02
#       5
#     4   4   4   4   4
#     4  10  22  40  62  88 119 160 204 252 307 361
#     4  10  21  36  58  88 118 152 193 246 296 368
#     4  11  22  38  58  86 120 157 198 247 304 359
#     4  10  19  37  60  84 115 152 193 242 301 359
#     4  11  23  41  62  88 124 160 207 260 298 362
#
# _framework density 20.462693000000002
#
# number of rings (size 3 to 8) (size 9 to 14) (size 15 to 20)
#    0.000    1.600    2.000    3.000    0.000    1.600 
#    0.000    1.000    0.000    0.000    0.000    0.000 
#    0.000    0.000    0.000    0.000    0.000    0.000 
#
# Total GULP energy -247808.327312 kJ/mol
# GULP energy per Si atom -12390.416366 kJ/mol
# Density = 2.041612 g / cm^3
# Si number density = 20.462693 Si / 1000 Ang^3
#
#
#
# Elastic Constant Matrix: (Units=GPa)
#
#
# Indices 1 2 3 4 5 6 
#
# 1 72.2505 45.1061 23.6083 0.0000 -9.7483 0.0000
# 2 45.1061 65.8234 21.6960 0.0000 9.4926 0.0000
# 3 23.6083 21.6960 68.3326 0.0000 -0.5219 0.0000
# 4 0.0000 0.0000 0.0000 24.8629 0.0000 3.2921
# 5 -9.7483 9.4926 -0.5219 0.0000 30.9053 0.0000
# 6 0.0000 0.0000 0.0000 3.2921 0.0000 23.5780
#
#
#
# Elastic Compliance Matrix: (Units=1/GPa)
#
#
# Indices 1 2 3 4 5 6 
#
# 1 0.031594 -0.022941 -0.003502 0.000000 0.016953 0.000000
# 2 -0.022941 0.034541 -0.003178 0.000000 -0.017899 0.000000
# 3 -0.003502 -0.003178 0.016855 0.000000 0.000156 0.000000
# 4 0.000000 0.000000 0.000000 0.040978 0.000000 -0.005722
# 5 0.016953 -0.017899 0.000156 0.000000 0.043205 0.000000
# 6 0.000000 0.000000 0.000000 -0.005722 0.000000 0.043211
#
#
# Mechanical properties :
#
#
# Convention : Reuss Voigt Hill
#
# Bulk Modulus (GPa) = 42.10840 43.02527 42.56683
# Shear Modulus (GPa) = 18.01528 23.60231 20.80879
#
# Velocity S-wave (km/s) = 2.97037 3.39990 3.19237
# Velocity P-wave (km/s) = 5.69095 6.04022 5.86819
#
# Compressibility (1/GPa) = 0.02374823
#
# Stress axis : x y z
#
# Youngs Moduli (GPa) = 31.65120 28.95090 59.33124
#
# Poissons Ratio (x) = 0.66415 0.20779
# Poissons Ratio (y) = 0.72610 0.18855
# Poissons Ratio (z) = 0.11085 0.09200
#
# Static dielectric constant tensor:
#      x y z
#    x 3.756670 0.000000 0.043530 
#    y 0.000000 3.738090 0.000000 
#    z 0.043530 0.000000 3.570860 
# 
# 
# High freq. dielectric constant tensor:
#      x y z
#    x 1.801580 0.000000 0.001390 
#    y 0.000000 1.807060 0.000000 
#    z 0.001390 0.000000 1.794270 
# 
# From -- ./inp_files/39121.got.cif
#   From: 2010.06.25/outbox.cif.g09.slc.cpg/sg11_20_cif.got.tgz:39121.got - 2010.06.27 23:14:04.
