data_PCOD8072621
_publ_section_title
;
Structure prediction by ZEFSAII (Michael W. Deem and Ramdas Pophale) SiO2 
 PCOD8072621
Probable space group: P 21/M
;
_chemical_formula_sum "Si O2"
_cell_formula_units_Z 28
_cell_length_a 29.429359
_cell_length_b 8.650001
_cell_length_c 9.852696
_cell_angle_alpha 90.000000
_cell_angle_beta 33.593177
_cell_angle_gamma 90.000000
_cell_volume 1387.735555
_symmetry_space_group_name_H-M "P 21/M"
_symmetry_group_IT_number 11
_symmetry_cell_setting 'monoclinic'
loop_
_space_group_symop_operation_xyz
x,y,z
-x,1/2+y,-z
-x,-y,-z
x,1/2-y,z
loop_
_atom_site_type_symbol
_atom_site_label
_atom_site_fract_x
_atom_site_fract_y
_atom_site_fract_z
Si Si1 0.507384 0.567786 0.831201
Si Si2 0.072504 0.430955 0.565229
Si Si3 0.174750 0.929847 0.086982
Si Si4 0.808880 0.067145 0.511230
Si Si5 0.368991 0.566103 0.969784
Si Si6 0.887461 0.068085 0.045265
Si Si7 0.638775 0.069227 0.315087
O O1 0.500698 0.750000 0.861219
O O2 0.592945 0.522708 0.548119
O O3 0.500000 0.500000 0.000000
O O4 0.435560 0.501986 0.911387
O O5 0.077326 0.250000 0.585556
O O6 0.107895 0.465344 0.328637
O O7 0.126296 0.526468 0.535980
O O8 0.979923 0.496512 0.803328
O O9 0.154150 0.750000 0.163163
O O10 0.167284 0.974703 0.948160
O O11 0.265293 0.970104 0.913365
O O12 0.800832 0.250000 0.521745
O O13 0.719517 0.996700 0.768016
O O14 0.840938 0.995034 0.290102
O O15 0.366178 0.750000 0.980125
O O16 0.391024 0.514223 0.760630
O O17 0.894114 0.250000 0.047228
O O18 0.622642 0.250000 0.378585
#
# Coordination Sequence:
#
# PCOD8072621 Si02
#       7
#     4   4   4   4   4   4   4
#     4  11  24  40  61  90 121 150 183 229 285 338
#     4  11  21  35  53  84 121 149 186 239 293 336
#     4  10  20  37  61  84 109 153 201 234 274 339
#     4  10  19  37  61  82 108 150 198 235 275 335
#     4   9  19  37  62  87 110 146 195 235 271 332
#     4   9  20  34  56  85 113 149 194 241 285 332
#     4  10  20  38  63  88 112 146 195 237 276 334
#
# _framework density 20.176753999999999
#
# number of rings (size 3 to 8) (size 9 to 14) (size 15 to 20)
#    0.000    2.000    1.429    2.143    2.000    0.571 
#    0.000    4.286    0.000    0.000    0.000    0.000 
#    0.000    0.000    0.000    0.000    0.000    0.000 
#
# Total GULP energy -347211.531945 kJ/mol
# GULP energy per Si atom -12400.411855 kJ/mol
# Density = 2.013083 g / cm^3
# Si number density = 20.176754 Si / 1000 Ang^3
#
#
#
# Elastic Constant Matrix: (Units=GPa)
#
#
# Indices 1 2 3 4 5 6 
#
# 1 98.4118 10.8533 46.1924 0.0000 7.2539 0.0000
# 2 10.8533 23.1466 24.8884 0.0000 -0.5239 0.0000
# 3 46.1924 24.8884 132.7694 0.0000 20.3327 0.0000
# 4 0.0000 0.0000 0.0000 26.4512 0.0000 4.9177
# 5 7.2539 -0.5239 20.3327 0.0000 32.9818 0.0000
# 6 0.0000 0.0000 0.0000 4.9177 0.0000 20.8689
#
#
#
# Elastic Compliance Matrix: (Units=1/GPa)
#
#
# Indices 1 2 3 4 5 6 
#
# 1 0.012186 -0.001516 -0.003911 0.000000 -0.000293 0.000000
# 2 -0.001516 0.056205 -0.011259 0.000000 0.008167 0.000000
# 3 -0.003911 -0.011259 0.012035 0.000000 -0.006738 0.000000
# 4 0.000000 0.000000 0.000000 0.039538 0.000000 -0.009317
# 5 -0.000293 0.008167 -0.006738 0.000000 0.034668 0.000000
# 6 0.000000 0.000000 0.000000 -0.009317 0.000000 0.050114
#
#
# Mechanical properties :
#
#
# Convention : Reuss Voigt Hill
#
# Bulk Modulus (GPa) = 21.25195 46.46622 33.85909
# Shear Modulus (GPa) = 19.70050 27.55332 23.62691
#
# Velocity S-wave (km/s) = 3.12812 3.69941 3.42570
# Velocity P-wave (km/s) = 4.85825 6.42861 5.69779
#
# Compressibility (1/GPa) = 0.04705450
#
# Stress axis : x y z
#
# Youngs Moduli (GPa) = 82.06357 17.79201 83.09155
#
# Poissons Ratio (x) = 0.02697 0.32493
# Poissons Ratio (y) = 0.12437 0.93556
# Poissons Ratio (z) = 0.32091 0.20033
#
# Static dielectric constant tensor:
#      x y z
#    x 3.827500 0.000000 0.048310 
#    y 0.000000 3.274880 0.000000 
#    z 0.048310 0.000000 3.991180 
# 
# 
# High freq. dielectric constant tensor:
#      x y z
#    x 1.801130 0.000000 0.003580 
#    y 0.000000 1.748050 0.000000 
#    z 0.003580 0.000000 1.802520 
# 
# From -- ./inp_files/28256.got.cif
#   From: 2010.06.25/outbox.cif.g09.slc.cpg/sg11_15_cif.got.tgz:28256.got - 2010.06.27 23:14:04.
