data_PCOD8072394
_publ_section_title
;
Structure prediction by ZEFSAII (Michael W. Deem and Ramdas Pophale) SiO2 
 PCOD8072394
Probable space group: P 21/M
;
_chemical_formula_sum "Si O2"
_cell_formula_units_Z 32
_cell_length_a 13.181821
_cell_length_b 8.962286
_cell_length_c 30.720312
_cell_angle_alpha 90.000000
_cell_angle_beta 152.418770
_cell_angle_gamma 90.000000
_cell_volume 1680.374802
_symmetry_space_group_name_H-M "P 21/M"
_symmetry_group_IT_number 11
_symmetry_cell_setting 'monoclinic'
loop_
_space_group_symop_operation_xyz
x,y,z
-x,1/2+y,-z
-x,-y,-z
x,1/2-y,z
loop_
_atom_site_type_symbol
_atom_site_label
_atom_site_fract_x
_atom_site_fract_y
_atom_site_fract_z
Si Si1 0.030418 0.576106 0.401791
Si Si2 0.548227 0.926597 0.214491
Si Si3 0.920551 0.926980 0.109600
Si Si4 0.733486 0.426998 0.592614
Si Si5 0.787154 0.075723 0.438504
Si Si6 0.482290 0.927792 0.092148
Si Si7 0.373343 0.926033 0.238046
Si Si8 0.913390 0.926601 0.205730
O O1 0.995120 0.750000 0.380938
O O2 0.127550 0.507909 0.394763
O O3 0.200078 0.545113 0.505057
O O4 0.788450 0.508040 0.318452
O O5 0.555504 0.750000 0.214350
O O6 0.476696 0.987659 0.139929
O O7 0.383677 0.974924 0.190912
O O8 0.891561 0.750000 0.096851
O O9 0.920150 0.987504 0.159022
O O10 0.143252 0.977611 0.170500
O O11 0.723566 0.003736 0.010056
O O12 0.500000 0.500000 0.500000
O O13 0.705998 0.250000 0.579991
O O14 0.862550 0.477464 0.685228
O O15 0.791658 0.250000 0.428911
O O16 0.564453 0.004597 0.337365
O O17 0.000000 0.000000 0.500000
O O18 0.468919 0.750000 0.085172
O O19 0.701439 0.986885 0.151300
O O20 0.408840 0.750000 0.256513
O O21 0.901142 0.750000 0.200716
#
# Coordination Sequence:
#
# PCOD8072394 Si02
#       8
#     4   4   4   4   4   4   4   4
#     4   9  17  32  54  77 105 142 180 217 260 316
#     4   9  16  32  57  79 100 136 183 219 256 314
#     4  10  22  37  53  78 112 142 169 219 284 325
#     4  10  20  35  55  81 110 142 179 218 265 318
#     4  11  21  34  55  81 109 143 182 222 263 315
#     4  10  19  35  61  81  96 135 189 228 260 318
#     4  10  21  37  55  77 110 147 178 215 271 329
#     4   9  18  35  57  78 104 141 180 215 263 326
#
# _framework density 19.043369999999999
#
# number of rings (size 3 to 8) (size 9 to 14) (size 15 to 20)
#    0.000    2.250    2.500    0.750    1.750    1.000 
#    0.000    2.500    0.000    0.000    0.000    0.000 
#    0.000    0.000    0.000    0.000    0.000    0.000 
#
# Total GULP energy -396674.203936 kJ/mol
# GULP energy per Si atom -12396.068873 kJ/mol
# Density = 1.900003 g / cm^3
# Si number density = 19.043370 Si / 1000 Ang^3
#
#
#
# Elastic Constant Matrix: (Units=GPa)
#
#
# Indices 1 2 3 4 5 6 
#
# 1 171.2055 24.6992 91.6654 0.0000 -7.9399 0.0000
# 2 24.6992 26.5392 34.4985 0.0000 1.3356 0.0000
# 3 91.6654 34.4985 172.8220 0.0000 -1.6399 0.0000
# 4 0.0000 0.0000 0.0000 34.8942 0.0000 -1.0283
# 5 -7.9399 1.3356 -1.6399 0.0000 32.6267 0.0000
# 6 0.0000 0.0000 0.0000 -1.0283 0.0000 15.9670
#
#
#
# Elastic Compliance Matrix: (Units=1/GPa)
#
#
# Indices 1 2 3 4 5 6 
#
# 1 0.008423 -0.002911 -0.003868 0.000000 0.001975 0.000000
# 2 -0.002911 0.052110 -0.008889 0.000000 -0.003288 0.000000
# 3 -0.003868 -0.008889 0.009612 0.000000 -0.000094 0.000000
# 4 0.000000 0.000000 0.000000 0.028713 0.000000 0.001849
# 5 0.001975 -0.003288 -0.000094 0.000000 0.031260 0.000000
# 6 0.000000 0.000000 0.000000 0.001849 0.000000 0.062748
#
#
# Mechanical properties :
#
#
# Convention : Reuss Voigt Hill
#
# Bulk Modulus (GPa) = 25.76754 74.69920 50.23337
# Shear Modulus (GPa) = 21.08470 31.34446 26.21458
#
# Velocity S-wave (km/s) = 3.33106 4.06143 3.71424
# Velocity P-wave (km/s) = 5.32494 7.82973 6.69551
#
# Compressibility (1/GPa) = 0.03880851
#
# Stress axis : x y z
#
# Youngs Moduli (GPa) = 118.71651 19.19018 104.04154
#
# Poissons Ratio (x) = 0.05586 0.40244
# Poissons Ratio (y) = 0.34555 0.92488
# Poissons Ratio (z) = 0.45920 0.17059
#
# Static dielectric constant tensor:
#      x y z
#    x 4.040470 0.000000 -0.172910 
#    y 0.000000 3.072720 0.000000 
#    z -0.172910 0.000000 3.636150 
# 
# 
# High freq. dielectric constant tensor:
#      x y z
#    x 1.758460 0.000000 -0.006700 
#    y 0.000000 1.694300 0.000000 
#    z -0.006700 0.000000 1.748000 
# 
# From -- ./inp_files/54376.got.cif
#   From: 2010.06.25/outbox.cif.g09.slc.cpg/sg11_28_cif.got.tgz:54376.got - 2010.06.27 23:14:04.
