data_PCOD8072218
_publ_section_title
;
Structure prediction by ZEFSAII (Michael W. Deem and Ramdas Pophale) SiO2 
 PCOD8072218
Probable space group: P 21/M
;
_chemical_formula_sum "Si O2"
_cell_formula_units_Z 32
_cell_length_a 12.878144
_cell_length_b 8.665710
_cell_length_c 31.732212
_cell_angle_alpha 90.000000
_cell_angle_beta 27.433273
_cell_angle_gamma 90.000000
_cell_volume 1631.512455
_symmetry_space_group_name_H-M "P 21/M"
_symmetry_group_IT_number 11
_symmetry_cell_setting 'monoclinic'
loop_
_space_group_symop_operation_xyz
x,y,z
-x,1/2+y,-z
-x,-y,-z
x,1/2-y,z
loop_
_atom_site_type_symbol
_atom_site_label
_atom_site_fract_x
_atom_site_fract_y
_atom_site_fract_z
Si Si1 0.063744 0.932759 0.214753
Si Si2 0.445648 0.434066 0.932584
Si Si3 0.173788 0.933977 0.404597
Si Si4 0.641913 0.430859 0.217747
Si Si5 0.580236 0.922475 0.151520
Si Si6 0.258737 0.065959 0.596942
Si Si7 0.070106 0.577735 0.352551
Si Si8 0.955911 0.432318 0.873910
O O1 0.073147 0.750000 0.211795
O O2 0.299608 0.992202 0.149744
O O3 0.024169 0.991628 0.181453
O O4 0.850460 0.990961 0.319571
O O5 0.426002 0.250000 0.945020
O O6 0.352366 0.482321 0.919408
O O7 0.291862 0.521995 0.021491
O O8 0.178125 0.750000 0.404145
O O9 0.083977 0.004108 0.392828
O O10 0.430421 0.989885 0.317567
O O11 0.000000 0.000000 0.500000
O O12 0.610279 0.250000 0.232514
O O13 0.665293 0.473278 0.159638
O O14 0.863573 0.481173 0.162366
O O15 0.673700 0.750000 0.126294
O O16 0.312267 0.918674 0.243993
O O17 0.264060 0.250000 0.594287
O O18 0.102699 0.993964 0.616266
O O19 0.500000 0.000000 0.500000
O O20 0.980437 0.750000 0.392435
O O21 0.993647 0.250000 0.863771
#
# Coordination Sequence:
#
# PCOD8072218 Si02
#       8
#     4   4   4   4   4   4   4   4
#     4   9  19  37  61  83 112 153 195 234 286 349
#     4  10  19  36  63  89 111 148 195 238 292 356
#     4  10  20  36  59  86 112 148 192 237 290 348
#     4  11  23  39  57  81 115 154 195 242 291 341
#     4   9  17  34  61  85 107 143 188 237 290 346
#     4  10  19  35  56  82 111 144 185 230 280 337
#     4   8  15  31  55  77 103 141 183 225 275 336
#     4  11  23  38  56  84 120 157 192 237 289 346
#
# _framework density 19.613703000000001
#
# number of rings (size 3 to 8) (size 9 to 14) (size 15 to 20)
#    0.000    2.250    1.250    3.000    0.000    2.000 
#    0.000    8.125    0.000    0.000    0.000    0.000 
#    0.000    0.000    0.000    0.000    0.000    0.000 
#
# Total GULP energy -396589.617115 kJ/mol
# GULP energy per Si atom -12393.425535 kJ/mol
# Density = 1.956906 g / cm^3
# Si number density = 19.613703 Si / 1000 Ang^3
#
#
#
# Elastic Constant Matrix: (Units=GPa)
#
#
# Indices 1 2 3 4 5 6 
#
# 1 123.6699 29.7892 61.5969 0.0000 2.7375 0.0000
# 2 29.7892 60.7920 23.8761 0.0000 3.8420 0.0000
# 3 61.5969 23.8761 129.2342 0.0000 14.7370 0.0000
# 4 0.0000 0.0000 0.0000 33.7417 0.0000 -1.5612
# 5 2.7375 3.8420 14.7370 0.0000 31.5374 0.0000
# 6 0.0000 0.0000 0.0000 -1.5612 0.0000 15.7133
#
#
#
# Elastic Compliance Matrix: (Units=1/GPa)
#
#
# Indices 1 2 3 4 5 6 
#
# 1 0.011419 -0.003764 -0.004950 0.000000 0.001781 0.000000
# 2 -0.003764 0.018990 -0.001572 0.000000 -0.001252 0.000000
# 3 -0.004950 -0.001572 0.010898 0.000000 -0.004471 0.000000
# 4 0.000000 0.000000 0.000000 0.029774 0.000000 0.002958
# 5 0.001781 -0.001252 -0.004471 0.000000 0.033796 0.000000
# 6 0.000000 0.000000 0.000000 0.002958 0.000000 0.063934
#
#
# Mechanical properties :
#
#
# Convention : Reuss Voigt Hill
#
# Bulk Modulus (GPa) = 48.22715 60.46894 54.34804
# Shear Modulus (GPa) = 25.47207 29.42742 27.44974
#
# Velocity S-wave (km/s) = 3.60764 3.87764 3.74507
# Velocity P-wave (km/s) = 6.48038 7.13757 6.81690
#
# Compressibility (1/GPa) = 0.02073521
#
# Stress axis : x y z
#
# Youngs Moduli (GPa) = 87.57475 52.65850 91.76370
#
# Poissons Ratio (x) = 0.19819 0.45425
# Poissons Ratio (y) = 0.32961 0.14423
# Poissons Ratio (z) = 0.43352 0.08277
#
# Static dielectric constant tensor:
#      x y z
#    x 4.083190 0.000000 0.377960 
#    y 0.000000 3.816150 0.000000 
#    z 0.377960 0.000000 3.925940 
# 
# 
# High freq. dielectric constant tensor:
#      x y z
#    x 1.776580 0.000000 0.007510 
#    y 0.000000 1.733790 0.000000 
#    z 0.007510 0.000000 1.765510 
# 
# From -- ./inp_files/73115.got.cif
#   From: 2010.06.25/outbox.cif.g09.slc.cpg/sg11_37_cif.got.tgz:73115.got - 2010.06.27 23:14:04.
