data_PCOD8072454
_publ_section_title
;
Structure prediction by ZEFSAII (Michael W. Deem and Ramdas Pophale) SiO2 
 PCOD8072454
Probable space group: P 21/M
;
_chemical_formula_sum "Si O2"
_cell_formula_units_Z 24
_cell_length_a 14.914627
_cell_length_b 9.256833
_cell_length_c 14.531434
_cell_angle_alpha 90.000000
_cell_angle_beta 40.264050
_cell_angle_gamma 90.000000
_cell_volume 1296.656456
_symmetry_space_group_name_H-M "P 21/M"
_symmetry_group_IT_number 11
_symmetry_cell_setting 'monoclinic'
loop_
_space_group_symop_operation_xyz
x,y,z
-x,1/2+y,-z
-x,-y,-z
x,1/2-y,z
loop_
_atom_site_type_symbol
_atom_site_label
_atom_site_fract_x
_atom_site_fract_y
_atom_site_fract_z
Si Si1 0.569525 0.579892 0.113062
Si Si2 0.699107 0.082495 0.382058
Si Si3 0.741467 0.081646 0.663617
Si Si4 0.197823 0.580186 0.176883
Si Si5 0.590046 0.917114 0.306511
Si Si6 0.075703 0.579671 0.646623
O O1 0.579889 0.750000 0.081493
O O2 0.413815 0.518812 0.221806
O O3 0.620176 0.547904 0.176873
O O4 0.662413 0.489000 0.971007
O O5 0.691340 0.250000 0.365420
O O6 0.566767 0.034084 0.546582
O O7 0.837365 0.044815 0.329910
O O8 0.700660 0.000600 0.283307
O O9 0.727504 0.250000 0.653700
O O10 0.808656 0.047858 0.709351
O O11 0.841305 0.016914 0.506750
O O12 0.197402 0.750000 0.156456
O O13 0.067385 0.505399 0.230749
O O14 0.609993 0.750000 0.311869
O O15 0.045253 0.750000 0.660557
#
# Coordination Sequence:
#
# PCOD8072454 Si02
#       6
#     4   4   4   4   4   4
#     4  10  19  36  58  78 104 143 181 212 258 321
#     4   9  17  31  54  81 105 132 170 216 263 311
#     4   9  18  35  58  79 103 138 182 223 258 307
#     4  11  23  35  50  79 114 142 173 221 268 303
#     4   9  17  31  54  81 105 132 170 216 263 311
#     4  10  19  36  58  78 104 143 181 212 258 321
#
# _framework density 18.509143999999999
#
# number of rings (size 3 to 8) (size 9 to 14) (size 15 to 20)
#    0.000    2.333    1.667    1.500    0.000    1.333 
#    0.000    3.333    0.000    0.000    0.000    0.000 
#    0.000    0.000    0.000    0.000    0.000    0.000 
#
# Total GULP energy -297631.748380 kJ/mol
# GULP energy per Si atom -12401.322849 kJ/mol
# Density = 1.846702 g / cm^3
# Si number density = 18.509144 Si / 1000 Ang^3
#
#
#
# Elastic Constant Matrix: (Units=GPa)
#
#
# Indices 1 2 3 4 5 6 
#
# 1 90.0424 36.7846 9.6301 0.0000 -11.1477 0.0000
# 2 36.7846 48.0632 15.4006 0.0000 -2.4684 0.0000
# 3 9.6301 15.4006 44.0910 0.0000 -14.9472 0.0000
# 4 0.0000 0.0000 0.0000 24.8490 0.0000 2.6087
# 5 -11.1477 -2.4684 -14.9472 0.0000 25.4580 0.0000
# 6 0.0000 0.0000 0.0000 2.6087 0.0000 27.5405
#
#
#
# Elastic Compliance Matrix: (Units=1/GPa)
#
#
# Indices 1 2 3 4 5 6 
#
# 1 0.017610 -0.014352 0.004132 0.000000 0.008745 0.000000
# 2 -0.014352 0.035331 -0.012704 0.000000 -0.010318 0.000000
# 3 0.004132 -0.012704 0.032974 0.000000 0.019938 0.000000
# 4 0.000000 0.000000 0.000000 0.040647 0.000000 -0.003850
# 5 0.008745 -0.010318 0.019938 0.000000 0.053815 0.000000
# 6 0.000000 0.000000 0.000000 -0.003850 0.000000 0.036675
#
#
# Mechanical properties :
#
#
# Convention : Reuss Voigt Hill
#
# Bulk Modulus (GPa) = 24.95875 33.98080 29.46978
# Shear Modulus (GPa) = 18.09907 23.59493 20.84700
#
# Velocity S-wave (km/s) = 3.13044 3.57427 3.35969
# Velocity P-wave (km/s) = 5.15559 5.95253 5.56833
#
# Compressibility (1/GPa) = 0.04006611
#
# Stress axis : x y z
#
# Youngs Moduli (GPa) = 56.78590 28.30373 30.32668
#
# Poissons Ratio (x) = 0.40622 -0.12530
# Poissons Ratio (y) = 0.81501 0.38527
# Poissons Ratio (z) = -0.23462 0.35957
#
# Static dielectric constant tensor:
#      x y z
#    x 3.470330 0.000000 0.049220 
#    y 0.000000 3.172850 0.000000 
#    z 0.049220 0.000000 3.290560 
# 
# 
# High freq. dielectric constant tensor:
#      x y z
#    x 1.729150 0.000000 0.002880 
#    y 0.000000 1.695700 0.000000 
#    z 0.002880 0.000000 1.705900 
# 
# From -- ./inp_files/25747.got.cif
#   From: 2010.06.25/outbox.cif.g09.slc.cpg/sg11_13_cif.got.tgz:25747.got - 2010.06.27 23:14:04.
