data_PCOD8072729
_publ_section_title
;
Structure prediction by ZEFSAII (Michael W. Deem and Ramdas Pophale) SiO2 
 PCOD8072729
Probable space group: P 21/M
;
_chemical_formula_sum "Si O2"
_cell_formula_units_Z 32
_cell_length_a 11.083025
_cell_length_b 16.011469
_cell_length_c 17.659039
_cell_angle_alpha 90.000000
_cell_angle_beta 30.956812
_cell_angle_gamma 90.000000
_cell_volume 1611.946451
_symmetry_space_group_name_H-M "P 21/M"
_symmetry_group_IT_number 11
_symmetry_cell_setting 'monoclinic'
loop_
_space_group_symop_operation_xyz
x,y,z
-x,1/2+y,-z
-x,-y,-z
x,1/2-y,z
loop_
_atom_site_type_symbol
_atom_site_label
_atom_site_fract_x
_atom_site_fract_y
_atom_site_fract_z
Si Si1 0.485530 0.542615 0.254194
Si Si2 0.007951 0.931869 0.741958
Si Si3 0.264256 0.153401 0.758834
Si Si4 0.232734 0.844291 0.268263
Si Si5 0.814601 0.444615 0.971877
Si Si6 0.222099 0.060060 0.512407
Si Si7 0.491177 0.402392 0.021202
Si Si8 0.470770 0.845581 0.538702
O O1 0.568667 0.606576 0.272911
O O2 0.346014 0.591539 0.265189
O O3 0.314318 0.474002 0.382805
O O4 0.707803 0.496502 0.098487
O O5 0.203447 0.866837 0.663104
O O6 0.783500 0.877246 0.834206
O O7 0.094998 0.985534 0.624568
O O8 0.943101 0.991907 0.846164
O O9 0.264970 0.250000 0.780828
O O10 0.361501 0.137846 0.622670
O O11 0.000292 0.119857 0.906237
O O12 0.252985 0.750000 0.288017
O O13 0.959860 0.865373 0.404068
O O14 0.364114 0.849509 0.117369
O O15 0.611839 0.390347 0.038417
O O16 0.442755 0.094919 0.440603
O O17 0.500000 0.500000 0.000000
O O18 0.482613 0.750000 0.558683
#
# Coordination Sequence:
#
# PCOD8072729 Si02
#       8
#     4   4   4   4   4   4   4   4
#     4  12  24  41  63  95 130 167 210 255 319 387
#     4  11  19  39  65  89 123 160 212 251 304 382
#     4  11  23  40  62  94 130 164 208 263 319 370
#     4  12  24  41  66  98 129 165 210 267 320 371
#     4  11  21  41  67  92 121 162 214 255 310 378
#     4  12  22  41  68  93 122 169 218 259 309 380
#     4  10  19  39  66  91 122 156 211 257 300 379
#     4  11  23  39  62  95 126 162 213 267 312 364
#
# _framework density 19.851776000000001
#
# number of rings (size 3 to 8) (size 9 to 14) (size 15 to 20)
#    0.000    0.750    7.500    2.625    0.000    2.000 
#    0.000    2.500    0.000    0.000    0.000    0.000 
#    0.000    0.000    0.000    0.000    0.000    0.000 
#
# Total GULP energy -396937.045758 kJ/mol
# GULP energy per Si atom -12404.282680 kJ/mol
# Density = 1.980659 g / cm^3
# Si number density = 19.851776 Si / 1000 Ang^3
#
#
#
# Elastic Constant Matrix: (Units=GPa)
#
#
# Indices 1 2 3 4 5 6 
#
# 1 43.1023 37.9436 27.9985 0.0000 -15.1908 0.0000
# 2 37.9436 76.5492 38.3934 0.0000 -2.3849 0.0000
# 3 27.9985 38.3934 77.1448 0.0000 -10.3995 0.0000
# 4 0.0000 0.0000 0.0000 23.9016 0.0000 1.0855
# 5 -15.1908 -2.3849 -10.3995 0.0000 42.9817 0.0000
# 6 0.0000 0.0000 0.0000 1.0855 0.0000 17.1147
#
#
#
# Elastic Compliance Matrix: (Units=1/GPa)
#
#
# Indices 1 2 3 4 5 6 
#
# 1 0.052397 -0.022674 -0.005588 0.000000 0.015908 0.000000
# 2 -0.022674 0.027278 -0.006432 0.000000 -0.008056 0.000000
# 3 -0.005588 -0.006432 0.018480 0.000000 0.002140 0.000000
# 4 0.000000 0.000000 0.000000 0.041959 0.000000 -0.002661
# 5 0.015908 -0.008056 0.002140 0.000000 0.028959 0.000000
# 6 0.000000 0.000000 0.000000 -0.002661 0.000000 0.058598
#
#
# Mechanical properties :
#
#
# Convention : Reuss Voigt Hill
#
# Bulk Modulus (GPa) = 34.76214 45.05190 39.90702
# Shear Modulus (GPa) = 16.30532 22.96366 19.63449
#
# Velocity S-wave (km/s) = 2.86903 3.40480 3.14834
# Velocity P-wave (km/s) = 5.34079 6.18064 5.77600
#
# Compressibility (1/GPa) = 0.02876693
#
# Stress axis : x y z
#
# Youngs Moduli (GPa) = 19.08495 36.66014 54.11142
#
# Poissons Ratio (x) = 0.83123 0.30237
# Poissons Ratio (y) = 0.43273 0.34807
# Poissons Ratio (z) = 0.10665 0.23581
#
# Static dielectric constant tensor:
#      x y z
#    x 3.918570 0.000000 -0.261100 
#    y 0.000000 3.659050 0.000000 
#    z -0.261100 0.000000 3.916810 
# 
# 
# High freq. dielectric constant tensor:
#      x y z
#    x 1.784700 0.000000 -0.014000 
#    y 0.000000 1.760610 0.000000 
#    z -0.014000 0.000000 1.776370 
# 
# From -- ./inp_files/59441.got.cif
#   From: 2010.06.25/outbox.cif.g09.slc.cpg/sg11_30_cif.got.tgz:59441.got - 2010.06.27 23:14:04.
