data_PCOD8072275
_publ_section_title
;
Structure prediction by ZEFSAII (Michael W. Deem and Ramdas Pophale) SiO2 
 PCOD8072275
Probable space group: P 21/M
;
_chemical_formula_sum "Si O2"
_cell_formula_units_Z 32
_cell_length_a 14.980287
_cell_length_b 9.136629
_cell_length_c 12.701911
_cell_angle_alpha 90.000000
_cell_angle_beta 71.051143
_cell_angle_gamma 90.000000
_cell_volume 1644.290481
_symmetry_space_group_name_H-M "P 21/M"
_symmetry_group_IT_number 11
_symmetry_cell_setting 'monoclinic'
loop_
_space_group_symop_operation_xyz
x,y,z
-x,1/2+y,-z
-x,-y,-z
x,1/2-y,z
loop_
_atom_site_type_symbol
_atom_site_label
_atom_site_fract_x
_atom_site_fract_y
_atom_site_fract_z
Si Si1 0.799911 0.575756 0.107155
Si Si2 0.407418 0.081846 0.321440
Si Si3 0.596255 0.417337 0.480568
Si Si4 0.906832 0.578910 0.498289
Si Si5 0.084012 0.422497 0.738388
Si Si6 0.622493 0.417544 0.238202
Si Si7 0.768416 0.917456 0.737794
Si Si8 0.125812 0.923501 0.124827
O O1 0.801732 0.750000 0.095308
O O2 0.848666 0.516097 0.195533
O O3 0.691810 0.520355 0.144800
O O4 0.857657 0.504325 0.990826
O O5 0.410276 0.250000 0.356899
O O6 0.514707 0.028541 0.258839
O O7 0.343308 0.061278 0.242106
O O8 0.356115 0.993394 0.436293
O O9 0.500000 0.500000 0.500000
O O10 0.576291 0.250000 0.516208
O O11 0.653331 0.432047 0.349412
O O12 0.929607 0.750000 0.486076
O O13 0.880496 0.523627 0.390145
O O14 0.822334 0.541508 0.609509
O O15 0.000000 0.500000 0.500000
O O16 0.087743 0.250000 0.744956
O O17 0.976455 0.474995 0.795681
O O18 0.633661 0.250000 0.196065
O O19 0.790233 0.750000 0.762554
O O20 0.796619 0.025578 0.820190
O O21 0.133661 0.750000 0.106298
#
# Coordination Sequence:
#
# PCOD8072275 Si02
#       8
#     4   4   4   4   4   4   4   4
#     4  11  23  38  60  85 110 145 194 240 281 337
#     4   9  19  35  56  81 114 152 189 232 280 335
#     4   9  17  30  50  76 109 146 184 227 275 332
#     4  10  19  35  57  85 119 150 184 227 279 337
#     4   9  20  37  58  85 115 148 184 227 283 340
#     4   9  19  36  53  78 114 148 186 232 283 330
#     4  10  21  36  59  87 116 152 191 232 278 336
#     4  11  22  40  61  80 113 151 187 235 286 338
#
# _framework density 19.461283000000002
#
# number of rings (size 3 to 8) (size 9 to 14) (size 15 to 20)
#    0.000    2.250    1.250    2.250    1.750    3.000 
#    0.000    3.750    0.000    0.000    0.000    0.000 
#    0.000    0.000    0.000    0.000    0.000    0.000 
#
# Total GULP energy -396692.999433 kJ/mol
# GULP energy per Si atom -12396.656232 kJ/mol
# Density = 1.941699 g / cm^3
# Si number density = 19.461283 Si / 1000 Ang^3
#
#
#
# Elastic Constant Matrix: (Units=GPa)
#
#
# Indices 1 2 3 4 5 6 
#
# 1 98.8829 23.2714 31.6277 0.0000 10.5954 0.0000
# 2 23.2714 63.8944 25.8252 0.0000 5.2109 0.0000
# 3 31.6277 25.8252 81.4124 0.0000 16.6964 0.0000
# 4 0.0000 0.0000 0.0000 32.5680 0.0000 3.0486
# 5 10.5954 5.2109 16.6964 0.0000 25.0958 0.0000
# 6 0.0000 0.0000 0.0000 3.0486 0.0000 26.9685
#
#
#
# Elastic Compliance Matrix: (Units=1/GPa)
#
#
# Indices 1 2 3 4 5 6 
#
# 1 0.012097 -0.002879 -0.003314 0.000000 -0.002305 0.000000
# 2 -0.002879 0.018638 -0.004921 0.000000 0.000619 0.000000
# 3 -0.003314 -0.004921 0.016947 0.000000 -0.008854 0.000000
# 4 0.000000 0.000000 0.000000 0.031033 0.000000 -0.003508
# 5 -0.002305 0.000619 -0.008854 0.000000 0.046583 0.000000
# 6 0.000000 0.000000 0.000000 -0.003508 0.000000 0.037477
#
#
# Mechanical properties :
#
#
# Convention : Reuss Voigt Hill
#
# Bulk Modulus (GPa) = 39.28373 45.07092 42.17733
# Shear Modulus (GPa) = 25.84149 27.82414 26.83282
#
# Velocity S-wave (km/s) = 3.64791 3.78526 3.71722
# Velocity P-wave (km/s) = 6.16217 6.50491 6.33586
#
# Compressibility (1/GPa) = 0.02545583
#
# Stress axis : x y z
#
# Youngs Moduli (GPa) = 82.66276 53.65468 59.00631
#
# Poissons Ratio (x) = 0.15446 0.19553
# Poissons Ratio (y) = 0.23796 0.29036
# Poissons Ratio (z) = 0.27393 0.26402
#
# Static dielectric constant tensor:
#      x y z
#    x 4.386550 0.000000 0.243880 
#    y 0.000000 3.580640 0.000000 
#    z 0.243880 0.000000 3.636000 
# 
# 
# High freq. dielectric constant tensor:
#      x y z
#    x 1.756780 0.000000 0.002940 
#    y 0.000000 1.746580 0.000000 
#    z 0.002940 0.000000 1.749330 
# 
# From -- ./inp_files/51646.got.cif
#   From: 2010.06.25/outbox.cif.g09.slc.cpg/sg11_26_cif.got.tgz:51646.got - 2010.06.27 23:14:04.
