data_PCOD8072238
_publ_section_title
;
Structure prediction by ZEFSAII (Michael W. Deem and Ramdas Pophale) SiO2 
 PCOD8072238
Probable space group: P 21/M
;
_chemical_formula_sum "Si O2"
_cell_formula_units_Z 28
_cell_length_a 26.761667
_cell_length_b 8.560094
_cell_length_c 9.560082
_cell_angle_alpha 90.000000
_cell_angle_beta 140.787821
_cell_angle_gamma 90.000000
_cell_volume 1384.534215
_symmetry_space_group_name_H-M "P 21/M"
_symmetry_group_IT_number 11
_symmetry_cell_setting 'monoclinic'
loop_
_space_group_symop_operation_xyz
x,y,z
-x,1/2+y,-z
-x,-y,-z
x,1/2-y,z
loop_
_atom_site_type_symbol
_atom_site_label
_atom_site_fract_x
_atom_site_fract_y
_atom_site_fract_z
Si Si1 0.687393 0.569225 0.684950
Si Si2 0.585871 0.933901 0.210947
Si Si3 0.984924 0.934959 0.118373
Si Si4 0.931684 0.564871 0.451529
Si Si5 0.181010 0.570297 0.208304
Si Si6 0.764418 0.066705 0.103627
Si Si7 0.719170 0.429602 0.311680
O O1 0.676217 0.750000 0.697456
O O2 0.617116 0.506719 0.430978
O O3 0.767635 0.544705 0.773625
O O4 0.692367 0.473530 0.841161
O O5 0.582366 0.750000 0.204969
O O6 0.643481 0.983233 0.210399
O O7 0.500000 0.000000 0.000000
O O8 0.975126 0.750000 0.094724
O O9 0.057435 0.986730 0.372773
O O10 0.907655 0.017629 0.011701
O O11 0.000000 0.000000 0.000000
O O12 0.938503 0.750000 0.472088
O O13 0.843332 0.516101 0.214114
O O14 0.000000 0.500000 0.500000
O O15 0.192465 0.750000 0.185062
O O16 0.204708 0.550233 0.422710
O O17 0.779759 0.250000 0.142670
O O18 0.741288 0.001810 0.207205
O O19 0.694480 0.250000 0.243860
#
# Coordination Sequence:
#
# PCOD8072238 Si02
#       7
#     4   4   4   4   4   4   4
#     4  10  21  37  57  84 114 148 186 227 274 335
#     4  10  21  38  63  90 118 148 185 228 275 333
#     4  12  24  38  55  79 110 146 191 243 294 345
#     4  12  25  41  59  81 113 155 199 247 297 347
#     4  10  19  35  57  80 107 144 188 236 286 339
#     4  11  22  38  59  85 116 151 191 238 287 342
#     4   9  20  37  59  85 115 148 186 231 282 337
#
# _framework density 20.223407999999999
#
# number of rings (size 3 to 8) (size 9 to 14) (size 15 to 20)
#    0.000    1.429    0.000    6.000    0.000    4.571 
#    0.000    0.714    0.000    0.000    0.000    0.000 
#    0.000    0.000    0.000    0.000    0.000    0.000 
#
# Total GULP energy -347241.899031 kJ/mol
# GULP energy per Si atom -12401.496394 kJ/mol
# Density = 2.017738 g / cm^3
# Si number density = 20.223408 Si / 1000 Ang^3
#
#
#
# Elastic Constant Matrix: (Units=GPa)
#
#
# Indices 1 2 3 4 5 6 
#
# 1 64.6913 31.5024 39.6688 0.0000 -8.8472 0.0000
# 2 31.5024 76.6211 30.5969 0.0000 -2.6802 0.0000
# 3 39.6688 30.5969 116.7621 0.0000 -5.8454 0.0000
# 4 0.0000 0.0000 0.0000 35.3679 0.0000 -0.6784
# 5 -8.8472 -2.6802 -5.8454 0.0000 40.1277 0.0000
# 6 0.0000 0.0000 0.0000 -0.6784 0.0000 32.8114
#
#
#
# Elastic Compliance Matrix: (Units=1/GPa)
#
#
# Indices 1 2 3 4 5 6 
#
# 1 0.022906 -0.006985 -0.005764 0.000000 0.003744 0.000000
# 2 -0.006985 0.016714 -0.002043 0.000000 -0.000721 0.000000
# 3 -0.005764 -0.002043 0.011068 0.000000 0.000205 0.000000
# 4 0.000000 0.000000 0.000000 0.028285 0.000000 0.000585
# 5 0.003744 -0.000721 0.000205 0.000000 0.025728 0.000000
# 6 0.000000 0.000000 0.000000 0.000585 0.000000 0.030489
#
#
# Mechanical properties :
#
#
# Convention : Reuss Voigt Hill
#
# Bulk Modulus (GPa) = 47.38431 51.29006 49.33718
# Shear Modulus (GPa) = 29.10206 32.08183 30.59194
#
# Velocity S-wave (km/s) = 3.79757 3.98725 3.89356
# Velocity P-wave (km/s) = 6.53529 6.82747 6.68298
#
# Compressibility (1/GPa) = 0.02110403
#
# Stress axis : x y z
#
# Youngs Moduli (GPa) = 43.65634 59.83167 90.34768
#
# Poissons Ratio (x) = 0.41792 0.52080
# Poissons Ratio (y) = 0.30494 0.18456
# Poissons Ratio (z) = 0.25165 0.12222
#
# Static dielectric constant tensor:
#      x y z
#    x 3.488860 0.000000 -0.265330 
#    y 0.000000 4.131010 0.000000 
#    z -0.265330 0.000000 3.983100 
# 
# 
# High freq. dielectric constant tensor:
#      x y z
#    x 1.774400 0.000000 -0.016210 
#    y 0.000000 1.796190 0.000000 
#    z -0.016210 0.000000 1.800340 
# 
# From -- ./inp_files/28606.got.cif
#   From: 2010.06.25/outbox.cif.g09.slc.cpg/sg11_15_cif.got.tgz:28606.got - 2010.06.27 23:14:04.
