data_PCOD8072660
_publ_section_title
;
Structure prediction by ZEFSAII (Michael W. Deem and Ramdas Pophale) SiO2 
 PCOD8072660
Probable space group: P 21/M
;
_chemical_formula_sum "Si O2"
_cell_formula_units_Z 32
_cell_length_a 15.363368
_cell_length_b 8.797988
_cell_length_c 24.436488
_cell_angle_alpha 90.000000
_cell_angle_beta 151.097302
_cell_angle_gamma 90.000000
_cell_volume 1596.417928
_symmetry_space_group_name_H-M "P 21/M"
_symmetry_group_IT_number 11
_symmetry_cell_setting 'monoclinic'
loop_
_space_group_symop_operation_xyz
x,y,z
-x,1/2+y,-z
-x,-y,-z
x,1/2-y,z
loop_
_atom_site_type_symbol
_atom_site_label
_atom_site_fract_x
_atom_site_fract_y
_atom_site_fract_z
Si Si1 0.022893 0.082788 0.068059
Si Si2 0.320100 0.431394 0.379183
Si Si3 0.276093 0.567816 0.587124
Si Si4 0.409679 0.415622 0.313216
Si Si5 0.397630 0.430145 0.768498
Si Si6 0.079912 0.070879 0.671445
Si Si7 0.962451 0.929162 0.228545
Si Si8 0.228410 0.429177 0.986003
O O1 0.931802 0.250000 0.019786
O O2 0.236088 0.101314 0.180814
O O3 0.944540 0.987334 0.075578
O O4 0.000000 0.000000 0.000000
O O5 0.500000 0.500000 0.500000
O O6 0.309954 0.250000 0.376581
O O7 0.331116 0.496946 0.323690
O O8 0.150513 0.495324 0.317527
O O9 0.285478 0.750000 0.598097
O O10 0.430927 0.500800 0.631909
O O11 0.312658 0.497383 0.666509
O O12 0.088255 0.509516 0.457421
O O13 0.488517 0.250000 0.373321
O O14 0.410493 0.250000 0.769082
O O15 0.592759 0.493607 0.891799
O O16 0.264243 0.479204 0.743978
O O17 0.060198 0.250000 0.662696
O O18 0.088235 0.008937 0.738640
O O19 0.991651 0.750000 0.245345
O O20 0.809279 0.971310 0.098863
O O21 0.248215 0.250000 0.004702
#
# Coordination Sequence:
#
# PCOD8072660 Si02
#       8
#     4   4   4   4   4   4   4   4
#     4  11  21  36  57  85 120 157 196 238 289 350
#     4  11  21  36  57  85 119 156 195 236 289 350
#     4  10  19  37  63  88 118 155 197 246 302 368
#     4   9  19  34  55  81 113 151 187 223 281 348
#     4  11  23  39  60  87 119 158 203 255 310 366
#     4   9  20  39  63  88 118 158 200 249 315 369
#     4  10  21  40  63  87 118 157 203 251 300 363
#     4  11  23  39  60  87 120 159 204 254 304 357
#
# _framework density 20.044875999999999
#
# number of rings (size 3 to 8) (size 9 to 14) (size 15 to 20)
#    0.000    1.750    1.250    3.375    0.000    4.000 
#    0.000    5.625    0.000    0.000    0.000    0.000 
#    0.000    0.000    0.000    0.000    0.000    0.000 
#
# Total GULP energy -396466.817671 kJ/mol
# GULP energy per Si atom -12389.588052 kJ/mol
# Density = 1.999925 g / cm^3
# Si number density = 20.044876 Si / 1000 Ang^3
#
#
#
# Elastic Constant Matrix: (Units=GPa)
#
#
# Indices 1 2 3 4 5 6 
#
# 1 126.8253 24.8197 37.2353 0.0000 -5.3541 0.0000
# 2 24.8197 50.3206 27.9337 0.0000 -4.0786 0.0000
# 3 37.2353 27.9337 108.7956 0.0000 -7.9141 0.0000
# 4 0.0000 0.0000 0.0000 20.6102 0.0000 1.2726
# 5 -5.3541 -4.0786 -7.9141 0.0000 40.1235 0.0000
# 6 0.0000 0.0000 0.0000 1.2726 0.0000 26.5598
#
#
#
# Elastic Compliance Matrix: (Units=1/GPa)
#
#
# Indices 1 2 3 4 5 6 
#
# 1 0.009209 -0.003235 -0.002288 0.000000 0.000449 0.000000
# 2 -0.003235 0.024369 -0.005074 0.000000 0.001045 0.000000
# 3 -0.002288 -0.005074 0.011381 0.000000 0.001424 0.000000
# 4 0.000000 0.000000 0.000000 0.048664 0.000000 -0.002332
# 5 0.000449 0.001045 0.001424 0.000000 0.025370 0.000000
# 6 0.000000 0.000000 0.000000 -0.002332 0.000000 0.037763
#
#
# Mechanical properties :
#
#
# Convention : Reuss Voigt Hill
#
# Bulk Modulus (GPa) = 42.07969 51.76877 46.92423
# Shear Modulus (GPa) = 26.90024 30.52222 28.71123
#
# Velocity S-wave (km/s) = 3.66731 3.90640 3.78874
# Velocity P-wave (km/s) = 6.24264 6.79920 6.52685
#
# Compressibility (1/GPa) = 0.02376443
#
# Stress axis : x y z
#
# Youngs Moduli (GPa) = 108.59155 41.03490 87.86573
#
# Poissons Ratio (x) = 0.13276 0.20107
# Poissons Ratio (y) = 0.35134 0.44580
# Poissons Ratio (z) = 0.24850 0.20820
#
# Static dielectric constant tensor:
#      x y z
#    x 3.815970 0.000000 -0.171430 
#    y 0.000000 3.647380 0.000000 
#    z -0.171430 0.000000 3.674560 
# 
# 
# High freq. dielectric constant tensor:
#      x y z
#    x 1.796280 0.000000 -0.005250 
#    y 0.000000 1.759900 0.000000 
#    z -0.005250 0.000000 1.794750 
# 
# From -- ./inp_files/69153.got.cif
#   From: 2010.06.25/outbox.cif.g09.slc.cpg/sg11_35_cif.got.tgz:69153.got - 2010.06.27 23:14:04.
