data_PCOD8072814
_publ_section_title
;
Structure prediction by ZEFSAII (Michael W. Deem and Ramdas Pophale) SiO2 
 PCOD8072814
Probable space group: P 21/M
;
_chemical_formula_sum "Si O2"
_cell_formula_units_Z 32
_cell_length_a 9.314427
_cell_length_b 9.250580
_cell_length_c 22.694257
_cell_angle_alpha 90.000000
_cell_angle_beta 114.231908
_cell_angle_gamma 90.000000
_cell_volume 1783.135444
_symmetry_space_group_name_H-M "P 21/M"
_symmetry_group_IT_number 11
_symmetry_cell_setting 'monoclinic'
loop_
_space_group_symop_operation_xyz
x,y,z
-x,1/2+y,-z
-x,-y,-z
x,1/2-y,z
loop_
_atom_site_type_symbol
_atom_site_label
_atom_site_fract_x
_atom_site_fract_y
_atom_site_fract_z
Si Si1 0.518420 0.083347 0.687866
Si Si2 0.391018 0.586084 0.561977
Si Si3 0.388511 0.408835 0.058551
Si Si4 0.464578 0.581317 0.797558
Si Si5 0.130540 0.918683 0.797558
Si Si6 0.857314 0.416653 0.687866
Si Si7 0.271409 0.591165 0.941449
Si Si8 0.732938 0.586084 0.561977
O O1 0.465343 0.250000 0.679723
O O2 0.695104 0.066792 0.695103
O O3 0.399372 0.995563 0.625771
O O4 0.510657 0.017829 0.751133
O O5 0.330792 0.750000 0.561567
O O6 0.560079 0.587533 0.560079
O O7 0.268562 0.500000 0.500000
O O8 0.315376 0.250000 0.052502
O O9 0.423802 0.471059 0.129653
O O10 0.550603 0.400570 0.050604
O O11 0.260926 0.500000 1.000000
O O12 0.494541 0.750000 0.788437
O O13 0.282851 0.556224 0.782850
O O14 0.082335 0.750000 0.788437
O O15 0.164498 0.971059 0.870347
O O16 0.991611 0.017830 0.751133
O O17 0.894104 0.250000 0.679722
O O18 0.852171 0.504437 0.625771
O O19 0.210373 0.750000 0.947498
O O20 0.792342 0.750000 0.561567
#
# Coordination Sequence:
#
# PCOD8072814 Si02
#       8
#     4   4   4   4   4   4   4   4
#     4  10  20  32  47  70  98 126 158 195 233 276
#     4   9  16  27  45  68  93 121 154 193 234 274
#     4   8  14  25  42  65  91 117 148 188 231 274
#     4   9  18  32  49  70  96 125 157 193 234 281
#     4   9  18  32  49  70  96 125 157 193 234 281
#     4  10  20  32  47  70  98 126 158 195 233 276
#     4   8  14  25  42  65  91 117 148 188 231 274
#     4   9  16  27  45  68  93 121 154 193 234 274
#
# _framework density 17.945917000000001
#
# number of rings (size 3 to 8) (size 9 to 14) (size 15 to 20)
#    0.000    3.000    0.000    3.000    0.000    6.000 
#    0.000    2.500    0.000    1.500    0.000    0.000 
#    0.000    0.000    0.000    0.000    0.000    0.000 
#
# Total GULP energy -396659.190125 kJ/mol
# GULP energy per Si atom -12395.599691 kJ/mol
# Density = 1.790507 g / cm^3
# Si number density = 17.945917 Si / 1000 Ang^3
#
#
#
# Elastic Constant Matrix: (Units=GPa)
#
#
# Indices 1 2 3 4 5 6 
#
# 1 13.8562 25.4561 26.6487 0.0000 2.2005 0.0000
# 2 25.4561 140.3381 96.0253 0.0000 2.3626 0.0000
# 3 26.6487 96.0253 172.6116 0.0000 3.1146 0.0000
# 4 0.0000 0.0000 0.0000 42.3293 0.0000 0.7393
# 5 2.2005 2.3626 3.1146 0.0000 26.4953 0.0000
# 6 0.0000 0.0000 0.0000 0.7393 0.0000 20.2501
#
#
#
# Elastic Compliance Matrix: (Units=1/GPa)
#
#
# Indices 1 2 3 4 5 6 
#
# 1 0.119909 -0.014612 -0.010249 0.000000 -0.007451 0.000000
# 2 -0.014612 0.013288 -0.005148 0.000000 0.000634 0.000000
# 3 -0.010249 -0.005148 0.010237 0.000000 0.000107 0.000000
# 4 0.000000 0.000000 0.000000 0.023639 0.000000 -0.000863
# 5 -0.007451 0.000634 0.000107 0.000000 0.038292 0.000000
# 6 0.000000 0.000000 0.000000 -0.000863 0.000000 0.049414
#
#
# Mechanical properties :
#
#
# Convention : Reuss Voigt Hill
#
# Bulk Modulus (GPa) = 11.98799 69.22957 40.60878
# Shear Modulus (GPa) = 14.59415 29.72667 22.16041
#
# Velocity S-wave (km/s) = 2.85481 4.07438 3.51785
# Velocity P-wave (km/s) = 4.19060 7.79709 6.25922
#
# Compressibility (1/GPa) = 0.08341680
#
# Stress axis : x y z
#
# Youngs Moduli (GPa) = 8.33964 75.25737 97.68176
#
# Poissons Ratio (x) = 1.09969 1.00112
# Poissons Ratio (y) = 0.12186 0.50282
# Poissons Ratio (z) = 0.08547 0.38739
#
# Static dielectric constant tensor:
#      x y z
#    x 2.720690 0.000000 0.027960 
#    y 0.000000 3.591180 0.000000 
#    z 0.027960 0.000000 3.555590 
# 
# 
# High freq. dielectric constant tensor:
#      x y z
#    x 1.629790 0.000000 0.002800 
#    y 0.000000 1.701630 0.000000 
#    z 0.002800 0.000000 1.713470 
# 
# From -- ./inp_files/64260.got.cif
#   From: 2010.06.25/outbox.cif.g09.slc.cpg/sg11_33_cif.got.tgz:64260.got - 2010.06.27 23:14:04.
