data_PCOD8072021
_publ_section_title
;
Structure prediction by ZEFSAII (Michael W. Deem and Ramdas Pophale) SiO2 
 PCOD8072021
Probable space group: P 21/M
;
_chemical_formula_sum "Si O2"
_cell_formula_units_Z 28
_cell_length_a 9.005006
_cell_length_b 8.848436
_cell_length_c 28.790526
_cell_angle_alpha 90.000000
_cell_angle_beta 38.878645
_cell_angle_gamma 90.000000
_cell_volume 1439.903985
_symmetry_space_group_name_H-M "P 21/M"
_symmetry_group_IT_number 11
_symmetry_cell_setting 'monoclinic'
loop_
_space_group_symop_operation_xyz
x,y,z
-x,1/2+y,-z
-x,-y,-z
x,1/2-y,z
loop_
_atom_site_type_symbol
_atom_site_label
_atom_site_fract_x
_atom_site_fract_y
_atom_site_fract_z
Si Si1 0.080256 0.072342 0.932739
Si Si2 0.548155 0.073871 0.343243
Si Si3 0.752906 0.923726 0.936542
Si Si4 0.623593 0.073296 0.787208
Si Si5 0.074100 0.075862 0.209664
Si Si6 0.197614 0.071108 0.349050
Si Si7 0.853929 0.926445 0.494640
O O1 0.042009 0.250000 0.945571
O O2 0.350130 0.028709 0.856973
O O3 0.926366 0.008605 0.928683
O O4 0.000000 0.000000 0.000000
O O5 0.573883 0.250000 0.326644
O O6 0.393975 0.007502 0.337729
O O7 0.421142 0.044830 0.424241
O O8 0.811255 0.005226 0.280698
O O9 0.729498 0.750000 0.957591
O O10 0.860441 0.939315 0.859640
O O11 0.500000 0.000000 0.000000
O O12 0.658934 0.250000 0.770102
O O13 0.745044 0.025137 0.805487
O O14 0.743094 0.982180 0.716629
O O15 0.088720 0.250000 0.222792
O O16 0.180904 0.250000 0.354469
O O17 0.937697 0.005318 0.426430
O O18 0.909330 0.750000 0.478188
O O19 0.000000 0.000000 0.500000
#
# Coordination Sequence:
#
# PCOD8072021 Si02
#       7
#     4   4   4   4   4   4   4
#     4  11  24  41  62  87 117 151 189 233 283 338
#     4   8  16  32  55  81 107 138 181 229 276 328
#     4  11  23  39  62  89 118 151 189 232 280 335
#     4  11  24  39  55  81 114 147 185 233 282 330
#     4  10  21  38  58  80 108 147 189 228 275 334
#     4  10  19  34  57  82 109 145 187 231 280 338
#     4   9  16  29  51  80 112 143 180 230 282 335
#
# _framework density 19.445741999999999
#
# number of rings (size 3 to 8) (size 9 to 14) (size 15 to 20)
#    0.000    2.000    0.000    4.714    0.000    6.857 
#    0.000    5.000    0.000    0.000    0.000    0.000 
#    0.000    0.000    0.000    0.000    0.000    0.000 
#
# Total GULP energy -347171.375151 kJ/mol
# GULP energy per Si atom -12398.977684 kJ/mol
# Density = 1.940148 g / cm^3
# Si number density = 19.445742 Si / 1000 Ang^3
#
#
#
# Elastic Constant Matrix: (Units=GPa)
#
#
# Indices 1 2 3 4 5 6 
#
# 1 99.4984 29.9351 46.7505 0.0000 -7.4176 0.0000
# 2 29.9351 72.8838 58.2579 0.0000 -2.2937 0.0000
# 3 46.7505 58.2579 142.0974 0.0000 -6.3106 0.0000
# 4 0.0000 0.0000 0.0000 33.0063 0.0000 3.6797
# 5 -7.4176 -2.2937 -6.3106 0.0000 33.2368 0.0000
# 6 0.0000 0.0000 0.0000 3.6797 0.0000 29.8495
#
#
#
# Elastic Compliance Matrix: (Units=1/GPa)
#
#
# Indices 1 2 3 4 5 6 
#
# 1 0.012366 -0.002730 -0.002859 0.000000 0.002029 0.000000
# 2 -0.002730 0.021012 -0.007745 0.000000 -0.000630 0.000000
# 3 -0.002859 -0.007745 0.011196 0.000000 0.000953 0.000000
# 4 0.000000 0.000000 0.000000 0.030719 0.000000 -0.003787
# 5 0.002029 -0.000630 0.000953 0.000000 0.030677 0.000000
# 6 0.000000 0.000000 0.000000 -0.003787 0.000000 0.033968
#
#
# Mechanical properties :
#
#
# Convention : Reuss Voigt Hill
#
# Bulk Modulus (GPa) = 55.84427 64.92962 60.38694
# Shear Modulus (GPa) = 28.97279 31.18761 30.08020
#
# Velocity S-wave (km/s) = 3.86415 4.00913 3.93730
# Velocity P-wave (km/s) = 6.97776 7.40901 7.19662
#
# Compressibility (1/GPa) = 0.01790694
#
# Stress axis : x y z
#
# Youngs Moduli (GPa) = 80.86420 47.59118 89.32047
#
# Poissons Ratio (x) = 0.12991 0.25540
# Poissons Ratio (y) = 0.22074 0.69175
# Poissons Ratio (z) = 0.23122 0.36857
#
# Static dielectric constant tensor:
#      x y z
#    x 3.463940 0.000000 -0.160170 
#    y 0.000000 3.663060 0.000000 
#    z -0.160170 0.000000 4.057910 
# 
# 
# High freq. dielectric constant tensor:
#      x y z
#    x 1.741070 0.000000 -0.001960 
#    y 0.000000 1.754480 0.000000 
#    z -0.001960 0.000000 1.781160 
# 
# From -- ./inp_files/70783.got.cif
#   From: 2010.06.25/outbox.cif.g09.slc.cpg/sg11_36_cif.got.tgz:70783.got - 2010.06.27 23:14:04.
