data_PCOD8072650
_publ_section_title
;
Structure prediction by ZEFSAII (Michael W. Deem and Ramdas Pophale) SiO2 
 PCOD8072650
Probable space group: P 21/M
;
_chemical_formula_sum "Si O2"
_cell_formula_units_Z 32
_cell_length_a 12.861026
_cell_length_b 19.702109
_cell_length_c 8.924786
_cell_angle_alpha 90.000000
_cell_angle_beta 132.304526
_cell_angle_gamma 90.000000
_cell_volume 1672.515253
_symmetry_space_group_name_H-M "P 21/M"
_symmetry_group_IT_number 11
_symmetry_cell_setting 'monoclinic'
loop_
_space_group_symop_operation_xyz
x,y,z
-x,1/2+y,-z
-x,-y,-z
x,1/2-y,z
loop_
_atom_site_type_symbol
_atom_site_label
_atom_site_fract_x
_atom_site_fract_y
_atom_site_fract_z
Si Si1 0.120329 0.174557 0.570346
Si Si2 0.883940 0.675546 0.788226
Si Si3 0.915055 0.437495 0.357409
Si Si4 0.572354 0.670112 0.453650
Si Si5 0.390314 0.938668 0.423757
Si Si6 0.402954 0.103307 0.833685
Si Si7 0.631848 0.447686 0.256362
Si Si8 0.915155 0.442265 0.002553
O O1 0.120933 0.250000 0.644549
O O2 0.115174 0.181795 0.388537
O O3 0.255540 0.131140 0.754363
O O4 0.983260 0.132330 0.484934
O O5 0.909018 0.750000 0.883926
O O6 0.725783 0.648602 0.668436
O O7 0.006541 0.627381 0.971358
O O8 0.759241 0.435749 0.267738
O O9 0.924015 0.446823 0.188848
O O10 0.000000 0.500000 0.500000
O O11 0.548651 0.750000 0.445778
O O12 0.457896 0.632184 0.441609
O O13 0.549221 0.650912 0.256859
O O14 0.340869 0.928840 0.546120
O O15 0.500000 0.000000 0.500000
O O16 0.248075 0.948511 0.193512
O O17 0.401828 0.027088 0.770824
O O18 0.509312 0.101861 0.076795
O O19 0.000000 0.500000 0.000000
#
# Coordination Sequence:
#
# PCOD8072650 Si02
#       8
#     4   4   4   4   4   4   4   4
#     4   9  18  35  61  88 114 153 198 244 297 356
#     4   8  17  36  60  84 112 146 198 246 287 353
#     4  11  21  37  60  88 123 156 199 258 305 364
#     4  10  20  39  65  90 118 161 204 247 305 367
#     4  12  24  39  59  86 126 159 203 257 306 366
#     4  10  19  37  62  89 116 156 205 254 295 363
#     4  11  23  37  59  90 122 156 203 255 311 356
#     4  11  23  36  59  90 118 157 202 246 308 359
#
# _framework density 19.132860000000001
#
# number of rings (size 3 to 8) (size 9 to 14) (size 15 to 20)
#    0.000    1.750    2.500    3.375    3.500    0.500 
#    0.000    5.625    0.000    5.250    0.000    0.000 
#    0.000    0.000    0.000    0.000    0.000    0.000 
#
# Total GULP energy -396621.979319 kJ/mol
# GULP energy per Si atom -12394.436854 kJ/mol
# Density = 1.908931 g / cm^3
# Si number density = 19.132860 Si / 1000 Ang^3
#
#
#
# Elastic Constant Matrix: (Units=GPa)
#
#
# Indices 1 2 3 4 5 6 
#
# 1 84.6389 38.2912 31.3541 0.0000 5.4574 0.0000
# 2 38.2912 113.5025 54.6745 0.0000 14.3415 0.0000
# 3 31.3541 54.6745 101.1598 0.0000 16.4021 0.0000
# 4 0.0000 0.0000 0.0000 30.2807 0.0000 4.4619
# 5 5.4574 14.3415 16.4021 0.0000 33.5194 0.0000
# 6 0.0000 0.0000 0.0000 4.4619 0.0000 31.5250
#
#
#
# Elastic Compliance Matrix: (Units=1/GPa)
#
#
# Indices 1 2 3 4 5 6 
#
# 1 0.014397 -0.003692 -0.002545 0.000000 0.000481 0.000000
# 2 -0.003692 0.012998 -0.005514 0.000000 -0.002262 0.000000
# 3 -0.002545 -0.005514 0.014343 0.000000 -0.004245 0.000000
# 4 0.000000 0.000000 0.000000 0.033728 0.000000 -0.004774
# 5 0.000481 -0.002262 -0.004245 0.000000 0.032800 0.000000
# 6 0.000000 0.000000 0.000000 -0.004774 0.000000 0.032396
#
#
# Mechanical properties :
#
#
# Convention : Reuss Voigt Hill
#
# Bulk Modulus (GPa) = 54.83713 60.88232 57.85972
# Shear Modulus (GPa) = 29.37006 30.73043 30.05025
#
# Velocity S-wave (km/s) = 3.92223 4.01204 3.96739
# Velocity P-wave (km/s) = 7.01679 7.30424 7.16195
#
# Compressibility (1/GPa) = 0.01823582
#
# Stress axis : x y z
#
# Youngs Moduli (GPa) = 69.45973 76.93639 69.72262
#
# Poissons Ratio (x) = 0.28403 0.17744
# Poissons Ratio (y) = 0.25643 0.38445
# Poissons Ratio (z) = 0.17677 0.42422
#
# Static dielectric constant tensor:
#      x y z
#    x 3.277040 0.000000 0.184300 
#    y 0.000000 3.890130 0.000000 
#    z 0.184300 0.000000 3.559490 
# 
# 
# High freq. dielectric constant tensor:
#      x y z
#    x 1.739170 0.000000 0.015110 
#    y 0.000000 1.748860 0.000000 
#    z 0.015110 0.000000 1.735430 
# 
# From -- ./inp_files/19422.got.cif
#   From: 2010.06.25/outbox.cif.g09.slc.cpg/sg11_10_cif.got.tgz:19422.got - 2010.06.27 23:14:04.
