data_PCOD8072898
_publ_section_title
;
Structure prediction by ZEFSAII (Michael W. Deem and Ramdas Pophale) SiO2 
 PCOD8072898
Probable space group: P 21/M
;
_chemical_formula_sum "Si O2"
_cell_formula_units_Z 32
_cell_length_a 11.066457
_cell_length_b 10.231593
_cell_length_c 15.513224
_cell_angle_alpha 90.000000
_cell_angle_beta 105.502077
_cell_angle_gamma 90.000000
_cell_volume 1692.622347
_symmetry_space_group_name_H-M "P 21/M"
_symmetry_group_IT_number 11
_symmetry_cell_setting 'monoclinic'
loop_
_space_group_symop_operation_xyz
x,y,z
-x,1/2+y,-z
-x,-y,-z
x,1/2-y,z
loop_
_atom_site_type_symbol
_atom_site_label
_atom_site_fract_x
_atom_site_fract_y
_atom_site_fract_z
Si Si1 0.330467 0.396880 0.995536
Si Si2 0.960029 0.898994 0.064791
Si Si3 0.329611 0.600173 0.394049
Si Si4 0.550655 0.600317 0.323623
Si Si5 0.063222 0.899662 0.269155
Si Si6 0.986112 0.391940 0.390479
Si Si7 0.787057 0.982728 0.463250
Si Si8 0.483482 0.901706 0.122968
O O1 0.358468 0.250000 0.036058
O O2 0.368330 0.505254 0.073332
O O3 0.186177 0.413712 0.945014
O O4 0.402328 0.421877 0.920414
O O5 0.993598 0.750000 0.043590
O O6 0.031523 0.937998 0.165740
O O7 0.000000 0.000000 0.000000
O O8 0.356322 0.750000 0.418895
O O9 0.450926 0.533936 0.371029
O O10 0.211442 0.580591 0.308219
O O11 0.304642 0.536630 0.481187
O O12 0.511817 0.750000 0.311657
O O13 0.695238 0.588713 0.378894
O O14 0.531974 0.544434 0.224022
O O15 0.023264 0.750000 0.282150
O O16 0.988714 0.992705 0.320969
O O17 0.978702 0.250000 0.343397
O O18 0.109715 0.388387 0.474459
O O19 0.863235 0.405329 0.427000
O O20 0.438782 0.750000 0.116365
#
# Coordination Sequence:
#
# PCOD8072898 Si02
#       8
#     4   4   4   4   4   4   4   4
#     4   9  19  37  56  79 114 145 178 224 278 324
#     4  10  22  37  58  85 114 148 185 225 274 331
#     4   9  18  34  53  77 109 143 183 226 270 322
#     4  10  20  32  55  83 105 139 188 230 264 322
#     4   9  20  37  58  82 110 147 184 225 276 327
#     4  10  21  36  56  82 112 147 186 229 275 327
#     4  10  20  34  54  77 113 148 181 225 278 327
#     4   9  19  35  58  83 107 141 184 227 269 322
#
# _framework density 18.905576
#
# number of rings (size 3 to 8) (size 9 to 14) (size 15 to 20)
#    0.000    2.500    0.000    1.125    3.500    4.500 
#    0.000    1.250    0.000    1.500    0.000    0.000 
#    0.000    0.000    0.000    0.000    0.000    0.000 
#
# Total GULP energy -396684.853011 kJ/mol
# GULP energy per Si atom -12396.401657 kJ/mol
# Density = 1.886255 g / cm^3
# Si number density = 18.905576 Si / 1000 Ang^3
#
#
#
# Elastic Constant Matrix: (Units=GPa)
#
#
# Indices 1 2 3 4 5 6 
#
# 1 82.4732 30.9374 36.5164 0.0000 -3.3071 0.0000
# 2 30.9374 86.8587 46.1212 0.0000 -6.6017 0.0000
# 3 36.5164 46.1212 116.8850 0.0000 -0.7873 0.0000
# 4 0.0000 0.0000 0.0000 25.0697 0.0000 -3.2150
# 5 -3.3071 -6.6017 -0.7873 0.0000 23.2244 0.0000
# 6 0.0000 0.0000 0.0000 -3.2150 0.0000 17.7196
#
#
#
# Elastic Compliance Matrix: (Units=1/GPa)
#
#
# Indices 1 2 3 4 5 6 
#
# 1 0.014930 -0.003501 -0.003276 0.000000 0.001020 0.000000
# 2 -0.003501 0.015756 -0.005098 0.000000 0.003808 0.000000
# 3 -0.003276 -0.005098 0.011580 0.000000 -0.001523 0.000000
# 4 0.000000 0.000000 0.000000 0.040839 0.000000 0.007410
# 5 0.001020 0.003808 -0.001523 0.000000 0.044234 0.000000
# 6 0.000000 0.000000 0.000000 0.007410 0.000000 0.057779
#
#
# Mechanical properties :
#
#
# Convention : Reuss Voigt Hill
#
# Bulk Modulus (GPa) = 54.00458 57.04075 55.52266
# Shear Modulus (GPa) = 23.25152 24.71219 23.98185
#
# Velocity S-wave (km/s) = 3.51076 3.61936 3.56547
# Velocity P-wave (km/s) = 6.71278 6.90675 6.81046
#
# Compressibility (1/GPa) = 0.01851695
#
# Stress axis : x y z
#
# Youngs Moduli (GPa) = 66.98038 63.46743 86.35434
#
# Poissons Ratio (x) = 0.22217 0.28290
# Poissons Ratio (y) = 0.23447 0.44022
# Poissons Ratio (z) = 0.21943 0.32355
#
# Static dielectric constant tensor:
#      x y z
#    x 3.510150 0.000000 -0.032470 
#    y 0.000000 3.370650 0.000000 
#    z -0.032470 0.000000 3.466560 
# 
# 
# High freq. dielectric constant tensor:
#      x y z
#    x 1.740250 0.000000 0.000100 
#    y 0.000000 1.718080 0.000000 
#    z 0.000100 0.000000 1.732870 
# 
# From -- ./inp_files/49850.got.cif
#   From: 2010.06.25/outbox.cif.g09.slc.cpg/sg11_25_cif.got.tgz:49850.got - 2010.06.27 23:14:04.
