data_PCOD8072163
_publ_section_title
;
Structure prediction by ZEFSAII (Michael W. Deem and Ramdas Pophale) SiO2 
 PCOD8072163
Probable space group: P 21/M
;
_chemical_formula_sum "Si O2"
_cell_formula_units_Z 32
_cell_length_a 11.082326
_cell_length_b 18.931538
_cell_length_c 9.670970
_cell_angle_alpha 90.000000
_cell_angle_beta 56.627955
_cell_angle_gamma 90.000000
_cell_volume 1694.469827
_symmetry_space_group_name_H-M "P 21/M"
_symmetry_group_IT_number 11
_symmetry_cell_setting 'monoclinic'
loop_
_space_group_symop_operation_xyz
x,y,z
-x,1/2+y,-z
-x,-y,-z
x,1/2-y,z
loop_
_atom_site_type_symbol
_atom_site_label
_atom_site_fract_x
_atom_site_fract_y
_atom_site_fract_z
Si Si1 0.172812 0.833285 0.669722
Si Si2 0.140480 0.083766 0.496400
Si Si3 0.852207 0.670757 0.952795
Si Si4 0.885251 0.576157 0.179773
Si Si5 0.202898 0.566817 0.886616
Si Si6 0.648299 0.668908 0.827524
Si Si7 0.399896 0.934596 0.020044
Si Si8 0.173963 0.921378 0.406603
O O1 0.206431 0.750000 0.643310
O O2 0.246716 0.866670 0.761006
O O3 0.231008 0.870079 0.493037
O O4 0.002226 0.851471 0.786083
O O5 0.160566 0.105191 0.642933
O O6 0.262725 0.126428 0.341345
O O7 0.982651 0.106210 0.542734
O O8 0.163956 0.000618 0.467317
O O9 0.865603 0.750000 0.999457
O O10 0.811747 0.623002 0.108163
O O11 0.724257 0.660819 0.926580
O O12 0.826455 0.497204 0.199525
O O13 0.058195 0.581719 0.064126
O O14 0.326439 0.548070 0.919042
O O15 0.636002 0.750000 0.788926
O O16 0.490055 0.636639 0.942464
O O17 0.282590 0.918076 0.210301
O O18 0.500000 0.000000 0.000000
#
# Coordination Sequence:
#
# PCOD8072163 Si02
#       8
#     4   4   4   4   4   4   4   4
#     4  10  20  38  62  89 122 156 200 261 313 357
#     4  11  21  37  63  96 123 152 208 266 307 357
#     4   9  19  36  59  88 121 160 200 244 308 367
#     4  10  19  34  62  94 119 152 200 266 303 354
#     4  10  21  36  59  92 124 158 202 248 316 365
#     4  11  24  42  62  87 128 172 201 244 315 381
#     4  12  24  41  62  92 127 166 205 254 309 375
#     4  11  22  37  63  96 121 156 210 260 307 361
#
# _framework density 18.884961000000001
#
# number of rings (size 3 to 8) (size 9 to 14) (size 15 to 20)
#    0.000    1.500    5.000    0.750    0.000    1.500 
#    0.000    3.750    0.000    0.000    0.000    0.000 
#    0.000    0.000    0.000    0.000    0.000    0.000 
#
# Total GULP energy -396869.676453 kJ/mol
# GULP energy per Si atom -12402.177389 kJ/mol
# Density = 1.884198 g / cm^3
# Si number density = 18.884961 Si / 1000 Ang^3
#
#
#
# Elastic Constant Matrix: (Units=GPa)
#
#
# Indices 1 2 3 4 5 6 
#
# 1 71.3416 26.8774 36.2572 0.0000 13.4424 0.0000
# 2 26.8774 92.0771 36.6339 0.0000 18.1600 0.0000
# 3 36.2572 36.6339 94.1731 0.0000 17.6894 0.0000
# 4 0.0000 0.0000 0.0000 25.3263 0.0000 3.7227
# 5 13.4424 18.1600 17.6894 0.0000 24.5452 0.0000
# 6 0.0000 0.0000 0.0000 3.7227 0.0000 28.1120
#
#
#
# Elastic Compliance Matrix: (Units=1/GPa)
#
#
# Indices 1 2 3 4 5 6 
#
# 1 0.018478 -0.002379 -0.005341 0.000000 -0.004510 0.000000
# 2 -0.002379 0.014228 -0.003338 0.000000 -0.006818 0.000000
# 3 -0.005341 -0.003338 0.014990 0.000000 -0.005408 0.000000
# 4 0.000000 0.000000 0.000000 0.040268 0.000000 -0.005332
# 5 -0.004510 -0.006818 -0.005408 0.000000 0.052153 0.000000
# 6 0.000000 0.000000 0.000000 -0.005332 0.000000 0.036278
#
#
# Mechanical properties :
#
#
# Convention : Reuss Voigt Hill
#
# Bulk Modulus (GPa) = 39.09631 50.79210 44.94420
# Shear Modulus (GPa) = 24.15026 26.11826 25.13426
#
# Velocity S-wave (km/s) = 3.57992 3.72293 3.65213
# Velocity P-wave (km/s) = 6.15102 6.74049 6.45249
#
# Compressibility (1/GPa) = 0.02557786
#
# Stress axis : x y z
#
# Youngs Moduli (GPa) = 54.11916 70.28577 66.71320
#
# Poissons Ratio (x) = 0.16721 0.35635
# Poissons Ratio (y) = 0.12875 0.22269
# Poissons Ratio (z) = 0.28907 0.23462
#
# Static dielectric constant tensor:
#      x y z
#    x 3.408220 0.000000 0.085110 
#    y 0.000000 3.549320 0.000000 
#    z 0.085110 0.000000 3.396130 
# 
# 
# High freq. dielectric constant tensor:
#      x y z
#    x 1.724380 0.000000 0.016970 
#    y 0.000000 1.734750 0.000000 
#    z 0.016970 0.000000 1.732300 
# 
# From -- ./inp_files/19384.got.cif
#   From: 2010.06.25/outbox.cif.g09.slc.cpg/sg11_10_cif.got.tgz:19384.got - 2010.06.27 23:14:04.
