data_PCOD8072227
_publ_section_title
;
Structure prediction by ZEFSAII (Michael W. Deem and Ramdas Pophale) SiO2 
 PCOD8072227
Probable space group: P 21/M
;
_chemical_formula_sum "Si O2"
_cell_formula_units_Z 32
_cell_length_a 22.860607
_cell_length_b 9.353397
_cell_length_c 23.793004
_cell_angle_alpha 90.000000
_cell_angle_beta 19.283244
_cell_angle_gamma 90.000000
_cell_volume 1680.095354
_symmetry_space_group_name_H-M "P 21/M"
_symmetry_group_IT_number 11
_symmetry_cell_setting 'monoclinic'
loop_
_space_group_symop_operation_xyz
x,y,z
-x,1/2+y,-z
-x,-y,-z
x,1/2-y,z
loop_
_atom_site_type_symbol
_atom_site_label
_atom_site_fract_x
_atom_site_fract_y
_atom_site_fract_z
Si Si1 0.601661 0.413918 0.829426
Si Si2 0.585108 0.599707 0.378800
Si Si3 0.049640 0.096824 0.903526
Si Si4 0.268589 0.583936 0.162410
Si Si5 0.046040 0.418827 0.115798
Si Si6 0.575206 0.580969 0.262650
Si Si7 0.907305 0.419645 0.465375
Si Si8 0.797032 0.418786 0.442484
O O1 0.544537 0.250000 0.870449
O O2 0.688655 0.433025 0.811076
O O3 0.748403 0.463103 0.651300
O O4 0.425733 0.511300 0.983283
O O5 0.500000 0.500000 0.500000
O O6 0.477663 0.750000 0.467205
O O7 0.758088 0.644796 0.254165
O O8 0.609516 0.525063 0.295383
O O9 0.943686 0.250000 0.993367
O O10 0.047873 0.005670 0.848318
O O11 0.000000 0.000000 0.000000
O O12 0.252536 0.750000 0.159483
O O13 0.084688 0.503410 0.319800
O O14 0.023754 0.250000 0.124019
O O15 0.951447 0.465174 0.259352
O O16 0.254379 0.462235 0.929642
O O17 0.559570 0.750000 0.277793
O O18 0.393752 0.514115 0.402275
O O19 0.945261 0.250000 0.433656
O O20 0.849212 0.473562 0.456594
O O21 0.778409 0.250000 0.460528
#
# Coordination Sequence:
#
# PCOD8072227 Si02
#       8
#     4   4   4   4   4   4   4   4
#     4   9  19  35  56  83 117 151 189 237 280 330
#     4  10  20  33  50  74 100 128 163 208 261 317
#     4  11  21  34  53  78 105 133 169 213 266 329
#     4  10  20  34  55  84 116 154 190 228 286 339
#     4  10  19  35  57  77 104 139 172 219 275 324
#     4   9  17  32  50  72 101 130 168 213 257 314
#     4  10  20  35  56  84 113 146 190 237 282 329
#     4   9  19  33  54  80 103 137 183 225 270 320
#
# _framework density 19.046538000000002
#
# number of rings (size 3 to 8) (size 9 to 14) (size 15 to 20)
#    0.000    2.250    1.250    1.875    0.000    4.000 
#    0.000    4.375    0.000    1.500    0.000    0.000 
#    0.000    0.000    0.000    0.000    0.000    0.000 
#
# Total GULP energy -396434.407942 kJ/mol
# GULP energy per Si atom -12388.575248 kJ/mol
# Density = 1.900319 g / cm^3
# Si number density = 19.046538 Si / 1000 Ang^3
#
#
#
# Elastic Constant Matrix: (Units=GPa)
#
#
# Indices 1 2 3 4 5 6 
#
# 1 82.1194 36.2538 71.5442 0.0000 12.6365 0.0000
# 2 36.2538 82.5103 58.0008 0.0000 4.0107 0.0000
# 3 71.5442 58.0008 165.2162 0.0000 8.6285 0.0000
# 4 0.0000 0.0000 0.0000 23.4112 0.0000 -1.8325
# 5 12.6365 4.0107 8.6285 0.0000 25.0019 0.0000
# 6 0.0000 0.0000 0.0000 -1.8325 0.0000 20.2800
#
#
#
# Elastic Compliance Matrix: (Units=1/GPa)
#
#
# Indices 1 2 3 4 5 6 
#
# 1 0.021720 -0.003770 -0.007679 0.000000 -0.007723 0.000000
# 2 -0.003770 0.016755 -0.004286 0.000000 0.000697 0.000000
# 3 -0.007679 -0.004286 0.010839 0.000000 0.000828 0.000000
# 4 0.000000 0.000000 0.000000 0.043019 0.000000 0.003887
# 5 -0.007723 0.000697 0.000828 0.000000 0.043503 0.000000
# 6 0.000000 0.000000 0.000000 0.003887 0.000000 0.049661
#
#
# Mechanical properties :
#
#
# Convention : Reuss Voigt Hill
#
# Bulk Modulus (GPa) = 56.03848 73.49373 64.76610
# Shear Modulus (GPa) = 22.43012 24.67510 23.55261
#
# Velocity S-wave (km/s) = 3.43541 3.60323 3.52032
# Velocity P-wave (km/s) = 6.72472 7.48206 7.11347
#
# Compressibility (1/GPa) = 0.01784488
#
# Stress axis : x y z
#
# Youngs Moduli (GPa) = 46.04035 59.68306 92.25888
#
# Poissons Ratio (x) = 0.22503 0.70841
# Poissons Ratio (y) = 0.17359 0.39540
# Poissons Ratio (z) = 0.35352 0.25579
#
# Static dielectric constant tensor:
#      x y z
#    x 3.528450 0.000000 -0.031350 
#    y 0.000000 3.028630 0.000000 
#    z -0.031350 0.000000 3.574000 
# 
# 
# High freq. dielectric constant tensor:
#      x y z
#    x 1.732700 0.000000 0.000440 
#    y 0.000000 1.718740 0.000000 
#    z 0.000440 0.000000 1.749250 
# 
# From -- ./inp_files/69974.got.cif
#   From: 2010.06.25/outbox.cif.g09.slc.cpg/sg11_35_cif.got.tgz:69974.got - 2010.06.27 23:14:04.
