data_PCOD8072547
_publ_section_title
;
Structure prediction by ZEFSAII (Michael W. Deem and Ramdas Pophale) SiO2 
 PCOD8072547
Probable space group: P 21/M
;
_chemical_formula_sum "Si O2"
_cell_formula_units_Z 32
_cell_length_a 12.396279
_cell_length_b 18.856376
_cell_length_c 16.470660
_cell_angle_alpha 90.000000
_cell_angle_beta 26.281519
_cell_angle_gamma 90.000000
_cell_volume 1704.710098
_symmetry_space_group_name_H-M "P 21/M"
_symmetry_group_IT_number 11
_symmetry_cell_setting 'monoclinic'
loop_
_space_group_symop_operation_xyz
x,y,z
-x,1/2+y,-z
-x,-y,-z
x,1/2-y,z
loop_
_atom_site_type_symbol
_atom_site_label
_atom_site_fract_x
_atom_site_fract_y
_atom_site_fract_z
Si Si1 0.838387 0.931833 0.523817
Si Si2 0.370379 0.411948 0.008438
Si Si3 0.558101 0.168480 0.277769
Si Si4 0.949312 0.168479 0.886575
Si Si5 0.766203 0.411942 0.612633
Si Si6 0.751565 0.431803 0.886195
Si Si7 0.877426 0.165875 0.374161
Si Si8 0.494745 0.165955 0.501837
O O1 0.633091 0.873860 0.647516
O O2 0.981127 0.909251 0.508480
O O3 0.016108 0.936734 0.327906
O O4 0.712710 0.007962 0.620352
O O5 0.286930 0.492079 0.046252
O O6 0.142296 0.360393 0.169234
O O7 0.542004 0.385207 0.819296
O O8 0.512234 0.409171 0.998124
O O9 0.471061 0.250000 0.336429
O O10 0.567733 0.138542 0.362876
O O11 0.826294 0.160554 0.057981
O O12 0.951227 0.250000 0.856282
O O13 0.223868 0.138532 0.706751
O O14 0.791096 0.126157 0.928292
O O15 0.792679 0.360312 0.519019
O O16 0.881074 0.250000 0.372865
O O17 0.685070 0.135117 0.438385
O O18 0.504794 0.250000 0.498484
#
# Coordination Sequence:
#
# PCOD8072547 Si02
#       8
#     4   4   4   4   4   4   4   4
#     4  10  19  36  61  85 119 154 189 237 287 349
#     4  10  22  38  58  86 117 156 194 229 289 350
#     4  10  20  34  57  87 114 149 194 243 293 338
#     4  10  20  34  57  87 114 149 194 243 293 338
#     4  10  22  38  58  86 117 156 194 229 289 350
#     4  10  19  36  61  85 119 154 189 237 287 349
#     4  11  24  41  61  85 118 155 195 239 286 345
#     4   9  20  39  57  79 115 155 194 239 290 341
#
# _framework density 18.771519999999999
#
# number of rings (size 3 to 8) (size 9 to 14) (size 15 to 20)
#    0.000    2.000    2.500    0.750    3.500    2.500 
#    0.000    7.500    0.000    3.000    0.000    0.000 
#    0.000    0.000    0.000    0.000    0.000    0.000 
#
# Total GULP energy -396881.076498 kJ/mol
# GULP energy per Si atom -12402.533641 kJ/mol
# Density = 1.872879 g / cm^3
# Si number density = 18.771520 Si / 1000 Ang^3
#
#
#
# Elastic Constant Matrix: (Units=GPa)
#
#
# Indices 1 2 3 4 5 6 
#
# 1 103.7940 58.3427 63.4564 0.0000 -2.4226 0.0000
# 2 58.3427 74.7337 46.6886 0.0000 -3.1347 0.0000
# 3 63.4564 46.6886 126.1435 0.0000 7.3946 0.0000
# 4 0.0000 0.0000 0.0000 28.3028 0.0000 6.0359
# 5 -2.4226 -3.1347 7.3946 0.0000 17.9455 0.0000
# 6 0.0000 0.0000 0.0000 6.0359 0.0000 3.0608
#
#
#
# Elastic Compliance Matrix: (Units=1/GPa)
#
#
# Indices 1 2 3 4 5 6 
#
# 1 0.019868 -0.011744 -0.005826 0.000000 0.003031 0.000000
# 2 -0.011744 0.024965 -0.003582 0.000000 0.004251 0.000000
# 3 -0.005826 -0.003582 0.012570 0.000000 -0.006592 0.000000
# 4 0.000000 0.000000 0.000000 0.060975 0.000000 -0.120243
# 5 0.003031 0.004251 -0.006592 0.000000 0.059592 0.000000
# 6 0.000000 0.000000 0.000000 -0.120243 0.000000 0.563831
#
#
# Mechanical properties :
#
#
# Convention : Reuss Voigt Hill
#
# Bulk Modulus (GPa) = 66.22124 71.29407 68.75765
# Shear Modulus (GPa) = 6.33604 18.94072 12.63838
#
# Velocity S-wave (km/s) = 1.83920 3.17994 2.59757
# Velocity P-wave (km/s) = 6.31382 7.17949 6.76053
#
# Compressibility (1/GPa) = 0.01510090
#
# Stress axis : x y z
#
# Youngs Moduli (GPa) = 50.33198 40.05642 79.55402
#
# Poissons Ratio (x) = 0.47042 0.46345
# Poissons Ratio (y) = 0.59109 0.28492
# Poissons Ratio (z) = 0.29322 0.14346
#
# Static dielectric constant tensor:
#      x y z
#    x 3.563660 0.000000 0.020150 
#    y 0.000000 3.265640 0.000000 
#    z 0.020150 0.000000 3.647500 
# 
# 
# High freq. dielectric constant tensor:
#      x y z
#    x 1.722620 0.000000 0.006030 
#    y 0.000000 1.711950 0.000000 
#    z 0.006030 0.000000 1.747580 
# 
# From -- ./inp_files/50659.got.cif
#   From: 2010.06.25/outbox.cif.g09.slc.cpg/sg11_26_cif.got.tgz:50659.got - 2010.06.27 23:14:04.
