data_PCOD8072073
_publ_section_title
;
Structure prediction by ZEFSAII (Michael W. Deem and Ramdas Pophale) SiO2 
 PCOD8072073
Probable space group: P 21/M
;
_chemical_formula_sum "Si O2"
_cell_formula_units_Z 32
_cell_length_a 15.348926
_cell_length_b 9.167037
_cell_length_c 11.846494
_cell_angle_alpha 90.000000
_cell_angle_beta 90.523070
_cell_angle_gamma 90.000000
_cell_volume 1666.781675
_symmetry_space_group_name_H-M "P 21/M"
_symmetry_group_IT_number 11
_symmetry_cell_setting 'monoclinic'
loop_
_space_group_symop_operation_xyz
x,y,z
-x,1/2+y,-z
-x,-y,-z
x,1/2-y,z
loop_
_atom_site_type_symbol
_atom_site_label
_atom_site_fract_x
_atom_site_fract_y
_atom_site_fract_z
Si Si1 0.666787 0.920167 0.737705
Si Si2 0.089941 0.918458 0.500385
Si Si3 0.160692 0.920678 0.265561
Si Si4 0.151719 0.916376 0.746995
Si Si5 0.346579 0.918639 0.719051
Si Si6 0.407677 0.422126 0.504619
Si Si7 0.006998 0.077504 0.881119
Si Si8 0.502913 0.578450 0.881700
O O1 0.682195 0.750000 0.752882
O O2 0.645524 0.960624 0.608615
O O3 0.587965 0.974237 0.815303
O O4 0.754009 0.999813 0.780665
O O5 0.067083 0.750000 0.484884
O O6 0.147027 0.971014 0.394781
O O7 0.142515 0.951588 0.614418
O O8 0.000000 0.000000 0.500000
O O9 0.177102 0.750000 0.254666
O O10 0.076644 0.968833 0.192952
O O11 0.123004 0.750000 0.772727
O O12 0.253019 0.940921 0.777532
O O13 0.094279 0.025329 0.819815
O O14 0.360293 0.750000 0.683145
O O15 0.418697 0.968903 0.809236
O O16 0.352295 0.018107 0.608475
O O17 0.500000 0.500000 0.500000
O O18 0.422898 0.250000 0.516554
O O19 0.012483 0.250000 0.898146
O O20 0.000000 0.000000 0.000000
O O21 0.503763 0.750000 0.902307
O O22 0.500000 0.500000 0.000000
#
# Coordination Sequence:
#
# PCOD8072073 Si02
#       8
#     4   4   4   4   4   4   4   4
#     4  10  22  39  59  87 121 154 190 240 294 344
#     4  10  19  34  57  87 119 150 186 231 287 347
#     4  10  22  39  60  88 118 153 195 238 289 350
#     4  10  21  37  62  90 118 155 193 237 297 351
#     4  10  21  40  62  86 121 156 193 243 292 348
#     4  11  21  36  60  90 123 157 193 236 294 355
#     4  11  24  42  62  84 117 155 200 250 294 348
#     4  10  22  41  60  82 115 152 195 243 291 341
#
# _framework density 19.198675999999999
#
# number of rings (size 3 to 8) (size 9 to 14) (size 15 to 20)
#    0.000    1.750    2.500    1.500    0.000    6.000 
#    0.000    3.750    0.000    0.000    0.000    0.000 
#    0.000    0.000    0.000    0.000    0.000    0.000 
#
# Total GULP energy -396927.673174 kJ/mol
# GULP energy per Si atom -12403.989787 kJ/mol
# Density = 1.915498 g / cm^3
# Si number density = 19.198676 Si / 1000 Ang^3
#
#
#
# Elastic Constant Matrix: (Units=GPa)
#
#
# Indices 1 2 3 4 5 6 
#
# 1 149.7962 48.6815 61.0809 0.0000 -11.6680 0.0000
# 2 48.6815 61.4722 52.7958 0.0000 -7.1972 0.0000
# 3 61.0809 52.7958 138.8976 0.0000 -11.1169 0.0000
# 4 0.0000 0.0000 0.0000 36.1129 0.0000 -3.4374
# 5 -11.6680 -7.1972 -11.1169 0.0000 10.9851 0.0000
# 6 0.0000 0.0000 0.0000 -3.4374 0.0000 34.4957
#
#
#
# Elastic Compliance Matrix: (Units=1/GPa)
#
#
# Indices 1 2 3 4 5 6 
#
# 1 0.009543 -0.005526 -0.001713 0.000000 0.004782 0.000000
# 2 -0.005526 0.027873 -0.007805 0.000000 0.004494 0.000000
# 3 -0.001713 -0.007805 0.011278 0.000000 0.004480 0.000000
# 4 0.000000 0.000000 0.000000 0.027956 0.000000 0.002786
# 5 0.004782 0.004494 0.004480 0.000000 0.103589 0.000000
# 6 0.000000 0.000000 0.000000 0.002786 0.000000 0.029267
#
#
# Mechanical properties :
#
#
# Convention : Reuss Voigt Hill
#
# Bulk Modulus (GPa) = 53.74683 75.03135 64.38909
# Shear Modulus (GPa) = 20.34205 28.82593 24.58399
#
# Velocity S-wave (km/s) = 3.25861 3.87906 3.58230
# Velocity P-wave (km/s) = 6.49722 7.69605 7.12191
#
# Compressibility (1/GPa) = 0.01860575
#
# Stress axis : x y z
#
# Youngs Moduli (GPa) = 104.79345 35.87697 88.66560
#
# Poissons Ratio (x) = 0.19824 0.15192
# Poissons Ratio (y) = 0.57905 0.69204
# Poissons Ratio (z) = 0.17955 0.28002
#
# Static dielectric constant tensor:
#      x y z
#    x 3.468200 0.000000 0.038590 
#    y 0.000000 3.469840 0.000000 
#    z 0.038590 0.000000 3.583780 
# 
# 
# High freq. dielectric constant tensor:
#      x y z
#    x 1.759470 0.000000 -0.000270 
#    y 0.000000 1.741910 0.000000 
#    z -0.000270 0.000000 1.746390 
# 
# From -- ./inp_files/38257.got.cif
#   From: 2010.06.25/outbox.cif.g09.slc.cpg/sg11_20_cif.got.tgz:38257.got - 2010.06.27 23:14:04.
