data_PCOD8072300
_publ_section_title
;
Structure prediction by ZEFSAII (Michael W. Deem and Ramdas Pophale) SiO2 
 PCOD8072300
Probable space group: P 21/M
;
_chemical_formula_sum "Si O2"
_cell_formula_units_Z 32
_cell_length_a 12.674227
_cell_length_b 15.500340
_cell_length_c 18.401565
_cell_angle_alpha 90.000000
_cell_angle_beta 152.972606
_cell_angle_gamma 90.000000
_cell_volume 1642.750137
_symmetry_space_group_name_H-M "P 21/M"
_symmetry_group_IT_number 11
_symmetry_cell_setting 'monoclinic'
loop_
_space_group_symop_operation_xyz
x,y,z
-x,1/2+y,-z
-x,-y,-z
x,1/2-y,z
loop_
_atom_site_type_symbol
_atom_site_label
_atom_site_fract_x
_atom_site_fract_y
_atom_site_fract_z
Si Si1 0.595200 0.848096 0.064025
Si Si2 0.751461 0.969290 0.496481
Si Si3 0.346867 0.847628 0.210309
Si Si4 0.920499 0.849434 0.046630
Si Si5 0.049446 0.035516 0.800772
Si Si6 0.412196 0.919585 0.726107
Si Si7 0.407965 0.583440 0.091168
Si Si8 0.841406 0.152611 0.302661
O O1 0.671167 0.750000 0.093716
O O2 0.792501 0.914077 0.160426
O O3 0.549910 0.857499 0.122066
O O4 0.363545 0.872612 0.878052
O O5 0.519004 0.912384 0.357433
O O6 0.948676 0.912494 0.579320
O O7 0.707204 0.056423 0.423210
O O8 0.821323 0.000094 0.619914
O O9 0.424891 0.750000 0.275265
O O10 0.338974 0.860996 0.119033
O O11 0.088776 0.865327 0.081807
O O12 0.905616 0.750000 0.060041
O O13 0.667425 0.882094 0.868001
O O14 0.020869 0.900445 0.177586
O O15 0.176728 0.951893 0.911090
O O16 0.253209 0.852571 0.672673
O O17 0.426513 0.005216 0.784061
O O18 0.928762 0.250000 0.342397
#
# Coordination Sequence:
#
# PCOD8072300 Si02
#       8
#     4   4   4   4   4   4   4   4
#     4  11  20  33  57  87 119 153 195 237 283 341
#     4  11  23  37  55  87 125 154 182 236 297 350
#     4  10  23  42  61  84 115 153 197 240 287 341
#     4  10  21  42  66  83 109 153 202 243 280 336
#     4  11  21  36  60  88 118 151 191 240 289 344
#     4  10  21  36  60  85 115 154 195 239 285 340
#     4  10  19  35  58  83 114 151 197 239 275 336
#     4  11  20  34  57  85 121 157 190 231 289 347
#
# _framework density 19.479528999999999
#
# number of rings (size 3 to 8) (size 9 to 14) (size 15 to 20)
#    0.000    1.500    3.750    3.000    0.000    6.000 
#    0.000    5.000    0.000    3.000    0.000    0.000 
#    0.000    0.000    0.000    0.000    0.000    0.000 
#
# Total GULP energy -396887.254600 kJ/mol
# GULP energy per Si atom -12402.726706 kJ/mol
# Density = 1.943519 g / cm^3
# Si number density = 19.479529 Si / 1000 Ang^3
#
#
#
# Elastic Constant Matrix: (Units=GPa)
#
#
# Indices 1 2 3 4 5 6 
#
# 1 100.2430 32.2891 24.0905 0.0000 0.3691 0.0000
# 2 32.2891 77.1408 33.2620 0.0000 2.0479 0.0000
# 3 24.0905 33.2620 81.7995 0.0000 -10.8263 0.0000
# 4 0.0000 0.0000 0.0000 22.8397 0.0000 2.5301
# 5 0.3691 2.0479 -10.8263 0.0000 32.5467 0.0000
# 6 0.0000 0.0000 0.0000 2.5301 0.0000 32.8490
#
#
#
# Elastic Compliance Matrix: (Units=1/GPa)
#
#
# Indices 1 2 3 4 5 6 
#
# 1 0.011745 -0.004103 -0.001856 0.000000 -0.000492 0.000000
# 2 -0.004103 0.017490 -0.006322 0.000000 -0.003157 0.000000
# 3 -0.001856 -0.006322 0.016107 0.000000 0.005776 0.000000
# 4 0.000000 0.000000 0.000000 0.044160 0.000000 -0.003401
# 5 -0.000492 -0.003157 0.005776 0.000000 0.032851 0.000000
# 6 0.000000 0.000000 0.000000 -0.003401 0.000000 0.030704
#
#
# Mechanical properties :
#
#
# Convention : Reuss Voigt Hill
#
# Bulk Modulus (GPa) = 48.11976 48.71851 48.41913
# Shear Modulus (GPa) = 27.09367 28.94986 28.02177
#
# Velocity S-wave (km/s) = 3.73349 3.85927 3.79690
# Velocity P-wave (km/s) = 6.58344 6.70246 6.64322
#
# Compressibility (1/GPa) = 0.02078148
#
# Stress axis : x y z
#
# Youngs Moduli (GPa) = 85.14154 57.17474 62.08633
#
# Poissons Ratio (x) = 0.23458 0.11522
# Poissons Ratio (y) = 0.34933 0.39248
# Poissons Ratio (z) = 0.15801 0.36143
#
# Static dielectric constant tensor:
#      x y z
#    x 3.508750 0.000000 -0.107320 
#    y 0.000000 3.657100 0.000000 
#    z -0.107320 0.000000 3.499770 
# 
# 
# High freq. dielectric constant tensor:
#      x y z
#    x 1.752900 0.000000 -0.005360 
#    y 0.000000 1.767000 0.000000 
#    z -0.005360 0.000000 1.745570 
# 
# From -- ./inp_files/59517.got.cif
#   From: 2010.06.25/outbox.cif.g09.slc.cpg/sg11_30_cif.got.tgz:59517.got - 2010.06.27 23:14:04.
