data_PCOD8072081
_publ_section_title
;
Structure prediction by ZEFSAII (Michael W. Deem and Ramdas Pophale) SiO2 
 PCOD8072081
Probable space group: P 21/M
;
_chemical_formula_sum "Si O2"
_cell_formula_units_Z 28
_cell_length_a 20.895099
_cell_length_b 14.527166
_cell_length_c 8.906953
_cell_angle_alpha 90.000000
_cell_angle_beta 32.314354
_cell_angle_gamma 90.000000
_cell_volume 1445.287596
_symmetry_space_group_name_H-M "P 21/M"
_symmetry_group_IT_number 11
_symmetry_cell_setting 'monoclinic'
loop_
_space_group_symop_operation_xyz
x,y,z
-x,1/2+y,-z
-x,-y,-z
x,1/2-y,z
loop_
_atom_site_type_symbol
_atom_site_label
_atom_site_fract_x
_atom_site_fract_y
_atom_site_fract_z
Si Si1 0.221515 0.854697 0.255746
Si Si2 0.213590 0.353425 0.237012
Si Si3 0.035114 0.353626 0.340031
Si Si4 0.802793 0.991170 0.159057
Si Si5 0.359498 0.995347 0.794258
Si Si6 0.889391 0.355643 0.206807
Si Si7 0.167788 0.144191 0.660427
O O1 0.266226 0.750000 0.161503
O O2 0.188196 0.882012 0.492529
O O3 0.106750 0.870104 0.375261
O O4 0.326613 0.916746 0.979990
O O5 0.261915 0.250000 0.147597
O O6 0.084386 0.358367 0.411810
O O7 0.194449 0.392757 0.440882
O O8 0.313684 0.407794 0.947633
O O9 0.061379 0.250000 0.219381
O O10 0.093627 0.436182 0.132265
O O11 0.754746 0.919436 0.380837
O O12 0.696797 0.022210 0.258472
O O13 0.853176 0.082376 0.137821
O O14 0.500000 0.000000 0.500000
O O15 0.867875 0.250000 0.202051
O O16 0.027839 0.370826 0.975020
O O17 0.206342 0.250000 0.602868
#
# Coordination Sequence:
#
# PCOD8072081 Si02
#       7
#     4   4   4   4   4   4   4
#     4  10  21  39  60  82 117 152 185 233 288 345
#     4   9  20  36  59  85 118 150 186 237 288 343
#     4   9  18  33  55  89 119 148 185 229 289 352
#     4  11  21  34  60  84 117 153 184 235 287 341
#     4  11  26  42  57  79 110 156 210 246 272 318
#     4  10  21  35  55  90 127 149 177 223 289 364
#     4  10  19  34  57  91 123 145 172 223 295 364
#
# _framework density 19.373307
#
# number of rings (size 3 to 8) (size 9 to 14) (size 15 to 20)
#    0.000    2.000    1.429    1.714    4.000    2.857 
#    0.000    2.857    0.000    3.429    0.000    0.000 
#    0.000    0.000    0.000    0.000    0.000    0.000 
#
# Total GULP energy -347155.960253 kJ/mol
# GULP energy per Si atom -12398.427152 kJ/mol
# Density = 1.932921 g / cm^3
# Si number density = 19.373307 Si / 1000 Ang^3
#
#
#
# Elastic Constant Matrix: (Units=GPa)
#
#
# Indices 1 2 3 4 5 6 
#
# 1 78.9965 38.7714 34.9413 0.0000 15.4948 0.0000
# 2 38.7714 93.2039 37.3440 0.0000 5.2254 0.0000
# 3 34.9413 37.3440 94.4826 0.0000 0.6878 0.0000
# 4 0.0000 0.0000 0.0000 25.9873 0.0000 11.1711
# 5 15.4948 5.2254 0.6878 0.0000 27.0412 0.0000
# 6 0.0000 0.0000 0.0000 11.1711 0.0000 27.7511
#
#
#
# Elastic Compliance Matrix: (Units=1/GPa)
#
#
# Indices 1 2 3 4 5 6 
#
# 1 0.019552 -0.005590 -0.004948 0.000000 -0.009997 0.000000
# 2 -0.005590 0.014496 -0.003666 0.000000 0.000495 0.000000
# 3 -0.004948 -0.003666 0.013840 0.000000 0.003192 0.000000
# 4 0.000000 0.000000 0.000000 0.046532 0.000000 -0.018731
# 5 -0.009997 0.000495 0.003192 0.000000 0.042532 0.000000
# 6 0.000000 0.000000 0.000000 -0.018731 0.000000 0.043575
#
#
# Mechanical properties :
#
#
# Convention : Reuss Voigt Hill
#
# Bulk Modulus (GPa) = 51.33787 54.31072 52.82430
# Shear Modulus (GPa) = 23.20961 26.53101 24.87031
#
# Velocity S-wave (km/s) = 3.46500 3.70464 3.58682
# Velocity P-wave (km/s) = 6.52419 6.81130 6.66929
#
# Compressibility (1/GPa) = 0.01947880
#
# Stress axis : x y z
#
# Youngs Moduli (GPa) = 51.14518 68.98683 72.25665
#
# Poissons Ratio (x) = 0.38565 0.35756
# Poissons Ratio (y) = 0.28591 0.26486
# Poissons Ratio (z) = 0.25309 0.25288
#
# Static dielectric constant tensor:
#      x y z
#    x 3.640440 0.000000 0.313010 
#    y 0.000000 3.750240 0.000000 
#    z 0.313010 0.000000 3.128890 
# 
# 
# High freq. dielectric constant tensor:
#      x y z
#    x 1.749850 0.000000 0.035730 
#    y 0.000000 1.773590 0.000000 
#    z 0.035730 0.000000 1.711820 
# 
# From -- ./inp_files/22082.got.cif
#   From: 2010.06.25/outbox.cif.g09.slc.cpg/sg11_12_cif.got.tgz:22082.got - 2010.06.27 23:14:04.
