data_PCOD8072649
_publ_section_title
;
Structure prediction by ZEFSAII (Michael W. Deem and Ramdas Pophale) SiO2 
 PCOD8072649
Probable space group: P 21/M
;
_chemical_formula_sum "Si O2"
_cell_formula_units_Z 32
_cell_length_a 18.841144
_cell_length_b 13.751935
_cell_length_c 12.207053
_cell_angle_alpha 90.000000
_cell_angle_beta 151.933520
_cell_angle_gamma 90.000000
_cell_volume 1488.118764
_symmetry_space_group_name_H-M "P 21/M"
_symmetry_group_IT_number 11
_symmetry_cell_setting 'monoclinic'
loop_
_space_group_symop_operation_xyz
x,y,z
-x,1/2+y,-z
-x,-y,-z
x,1/2-y,z
loop_
_atom_site_type_symbol
_atom_site_label
_atom_site_fract_x
_atom_site_fract_y
_atom_site_fract_z
Si Si1 0.874330 0.641460 0.947569
Si Si2 0.674962 0.956194 0.496455
Si Si3 0.827890 0.358803 0.773716
Si Si4 0.321753 0.019483 0.746591
Si Si5 0.851779 0.143166 0.377723
Si Si6 0.871212 0.447956 0.057226
Si Si7 0.911942 0.635550 0.468646
Si Si8 0.369394 0.641280 0.127940
O O1 0.827171 0.750000 0.922730
O O2 0.777117 0.613970 0.708580
O O3 0.852744 0.564850 0.017242
O O4 0.049256 0.640247 0.154499
O O5 0.716555 0.940768 0.425952
O O6 0.501938 0.930393 0.276572
O O7 0.692959 0.069071 0.555409
O O8 0.763263 0.250000 0.703389
O O9 0.910678 0.398643 0.995153
O O10 0.262092 0.098525 0.756357
O O11 0.221730 0.922894 0.629325
O O12 0.500000 0.000000 0.000000
O O13 0.867169 0.250000 0.451566
O O14 0.016334 0.109383 0.553314
O O15 0.745893 0.145851 0.128307
O O16 0.002904 0.424423 0.321045
O O17 0.711474 0.403704 0.876541
O O18 0.925872 0.750000 0.509533
O O19 0.428151 0.750000 0.235304
#
# Coordination Sequence:
#
# PCOD8072649 Si02
#       8
#     4   4   4   4   4   4   4   4
#     4  10  21  37  59  89 123 154 193 243 297 359
#     4  11  22  36  55  84 118 156 198 246 301 356
#     4  10  20  35  55  82 116 153 193 242 300 358
#     4  12  23  37  59  88 121 155 198 254 309 351
#     4   9  20  40  61  84 117 156 201 250 303 359
#     4  10  19  37  62  88 117 154 200 244 293 355
#     4  10  21  38  64  92 117 157 207 250 295 360
#     4  10  20  36  59  86 118 157 200 247 298 357
#
# _framework density 21.50366
#
# number of rings (size 3 to 8) (size 9 to 14) (size 15 to 20)
#    0.000    1.750    1.250    5.625    0.000    5.000 
#    0.000    2.500    0.000    3.000    0.000    0.000 
#    0.000    0.000    0.000    0.000    0.000    0.000 
#
# Total GULP energy -396697.281505 kJ/mol
# GULP energy per Si atom -12396.790047 kJ/mol
# Density = 2.145472 g / cm^3
# Si number density = 21.503660 Si / 1000 Ang^3
#
#
#
# Elastic Constant Matrix: (Units=GPa)
#
#
# Indices 1 2 3 4 5 6 
#
# 1 77.8259 28.2599 34.6364 0.0000 23.0226 0.0000
# 2 28.2599 148.0840 27.6058 0.0000 15.3051 0.0000
# 3 34.6364 27.6058 43.8531 0.0000 16.9865 0.0000
# 4 0.0000 0.0000 0.0000 25.4334 0.0000 5.4715
# 5 23.0226 15.3051 16.9865 0.0000 29.4857 0.0000
# 6 0.0000 0.0000 0.0000 5.4715 0.0000 37.5228
#
#
#
# Elastic Compliance Matrix: (Units=1/GPa)
#
#
# Indices 1 2 3 4 5 6 
#
# 1 0.021606 -0.000753 -0.013140 0.000000 -0.008909 0.000000
# 2 -0.000753 0.007732 -0.003792 0.000000 -0.001241 0.000000
# 3 -0.013140 -0.003792 0.039689 0.000000 -0.010636 0.000000
# 4 0.000000 0.000000 0.000000 0.040592 0.000000 -0.005919
# 5 -0.008909 -0.001241 -0.010636 0.000000 0.047643 0.000000
# 6 0.000000 0.000000 0.000000 -0.005919 0.000000 0.027514
#
#
# Mechanical properties :
#
#
# Convention : Reuss Voigt Hill
#
# Bulk Modulus (GPa) = 29.71146 50.08527 39.89837
# Shear Modulus (GPa) = 21.61101 30.43913 26.02507
#
# Velocity S-wave (km/s) = 3.17360 3.76644 3.48266
# Velocity P-wave (km/s) = 5.22263 6.50052 5.89630
#
# Compressibility (1/GPa) = 0.03365705
#
# Stress axis : x y z
#
# Youngs Moduli (GPa) = 46.28304 129.33711 25.19603
#
# Poissons Ratio (x) = 0.09737 0.33108
# Poissons Ratio (y) = 0.03484 0.09554
# Poissons Ratio (z) = 0.60817 0.49043
#
# Static dielectric constant tensor:
#      x y z
#    x 4.035700 0.000000 0.193070 
#    y 0.000000 4.247570 0.000000 
#    z 0.193070 0.000000 3.693240 
# 
# 
# High freq. dielectric constant tensor:
#      x y z
#    x 1.845970 0.000000 0.005580 
#    y 0.000000 1.855980 0.000000 
#    z 0.005580 0.000000 1.819690 
# 
# From -- ./inp_files/41671.got.cif
#   From: 2010.06.25/outbox.cif.g09.slc.cpg/sg11_21_cif.got.tgz:41671.got - 2010.06.27 23:14:04.
