data_PCOD8072835
_publ_section_title
;
Structure prediction by ZEFSAII (Michael W. Deem and Ramdas Pophale) SiO2 
 PCOD8072835
Probable space group: P 21/M
;
_chemical_formula_sum "Si O2"
_cell_formula_units_Z 32
_cell_length_a 25.173982
_cell_length_b 9.052122
_cell_length_c 9.485375
_cell_angle_alpha 90.000000
_cell_angle_beta 124.415437
_cell_angle_gamma 90.000000
_cell_volume 1783.160237
_symmetry_space_group_name_H-M "P 21/M"
_symmetry_group_IT_number 11
_symmetry_cell_setting 'monoclinic'
loop_
_space_group_symop_operation_xyz
x,y,z
-x,1/2+y,-z
-x,-y,-z
x,1/2-y,z
loop_
_atom_site_type_symbol
_atom_site_label
_atom_site_fract_x
_atom_site_fract_y
_atom_site_fract_z
Si Si1 0.324241 0.425509 0.828312
Si Si2 0.443738 0.074679 0.828135
Si Si3 0.182086 0.425313 0.614574
Si Si4 0.675759 0.574491 0.855589
Si Si5 0.064145 0.423388 0.933626
Si Si6 0.817914 0.925313 0.068315
Si Si7 0.064145 0.423388 0.258810
Si Si8 0.443738 0.074679 0.503079
O O1 0.323712 0.250000 0.830021
O O2 0.376618 0.482533 0.794704
O O3 0.253184 0.483138 0.675791
O O4 0.341056 0.483187 0.011584
O O5 0.450501 0.250000 0.851370
O O6 0.446336 0.023556 0.669505
O O7 0.500000 0.000000 0.000000
O O8 0.181568 0.250000 0.603083
O O9 0.167197 0.477130 0.750796
O O10 0.126536 0.490513 0.431163
O O11 0.676289 0.750000 0.858887
O O12 0.623382 0.517468 0.664850
O O13 0.746816 0.516862 0.916239
O O14 0.057072 0.250000 0.897050
O O15 0.126536 0.490512 0.948446
O O16 0.000000 0.500000 0.776888
O O17 0.073576 0.463323 0.110364
O O18 0.818431 0.750000 0.058377
O O19 0.057072 0.250000 0.274167
O O20 0.450502 0.250000 0.500134
O O21 0.500000 0.000000 0.500000
#
# Coordination Sequence:
#
# PCOD8072835 Si02
#       8
#     4   4   4   4   4   4   4   4
#     4   8  14  26  44  65  89 115 144 183 227 264
#     4  10  20  32  48  71  96 123 155 189 227 272
#     4   8  14  25  42  64  87 111 142 180 219 256
#     4   8  14  26  44  65  89 115 144 183 227 264
#     4   9  17  28  42  61  85 112 141 175 215 257
#     4   8  14  25  42  64  87 111 142 180 219 256
#     4   9  17  28  42  61  85 112 141 175 215 257
#     4  10  20  32  48  71  96 123 155 189 227 272
#
# _framework density 17.945667
#
# number of rings (size 3 to 8) (size 9 to 14) (size 15 to 20)
#    0.000    3.250    0.000    2.250    0.000    3.000 
#    0.000    5.000    0.000    1.500    0.000    7.000 
#    0.000    0.000    0.000    0.000    0.000    0.000 
#
# Total GULP energy -396591.582565 kJ/mol
# GULP energy per Si atom -12393.486955 kJ/mol
# Density = 1.790482 g / cm^3
# Si number density = 17.945667 Si / 1000 Ang^3
#
#
#
# Elastic Constant Matrix: (Units=GPa)
#
#
# Indices 1 2 3 4 5 6 
#
# 1 187.6835 23.1918 93.6013 0.0000 12.3461 0.0000
# 2 23.1918 10.5121 22.1801 0.0000 1.7887 0.0000
# 3 93.6013 22.1801 168.5575 0.0000 21.4665 0.0000
# 4 0.0000 0.0000 0.0000 18.6149 0.0000 4.3033
# 5 12.3461 1.7887 21.4665 0.0000 27.4252 0.0000
# 6 0.0000 0.0000 0.0000 4.3033 0.0000 21.0491
#
#
#
# Elastic Compliance Matrix: (Units=1/GPa)
#
#
# Indices 1 2 3 4 5 6 
#
# 1 0.008335 -0.012025 -0.002963 0.000000 -0.000648 0.000000
# 2 -0.012025 0.149799 -0.013861 0.000000 0.006493 0.000000
# 3 -0.002963 -0.013861 0.010127 0.000000 -0.005688 0.000000
# 4 0.000000 0.000000 0.000000 0.056385 0.000000 -0.011527
# 5 -0.000648 0.006493 -0.005688 0.000000 0.040784 0.000000
# 6 0.000000 0.000000 0.000000 -0.011527 0.000000 0.049865
#
#
# Mechanical properties :
#
#
# Convention : Reuss Voigt Hill
#
# Bulk Modulus (GPa) = 9.04475 71.63330 40.33902
# Shear Modulus (GPa) = 12.19972 28.60317 20.40145
#
# Velocity S-wave (km/s) = 2.61015 3.99667 3.37537
# Velocity P-wave (km/s) = 3.75964 7.82951 6.14150
#
# Compressibility (1/GPa) = 0.11056136
#
# Stress axis : x y z
#
# Youngs Moduli (GPa) = 119.98280 6.67563 98.74922
#
# Poissons Ratio (x) = 0.08027 0.29263
# Poissons Ratio (y) = 1.44276 1.36878
# Poissons Ratio (z) = 0.35555 0.09253
#
# Static dielectric constant tensor:
#      x y z
#    x 3.751230 0.000000 0.195460 
#    y 0.000000 2.739400 0.000000 
#    z 0.195460 0.000000 3.640670 
# 
# 
# High freq. dielectric constant tensor:
#      x y z
#    x 1.706880 0.000000 0.009570 
#    y 0.000000 1.631840 0.000000 
#    z 0.009570 0.000000 1.701470 
# 
# From -- ./inp_files/27527.got.cif
#   From: 2010.06.25/outbox.cif.g09.slc.cpg/sg11_14_cif.got.tgz:27527.got - 2010.06.27 23:14:04.
