data_PCOD8072596
_publ_section_title
;
Structure prediction by ZEFSAII (Michael W. Deem and Ramdas Pophale) SiO2 
 PCOD8072596
Probable space group: P 21/M
;
_chemical_formula_sum "Si O2"
_cell_formula_units_Z 28
_cell_length_a 26.693764
_cell_length_b 8.560048
_cell_length_c 9.532118
_cell_angle_alpha 90.000000
_cell_angle_beta 41.706183
_cell_angle_gamma 90.000000
_cell_volume 1449.105752
_symmetry_space_group_name_H-M "P 21/M"
_symmetry_group_IT_number 11
_symmetry_cell_setting 'monoclinic'
loop_
_space_group_symop_operation_xyz
x,y,z
-x,1/2+y,-z
-x,-y,-z
x,1/2-y,z
loop_
_atom_site_type_symbol
_atom_site_label
_atom_site_fract_x
_atom_site_fract_y
_atom_site_fract_z
Si Si1 0.742704 0.565644 0.512315
Si Si2 0.185278 0.931598 0.362973
Si Si3 0.082259 0.434801 0.350220
Si Si4 0.204442 0.565391 0.882711
Si Si5 0.288358 0.422309 0.934091
Si Si6 0.427663 0.063526 0.068657
Si Si7 0.551110 0.581191 0.283082
O O1 0.743250 0.750000 0.488458
O O2 0.791382 0.525579 0.547431
O O3 0.789363 0.482083 0.291902
O O4 0.654875 0.506253 0.703666
O O5 0.172720 0.750000 0.424626
O O6 0.111721 0.002201 0.439696
O O7 0.253523 0.952382 0.112544
O O8 0.079177 0.250000 0.359956
O O9 0.000000 0.500000 0.500000
O O10 0.133497 0.491305 0.112672
O O11 0.199520 0.750000 0.907139
O O12 0.279742 0.494767 0.796975
O O13 0.248206 0.250000 0.028120
O O14 0.373596 0.398567 0.789010
O O15 0.427844 0.250000 0.070591
O O16 0.436846 0.995680 0.891100
O O17 0.500000 0.000000 0.000000
O O18 0.500000 0.500000 0.500000
O O19 0.515841 0.750000 0.322993
#
# Coordination Sequence:
#
# PCOD8072596 Si02
#       7
#     4   4   4   4   4   4   4
#     4  11  22  41  62  84 119 163 204 249 303 364
#     4  11  21  36  61  92 119 153 198 244 293 350
#     4  11  22  41  67  95 127 163 197 239 291 350
#     4  11  23  38  59  92 123 153 198 248 295 353
#     4  10  19  37  58  79 110 153 198 243 296 356
#     4  10  23  41  58  81 115 156 202 251 307 363
#     4  10  22  38  55  79 110 148 195 248 301 358
#
# _framework density 19.322261000000001
#
# number of rings (size 3 to 8) (size 9 to 14) (size 15 to 20)
#    0.000    1.429    1.429    6.429    2.000    2.857 
#    0.000    0.714    0.000    0.000    0.000    0.000 
#    0.000    0.000    0.000    0.000    0.000    0.000 
#
# Total GULP energy -346966.022350 kJ/mol
# GULP energy per Si atom -12391.643655 kJ/mol
# Density = 1.927828 g / cm^3
# Si number density = 19.322261 Si / 1000 Ang^3
#
#
#
# Elastic Constant Matrix: (Units=GPa)
#
#
# Indices 1 2 3 4 5 6 
#
# 1 127.6093 30.4878 58.4865 0.0000 -6.0479 0.0000
# 2 30.4878 102.6051 28.4073 0.0000 -10.5231 0.0000
# 3 58.4865 28.4073 91.7497 0.0000 2.6203 0.0000
# 4 0.0000 0.0000 0.0000 29.6838 0.0000 2.3722
# 5 -6.0479 -10.5231 2.6203 0.0000 27.3342 0.0000
# 6 0.0000 0.0000 0.0000 2.3722 0.0000 33.5888
#
#
#
# Elastic Compliance Matrix: (Units=1/GPa)
#
#
# Indices 1 2 3 4 5 6 
#
# 1 0.011468 -0.001180 -0.007024 0.000000 0.002756 0.000000
# 2 -0.001180 0.011345 -0.002885 0.000000 0.004383 0.000000
# 3 -0.007024 -0.002885 0.016391 0.000000 -0.004236 0.000000
# 4 0.000000 0.000000 0.000000 0.033880 0.000000 -0.002393
# 5 0.002756 0.004383 -0.004236 0.000000 0.039288 0.000000
# 6 0.000000 0.000000 0.000000 -0.002393 0.000000 0.029941
#
#
# Mechanical properties :
#
#
# Convention : Reuss Voigt Hill
#
# Bulk Modulus (GPa) = 58.73618 61.85859 60.29738
# Shear Modulus (GPa) = 29.38298 31.76020 30.57159
#
# Velocity S-wave (km/s) = 3.90382 4.05867 3.98200
# Velocity P-wave (km/s) = 7.12629 7.35169 7.23987
#
# Compressibility (1/GPa) = 0.01702528
#
# Stress axis : x y z
#
# Youngs Moduli (GPa) = 87.19742 88.14276 61.00930
#
# Poissons Ratio (x) = 0.10404 0.42852
# Poissons Ratio (y) = 0.10292 0.17604
# Poissons Ratio (z) = 0.61245 0.25433
#
# Static dielectric constant tensor:
#      x y z
#    x 3.674150 0.000000 0.022600 
#    y 0.000000 3.492830 0.000000 
#    z 0.022600 0.000000 3.280180 
# 
# 
# High freq. dielectric constant tensor:
#      x y z
#    x 1.762380 0.000000 0.007100 
#    y 0.000000 1.761380 0.000000 
#    z 0.007100 0.000000 1.739620 
# 
# From -- ./inp_files/28443.got.cif
#   From: 2010.06.25/outbox.cif.g09.slc.cpg/sg11_15_cif.got.tgz:28443.got - 2010.06.27 23:14:04.
