data_PCOD8072893
_publ_section_title
;
Structure prediction by ZEFSAII (Michael W. Deem and Ramdas Pophale) SiO2 
 PCOD8072893
Probable space group: P 21/M
;
_chemical_formula_sum "Si O2"
_cell_formula_units_Z 32
_cell_length_a 14.960323
_cell_length_b 9.343187
_cell_length_c 21.707921
_cell_angle_alpha 90.000000
_cell_angle_beta 147.585121
_cell_angle_gamma 90.000000
_cell_volume 1626.508490
_symmetry_space_group_name_H-M "P 21/M"
_symmetry_group_IT_number 11
_symmetry_cell_setting 'monoclinic'
loop_
_space_group_symop_operation_xyz
x,y,z
-x,1/2+y,-z
-x,-y,-z
x,1/2-y,z
loop_
_atom_site_type_symbol
_atom_site_label
_atom_site_fract_x
_atom_site_fract_y
_atom_site_fract_z
Si Si1 0.482921 0.916639 0.602101
Si Si2 0.377618 0.084346 0.792211
Si Si3 0.655000 0.910400 0.017988
Si Si4 0.491712 0.083595 0.241613
Si Si5 0.175153 0.416522 0.376879
Si Si6 0.848370 0.585166 0.778709
Si Si7 0.852538 0.590530 0.010695
Si Si8 0.117071 0.085524 0.738430
O O1 0.460754 0.750000 0.572097
O O2 0.451365 0.942923 0.655958
O O3 0.665475 0.972251 0.689581
O O4 0.353809 0.009831 0.488452
O O5 0.421344 0.250000 0.807270
O O6 0.193101 0.066222 0.714132
O O7 0.384038 0.003535 0.730557
O O8 0.510007 0.020737 0.917370
O O9 0.580188 0.750000 0.980898
O O10 0.797067 0.911975 0.049093
O O11 0.739661 0.961248 0.130387
O O12 0.502327 0.250000 0.228562
O O13 0.299956 0.032300 0.120298
O O14 0.192181 0.250000 0.402700
O O15 0.115356 0.440702 0.272219
O O16 0.044367 0.486595 0.348039
O O17 0.860723 0.750000 0.803940
O O18 0.983817 0.506796 0.900372
O O19 0.902030 0.750000 0.018396
O O20 0.063680 0.250000 0.719187
#
# Coordination Sequence:
#
# PCOD8072893 Si02
#       8
#     4   4   4   4   4   4   4   4
#     4  10  22  41  61  77 104 149 190 227 274 331
#     4  10  20  32  53  83 112 143 182 227 271 320
#     4   9  17  31  51  77 113 151 182 215 265 329
#     4   9  20  39  58  78 109 149 190 225 268 325
#     4  11  23  37  56  85 115 140 179 234 279 322
#     4  10  21  36  56  85 114 140 177 226 279 329
#     4   9  17  31  54  82 112 146 179 218 268 325
#     4  10  20  35  54  79 111 149 185 217 269 333
#
# _framework density 19.674043999999999
#
# number of rings (size 3 to 8) (size 9 to 14) (size 15 to 20)
#    0.000    2.250    1.250    2.250    0.000    5.500 
#    0.000    0.625    0.000    0.000    0.000    0.000 
#    0.000    0.000    0.000    0.000    0.000    0.000 
#
# Total GULP energy -396839.084439 kJ/mol
# GULP energy per Si atom -12401.221389 kJ/mol
# Density = 1.962927 g / cm^3
# Si number density = 19.674044 Si / 1000 Ang^3
#
#
#
# Elastic Constant Matrix: (Units=GPa)
#
#
# Indices 1 2 3 4 5 6 
#
# 1 47.0606 24.5564 5.0280 0.0000 15.7202 0.0000
# 2 24.5564 75.5458 23.0207 0.0000 10.4533 0.0000
# 3 5.0280 23.0207 33.1475 0.0000 7.4345 0.0000
# 4 0.0000 0.0000 0.0000 32.3722 0.0000 6.6323
# 5 15.7202 10.4533 7.4345 0.0000 26.7575 0.0000
# 6 0.0000 0.0000 0.0000 6.6323 0.0000 26.4893
#
#
#
# Elastic Compliance Matrix: (Units=1/GPa)
#
#
# Indices 1 2 3 4 5 6 
#
# 1 0.030984 -0.009536 0.005514 0.000000 -0.016010 0.000000
# 2 -0.009536 0.020046 -0.012771 0.000000 0.001320 0.000000
# 3 0.005514 -0.012771 0.040322 0.000000 -0.009454 0.000000
# 4 0.000000 0.000000 0.000000 0.032561 0.000000 -0.008153
# 5 -0.016010 0.001320 -0.009454 0.000000 0.048890 0.000000
# 6 0.000000 0.000000 0.000000 -0.008153 0.000000 0.039792
#
#
# Mechanical properties :
#
#
# Convention : Reuss Voigt Hill
#
# Bulk Modulus (GPa) = 17.31173 28.99603 23.15388
# Shear Modulus (GPa) = 18.83685 24.00038 21.41862
#
# Velocity S-wave (km/s) = 3.09762 3.49650 3.30309
# Velocity P-wave (km/s) = 4.64888 5.57412 5.13239
#
# Compressibility (1/GPa) = 0.05776429
#
# Stress axis : x y z
#
# Youngs Moduli (GPa) = 32.27447 49.88537 24.80056
#
# Poissons Ratio (x) = 0.47573 -0.13675
# Poissons Ratio (y) = 0.30779 0.31674
# Poissons Ratio (z) = -0.17796 0.63710
#
# Static dielectric constant tensor:
#      x y z
#    x 3.536980 0.000000 0.039300 
#    y 0.000000 3.514420 0.000000 
#    z 0.039300 0.000000 3.348150 
# 
# 
# High freq. dielectric constant tensor:
#      x y z
#    x 1.765830 0.000000 0.004240 
#    y 0.000000 1.761440 0.000000 
#    z 0.004240 0.000000 1.749470 
# 
# From -- ./inp_files/55641.got.cif
#   From: 2010.06.25/outbox.cif.g09.slc.cpg/sg11_28_cif.got.tgz:55641.got - 2010.06.27 23:14:04.
