data_PCOD8072922
_publ_section_title
;
Structure prediction by ZEFSAII (Michael W. Deem and Ramdas Pophale) SiO2 
 PCOD8072922
Probable space group: P 21/M
;
_chemical_formula_sum "Si O2"
_cell_formula_units_Z 32
_cell_length_a 20.786852
_cell_length_b 9.314590
_cell_length_c 14.053249
_cell_angle_alpha 90.000000
_cell_angle_beta 41.666186
_cell_angle_gamma 90.000000
_cell_volume 1808.895275
_symmetry_space_group_name_H-M "P 21/M"
_symmetry_group_IT_number 11
_symmetry_cell_setting 'monoclinic'
loop_
_space_group_symop_operation_xyz
x,y,z
-x,1/2+y,-z
-x,-y,-z
x,1/2-y,z
loop_
_atom_site_type_symbol
_atom_site_label
_atom_site_fract_x
_atom_site_fract_y
_atom_site_fract_z
Si Si1 0.038285 0.916777 0.157504
Si Si2 0.797533 0.088258 0.178538
Si Si3 0.835350 0.584078 0.852126
Si Si4 0.323870 0.420108 0.345250
Si Si5 0.462140 0.915107 0.858822
Si Si6 0.695730 0.917378 0.847081
Si Si7 0.316603 0.588567 0.868352
Si Si8 0.173006 0.420546 0.666025
O O1 0.032241 0.750000 0.188463
O O2 0.934206 0.976398 0.240550
O O3 0.069746 0.995436 0.221027
O O4 0.113933 0.950124 0.989869
O O5 0.809843 0.250000 0.203833
O O6 0.695886 0.072036 0.232023
O O7 0.794500 0.979334 0.268245
O O8 0.857397 0.750000 0.845865
O O9 0.800045 0.554785 0.782566
O O10 0.745895 0.535487 0.015217
O O11 0.323800 0.250000 0.353323
O O12 0.430316 0.480806 0.253631
O O13 0.293810 0.469976 0.272903
O O14 0.246084 0.482076 0.505681
O O15 0.463088 0.750000 0.890929
O O16 0.425496 0.928660 0.788995
O O17 0.391324 0.997049 0.008262
O O18 0.668197 0.750000 0.883574
O O19 0.277628 0.750000 0.938671
O O20 0.175632 0.250000 0.669485
#
# Coordination Sequence:
#
# PCOD8072922 Si02
#       8
#     4   4   4   4   4   4   4   4
#     4   9  18  32  49  68  91 120 152 188 231 275
#     4   9  17  30  47  67  91 117 148 191 237 272
#     4   9  16  26  45  71  94 116 146 187 230 270
#     4   9  18  32  48  67  94 126 156 187 225 268
#     4   9  16  29  51  73  92 120 156 188 220 267
#     4   9  17  30  48  71  97 121 148 187 232 270
#     4   8  15  28  46  69  95 119 146 183 228 273
#     4  10  20  33  48  66  90 123 160 191 222 269
#
# _framework density 17.690355
#
# number of rings (size 3 to 8) (size 9 to 14) (size 15 to 20)
#    0.000    3.000    0.000    1.875    0.000    3.000 
#    0.000    2.500    0.000    0.000    0.000    0.000 
#    0.000    0.000    0.000    0.000    0.000    0.000 
#
# Total GULP energy -396534.957383 kJ/mol
# GULP energy per Si atom -12391.717418 kJ/mol
# Density = 1.765009 g / cm^3
# Si number density = 17.690355 Si / 1000 Ang^3
#
#
#
# Elastic Constant Matrix: (Units=GPa)
#
#
# Indices 1 2 3 4 5 6 
#
# 1 167.4583 42.7874 62.2493 0.0000 11.4230 0.0000
# 2 42.7874 40.8241 26.2118 0.0000 4.4357 0.0000
# 3 62.2493 26.2118 76.3563 0.0000 9.3001 0.0000
# 4 0.0000 0.0000 0.0000 13.6151 0.0000 2.9865
# 5 11.4230 4.4357 9.3001 0.0000 6.9954 0.0000
# 6 0.0000 0.0000 0.0000 2.9865 0.0000 25.1779
#
#
#
# Elastic Compliance Matrix: (Units=1/GPa)
#
#
# Indices 1 2 3 4 5 6 
#
# 1 0.009926 -0.006480 -0.005243 0.000000 -0.005129 0.000000
# 2 -0.006480 0.035913 -0.006635 0.000000 -0.003370 0.000000
# 3 -0.005243 -0.006635 0.021589 0.000000 -0.015933 0.000000
# 4 0.000000 0.000000 0.000000 0.075410 0.000000 -0.008945
# 5 -0.005129 -0.003370 -0.015933 0.000000 0.174647 0.000000
# 6 0.000000 0.000000 0.000000 -0.008945 0.000000 0.040778
#
#
# Mechanical properties :
#
#
# Convention : Reuss Voigt Hill
#
# Bulk Modulus (GPa) = 32.56021 60.79286 46.67654
# Shear Modulus (GPa) = 12.33902 19.38368 15.86135
#
# Velocity S-wave (km/s) = 2.64389 3.31376 2.99759
# Velocity P-wave (km/s) = 5.26932 7.00578 6.19866
#
# Compressibility (1/GPa) = 0.03071233
#
# Stress axis : x y z
#
# Youngs Moduli (GPa) = 100.74302 27.84487 46.31901
#
# Poissons Ratio (x) = 0.18043 0.24286
# Poissons Ratio (y) = 0.65279 0.30734
# Poissons Ratio (z) = 0.52821 0.18476
#
# Static dielectric constant tensor:
#      x y z
#    x 3.786300 0.000000 -0.101580 
#    y 0.000000 3.128620 0.000000 
#    z -0.101580 0.000000 3.016600 
# 
# 
# High freq. dielectric constant tensor:
#      x y z
#    x 1.710420 0.000000 -0.004750 
#    y 0.000000 1.669140 0.000000 
#    z -0.004750 0.000000 1.636270 
# 
# From -- ./inp_files/54236.got.cif
#   From: 2010.06.25/outbox.cif.g09.slc.cpg/sg11_28_cif.got.tgz:54236.got - 2010.06.27 23:14:04.
