data_PCOD8072180
_publ_section_title
;
Structure prediction by ZEFSAII (Michael W. Deem and Ramdas Pophale) SiO2 
 PCOD8072180
Probable space group: P 21/M
;
_chemical_formula_sum "Si O2"
_cell_formula_units_Z 32
_cell_length_a 28.185300
_cell_length_b 8.971391
_cell_length_c 22.069612
_cell_angle_alpha 90.000000
_cell_angle_beta 18.751117
_cell_angle_gamma 90.000000
_cell_volume 1793.912611
_symmetry_space_group_name_H-M "P 21/M"
_symmetry_group_IT_number 11
_symmetry_cell_setting 'monoclinic'
loop_
_space_group_symop_operation_xyz
x,y,z
-x,1/2+y,-z
-x,-y,-z
x,1/2-y,z
loop_
_atom_site_type_symbol
_atom_site_label
_atom_site_fract_x
_atom_site_fract_y
_atom_site_fract_z
Si Si1 0.906034 0.572885 0.666123
Si Si2 0.428273 0.923074 0.786812
Si Si3 0.858848 0.422332 0.934413
Si Si4 0.070765 0.075641 0.574812
Si Si5 0.274699 0.421475 0.801715
Si Si6 0.403392 0.926098 0.950309
Si Si7 0.592914 0.924481 0.835111
Si Si8 0.442310 0.077077 0.488938
O O1 0.912244 0.750000 0.653457
O O2 0.000000 0.500000 0.500000
O O3 0.969023 0.520901 0.654130
O O4 0.740502 0.517087 0.857089
O O5 0.400868 0.750000 0.829182
O O6 0.458749 0.985945 0.817368
O O7 0.566310 0.953279 0.573575
O O8 0.276908 0.989580 0.941291
O O9 0.832108 0.250000 0.977879
O O10 0.012432 0.452564 0.713889
O O11 0.858478 0.494718 0.002370
O O12 0.055332 0.250000 0.576525
O O13 0.238470 0.019436 0.367096
O O14 0.246619 0.250000 0.848197
O O15 0.431357 0.469533 0.639276
O O16 0.288978 0.454443 0.711290
O O17 0.367715 0.750000 0.994177
O O18 0.529496 0.966397 0.846027
O O19 0.585488 0.750000 0.855742
O O20 0.500000 0.000000 0.000000
O O21 0.488783 0.250000 0.443599
#
# Coordination Sequence:
#
# PCOD8072180 Si02
#       8
#     4   4   4   4   4   4   4   4
#     4  12  24  36  53  77 101 129 164 203 249 305
#     4   8  13  25  46  67  91 125 160 194 239 291
#     4   9  16  28  46  65  93 130 162 196 246 295
#     4  10  20  37  55  74 100 133 168 208 252 299
#     4   9  15  22  36  61  94 124 160 202 236 283
#     4  10  19  35  55  77 101 129 164 207 254 302
#     4  10  22  37  56  76  98 128 166 207 253 304
#     4   8  14  24  37  58  90 131 163 189 238 293
#
# _framework density 17.838104000000001
#
# number of rings (size 3 to 8) (size 9 to 14) (size 15 to 20)
#    0.000    2.500    1.250    3.000    0.000    4.000 
#    0.000    0.000    0.000    0.000    0.000    0.875 
#    0.000    0.000    0.000    0.000    0.000    0.000 
#
# Total GULP energy -396447.612139 kJ/mol
# GULP energy per Si atom -12388.987879 kJ/mol
# Density = 1.779750 g / cm^3
# Si number density = 17.838104 Si / 1000 Ang^3
#
#
#
# Elastic Constant Matrix: (Units=GPa)
#
#
# Indices 1 2 3 4 5 6 
#
# 1 63.8202 21.0610 36.2666 0.0000 23.4649 0.0000
# 2 21.0610 54.2058 28.0353 0.0000 7.2905 0.0000
# 3 36.2666 28.0353 87.0425 0.0000 25.8746 0.0000
# 4 0.0000 0.0000 0.0000 24.6076 0.0000 7.9451
# 5 23.4649 7.2905 25.8746 0.0000 39.8105 0.0000
# 6 0.0000 0.0000 0.0000 7.9451 0.0000 16.9596
#
#
#
# Elastic Compliance Matrix: (Units=1/GPa)
#
#
# Indices 1 2 3 4 5 6 
#
# 1 0.024052 -0.005217 -0.005467 0.000000 -0.009668 0.000000
# 2 -0.005217 0.023284 -0.006163 0.000000 0.002817 0.000000
# 3 -0.005467 -0.006163 0.017920 0.000000 -0.007296 0.000000
# 4 0.000000 0.000000 0.000000 0.047880 0.000000 -0.022431
# 5 -0.009668 0.002817 -0.007296 0.000000 0.035044 0.000000
# 6 0.000000 0.000000 0.000000 -0.022431 0.000000 0.069472
#
#
# Mechanical properties :
#
#
# Convention : Reuss Voigt Hill
#
# Bulk Modulus (GPa) = 31.68378 41.75494 36.71936
# Shear Modulus (GPa) = 19.09361 24.25590 21.67475
#
# Velocity S-wave (km/s) = 3.27522 3.69152 3.48958
# Velocity P-wave (km/s) = 5.66597 6.45200 6.07172
#
# Compressibility (1/GPa) = 0.03156189
#
# Stress axis : x y z
#
# Youngs Moduli (GPa) = 41.57637 42.94799 55.80209
#
# Poissons Ratio (x) = 0.22407 0.30507
# Poissons Ratio (y) = 0.21692 0.34391
# Poissons Ratio (z) = 0.22730 0.26469
#
# Static dielectric constant tensor:
#      x y z
#    x 3.529200 0.000000 0.534990 
#    y 0.000000 3.222040 0.000000 
#    z 0.534990 0.000000 3.477510 
# 
# 
# High freq. dielectric constant tensor:
#      x y z
#    x 1.672000 0.000000 0.047030 
#    y 0.000000 1.674040 0.000000 
#    z 0.047030 0.000000 1.680770 
# 
# From -- ./inp_files/66974.got.cif
#   From: 2010.06.25/outbox.cif.g09.slc.cpg/sg11_34_cif.got.tgz:66974.got - 2010.06.27 23:14:04.
