data_PCOD8072376
_publ_section_title
;
Structure prediction by ZEFSAII (Michael W. Deem and Ramdas Pophale) SiO2 
 PCOD8072376
Probable space group: P 21/M
;
_chemical_formula_sum "Si O2"
_cell_formula_units_Z 32
_cell_length_a 15.398855
_cell_length_b 8.684531
_cell_length_c 25.316163
_cell_angle_alpha 90.000000
_cell_angle_beta 27.614198
_cell_angle_gamma 90.000000
_cell_volume 1569.267788
_symmetry_space_group_name_H-M "P 21/M"
_symmetry_group_IT_number 11
_symmetry_cell_setting 'monoclinic'
loop_
_space_group_symop_operation_xyz
x,y,z
-x,1/2+y,-z
-x,-y,-z
x,1/2-y,z
loop_
_atom_site_type_symbol
_atom_site_label
_atom_site_fract_x
_atom_site_fract_y
_atom_site_fract_z
Si Si1 0.121534 0.430019 0.481313
Si Si2 0.497214 0.075308 0.751349
Si Si3 0.870325 0.925450 0.113912
Si Si4 0.042319 0.931278 0.824670
Si Si5 0.297088 0.431234 0.598119
Si Si6 0.627855 0.068486 0.885979
Si Si7 0.040553 0.433416 0.642110
Si Si8 0.631117 0.931470 0.067450
O O1 0.084872 0.250000 0.500944
O O2 0.337561 0.465043 0.355620
O O3 0.066826 0.498471 0.568529
O O4 0.000000 0.500000 0.500000
O O5 0.571456 0.250000 0.720717
O O6 0.343665 0.073373 0.788742
O O7 0.409739 0.004200 0.852159
O O8 0.935798 0.750000 0.089857
O O9 0.874497 0.030939 0.163108
O O10 0.000000 0.000000 0.000000
O O11 0.060720 0.750000 0.803613
O O12 0.154869 0.024539 0.720589
O O13 0.828260 0.993124 0.938417
O O14 0.500000 0.500000 0.500000
O O15 0.320816 0.250000 0.583757
O O16 0.208252 0.490804 0.590310
O O17 0.623433 0.250000 0.894774
O O18 0.538991 0.017458 0.878127
O O19 0.840988 0.005849 0.772568
O O20 0.500000 0.000000 0.000000
O O21 0.037817 0.250000 0.642108
O O22 0.652514 0.750000 0.060373
#
# Coordination Sequence:
#
# PCOD8072376 Si02
#       8
#     4   4   4   4   4   4   4   4
#     4  11  23  41  64  92 122 163 206 253 309 370
#     4  10  21  39  60  86 119 158 202 249 303 364
#     4  11  22  38  61  91 126 165 206 256 312 371
#     4  11  22  39  61  88 124 164 203 254 312 372
#     4  11  24  43  63  89 119 161 213 264 316 371
#     4  10  19  35  60  85 112 148 189 237 294 357
#     4   9  21  41  63  85 120 162 202 247 307 368
#     4   9  18  35  59  85 117 156 192 233 299 367
#
# _framework density 20.391676
#
# number of rings (size 3 to 8) (size 9 to 14) (size 15 to 20)
#    0.000    1.750    1.250    3.000    1.750    3.000 
#    0.000    6.250    0.000    0.000    0.000    0.000 
#    0.000    0.000    0.000    0.000    0.000    0.000 
#
# Total GULP energy -396805.339221 kJ/mol
# GULP energy per Si atom -12400.166851 kJ/mol
# Density = 2.034526 g / cm^3
# Si number density = 20.391676 Si / 1000 Ang^3
#
#
#
# Elastic Constant Matrix: (Units=GPa)
#
#
# Indices 1 2 3 4 5 6 
#
# 1 149.3351 29.2283 70.4610 0.0000 -4.6165 0.0000
# 2 29.2283 41.7948 22.3744 0.0000 -6.3523 0.0000
# 3 70.4610 22.3744 150.2954 0.0000 -4.1008 0.0000
# 4 0.0000 0.0000 0.0000 35.8123 0.0000 0.7793
# 5 -4.6165 -6.3523 -4.1008 0.0000 39.6183 0.0000
# 6 0.0000 0.0000 0.0000 0.7793 0.0000 29.1305
#
#
#
# Elastic Compliance Matrix: (Units=1/GPa)
#
#
# Indices 1 2 3 4 5 6 
#
# 1 0.009331 -0.004549 -0.003698 0.000000 -0.000025 0.000000
# 2 -0.004549 0.028793 -0.002048 0.000000 0.003875 0.000000
# 3 -0.003698 -0.002048 0.008696 0.000000 0.000141 0.000000
# 4 0.000000 0.000000 0.000000 0.027940 0.000000 -0.000747
# 5 -0.000025 0.003875 0.000141 0.000000 0.025874 0.000000
# 6 0.000000 0.000000 0.000000 -0.000747 0.000000 0.034348
#
#
# Mechanical properties :
#
#
# Convention : Reuss Voigt Hill
#
# Bulk Modulus (GPa) = 38.12499 65.06141 51.59320
# Shear Modulus (GPa) = 30.42940 35.53634 32.98287
#
# Velocity S-wave (km/s) = 3.86715 4.17908 4.02614
# Velocity P-wave (km/s) = 6.21906 7.43380 6.85340
#
# Compressibility (1/GPa) = 0.02622951
#
# Stress axis : x y z
#
# Youngs Moduli (GPa) = 107.17243 34.73052 114.99722
#
# Poissons Ratio (x) = 0.15801 0.42524
# Poissons Ratio (y) = 0.48758 0.23549
# Poissons Ratio (z) = 0.39630 0.07112
#
# Static dielectric constant tensor:
#      x y z
#    x 3.721250 0.000000 -0.177240 
#    y 0.000000 3.482300 0.000000 
#    z -0.177240 0.000000 3.778530 
# 
# 
# High freq. dielectric constant tensor:
#      x y z
#    x 1.813390 0.000000 -0.001840 
#    y 0.000000 1.772020 0.000000 
#    z -0.001840 0.000000 1.807390 
# 
# From -- ./inp_files/68987.got.cif
#   From: 2010.06.25/outbox.cif.g09.slc.cpg/sg11_35_cif.got.tgz:68987.got - 2010.06.27 23:14:04.
