data_PCOD8072260
_publ_section_title
;
Structure prediction by ZEFSAII (Michael W. Deem and Ramdas Pophale) SiO2 
 PCOD8072260
Probable space group: P 21/M
;
_chemical_formula_sum "Si O2"
_cell_formula_units_Z 32
_cell_length_a 29.357233
_cell_length_b 8.848583
_cell_length_c 12.559417
_cell_angle_alpha 90.000000
_cell_angle_beta 29.978441
_cell_angle_gamma 90.000000
_cell_volume 1630.216063
_symmetry_space_group_name_H-M "P 21/M"
_symmetry_group_IT_number 11
_symmetry_cell_setting 'monoclinic'
loop_
_space_group_symop_operation_xyz
x,y,z
-x,1/2+y,-z
-x,-y,-z
x,1/2-y,z
loop_
_atom_site_type_symbol
_atom_site_label
_atom_site_fract_x
_atom_site_fract_y
_atom_site_fract_z
Si Si1 0.714476 0.419251 0.606579
Si Si2 0.309669 0.930633 0.777025
Si Si3 0.986866 0.429741 0.909756
Si Si4 0.154114 0.578827 0.474750
Si Si5 0.789938 0.071049 0.234306
Si Si6 0.492826 0.428762 0.685036
Si Si7 0.456284 0.425154 0.988275
Si Si8 0.292934 0.069691 0.028042
O O1 0.672285 0.250000 0.687599
O O2 0.808499 0.416890 0.480367
O O3 0.729257 0.482707 0.457575
O O4 0.649532 0.531682 0.802526
O O5 0.303502 0.750000 0.798922
O O6 0.254626 0.990333 0.784715
O O7 0.416055 0.985652 0.558955
O O8 0.262863 0.010381 0.972745
O O9 0.991146 0.250000 0.913142
O O10 0.061204 0.484890 0.672862
O O11 0.000000 0.500000 0.000000
O O12 0.892628 0.485804 0.046471
O O13 0.135666 0.750000 0.472190
O O14 0.224350 0.499739 0.252537
O O15 0.789388 0.250000 0.232932
O O16 0.487223 0.250000 0.690928
O O17 0.396774 0.492235 0.834943
O O18 0.504475 0.482423 0.783414
O O19 0.468077 0.250000 0.976381
O O20 0.500000 0.500000 0.000000
O O21 0.287291 0.250000 0.046273
#
# Coordination Sequence:
#
# PCOD8072260 Si02
#       8
#     4   4   4   4   4   4   4   4
#     4  10  19  35  57  82 114 151 189 234 288 348
#     4  10  20  38  61  83 111 154 199 240 287 345
#     4  11  21  37  61  91 122 156 192 238 295 353
#     4  11  22  38  61  89 116 150 196 241 289 349
#     4   9  19  37  60  85 118 154 192 236 292 351
#     4   9  19  35  57  81 112 152 195 237 286 342
#     4  11  21  34  51  79 116 156 194 233 288 347
#     4  11  22  39  59  85 119 153 194 245 292 341
#
# _framework density 19.629300000000001
#
# number of rings (size 3 to 8) (size 9 to 14) (size 15 to 20)
#    0.000    1.750    2.500    2.625    0.000    2.500 
#    0.000    5.625    0.000    0.000    0.000    0.000 
#    0.000    0.000    0.000    0.000    0.000    0.000 
#
# Total GULP energy -396664.437354 kJ/mol
# GULP energy per Si atom -12395.763667 kJ/mol
# Density = 1.958462 g / cm^3
# Si number density = 19.629300 Si / 1000 Ang^3
#
#
#
# Elastic Constant Matrix: (Units=GPa)
#
#
# Indices 1 2 3 4 5 6 
#
# 1 79.7031 35.7758 52.2370 0.0000 12.7349 0.0000
# 2 35.7758 56.7035 29.5939 0.0000 8.3284 0.0000
# 3 52.2370 29.5939 112.6914 0.0000 5.9409 0.0000
# 4 0.0000 0.0000 0.0000 31.7925 0.0000 3.9117
# 5 12.7349 8.3284 5.9409 0.0000 33.7139 0.0000
# 6 0.0000 0.0000 0.0000 3.9117 0.0000 24.6732
#
#
#
# Elastic Compliance Matrix: (Units=1/GPa)
#
#
# Indices 1 2 3 4 5 6 
#
# 1 0.022693 -0.009560 -0.007753 0.000000 -0.004844 0.000000
# 2 -0.009560 0.025053 -0.002031 0.000000 -0.002220 0.000000
# 3 -0.007753 -0.002031 0.012940 0.000000 0.001150 0.000000
# 4 0.000000 0.000000 0.000000 0.032080 0.000000 -0.005086
# 5 -0.004844 -0.002220 0.001150 0.000000 0.031837 0.000000
# 6 0.000000 0.000000 0.000000 -0.005086 0.000000 0.041336
#
#
# Mechanical properties :
#
#
# Convention : Reuss Voigt Hill
#
# Bulk Modulus (GPa) = 45.45685 53.81237 49.63461
# Shear Modulus (GPa) = 23.58938 26.80199 25.19569
#
# Velocity S-wave (km/s) = 3.47038 3.69915 3.58659
# Velocity P-wave (km/s) = 6.26626 6.76157 6.51862
#
# Compressibility (1/GPa) = 0.02199888
#
# Stress axis : x y z
#
# Youngs Moduli (GPa) = 44.06649 39.91538 77.27708
#
# Poissons Ratio (x) = 0.38158 0.59915
# Poissons Ratio (y) = 0.42126 0.15694
# Poissons Ratio (z) = 0.34166 0.08106
#
# Static dielectric constant tensor:
#      x y z
#    x 3.725750 0.000000 -0.168060 
#    y 0.000000 2.583730 0.000000 
#    z -0.168060 0.000000 3.644860 
# 
# 
# High freq. dielectric constant tensor:
#      x y z
#    x 1.763750 0.000000 0.004560 
#    y 0.000000 1.742650 0.000000 
#    z 0.004560 0.000000 1.770870 
# 
# From -- ./inp_files/45144.got.cif
#   From: 2010.06.25/outbox.cif.g09.slc.cpg/sg11_23_cif.got.tgz:45144.got - 2010.06.27 23:14:04.
