data_PCOD8072728
_publ_section_title
;
Structure prediction by ZEFSAII (Michael W. Deem and Ramdas Pophale) SiO2 
 PCOD8072728
Probable space group: P 21/M
;
_chemical_formula_sum "Si O2"
_cell_formula_units_Z 32
_cell_length_a 15.463316
_cell_length_b 8.931701
_cell_length_c 19.348076
_cell_angle_alpha 90.000000
_cell_angle_beta 38.145750
_cell_angle_gamma 90.000000
_cell_volume 1650.543243
_symmetry_space_group_name_H-M "P 21/M"
_symmetry_group_IT_number 11
_symmetry_cell_setting 'monoclinic'
loop_
_space_group_symop_operation_xyz
x,y,z
-x,1/2+y,-z
-x,-y,-z
x,1/2-y,z
loop_
_atom_site_type_symbol
_atom_site_label
_atom_site_fract_x
_atom_site_fract_y
_atom_site_fract_z
Si Si1 0.588279 0.079566 0.003152
Si Si2 0.429560 0.076765 0.480122
Si Si3 0.394447 0.421926 0.255819
Si Si4 0.897197 0.071968 0.850914
Si Si5 0.595684 0.078330 0.241639
Si Si6 0.854563 0.071835 0.392753
Si Si7 0.125458 0.925395 0.460401
Si Si8 0.105788 0.927507 0.986914
O O1 0.603038 0.250000 0.970979
O O2 0.500087 0.060608 0.127205
O O3 0.744846 0.015920 0.919026
O O4 0.500000 0.000000 0.000000
O O5 0.393536 0.250000 0.516874
O O6 0.553074 0.059023 0.347150
O O7 0.500000 0.000000 0.500000
O O8 0.287634 0.994336 0.548710
O O9 0.346163 0.250000 0.296397
O O10 0.472574 0.491933 0.273133
O O11 0.259462 0.524684 0.331771
O O12 0.910647 0.250000 0.834434
O O13 0.919621 0.026211 0.917248
O O14 0.013913 0.990789 0.732128
O O15 0.606919 0.250000 0.210672
O O16 0.744989 0.005034 0.131331
O O17 0.850774 0.250000 0.387931
O O18 0.867704 0.020461 0.464233
O O19 0.107266 0.750000 0.468072
O O20 0.000000 0.000000 0.500000
O O21 0.097296 0.750000 0.983638
O O22 0.000000 0.000000 0.000000
#
# Coordination Sequence:
#
# PCOD8072728 Si02
#       8
#     4   4   4   4   4   4   4   4
#     4  10  22  39  62  90 121 157 199 247 299 359
#     4  11  23  40  64  92 123 161 201 247 302 360
#     4  10  19  39  66  88 116 156 201 250 303 360
#     4  10  22  41  62  86 121 163 201 242 299 365
#     4   9  18  37  64  86 113 154 197 242 297 354
#     4  11  25  43  61  87 123 161 204 254 303 357
#     4  11  25  42  62  90 122 158 202 254 305 361
#     4  10  21  39  61  89 120 155 198 242 293 354
#
# _framework density 19.387556
#
# number of rings (size 3 to 8) (size 9 to 14) (size 15 to 20)
#    0.000    1.750    2.500    1.125    3.500    3.000 
#    0.000    1.250    0.000    0.000    0.000    0.000 
#    0.000    0.000    0.000    0.000    0.000    0.000 
#
# Total GULP energy -396721.875601 kJ/mol
# GULP energy per Si atom -12397.558613 kJ/mol
# Density = 1.934343 g / cm^3
# Si number density = 19.387556 Si / 1000 Ang^3
#
#
#
# Elastic Constant Matrix: (Units=GPa)
#
#
# Indices 1 2 3 4 5 6 
#
# 1 149.1866 53.6403 50.4131 0.0000 -12.9029 0.0000
# 2 53.6403 63.9853 46.8850 0.0000 -0.8124 0.0000
# 3 50.4131 46.8850 119.7945 0.0000 -19.0661 0.0000
# 4 0.0000 0.0000 0.0000 31.7042 0.0000 -1.9791
# 5 -12.9029 -0.8124 -19.0661 0.0000 33.4764 0.0000
# 6 0.0000 0.0000 0.0000 -1.9791 0.0000 37.3508
#
#
#
# Elastic Compliance Matrix: (Units=1/GPa)
#
#
# Indices 1 2 3 4 5 6 
#
# 1 0.010050 -0.007956 -0.000583 0.000000 0.003349 0.000000
# 2 -0.007956 0.028931 -0.009184 0.000000 -0.007595 0.000000
# 3 -0.000583 -0.009184 0.013324 0.000000 0.007141 0.000000
# 4 0.000000 0.000000 0.000000 0.031646 0.000000 0.001677
# 5 0.003349 -0.007595 0.007141 0.000000 0.035045 0.000000
# 6 0.000000 0.000000 0.000000 0.001677 0.000000 0.026862
#
#
# Mechanical properties :
#
#
# Convention : Reuss Voigt Hill
#
# Bulk Modulus (GPa) = 59.31046 70.53813 64.92430
# Shear Modulus (GPa) = 26.74908 32.64148 29.69528
#
# Velocity S-wave (km/s) = 3.71847 4.10766 3.91790
# Velocity P-wave (km/s) = 7.00674 7.67850 7.35030
#
# Compressibility (1/GPa) = 0.01686043
#
# Stress axis : x y z
#
# Youngs Moduli (GPa) = 99.50234 34.56514 75.05435
#
# Poissons Ratio (x) = 0.27499 0.04374
# Poissons Ratio (y) = 0.79161 0.68928
# Poissons Ratio (z) = 0.05798 0.31744
#
# Static dielectric constant tensor:
#      x y z
#    x 3.824330 0.000000 0.152050 
#    y 0.000000 3.362070 0.000000 
#    z 0.152050 0.000000 4.079820 
# 
# 
# High freq. dielectric constant tensor:
#      x y z
#    x 1.770680 0.000000 -0.003570 
#    y 0.000000 1.737980 0.000000 
#    z -0.003570 0.000000 1.770490 
# 
# From -- ./inp_files/65204.got.cif
#   From: 2010.06.25/outbox.cif.g09.slc.cpg/sg11_33_cif.got.tgz:65204.got - 2010.06.27 23:14:04.
