data_PCOD8072855
_publ_section_title
;
Structure prediction by ZEFSAII (Michael W. Deem and Ramdas Pophale) SiO2 
 PCOD8072855
Probable space group: P 21/M
;
_chemical_formula_sum "Si O2"
_cell_formula_units_Z 32
_cell_length_a 16.847872
_cell_length_b 9.190239
_cell_length_c 22.961857
_cell_angle_alpha 90.000000
_cell_angle_beta 148.215341
_cell_angle_gamma 90.000000
_cell_volume 1872.688107
_symmetry_space_group_name_H-M "P 21/M"
_symmetry_group_IT_number 11
_symmetry_cell_setting 'monoclinic'
loop_
_space_group_symop_operation_xyz
x,y,z
-x,1/2+y,-z
-x,-y,-z
x,1/2-y,z
loop_
_atom_site_type_symbol
_atom_site_label
_atom_site_fract_x
_atom_site_fract_y
_atom_site_fract_z
Si Si1 0.159383 0.419626 0.332085
Si Si2 0.591252 0.919535 0.424649
Si Si3 0.823027 0.421684 0.135198
Si Si4 0.436537 0.080886 0.097620
Si Si5 0.565308 0.577801 0.770704
Si Si6 0.152553 0.916379 0.105232
Si Si7 0.375322 0.583200 0.888183
Si Si8 0.692423 0.086976 0.678928
O O1 0.151230 0.250000 0.314546
O O2 0.243429 0.449289 0.445949
O O3 0.256698 0.485253 0.341196
O O4 0.990680 0.485497 0.229483
O O5 0.565110 0.750000 0.392475
O O6 0.467542 0.967498 0.395564
O O7 0.570823 0.015018 0.353637
O O8 0.819555 0.250000 0.121026
O O9 0.783425 0.456025 0.179264
O O10 0.705458 0.494402 0.017427
O O11 0.392937 0.250000 0.066091
O O12 0.469390 0.036460 0.184260
O O13 0.595196 0.047431 0.161864
O O14 0.579929 0.750000 0.770030
O O15 0.719650 0.499624 0.850570
O O16 0.142000 0.750000 0.076182
O O17 0.183550 0.919774 0.193135
O O18 0.000000 0.000000 0.000000
O O19 0.408964 0.750000 0.920433
O O20 0.500000 0.500000 0.000000
O O21 0.676963 0.250000 0.644709
#
# Coordination Sequence:
#
# PCOD8072855 Si02
#       8
#     4   4   4   4   4   4   4   4
#     4  10  20  32  49  73  97 122 158 203 244 287
#     4   9  19  36  51  66  93 127 164 203 242 282
#     4   9  18  30  47  74 100 124 155 192 240 294
#     4   9  18  31  49  72  98 127 157 194 236 286
#     4  10  20  33  50  72  94 123 166 203 238 284
#     4  10  21  35  49  68  98 132 162 195 239 285
#     4   8  14  28  47  67  95 126 154 187 233 286
#     4   9  19  33  48  67  90 123 163 198 236 281
#
# _framework density 17.087734999999999
#
# number of rings (size 3 to 8) (size 9 to 14) (size 15 to 20)
#    0.000    2.750    0.000    1.875    1.750    4.500 
#    0.000    0.000    0.000    0.750    0.000    0.000 
#    0.000    0.000    0.000    0.000    0.000    0.125 
#
# Total GULP energy -396517.170845 kJ/mol
# GULP energy per Si atom -12391.161589 kJ/mol
# Density = 1.704884 g / cm^3
# Si number density = 17.087735 Si / 1000 Ang^3
#
#
#
# Elastic Constant Matrix: (Units=GPa)
#
#
# Indices 1 2 3 4 5 6 
#
# 1 106.4951 40.8197 48.3309 0.0000 -18.6438 0.0000
# 2 40.8197 58.0402 32.3401 0.0000 -8.7539 0.0000
# 3 48.3309 32.3401 75.5547 0.0000 -4.8270 0.0000
# 4 0.0000 0.0000 0.0000 24.5272 0.0000 -3.2957
# 5 -18.6438 -8.7539 -4.8270 0.0000 18.7243 0.0000
# 6 0.0000 0.0000 0.0000 -3.2957 0.0000 21.5952
#
#
#
# Elastic Compliance Matrix: (Units=1/GPa)
#
#
# Indices 1 2 3 4 5 6 
#
# 1 0.017417 -0.006039 -0.007756 0.000000 0.012519 0.000000
# 2 -0.006039 0.026035 -0.007003 0.000000 0.004354 0.000000
# 3 -0.007756 -0.007003 0.020835 0.000000 -0.005626 0.000000
# 4 0.000000 0.000000 0.000000 0.041625 0.000000 0.006352
# 5 0.012519 0.004354 -0.005626 0.000000 0.066457 0.000000
# 6 0.000000 0.000000 0.000000 0.006352 0.000000 0.047276
#
#
# Mechanical properties :
#
#
# Convention : Reuss Voigt Hill
#
# Bulk Modulus (GPa) = 44.07128 53.67459 48.87293
# Shear Modulus (GPa) = 18.60089 20.87596 19.73842
#
# Velocity S-wave (km/s) = 3.30290 3.49906 3.40240
# Velocity P-wave (km/s) = 6.35553 6.91404 6.64066
#
# Compressibility (1/GPa) = 0.02269052
#
# Stress axis : x y z
#
# Youngs Moduli (GPa) = 57.41639 38.40933 47.99603
#
# Poissons Ratio (x) = 0.23196 0.37227
# Poissons Ratio (y) = 0.34674 0.33611
# Poissons Ratio (z) = 0.44534 0.26897
#
# Static dielectric constant tensor:
#      x y z
#    x 3.870030 0.000000 0.072630 
#    y 0.000000 3.221650 0.000000 
#    z 0.072630 0.000000 3.179920 
# 
# 
# High freq. dielectric constant tensor:
#      x y z
#    x 1.659110 0.000000 -0.003340 
#    y 0.000000 1.662130 0.000000 
#    z -0.003340 0.000000 1.639580 
# 
# From -- ./inp_files/54280.got.cif
#   From: 2010.06.25/outbox.cif.g09.slc.cpg/sg11_28_cif.got.tgz:54280.got - 2010.06.27 23:14:04.
