data_PCOD8072770
_publ_section_title
;
Structure prediction by ZEFSAII (Michael W. Deem and Ramdas Pophale) SiO2 
 PCOD8072770
Probable space group: P 21/M
;
_chemical_formula_sum "Si O2"
_cell_formula_units_Z 32
_cell_length_a 23.008494
_cell_length_b 9.228048
_cell_length_c 16.519437
_cell_angle_alpha 90.000000
_cell_angle_beta 31.779445
_cell_angle_gamma 90.000000
_cell_volume 1847.209180
_symmetry_space_group_name_H-M "P 21/M"
_symmetry_group_IT_number 11
_symmetry_cell_setting 'monoclinic'
loop_
_space_group_symop_operation_xyz
x,y,z
-x,1/2+y,-z
-x,-y,-z
x,1/2-y,z
loop_
_atom_site_type_symbol
_atom_site_label
_atom_site_fract_x
_atom_site_fract_y
_atom_site_fract_z
Si Si1 0.149944 0.419526 0.673261
Si Si2 0.887394 0.083557 0.640815
Si Si3 0.569942 0.581403 0.106157
Si Si4 0.695886 0.916621 0.794418
Si Si5 0.903798 0.417146 0.934913
Si Si6 0.236338 0.917618 0.046468
Si Si7 0.641199 0.916917 0.679267
Si Si8 0.885197 0.081470 0.134962
O O1 0.142470 0.250000 0.703645
O O2 0.237788 0.451662 0.499152
O O3 0.189680 0.504647 0.707685
O O4 0.029389 0.479859 0.788035
O O5 0.906063 0.250000 0.596228
O O6 0.843620 0.063042 0.782986
O O7 0.802246 0.017284 0.677538
O O8 0.000000 0.000000 0.500000
O O9 0.564652 0.750000 0.132765
O O10 0.448764 0.514016 0.259937
O O11 0.609121 0.550684 0.968154
O O12 0.651690 0.507233 0.073543
O O13 0.735356 0.750000 0.749849
O O14 0.639482 0.955026 0.776202
O O15 0.916502 0.250000 0.896871
O O16 0.828185 0.486871 0.954194
O O17 0.840276 0.437624 0.096211
O O18 0.268883 0.750000 0.994753
O O19 0.609863 0.750000 0.701800
O O20 0.900143 0.250000 0.138455
O O21 0.000000 0.000000 0.000000
#
# Coordination Sequence:
#
# PCOD8072770 Si02
#       8
#     4   4   4   4   4   4   4   4
#     4   9  18  31  49  75 103 128 160 200 245 293
#     4  10  20  31  47  69  99 134 164 201 245 292
#     4  10  20  34  50  71 101 129 162 212 256 287
#     4   9  19  34  51  70  94 129 170 209 248 289
#     4   8  15  29  51  75  96 124 162 198 233 288
#     4   9  18  33  53  71  91 128 172 202 234 290
#     4  10  20  33  53  74  96 132 171 206 242 297
#     4   9  16  29  49  72 101 131 159 194 242 295
#
# _framework density 17.323430999999999
#
# number of rings (size 3 to 8) (size 9 to 14) (size 15 to 20)
#    0.000    2.750    0.000    2.250    1.750    2.000 
#    0.000    3.125    0.000    0.750    0.000    0.000 
#    0.000    0.000    0.000    0.000    0.000    0.000 
#
# Total GULP energy -396700.363169 kJ/mol
# GULP energy per Si atom -12396.886349 kJ/mol
# Density = 1.728400 g / cm^3
# Si number density = 17.323431 Si / 1000 Ang^3
#
#
#
# Elastic Constant Matrix: (Units=GPa)
#
#
# Indices 1 2 3 4 5 6 
#
# 1 119.1024 48.7321 47.9174 0.0000 -9.0025 0.0000
# 2 48.7321 77.8487 33.5328 0.0000 -9.4930 0.0000
# 3 47.9174 33.5328 58.2560 0.0000 -8.9353 0.0000
# 4 0.0000 0.0000 0.0000 28.3250 0.0000 -1.2442
# 5 -9.0025 -9.4930 -8.9353 0.0000 22.4410 0.0000
# 6 0.0000 0.0000 0.0000 -1.2442 0.0000 25.9593
#
#
#
# Elastic Compliance Matrix: (Units=1/GPa)
#
#
# Indices 1 2 3 4 5 6 
#
# 1 0.013880 -0.005010 -0.008524 0.000000 0.000055 0.000000
# 2 -0.005010 0.019155 -0.006359 0.000000 0.003561 0.000000
# 3 -0.008524 -0.006359 0.028650 0.000000 0.005298 0.000000
# 4 0.000000 0.000000 0.000000 0.035379 0.000000 0.001696
# 5 0.000055 0.003561 0.005298 0.000000 0.048199 0.000000
# 6 0.000000 0.000000 0.000000 0.001696 0.000000 0.038603
#
#
# Mechanical properties :
#
#
# Convention : Reuss Voigt Hill
#
# Bulk Modulus (GPa) = 45.66522 57.28573 51.47547
# Shear Modulus (GPa) = 21.64964 23.68006 22.66485
#
# Velocity S-wave (km/s) = 3.53899 3.70122 3.62102
# Velocity P-wave (km/s) = 6.56634 7.16977 6.87468
#
# Compressibility (1/GPa) = 0.02189850
#
# Stress axis : x y z
#
# Youngs Moduli (GPa) = 72.04789 52.20622 34.90426
#
# Poissons Ratio (x) = 0.26155 0.29753
# Poissons Ratio (y) = 0.36096 0.22194
# Poissons Ratio (z) = 0.61416 0.33196
#
# Static dielectric constant tensor:
#      x y z
#    x 3.527640 0.000000 0.181090 
#    y 0.000000 3.287920 0.000000 
#    z 0.181090 0.000000 3.240590 
# 
# 
# High freq. dielectric constant tensor:
#      x y z
#    x 1.664630 0.000000 0.003680 
#    y 0.000000 1.663280 0.000000 
#    z 0.003680 0.000000 1.649050 
# 
# From -- ./inp_files/42547.got.cif
#   From: 2010.06.25/outbox.cif.g09.slc.cpg/sg11_22_cif.got.tgz:42547.got - 2010.06.27 23:14:04.
