data_PCOD8072688
_publ_section_title
;
Structure prediction by ZEFSAII (Michael W. Deem and Ramdas Pophale) SiO2 
 PCOD8072688
Probable space group: P 21/M
;
_chemical_formula_sum "Si O2"
_cell_formula_units_Z 20
_cell_length_a 9.025155
_cell_length_b 13.720533
_cell_length_c 8.495854
_cell_angle_alpha 90.000000
_cell_angle_beta 74.043536
_cell_angle_gamma 90.000000
_cell_volume 1011.506829
_symmetry_space_group_name_H-M "P 21/M"
_symmetry_group_IT_number 11
_symmetry_cell_setting 'monoclinic'
loop_
_space_group_symop_operation_xyz
x,y,z
-x,1/2+y,-z
-x,-y,-z
x,1/2-y,z
loop_
_atom_site_type_symbol
_atom_site_label
_atom_site_fract_x
_atom_site_fract_y
_atom_site_fract_z
Si Si1 0.375645 0.951965 0.426565
Si Si2 0.857212 0.140154 0.268389
Si Si3 0.741134 0.041364 0.996077
Si Si4 0.469259 0.362491 0.913097
Si Si5 0.885790 0.967358 0.668035
O O1 0.259926 0.884589 0.557774
O O2 0.458896 0.882050 0.278822
O O3 0.500000 0.000000 0.500000
O O4 0.283220 0.040896 0.364596
O O5 0.833759 0.250000 0.219423
O O6 0.034418 0.127587 0.277440
O O7 0.826898 0.069165 0.130757
O O8 0.595492 0.112512 0.010738
O O9 0.862795 0.047209 0.815459
O O10 0.682053 0.929155 0.020511
O O11 0.420045 0.250000 0.942686
O O12 0.000000 0.000000 0.500000
#
# Coordination Sequence:
#
# PCOD8072688 Si02
#       5
#     4   4   4   4   4
#     4  10  19  38  61  83 116 155 194 241 295 344
#     4  11  21  36  59  87 118 156 195 237 295 355
#     4  10  20  36  58  84 118 154 192 247 295 343
#     4  10  20  35  57  86 116 151 195 243 295 351
#     4   9  21  38  59  79 112 156 194 238 291 346
#
# _framework density 19.772482
#
# number of rings (size 3 to 8) (size 9 to 14) (size 15 to 20)
#    0.000    2.000    2.000    1.800    0.000    0.800 
#    0.000    3.000    0.000    1.200    0.000    0.000 
#    0.000    0.000    0.000    0.000    0.000    0.000 
#
# Total GULP energy -247803.267795 kJ/mol
# GULP energy per Si atom -12390.163390 kJ/mol
# Density = 1.972748 g / cm^3
# Si number density = 19.772482 Si / 1000 Ang^3
#
#
#
# Elastic Constant Matrix: (Units=GPa)
#
#
# Indices 1 2 3 4 5 6 
#
# 1 102.3532 51.0279 34.9223 0.0000 21.0178 0.0000
# 2 51.0279 122.3772 25.6487 0.0000 11.7585 0.0000
# 3 34.9223 25.6487 112.5639 0.0000 1.1053 0.0000
# 4 0.0000 0.0000 0.0000 19.9546 0.0000 1.0963
# 5 21.0178 11.7585 1.1053 0.0000 36.5130 0.0000
# 6 0.0000 0.0000 0.0000 1.0963 0.0000 21.9599
#
#
#
# Elastic Compliance Matrix: (Units=1/GPa)
#
#
# Indices 1 2 3 4 5 6 
#
# 1 0.014711 -0.004763 -0.003412 0.000000 -0.006831 0.000000
# 2 -0.004763 0.010399 -0.000886 0.000000 -0.000580 0.000000
# 3 -0.003412 -0.000886 0.010125 0.000000 0.001943 0.000000
# 4 0.000000 0.000000 0.000000 0.050252 0.000000 -0.002509
# 5 -0.006831 -0.000580 0.001943 0.000000 0.031448 0.000000
# 6 0.000000 0.000000 0.000000 -0.002509 0.000000 0.045663
#
#
# Mechanical properties :
#
#
# Convention : Reuss Voigt Hill
#
# Bulk Modulus (GPa) = 58.43183 62.27693 60.35438
# Shear Modulus (GPa) = 26.82057 30.73184 28.77621
#
# Velocity S-wave (km/s) = 3.68701 3.94670 3.81907
# Velocity P-wave (km/s) = 6.90953 7.23421 7.07373
#
# Compressibility (1/GPa) = 0.01711396
#
# Stress axis : x y z
#
# Youngs Moduli (GPa) = 67.97432 96.16390 98.76374
#
# Poissons Ratio (x) = 0.45801 0.33696
# Poissons Ratio (y) = 0.32375 0.08752
# Poissons Ratio (z) = 0.23192 0.08522
#
# Static dielectric constant tensor:
#      x y z
#    x 3.932360 0.000000 -0.039810 
#    y 0.000000 3.243380 0.000000 
#    z -0.039810 0.000000 4.076090 
# 
# 
# High freq. dielectric constant tensor:
#      x y z
#    x 1.777160 0.000000 0.001160 
#    y 0.000000 1.727000 0.000000 
#    z 0.001160 0.000000 1.797440 
# 
# From -- ./inp_files/11735.got.cif
#   From: 2010.06.25/outbox.cif.g09.slc.cpg/sg11_6_cif.got.tgz:11735.got - 2010.06.27 23:14:04.
