data_PCOD8072928
_publ_section_title
;
Structure prediction by ZEFSAII (Michael W. Deem and Ramdas Pophale) SiO2 
 PCOD8072928
Probable space group: P 21/M
;
_chemical_formula_sum "Si O2"
_cell_formula_units_Z 28
_cell_length_a 14.751567
_cell_length_b 8.971238
_cell_length_c 19.933066
_cell_angle_alpha 90.000000
_cell_angle_beta 141.388040
_cell_angle_gamma 90.000000
_cell_volume 1646.186211
_symmetry_space_group_name_H-M "P 21/M"
_symmetry_group_IT_number 11
_symmetry_cell_setting 'monoclinic'
loop_
_space_group_symop_operation_xyz
x,y,z
-x,1/2+y,-z
-x,-y,-z
x,1/2-y,z
loop_
_atom_site_type_symbol
_atom_site_label
_atom_site_fract_x
_atom_site_fract_y
_atom_site_fract_z
Si Si1 0.065133 0.084891 0.635396
Si Si2 0.376909 0.572559 0.580786
Si Si3 0.675034 0.423031 0.759510
Si Si4 0.780837 0.085487 0.381046
Si Si5 0.931244 0.081402 0.802221
Si Si6 0.126555 0.077732 0.033040
Si Si7 0.891872 0.925281 0.643616
O O1 0.104962 0.250000 0.684673
O O2 0.930897 0.093188 0.507721
O O3 0.204013 0.020511 0.675009
O O4 0.025980 0.980315 0.675463
O O5 0.377360 0.750000 0.572374
O O6 0.530633 0.503519 0.649630
O O7 0.340782 0.526836 0.637088
O O8 0.257198 0.507064 0.461464
O O9 0.643895 0.250000 0.753601
O O10 0.797200 0.450449 0.774322
O O11 0.723954 0.496151 0.859113
O O12 0.739472 0.250000 0.331041
O O13 0.919156 0.250000 0.766985
O O14 0.085151 0.062117 0.930493
O O15 0.929200 0.962557 0.741751
O O16 0.136515 0.250000 0.059832
O O17 0.000000 0.000000 0.000000
O O18 0.872373 0.750000 0.622756
#
# Coordination Sequence:
#
# PCOD8072928 Si02
#       7
#     4   4   4   4   4   4   4
#     4   9  16  27  44  64  89 120 151 188 231 273
#     4  10  20  33  48  67  96 129 158 191 231 278
#     4  10  20  33  50  71  95 123 157 196 234 276
#     4   8  15  27  43  64  88 117 153 190 227 268
#     4   9  19  34  49  67  93 124 157 193 232 274
#     4   9  17  31  51  71  91 117 153 197 238 274
#     4  11  21  31  46  68  95 126 159 194 231 277
#
# _framework density 17.009011000000001
#
# number of rings (size 3 to 8) (size 9 to 14) (size 15 to 20)
#    0.000    2.571    0.000    4.714    0.000    8.000 
#    0.000    0.000    0.000    0.000    0.000    1.000 
#    0.000    0.000    0.000    0.000    0.000    0.000 
#
# Total GULP energy -347073.898564 kJ/mol
# GULP energy per Si atom -12395.496377 kJ/mol
# Density = 1.697030 g / cm^3
# Si number density = 17.009011 Si / 1000 Ang^3
#
#
#
# Elastic Constant Matrix: (Units=GPa)
#
#
# Indices 1 2 3 4 5 6 
#
# 1 48.1068 31.9238 20.9866 0.0000 -16.3488 0.0000
# 2 31.9238 117.6850 36.4162 0.0000 -15.1371 0.0000
# 3 20.9866 36.4162 58.3765 0.0000 -16.1539 0.0000
# 4 0.0000 0.0000 0.0000 27.3458 0.0000 -2.0598
# 5 -16.3488 -15.1371 -16.1539 0.0000 9.3893 0.0000
# 6 0.0000 0.0000 0.0000 -2.0598 0.0000 28.1114
#
#
#
# Elastic Compliance Matrix: (Units=1/GPa)
#
#
# Indices 1 2 3 4 5 6 
#
# 1 0.057931 -0.005156 0.015274 0.000000 0.118838 0.000000
# 2 -0.005156 0.011599 -0.005138 0.000000 0.000883 0.000000
# 3 0.015274 -0.005138 0.038005 0.000000 0.083699 0.000000
# 4 0.000000 0.000000 0.000000 0.036772 0.000000 0.002694
# 5 0.118838 0.000883 0.083699 0.000000 0.458852 0.000000
# 6 0.000000 0.000000 0.000000 0.002694 0.000000 0.035770
#
#
# Mechanical properties :
#
#
# Convention : Reuss Voigt Hill
#
# Bulk Modulus (GPa) = 8.51083 44.75794 26.63439
# Shear Modulus (GPa) = 7.48353 21.95873 14.72113
#
# Velocity S-wave (km/s) = 2.09983 3.59695 2.94511
# Velocity P-wave (km/s) = 3.30055 6.60471 5.22091
#
# Compressibility (1/GPa) = 0.11749734
#
# Stress axis : x y z
#
# Youngs Moduli (GPa) = 17.26178 86.21203 26.31212
#
# Poissons Ratio (x) = 0.44450 -0.40190
# Poissons Ratio (y) = 0.08900 0.13519
# Poissons Ratio (z) = -0.26366 0.44296
#
# Static dielectric constant tensor:
#      x y z
#    x 3.155690 0.000000 -0.037890 
#    y 0.000000 3.397630 0.000000 
#    z -0.037890 0.000000 3.094810 
# 
# 
# High freq. dielectric constant tensor:
#      x y z
#    x 1.636920 0.000000 -0.008470 
#    y 0.000000 1.671960 0.000000 
#    z -0.008470 0.000000 1.621350 
# 
# From -- ./inp_files/42298.got.cif
#   From: 2010.06.25/outbox.cif.g09.slc.cpg/sg11_22_cif.got.tgz:42298.got - 2010.06.27 23:14:04.
