data_PCOD8072225
_publ_section_title
;
Structure prediction by ZEFSAII (Michael W. Deem and Ramdas Pophale) SiO2 
 PCOD8072225
Probable space group: P 21/M
;
_chemical_formula_sum "Si O2"
_cell_formula_units_Z 28
_cell_length_a 11.769898
_cell_length_b 9.056489
_cell_length_c 15.052487
_cell_angle_alpha 90.000000
_cell_angle_beta 60.966969
_cell_angle_gamma 90.000000
_cell_volume 1402.882202
_symmetry_space_group_name_H-M "P 21/M"
_symmetry_group_IT_number 11
_symmetry_cell_setting 'monoclinic'
loop_
_space_group_symop_operation_xyz
x,y,z
-x,1/2+y,-z
-x,-y,-z
x,1/2-y,z
loop_
_atom_site_type_symbol
_atom_site_label
_atom_site_fract_x
_atom_site_fract_y
_atom_site_fract_z
Si Si1 0.746746 0.588074 0.684261
Si Si2 0.414170 0.425637 0.611207
Si Si3 0.858863 0.924459 0.824602
Si Si4 0.379164 0.925389 0.994175
Si Si5 0.882304 0.413274 0.504078
Si Si6 0.458022 0.914005 0.774625
Si Si7 0.853143 0.415995 0.307847
O O1 0.800588 0.750000 0.638679
O O2 0.831948 0.526276 0.733313
O O3 0.753546 0.487063 0.593818
O O4 0.597855 0.594203 0.768624
O O5 0.500000 0.500000 0.500000
O O6 0.427878 0.250000 0.595344
O O7 0.460839 0.473782 0.691163
O O8 0.262552 0.470677 0.667107
O O9 0.831247 0.750000 0.845893
O O10 0.010158 0.961366 0.791365
O O11 0.761105 0.016387 0.922176
O O12 0.389924 0.750000 0.005081
O O13 0.372468 0.965184 0.891203
O O14 0.500000 0.000000 0.000000
O O15 0.889306 0.250000 0.538648
O O16 0.881421 0.418060 0.400262
O O17 0.000000 0.500000 0.500000
O O18 0.417303 0.750000 0.755728
O O19 0.812424 0.250000 0.293589
#
# Coordination Sequence:
#
# PCOD8072225 Si02
#       7
#     4   4   4   4   4   4   4
#     4  10  19  35  56  84 120 157 197 244 304 364
#     4  12  26  44  67  93 123 161 211 260 307 369
#     4  10  20  38  60  88 125 162 200 249 310 369
#     4  11  22  38  62  94 129 166 208 257 311 370
#     4  11  21  33  52  82 117 154 196 242 299 366
#     4  10  22  41  64  89 123 163 206 256 308 363
#     4  10  22  41  62  85 122 166 206 253 311 368
#
# _framework density 19.958909999999999
#
# number of rings (size 3 to 8) (size 9 to 14) (size 15 to 20)
#    0.000    1.429    2.857    3.000    0.000    6.286 
#    0.000    0.714    0.000    0.000    0.000    0.000 
#    0.000    0.000    0.000    0.000    0.000    0.000 
#
# Total GULP energy -346981.373203 kJ/mol
# GULP energy per Si atom -12392.191900 kJ/mol
# Density = 1.991348 g / cm^3
# Si number density = 19.958910 Si / 1000 Ang^3
#
#
#
# Elastic Constant Matrix: (Units=GPa)
#
#
# Indices 1 2 3 4 5 6 
#
# 1 91.8360 39.4900 41.1747 0.0000 -11.9108 0.0000
# 2 39.4900 116.9304 64.2435 0.0000 -1.5698 0.0000
# 3 41.1747 64.2435 126.7299 0.0000 -14.1578 0.0000
# 4 0.0000 0.0000 0.0000 36.4071 0.0000 -2.8131
# 5 -11.9108 -1.5698 -14.1578 0.0000 29.5570 0.0000
# 6 0.0000 0.0000 0.0000 -2.8131 0.0000 32.1007
#
#
#
# Elastic Compliance Matrix: (Units=1/GPa)
#
#
# Indices 1 2 3 4 5 6 
#
# 1 0.013947 -0.003365 -0.002343 0.000000 0.004319 0.000000
# 2 -0.003365 0.012825 -0.005794 0.000000 -0.003450 0.000000
# 3 -0.002343 -0.005794 0.012097 0.000000 0.004542 0.000000
# 4 0.000000 0.000000 0.000000 0.027654 0.000000 0.002423
# 5 0.004319 -0.003450 0.004542 0.000000 0.037566 0.000000
# 6 0.000000 0.000000 0.000000 0.002423 0.000000 0.031364
#
#
# Mechanical properties :
#
#
# Convention : Reuss Voigt Hill
#
# Bulk Modulus (GPa) = 63.03072 69.47918 66.25495
# Shear Modulus (GPa) = 30.53532 32.31882 31.42707
#
# Velocity S-wave (km/s) = 3.91565 4.02838 3.97241
# Velocity P-wave (km/s) = 7.21747 7.51823 7.36938
#
# Compressibility (1/GPa) = 0.01586528
#
# Stress axis : x y z
#
# Youngs Moduli (GPa) = 71.70248 77.97063 82.66812
#
# Poissons Ratio (x) = 0.26235 0.19369
# Poissons Ratio (y) = 0.24126 0.47896
# Poissons Ratio (z) = 0.16800 0.45174
#
# Static dielectric constant tensor:
#      x y z
#    x 3.718330 0.000000 -0.047100 
#    y 0.000000 4.489320 0.000000 
#    z -0.047100 0.000000 5.276730 
# 
# 
# High freq. dielectric constant tensor:
#      x y z
#    x 1.772580 0.000000 -0.016240 
#    y 0.000000 1.775310 0.000000 
#    z -0.016240 0.000000 1.783100 
# 
# From -- ./inp_files/49185.got.cif
#   From: 2010.06.25/outbox.cif.g09.slc.cpg/sg11_25_cif.got.tgz:49185.got - 2010.06.27 23:14:04.
