data_PCOD8072849
_publ_section_title
;
Structure prediction by ZEFSAII (Michael W. Deem and Ramdas Pophale) SiO2 
 PCOD8072849
Probable space group: P 21/M
;
_chemical_formula_sum "Si O2"
_cell_formula_units_Z 32
_cell_length_a 18.643390
_cell_length_b 9.137771
_cell_length_c 26.758429
_cell_angle_alpha 90.000000
_cell_angle_beta 155.649795
_cell_angle_gamma 90.000000
_cell_volume 1879.544428
_symmetry_space_group_name_H-M "P 21/M"
_symmetry_group_IT_number 11
_symmetry_cell_setting 'monoclinic'
loop_
_space_group_symop_operation_xyz
x,y,z
-x,1/2+y,-z
-x,-y,-z
x,1/2-y,z
loop_
_atom_site_type_symbol
_atom_site_label
_atom_site_fract_x
_atom_site_fract_y
_atom_site_fract_z
Si Si1 0.205333 0.578981 0.524672
Si Si2 0.413039 0.081854 0.400321
Si Si3 0.308553 0.578881 0.011647
Si Si4 0.471555 0.575764 0.929720
Si Si5 0.085065 0.079539 0.245023
Si Si6 0.264338 0.922097 0.451246
Si Si7 0.389659 0.416800 0.724465
Si Si8 0.821561 0.580512 0.312477
O O1 0.239434 0.750000 0.544644
O O2 0.212225 0.515884 0.472578
O O3 0.358597 0.511979 0.655468
O O4 0.022405 0.538569 0.433943
O O5 0.438876 0.250000 0.428568
O O6 0.206589 0.043351 0.273023
O O7 0.526547 0.043059 0.422941
O O8 0.500000 0.000000 0.500000
O O9 0.331868 0.750000 0.012234
O O10 0.375586 0.479219 0.009258
O O11 0.421167 0.543831 0.132649
O O12 0.108928 0.534686 0.894369
O O13 0.477807 0.750000 0.938472
O O14 0.284044 0.525190 0.791084
O O15 0.500000 0.500000 0.000000
O O16 0.092946 0.250000 0.263613
O O17 0.146516 0.995981 0.333817
O O18 0.226370 0.750000 0.423864
O O19 0.383041 0.250000 0.703064
O O20 0.238939 0.449301 0.669384
O O21 0.786506 0.750000 0.275600
#
# Coordination Sequence:
#
# PCOD8072849 Si02
#       8
#     4   4   4   4   4   4   4   4
#     4  10  20  32  49  71  97 126 159 203 243 285
#     4   8  14  27  46  68  96 127 155 187 234 288
#     4   9  19  35  51  71  96 123 162 205 241 281
#     4  11  22  34  49  69  97 131 161 194 239 287
#     4   9  17  30  51  74  96 125 160 196 234 288
#     4   9  18  30  45  72 104 128 153 192 244 291
#     4   9  18  33  50  66  91 125 162 207 247 282
#     4   9  19  35  50  68  94 125 163 204 242 281
#
# _framework density 17.025402
#
# number of rings (size 3 to 8) (size 9 to 14) (size 15 to 20)
#    0.000    2.750    0.000    2.250    1.750    3.500 
#    0.000    0.000    0.000    0.750    0.000    0.000 
#    0.000    0.000    0.000    0.000    0.000    0.250 
#
# Total GULP energy -396516.043983 kJ/mol
# GULP energy per Si atom -12391.126374 kJ/mol
# Density = 1.698665 g / cm^3
# Si number density = 17.025402 Si / 1000 Ang^3
#
#
#
# Elastic Constant Matrix: (Units=GPa)
#
#
# Indices 1 2 3 4 5 6 
#
# 1 77.6977 24.5575 63.1982 0.0000 6.8509 0.0000
# 2 24.5575 51.3043 35.7723 0.0000 1.5253 0.0000
# 3 63.1982 35.7723 121.4834 0.0000 13.1221 0.0000
# 4 0.0000 0.0000 0.0000 26.1646 0.0000 -4.5298
# 5 6.8509 1.5253 13.1221 0.0000 18.5076 0.0000
# 6 0.0000 0.0000 0.0000 -4.5298 0.0000 21.5513
#
#
#
# Elastic Compliance Matrix: (Units=1/GPa)
#
#
# Indices 1 2 3 4 5 6 
#
# 1 0.022756 -0.003348 -0.010799 0.000000 -0.000491 0.000000
# 2 -0.003348 0.025214 -0.006056 0.000000 0.003455 0.000000
# 3 -0.010799 -0.006056 0.016403 0.000000 -0.007134 0.000000
# 4 0.000000 0.000000 0.000000 0.039663 0.000000 0.008337
# 5 -0.000491 0.003455 -0.007134 0.000000 0.058987 0.000000
# 6 0.000000 0.000000 0.000000 0.008337 0.000000 0.048153
#
#
# Mechanical properties :
#
#
# Convention : Reuss Voigt Hill
#
# Bulk Modulus (GPa) = 41.72466 55.28240 48.50353
# Shear Modulus (GPa) = 19.26255 21.70852 20.48554
#
# Velocity S-wave (km/s) = 3.36728 3.57468 3.47253
# Velocity P-wave (km/s) = 6.29909 7.04122 6.68047
#
# Compressibility (1/GPa) = 0.02396664
#
# Stress axis : x y z
#
# Youngs Moduli (GPa) = 43.94498 39.66046 60.96307
#
# Poissons Ratio (x) = 0.13278 0.65835
# Poissons Ratio (y) = 0.14713 0.36920
# Poissons Ratio (z) = 0.47457 0.24019
#
# Static dielectric constant tensor:
#      x y z
#    x 3.526790 0.000000 0.407510 
#    y 0.000000 3.143600 0.000000 
#    z 0.407510 0.000000 3.270350 
# 
# 
# High freq. dielectric constant tensor:
#      x y z
#    x 1.645380 0.000000 0.014920 
#    y 0.000000 1.653710 0.000000 
#    z 0.014920 0.000000 1.649740 
# 
# From -- ./inp_files/43795.got.cif
#   From: 2010.06.25/outbox.cif.g09.slc.cpg/sg11_22_cif.got.tgz:43795.got - 2010.06.27 23:14:04.
