data_PCOD8072421
_publ_section_title
;
Structure prediction by ZEFSAII (Michael W. Deem and Ramdas Pophale) SiO2 
 PCOD8072421
Probable space group: P 21/M
;
_chemical_formula_sum "Si O2"
_cell_formula_units_Z 28
_cell_length_a 9.057715
_cell_length_b 14.019120
_cell_length_c 20.426306
_cell_angle_alpha 90.000000
_cell_angle_beta 32.306907
_cell_angle_gamma 90.000000
_cell_volume 1386.244278
_symmetry_space_group_name_H-M "P 21/M"
_symmetry_group_IT_number 11
_symmetry_cell_setting 'monoclinic'
loop_
_space_group_symop_operation_xyz
x,y,z
-x,1/2+y,-z
-x,-y,-z
x,1/2-y,z
loop_
_atom_site_type_symbol
_atom_site_label
_atom_site_fract_x
_atom_site_fract_y
_atom_site_fract_z
Si Si1 0.495762 0.361035 0.786372
Si Si2 0.809783 0.852594 0.966973
Si Si3 0.946649 0.860003 0.699607
Si Si4 0.029785 0.475342 0.563934
Si Si5 0.104002 0.045242 0.827711
Si Si6 0.396534 0.956933 0.605194
Si Si7 0.483131 0.601246 0.972019
O O1 0.496049 0.250000 0.768842
O O2 0.376163 0.383672 0.902290
O O3 0.318065 0.416469 0.799636
O O4 0.806201 0.398987 0.670437
O O5 0.957264 0.750000 0.926009
O O6 0.610581 0.830306 0.979277
O O7 0.032214 0.935317 0.872539
O O8 0.944693 0.750000 0.677384
O O9 0.651314 0.888775 0.841387
O O10 0.005712 0.927128 0.615211
O O11 0.179867 0.872837 0.669094
O O12 0.328025 0.423413 0.460033
O O13 0.000000 0.500000 0.500000
O O14 0.244335 0.040257 0.703778
O O15 0.840059 0.116549 0.924317
O O16 0.500000 0.000000 0.500000
O O17 0.500000 0.500000 0.000000
#
# Coordination Sequence:
#
# PCOD8072421 Si02
#       7
#     4   4   4   4   4   4   4
#     4  11  25  42  61  90 127 169 217 263 314 385
#     4  10  21  37  62  93 125 163 209 259 321 383
#     4  11  23  41  67 100 129 162 218 275 322 386
#     4  11  23  44  66  89 127 175 216 265 324 379
#     4  11  21  40  63  92 127 169 202 264 321 379
#     4  10  22  39  65  91 122 167 213 258 323 375
#     4  10  19  35  64  92 127 164 204 258 325 370
#
# _framework density 20.198459
#
# number of rings (size 3 to 8) (size 9 to 14) (size 15 to 20)
#    0.000    1.429    4.286    2.571    2.000    2.286 
#    0.000    2.143    0.000    0.000    0.000    0.000 
#    0.000    0.000    0.000    0.000    0.000    0.000 
#
# Total GULP energy -347022.385452 kJ/mol
# GULP energy per Si atom -12393.656623 kJ/mol
# Density = 2.015249 g / cm^3
# Si number density = 20.198459 Si / 1000 Ang^3
#
#
#
# Elastic Constant Matrix: (Units=GPa)
#
#
# Indices 1 2 3 4 5 6 
#
# 1 105.1075 31.5845 54.7350 0.0000 -3.3815 0.0000
# 2 31.5845 101.9873 37.8620 0.0000 -2.8377 0.0000
# 3 54.7350 37.8620 133.2713 0.0000 -2.7667 0.0000
# 4 0.0000 0.0000 0.0000 17.0932 0.0000 -4.6447
# 5 -3.3815 -2.8377 -2.7667 0.0000 47.3257 0.0000
# 6 0.0000 0.0000 0.0000 -4.6447 0.0000 11.7554
#
#
#
# Elastic Compliance Matrix: (Units=1/GPa)
#
#
# Indices 1 2 3 4 5 6 
#
# 1 0.012542 -0.002193 -0.004517 0.000000 0.000501 0.000000
# 2 -0.002193 0.011355 -0.002317 0.000000 0.000389 0.000000
# 3 -0.004517 -0.002317 0.010020 0.000000 0.000124 0.000000
# 4 0.000000 0.000000 0.000000 0.065539 0.000000 0.025895
# 5 0.000501 0.000389 0.000124 0.000000 0.021196 0.000000
# 6 0.000000 0.000000 0.000000 0.025895 0.000000 0.095298
#
#
# Mechanical properties :
#
#
# Convention : Reuss Voigt Hill
#
# Bulk Modulus (GPa) = 63.04684 65.41433 64.23059
# Shear Modulus (GPa) = 20.89484 29.64719 25.27101
#
# Velocity S-wave (km/s) = 3.21982 3.83534 3.54098
# Velocity P-wave (km/s) = 6.71598 7.21590 6.97042
#
# Compressibility (1/GPa) = 0.01586122
#
# Stress axis : x y z
#
# Youngs Moduli (GPa) = 79.73430 88.06390 99.80296
#
# Poissons Ratio (x) = 0.19313 0.45086
# Poissons Ratio (y) = 0.17486 0.23127
# Poissons Ratio (z) = 0.36020 0.20407
#
# Static dielectric constant tensor:
#      x y z
#    x 3.678510 0.000000 0.628520 
#    y 0.000000 7.349550 0.000000 
#    z 0.628520 0.000000 2.525340 
# 
# 
# High freq. dielectric constant tensor:
#      x y z
#    x 1.794280 0.000000 0.005400 
#    y 0.000000 1.771710 0.000000 
#    z 0.005400 0.000000 1.804210 
# 
# From -- ./inp_files/63875.got.cif
#   From: 2010.06.25/outbox.cif.g09.slc.cpg/sg11_32_cif.got.tgz:63875.got - 2010.06.27 23:14:04.
