data_PCOD8072378
_publ_section_title
;
Structure prediction by ZEFSAII (Michael W. Deem and Ramdas Pophale) SiO2 
 PCOD8072378
Probable space group: P 21/M
;
_chemical_formula_sum "Si O2"
_cell_formula_units_Z 24
_cell_length_a 10.741795
_cell_length_b 12.576789
_cell_length_c 11.654560
_cell_angle_alpha 90.000000
_cell_angle_beta 52.103746
_cell_angle_gamma 90.000000
_cell_volume 1242.475700
_symmetry_space_group_name_H-M "P 21/M"
_symmetry_group_IT_number 11
_symmetry_cell_setting 'monoclinic'
loop_
_space_group_symop_operation_xyz
x,y,z
-x,1/2+y,-z
-x,-y,-z
x,1/2-y,z
loop_
_atom_site_type_symbol
_atom_site_label
_atom_site_fract_x
_atom_site_fract_y
_atom_site_fract_z
Si Si1 0.050339 0.369781 0.229707
Si Si2 0.732986 0.497897 0.445549
Si Si3 0.364228 0.870544 0.098289
Si Si4 0.661363 0.555361 0.053594
Si Si5 0.174344 0.021984 0.363229
Si Si6 0.573492 0.625177 0.349241
O O1 0.988512 0.250000 0.255204
O O2 0.164689 0.382158 0.277054
O O3 0.901790 0.448034 0.318866
O O4 0.160576 0.399738 0.059301
O O5 0.727839 0.548253 0.576933
O O6 0.697030 0.593319 0.378360
O O7 0.602169 0.405237 0.510244
O O8 0.312923 0.750000 0.103282
O O9 0.542012 0.873382 0.045741
O O10 0.248264 0.918679 0.260188
O O11 0.350747 0.934189 0.985839
O O12 0.617173 0.558333 0.211612
O O13 0.000000 0.000000 0.500000
O O14 0.583853 0.750000 0.318164
#
# Coordination Sequence:
#
# PCOD8072378 Si02
#       6
#     4   4   4   4   4   4
#     4  10  20  36  58  83 115 149 187 244 301 338
#     4  10  22  38  56  84 116 151 203 238 281 359
#     4  10  19  35  60  85 118 156 190 240 298 344
#     4  10  21  36  57  89 114 148 202 239 277 358
#     4   9  19  34  55  87 116 141 189 244 282 350
#     4  11  22  39  61  81 115 161 196 240 295 343
#
# _framework density 19.316274
#
# number of rings (size 3 to 8) (size 9 to 14) (size 15 to 20)
#    0.000    2.000    1.667    2.000    0.000    4.000 
#    0.000   10.833    0.000    0.000    0.000    0.000 
#    0.000    0.000    0.000    0.000    0.000    0.000 
#
# Total GULP energy -297521.961023 kJ/mol
# GULP energy per Si atom -12396.748376 kJ/mol
# Density = 1.927231 g / cm^3
# Si number density = 19.316274 Si / 1000 Ang^3
#
#
#
# Elastic Constant Matrix: (Units=GPa)
#
#
# Indices 1 2 3 4 5 6 
#
# 1 91.0213 32.5707 37.3390 0.0000 4.6173 0.0000
# 2 32.5707 79.0890 42.0671 0.0000 5.1748 0.0000
# 3 37.3390 42.0671 109.5658 0.0000 -4.6620 0.0000
# 4 0.0000 0.0000 0.0000 19.1733 0.0000 -1.6441
# 5 4.6173 5.1748 -4.6620 0.0000 40.0774 0.0000
# 6 0.0000 0.0000 0.0000 -1.6441 0.0000 17.7433
#
#
#
# Elastic Compliance Matrix: (Units=1/GPa)
#
#
# Indices 1 2 3 4 5 6 
#
# 1 0.013781 -0.003829 -0.003289 0.000000 -0.001476 0.000000
# 2 -0.003829 0.017266 -0.005427 0.000000 -0.002420 0.000000
# 3 -0.003289 -0.005427 0.012439 0.000000 0.002527 0.000000
# 4 0.000000 0.000000 0.000000 0.052574 0.000000 0.004871
# 5 -0.001476 -0.002420 0.002527 0.000000 0.025728 0.000000
# 6 0.000000 0.000000 0.000000 0.004871 0.000000 0.056811
#
#
# Mechanical properties :
#
#
# Convention : Reuss Voigt Hill
#
# Bulk Modulus (GPa) = 54.36256 55.95887 55.16072
# Shear Modulus (GPa) = 23.82991 26.57875 25.20433
#
# Velocity S-wave (km/s) = 3.51617 3.71344 3.61615
# Velocity P-wave (km/s) = 6.68499 6.88614 6.78631
#
# Compressibility (1/GPa) = 0.01839501
#
# Stress axis : x y z
#
# Youngs Moduli (GPa) = 72.56501 57.91749 80.39243
#
# Poissons Ratio (x) = 0.22178 0.26440
# Poissons Ratio (y) = 0.27787 0.43630
# Poissons Ratio (z) = 0.23866 0.31432
#
# Static dielectric constant tensor:
#      x y z
#    x 3.720890 0.000000 0.126580 
#    y 0.000000 3.248160 0.000000 
#    z 0.126580 0.000000 3.881260 
# 
# 
# High freq. dielectric constant tensor:
#      x y z
#    x 1.743860 0.000000 -0.009620 
#    y 0.000000 1.727090 0.000000 
#    z -0.009620 0.000000 1.768570 
# 
# From -- ./inp_files/34463.got.cif
#   From: 2010.06.25/outbox.cif.g09.slc.cpg/sg11_18_cif.got.tgz:34463.got - 2010.06.27 23:14:04.
