data_PCOD8072944
_publ_section_title
;
Structure prediction by ZEFSAII (Michael W. Deem and Ramdas Pophale) SiO2 
 PCOD8072944
Probable space group: P 21/M
;
_chemical_formula_sum "Si O2"
_cell_formula_units_Z 28
_cell_length_a 22.598555
_cell_length_b 9.112045
_cell_length_c 18.875109
_cell_angle_alpha 90.000000
_cell_angle_beta 21.935323
_cell_angle_gamma 90.000000
_cell_volume 1451.931213
_symmetry_space_group_name_H-M "P 21/M"
_symmetry_group_IT_number 11
_symmetry_cell_setting 'monoclinic'
loop_
_space_group_symop_operation_xyz
x,y,z
-x,1/2+y,-z
-x,-y,-z
x,1/2-y,z
loop_
_atom_site_type_symbol
_atom_site_label
_atom_site_fract_x
_atom_site_fract_y
_atom_site_fract_z
Si Si1 0.675436 0.414090 0.614606
Si Si2 0.745026 0.912848 0.407670
Si Si3 0.396525 0.416546 0.171781
Si Si4 0.956811 0.583472 0.755526
Si Si5 0.840966 0.577577 0.152826
Si Si6 0.031478 0.417735 0.537424
Si Si7 0.115898 0.582986 0.029521
O O1 0.607325 0.250000 0.692564
O O2 0.648857 0.476311 0.564753
O O3 0.579189 0.509878 0.778370
O O4 0.859898 0.417706 0.427516
O O5 0.684929 0.750000 0.493157
O O6 0.715351 0.946268 0.356904
O O7 0.931648 0.922539 0.215089
O O8 0.456250 0.250000 0.110576
O O9 0.215886 0.425435 0.349226
O O10 0.500000 0.500000 0.000000
O O11 0.894761 0.750000 0.816667
O O12 0.931725 0.498390 0.709608
O O13 0.855026 0.500167 0.928568
O O14 0.872319 0.750000 0.105000
O O15 0.783752 0.500888 0.143409
O O16 0.000000 0.500000 0.000000
O O17 0.973101 0.250000 0.596794
O O18 0.000000 0.500000 0.500000
O O19 0.176759 0.750000 0.968218
#
# Coordination Sequence:
#
# PCOD8072944 Si02
#       7
#     4   4   4   4   4   4   4
#     4   9  16  25  39  57  77 104 139 176 215 260
#     4   8  14  22  31  45  68  98 132 170 210 252
#     4  10  20  33  49  68  91 118 150 187 227 270
#     4   9  16  26  40  57  78 106 140 177 216 261
#     4   9  15  21  29  43  65  95 131 170 210 252
#     4  10  20  33  49  69  92 119 151 188 228 271
#     4   9  15  22  32  47  69  98 133 172 211 254
#
# _framework density 19.284661
#
# number of rings (size 3 to 8) (size 9 to 14) (size 15 to 20)
#    0.000    2.857    0.000    3.429    0.000    9.143 
#    0.000    0.000    0.000    0.000    0.000    0.000 
#    0.000    0.000    0.000    1.286    0.000   18.571 
#
# Total GULP energy -347055.148068 kJ/mol
# GULP energy per Si atom -12394.826717 kJ/mol
# Density = 1.924077 g / cm^3
# Si number density = 19.284661 Si / 1000 Ang^3
#
#
#
# Elastic Constant Matrix: (Units=GPa)
#
#
# Indices 1 2 3 4 5 6 
#
# 1 106.7625 79.2712 39.0307 0.0000 60.3286 0.0000
# 2 79.2712 203.2926 50.7617 0.0000 53.6471 0.0000
# 3 39.0307 50.7617 43.7665 0.0000 39.1056 0.0000
# 4 0.0000 0.0000 0.0000 25.2827 0.0000 18.3303
# 5 60.3286 53.6471 39.1056 0.0000 45.5461 0.0000
# 6 0.0000 0.0000 0.0000 18.3303 0.0000 34.3033
#
#
#
# Elastic Compliance Matrix: (Units=1/GPa)
#
#
# Indices 1 2 3 4 5 6 
#
# 1 0.106191 -0.010856 0.138046 0.000000 -0.246395 0.000000
# 2 -0.010856 0.008360 -0.017457 0.000000 0.019521 0.000000
# 3 0.138046 -0.017457 0.279129 0.000000 -0.401948 0.000000
# 4 0.000000 0.000000 0.000000 0.064567 0.000000 -0.034502
# 5 -0.246395 0.019521 -0.401948 0.000000 0.670437 0.000000
# 6 0.000000 0.000000 0.000000 -0.034502 0.000000 0.047588
#
#
# Mechanical properties :
#
#
# Convention : Reuss Voigt Hill
#
# Bulk Modulus (GPa) = 1.63093 76.88320 39.25707
# Shear Modulus (GPa) = 4.30593 33.34362 18.82478
#
# Velocity S-wave (km/s) = 1.49589 4.16266 3.12773
# Velocity P-wave (km/s) = 1.95732 7.94089 5.78312
#
# Compressibility (1/GPa) = 0.61314622
#
# Stress axis : x y z
#
# Youngs Moduli (GPa) = 9.41702 119.62282 3.58257
#
# Poissons Ratio (x) = 1.29864 -0.49456
# Poissons Ratio (y) = 0.10223 0.06254
# Poissons Ratio (z) = -1.29998 2.08823
#
# Static dielectric constant tensor:
#      x y z
#    x 3.602270 0.000000 0.675920 
#    y 0.000000 3.837060 0.000000 
#    z 0.675920 0.000000 3.169580 
# 
# 
# High freq. dielectric constant tensor:
#      x y z
#    x 1.732140 0.000000 0.059740 
#    y 0.000000 1.769420 0.000000 
#    z 0.059740 0.000000 1.698280 
# 
# From -- ./inp_files/43645.got.cif
#   From: 2010.06.25/outbox.cif.g09.slc.cpg/sg11_22_cif.got.tgz:43645.got - 2010.06.27 23:14:04.
