data_PCOD8072169
_publ_section_title
;
Structure prediction by ZEFSAII (Michael W. Deem and Ramdas Pophale) SiO2 
 PCOD8072169
Probable space group: P 21/M
;
_chemical_formula_sum "Si O2"
_cell_formula_units_Z 32
_cell_length_a 16.901984
_cell_length_b 8.799855
_cell_length_c 25.754996
_cell_angle_alpha 90.000000
_cell_angle_beta 153.389195
_cell_angle_gamma 90.000000
_cell_volume 1715.863007
_symmetry_space_group_name_H-M "P 21/M"
_symmetry_group_IT_number 11
_symmetry_cell_setting 'monoclinic'
loop_
_space_group_symop_operation_xyz
x,y,z
-x,1/2+y,-z
-x,-y,-z
x,1/2-y,z
loop_
_atom_site_type_symbol
_atom_site_label
_atom_site_fract_x
_atom_site_fract_y
_atom_site_fract_z
Si Si1 0.264039 0.427904 0.665276
Si Si2 0.470966 0.069545 0.539003
Si Si3 0.185599 0.422209 0.231966
Si Si4 0.095208 0.430475 0.364234
Si Si5 0.656851 0.430020 0.920040
Si Si6 0.065996 0.928560 0.459506
Si Si7 0.921582 0.573712 0.004625
Si Si8 0.084586 0.920662 0.841001
O O1 0.259362 0.250000 0.651140
O O2 0.451356 0.476236 0.800272
O O3 0.229509 0.508910 0.589672
O O4 0.116313 0.477543 0.619891
O O5 0.495755 0.250000 0.551285
O O6 0.287882 0.021025 0.457501
O O7 0.500000 0.000000 0.500000
O O8 0.620046 0.989215 0.661191
O O9 0.178249 0.250000 0.204773
O O10 0.061831 0.541794 0.131208
O O11 0.110203 0.420205 0.246538
O O12 0.082022 0.250000 0.361362
O O13 0.059432 0.503258 0.398549
O O14 0.949639 0.492693 0.236452
O O15 0.686605 0.250000 0.935253
O O16 0.736652 0.498957 0.913865
O O17 0.761545 0.497289 0.032576
O O18 0.086394 0.750000 0.467005
O O19 0.890278 0.750000 0.977134
O O20 0.000000 0.500000 0.000000
O O21 0.149893 0.750000 0.870361
#
# Coordination Sequence:
#
# PCOD8072169 Si02
#       8
#     4   4   4   4   4   4   4   4
#     4   9  19  38  61  82 107 140 180 224 280 339
#     4  11  21  33  51  77 108 145 186 228 270 322
#     4  10  19  35  54  74 103 142 184 225 270 322
#     4  10  20  35  53  77 111 148 183 220 273 335
#     4   9  18  35  60  82 104 140 181 224 274 329
#     4  10  21  36  56  83 110 140 179 229 279 324
#     4  11  22  36  53  78 109 143 181 224 270 321
#     4   8  15  31  53  76 103 139 176 211 260 324
#
# _framework density 18.649508000000001
#
# number of rings (size 3 to 8) (size 9 to 14) (size 15 to 20)
#    0.000    2.250    1.250    3.000    0.000    3.000 
#    0.000    2.500    0.000    0.000    0.000    0.000 
#    0.000    0.000    0.000    0.000    0.000    0.000 
#
# Total GULP energy -396558.223903 kJ/mol
# GULP energy per Si atom -12392.444497 kJ/mol
# Density = 1.860706 g / cm^3
# Si number density = 18.649508 Si / 1000 Ang^3
#
#
#
# Elastic Constant Matrix: (Units=GPa)
#
#
# Indices 1 2 3 4 5 6 
#
# 1 115.3909 35.7045 61.5085 0.0000 -14.2431 0.0000
# 2 35.7045 54.5291 38.5657 0.0000 -1.2032 0.0000
# 3 61.5085 38.5657 130.8904 0.0000 1.6550 0.0000
# 4 0.0000 0.0000 0.0000 25.5570 0.0000 -1.0503
# 5 -14.2431 -1.2032 1.6550 0.0000 24.6990 0.0000
# 6 0.0000 0.0000 0.0000 -1.0503 0.0000 30.7054
#
#
#
# Elastic Compliance Matrix: (Units=1/GPa)
#
#
# Indices 1 2 3 4 5 6 
#
# 1 0.014089 -0.005417 -0.005128 0.000000 0.008204 0.000000
# 2 -0.005417 0.025311 -0.004892 0.000000 -0.001563 0.000000
# 3 -0.005128 -0.004892 0.011542 0.000000 -0.003969 0.000000
# 4 0.000000 0.000000 0.000000 0.039183 0.000000 0.001340
# 5 0.008204 -0.001563 -0.003969 0.000000 0.045408 0.000000
# 6 0.000000 0.000000 0.000000 0.001340 0.000000 0.032613
#
#
# Mechanical properties :
#
#
# Convention : Reuss Voigt Hill
#
# Bulk Modulus (GPa) = 49.83485 63.59644 56.71565
# Shear Modulus (GPa) = 24.30598 27.19438 25.75018
#
# Velocity S-wave (km/s) = 3.61405 3.82276 3.71987
# Velocity P-wave (km/s) = 6.64793 7.32527 6.99480
#
# Compressibility (1/GPa) = 0.02006628
#
# Stress axis : x y z
#
# Youngs Moduli (GPa) = 70.97963 39.50783 86.64330
#
# Poissons Ratio (x) = 0.21401 0.44433
# Poissons Ratio (y) = 0.38449 0.42390
# Poissons Ratio (z) = 0.36400 0.19329
#
# Static dielectric constant tensor:
#      x y z
#    x 3.107030 0.000000 0.025680 
#    y 0.000000 3.194800 0.000000 
#    z 0.025680 0.000000 3.675890 
# 
# 
# High freq. dielectric constant tensor:
#      x y z
#    x 1.710280 0.000000 -0.008340 
#    y 0.000000 1.711570 0.000000 
#    z -0.008340 0.000000 1.730820 
# 
# From -- ./inp_files/69135.got.cif
#   From: 2010.06.25/outbox.cif.g09.slc.cpg/sg11_35_cif.got.tgz:69135.got - 2010.06.27 23:14:04.
