data_PCOD8072308
_publ_section_title
;
Structure prediction by ZEFSAII (Michael W. Deem and Ramdas Pophale) SiO2 
 PCOD8072308
Probable space group: P 21/M
;
_chemical_formula_sum "Si O2"
_cell_formula_units_Z 28
_cell_length_a 23.017958
_cell_length_b 8.892367
_cell_length_c 21.110102
_cell_angle_alpha 90.000000
_cell_angle_beta 161.905298
_cell_angle_gamma 90.000000
_cell_volume 1342.022897
_symmetry_space_group_name_H-M "P 21/M"
_symmetry_group_IT_number 11
_symmetry_cell_setting 'monoclinic'
loop_
_space_group_symop_operation_xyz
x,y,z
-x,1/2+y,-z
-x,-y,-z
x,1/2-y,z
loop_
_atom_site_type_symbol
_atom_site_label
_atom_site_fract_x
_atom_site_fract_y
_atom_site_fract_z
Si Si1 0.740021 0.081198 0.196080
Si Si2 0.163554 0.574227 0.457171
Si Si3 0.298782 0.418675 0.721899
Si Si4 0.199455 0.573279 0.192855
Si Si5 0.539892 0.573683 0.635488
Si Si6 0.541794 0.576383 0.318879
Si Si7 0.189675 0.922817 0.871443
O O1 0.803363 0.250000 0.278233
O O2 0.828731 0.028857 0.221348
O O3 0.803816 0.973039 0.319629
O O4 0.518191 0.076081 0.958724
O O5 0.189474 0.750000 0.473987
O O6 0.246202 0.526835 0.610233
O O7 0.262026 0.490221 0.500861
O O8 0.946053 0.528743 0.228524
O O9 0.228920 0.250000 0.634180
O O10 0.171347 0.750000 0.155098
O O11 0.341771 0.534857 0.397385
O O12 0.286685 0.506968 0.219069
O O13 0.000000 0.500000 0.000000
O O14 0.579837 0.750000 0.675809
O O15 0.535174 0.514778 0.701638
O O16 0.567103 0.750000 0.363950
O O17 0.399978 0.554817 0.113451
O O18 0.128685 0.750000 0.816774
#
# Coordination Sequence:
#
# PCOD8072308 Si02
#       7
#     4   4   4   4   4   4   4
#     4   9  18  35  58  84 111 145 192 248 305 360
#     4  12  25  39  59  87 118 155 199 247 303 362
#     4  10  19  35  58  84 113 149 193 245 304 364
#     4  10  21  39  65  96 130 166 204 247 293 343
#     4  10  22  40  63  94 128 163 202 247 296 349
#     4  11  23  43  66  88 119 161 204 248 298 352
#     4  10  22  41  62  84 114 153 200 249 299 358
#
# _framework density 20.864025000000002
#
# number of rings (size 3 to 8) (size 9 to 14) (size 15 to 20)
#    0.000    1.714    1.429    3.000    0.000    5.714 
#    0.000    0.000    0.000    0.000    0.000    0.000 
#    0.000    0.000    0.000    0.000    0.000    0.000 
#
# Total GULP energy -347293.843223 kJ/mol
# GULP energy per Si atom -12403.351544 kJ/mol
# Density = 2.081654 g / cm^3
# Si number density = 20.864025 Si / 1000 Ang^3
#
#
#
# Elastic Constant Matrix: (Units=GPa)
#
#
# Indices 1 2 3 4 5 6 
#
# 1 122.5998 41.0410 32.0638 0.0000 16.9065 0.0000
# 2 41.0410 88.7938 36.8005 0.0000 12.6728 0.0000
# 3 32.0638 36.8005 44.4574 0.0000 15.8228 0.0000
# 4 0.0000 0.0000 0.0000 30.7938 0.0000 1.5779
# 5 16.9065 12.6728 15.8228 0.0000 33.2249 0.0000
# 6 0.0000 0.0000 0.0000 1.5779 0.0000 41.9295
#
#
#
# Elastic Compliance Matrix: (Units=1/GPa)
#
#
# Indices 1 2 3 4 5 6 
#
# 1 0.010556 -0.002639 -0.004666 0.000000 -0.002143 0.000000
# 2 -0.002639 0.017805 -0.013120 0.000000 0.000800 0.000000
# 3 -0.004666 -0.013120 0.041050 0.000000 -0.012171 0.000000
# 4 0.000000 0.000000 0.000000 0.032537 0.000000 -0.001224
# 5 -0.002143 0.000800 -0.012171 0.000000 0.036680 0.000000
# 6 0.000000 0.000000 0.000000 -0.001224 0.000000 0.023896
#
#
# Mechanical properties :
#
#
# Convention : Reuss Voigt Hill
#
# Bulk Modulus (GPa) = 35.01166 52.85129 43.93147
# Shear Modulus (GPa) = 23.48586 30.91936 27.20261
#
# Velocity S-wave (km/s) = 3.35873 3.85378 3.61474
# Velocity P-wave (km/s) = 5.64435 6.72224 6.20674
#
# Compressibility (1/GPa) = 0.02856191
#
# Stress axis : x y z
#
# Youngs Moduli (GPa) = 94.73358 56.16300 24.36026
#
# Poissons Ratio (x) = 0.14824 0.11366
# Poissons Ratio (y) = 0.25005 0.31960
# Poissons Ratio (z) = 0.44200 0.73684
#
# Static dielectric constant tensor:
#      x y z
#    x 3.869280 0.000000 0.080530 
#    y 0.000000 3.879940 0.000000 
#    z 0.080530 0.000000 3.686520 
# 
# 
# High freq. dielectric constant tensor:
#      x y z
#    x 1.823340 0.000000 0.011520 
#    y 0.000000 1.819530 0.000000 
#    z 0.011520 0.000000 1.813060 
# 
# From -- ./inp_files/66756.got.cif
#   From: 2010.06.25/outbox.cif.g09.slc.cpg/sg11_34_cif.got.tgz:66756.got - 2010.06.27 23:14:04.
