data_PCOD8072463
_publ_section_title
;
Structure prediction by ZEFSAII (Michael W. Deem and Ramdas Pophale) SiO2 
 PCOD8072463
Probable space group: P 21/M
;
_chemical_formula_sum "Si O2"
_cell_formula_units_Z 32
_cell_length_a 21.751704
_cell_length_b 9.104024
_cell_length_c 28.033145
_cell_angle_alpha 90.000000
_cell_angle_beta 161.952010
_cell_angle_gamma 90.000000
_cell_volume 1719.882610
_symmetry_space_group_name_H-M "P 21/M"
_symmetry_group_IT_number 11
_symmetry_cell_setting 'monoclinic'
loop_
_space_group_symop_operation_xyz
x,y,z
-x,1/2+y,-z
-x,-y,-z
x,1/2-y,z
loop_
_atom_site_type_symbol
_atom_site_label
_atom_site_fract_x
_atom_site_fract_y
_atom_site_fract_z
Si Si1 0.872479 0.418135 0.575315
Si Si2 0.016838 0.080409 0.582898
Si Si3 0.426320 0.419337 0.221979
Si Si4 0.522417 0.423768 0.465883
Si Si5 0.112423 0.423870 0.316347
Si Si6 0.295303 0.576932 0.032345
Si Si7 0.792237 0.579194 0.844636
Si Si8 0.697218 0.577920 0.285700
O O1 0.883465 0.250000 0.602359
O O2 0.033621 0.448172 0.652169
O O3 0.660109 0.448519 0.394671
O O4 0.912767 0.530957 0.647294
O O5 0.967147 0.250000 0.536571
O O6 0.222904 0.035494 0.708427
O O7 0.835153 0.990519 0.427696
O O8 0.377075 0.250000 0.176506
O O9 0.318645 0.510393 0.101730
O O10 0.342164 0.473743 0.210523
O O11 0.500000 0.500000 0.500000
O O12 0.554097 0.250000 0.495447
O O13 0.707879 0.489586 0.574698
O O14 0.323235 0.458468 0.289303
O O15 0.149325 0.250000 0.340003
O O16 0.913186 0.474506 0.142819
O O17 0.300246 0.750000 0.041724
O O18 0.471656 0.522233 0.126988
O O19 0.836005 0.750000 0.880409
O O20 0.000000 0.500000 0.000000
O O21 0.706838 0.750000 0.300917
#
# Coordination Sequence:
#
# PCOD8072463 Si02
#       8
#     4   4   4   4   4   4   4   4
#     4  10  19  36  58  82 111 146 189 236 282 333
#     4   9  17  30  53  81 110 144 185 233 284 337
#     4  10  20  37  59  83 111 144 186 233 281 330
#     4  11  24  44  64  86 117 151 188 230 277 335
#     4  11  24  40  58  82 114 153 193 231 277 334
#     4  10  22  37  54  82 117 150 187 234 283 332
#     4  10  23  41  60  85 115 144 180 230 278 328
#     4   9  17  31  51  79 113 147 183 230 286 336
#
# _framework density 18.605920999999999
#
# number of rings (size 3 to 8) (size 9 to 14) (size 15 to 20)
#    0.000    2.000    2.500    0.750    1.750    3.500 
#    0.000    0.625    0.000    0.000    0.000    0.000 
#    0.000    0.000    0.000    0.000    0.000    0.000 
#
# Total GULP energy -396775.630776 kJ/mol
# GULP energy per Si atom -12399.238462 kJ/mol
# Density = 1.856357 g / cm^3
# Si number density = 18.605921 Si / 1000 Ang^3
#
#
#
# Elastic Constant Matrix: (Units=GPa)
#
#
# Indices 1 2 3 4 5 6 
#
# 1 133.9860 41.7521 49.3690 0.0000 -5.9129 0.0000
# 2 41.7521 47.9331 45.5881 0.0000 -1.1716 0.0000
# 3 49.3690 45.5881 100.1150 0.0000 -9.1873 0.0000
# 4 0.0000 0.0000 0.0000 26.9639 0.0000 -4.5374
# 5 -5.9129 -1.1716 -9.1873 0.0000 23.2471 0.0000
# 6 0.0000 0.0000 0.0000 -4.5374 0.0000 33.3125
#
#
#
# Elastic Compliance Matrix: (Units=1/GPa)
#
#
# Indices 1 2 3 4 5 6 
#
# 1 0.010481 -0.007618 -0.001546 0.000000 0.001671 0.000000
# 2 -0.007618 0.042893 -0.016348 0.000000 -0.006236 0.000000
# 3 -0.001546 -0.016348 0.018764 0.000000 0.006198 0.000000
# 4 0.000000 0.000000 0.000000 0.037957 0.000000 0.005170
# 5 0.001671 -0.006236 0.006198 0.000000 0.045576 0.000000
# 6 0.000000 0.000000 0.000000 0.005170 0.000000 0.030723
#
#
# Mechanical properties :
#
#
# Convention : Reuss Voigt Hill
#
# Bulk Modulus (GPa) = 47.36038 61.71692 54.53865
# Shear Modulus (GPa) = 20.45365 26.39302 23.42333
#
# Velocity S-wave (km/s) = 3.31918 3.77042 3.55197
# Velocity P-wave (km/s) = 6.34027 7.22477 6.79692
#
# Compressibility (1/GPa) = 0.02111469
#
# Stress axis : x y z
#
# Youngs Moduli (GPa) = 95.41302 23.31360 53.29443
#
# Poissons Ratio (x) = 0.17760 0.08240
# Poissons Ratio (y) = 0.72685 0.87123
# Poissons Ratio (z) = 0.14751 0.38112
#
# Static dielectric constant tensor:
#      x y z
#    x 3.782500 0.000000 0.206260 
#    y 0.000000 3.313410 0.000000 
#    z 0.206260 0.000000 3.451230 
# 
# 
# High freq. dielectric constant tensor:
#      x y z
#    x 1.739470 0.000000 0.009830 
#    y 0.000000 1.719250 0.000000 
#    z 0.009830 0.000000 1.708790 
# 
# From -- ./inp_files/72231.got.cif
#   From: 2010.06.25/outbox.cif.g09.slc.cpg/sg11_37_cif.got.tgz:72231.got - 2010.06.27 23:14:04.
