data_PCOD8072952
_publ_section_title
;
Structure prediction by ZEFSAII (Michael W. Deem and Ramdas Pophale) SiO2 
 PCOD8072952
Probable space group: P 21/M
;
_chemical_formula_sum "Si O2"
_cell_formula_units_Z 28
_cell_length_a 7.742196
_cell_length_b 9.314892
_cell_length_c 27.784471
_cell_angle_alpha 90.000000
_cell_angle_beta 45.842855
_cell_angle_gamma 90.000000
_cell_volume 1437.556017
_symmetry_space_group_name_H-M "P 21/M"
_symmetry_group_IT_number 11
_symmetry_cell_setting 'monoclinic'
loop_
_space_group_symop_operation_xyz
x,y,z
-x,1/2+y,-z
-x,-y,-z
x,1/2-y,z
loop_
_atom_site_type_symbol
_atom_site_label
_atom_site_fract_x
_atom_site_fract_y
_atom_site_fract_z
Si Si1 0.708557 0.909801 0.435210
Si Si2 0.324801 0.421004 0.070079
Si Si3 0.218548 0.579309 0.835796
Si Si4 0.115390 0.909801 0.435210
Si Si5 0.575950 0.909518 0.687775
Si Si6 0.985173 0.590482 0.687775
Si Si7 0.602471 0.920691 0.835796
O O1 0.613546 0.750000 0.441220
O O2 0.931237 0.899531 0.427505
O O3 0.500000 0.000000 0.500000
O O4 0.793643 0.986839 0.369326
O O5 0.350029 0.250000 0.059988
O O6 0.395417 0.474320 0.109813
O O7 0.055517 0.474321 0.109813
O O8 0.500000 0.500000 0.000000
O O9 0.229766 0.750000 0.833768
O O10 0.345900 0.527243 0.761523
O O11 0.364380 0.519891 0.854248
O O12 0.180353 0.750000 0.441220
O O13 0.359727 0.986839 0.369326
O O14 0.000000 0.000000 0.500000
O O15 0.520061 0.750000 0.678210
O O16 0.797965 0.898994 0.680814
O O17 0.088887 0.750000 0.678210
O O18 0.846486 0.527242 0.761523
O O19 0.601399 0.750000 0.833766
#
# Coordination Sequence:
#
# PCOD8072952 Si02
#       7
#     4   4   4   4   4   4   4
#     4  10  20  33  49  71 100 134 170 209 256 308
#     4  10  20  34  52  76 106 136 168 210 254 306
#     4   8  15  30  52  75  99 132 172 209 252 306
#     4  10  20  33  49  71 100 134 170 209 256 308
#     4   8  14  28  50  70  91 124 164 207 252 299
#     4   8  14  28  50  70  91 124 164 207 252 299
#     4   8  15  30  52  75  99 132 172 209 252 306
#
# _framework density 19.477502999999999
#
# number of rings (size 3 to 8) (size 9 to 14) (size 15 to 20)
#    0.000    3.143    0.000    2.571    0.000    2.286 
#    2.571    1.429    0.000    1.714    0.000    0.000 
#    0.000    0.000    0.000    0.000    0.000    0.000 
#
# Total GULP energy -347020.948345 kJ/mol
# GULP energy per Si atom -12393.605298 kJ/mol
# Density = 1.943317 g / cm^3
# Si number density = 19.477503 Si / 1000 Ang^3
#
#
#
# Elastic Constant Matrix: (Units=GPa)
#
#
# Indices 1 2 3 4 5 6 
#
# 1 72.6455 26.5221 63.0482 0.0000 0.5707 0.0000
# 2 26.5221 95.6910 72.7403 0.0000 0.5240 0.0000
# 3 63.0482 72.7403 200.1056 0.0000 0.8737 0.0000
# 4 0.0000 0.0000 0.0000 37.0711 0.0000 0.2865
# 5 0.5707 0.5240 0.8737 0.0000 29.9827 0.0000
# 6 0.0000 0.0000 0.0000 0.2865 0.0000 11.7947
#
#
#
# Elastic Compliance Matrix: (Units=1/GPa)
#
#
# Indices 1 2 3 4 5 6 
#
# 1 0.019015 -0.000989 -0.005631 0.000000 -0.000181 0.000000
# 2 -0.000989 0.014492 -0.004956 0.000000 -0.000090 0.000000
# 3 -0.005631 -0.004956 0.008573 0.000000 -0.000056 0.000000
# 4 0.000000 0.000000 0.000000 0.026980 0.000000 -0.000655
# 5 -0.000181 -0.000090 -0.000056 0.000000 0.033359 0.000000
# 6 0.000000 0.000000 0.000000 -0.000655 0.000000 0.084800
#
#
# Mechanical properties :
#
#
# Convention : Reuss Voigt Hill
#
# Bulk Modulus (GPa) = 52.82957 77.00704 64.91830
# Shear Modulus (GPa) = 23.07536 29.51179 26.29357
#
# Velocity S-wave (km/s) = 3.44571 3.89675 3.67815
# Velocity P-wave (km/s) = 6.55841 7.73747 7.17221
#
# Compressibility (1/GPa) = 0.01892879
#
# Stress axis : x y z
#
# Youngs Moduli (GPa) = 52.59034 69.00204 116.64061
#
# Poissons Ratio (x) = 0.06824 0.65679
# Poissons Ratio (y) = 0.05201 0.57809
# Poissons Ratio (z) = 0.29613 0.34198
#
# Static dielectric constant tensor:
#      x y z
#    x 3.448920 0.000000 0.003300 
#    y 0.000000 4.322800 0.000000 
#    z 0.003300 0.000000 3.739580 
# 
# 
# High freq. dielectric constant tensor:
#      x y z
#    x 1.742930 0.000000 0.000240 
#    y 0.000000 1.721930 0.000000 
#    z 0.000240 0.000000 1.764380 
# 
# From -- ./inp_files/72715.got.cif
#   From: 2010.06.25/outbox.cif.g09.slc.cpg/sg11_37_cif.got.tgz:72715.got - 2010.06.27 23:14:04.
