data_PCOD8072505
_publ_section_title
;
Structure prediction by ZEFSAII (Michael W. Deem and Ramdas Pophale) SiO2 
 PCOD8072505
Probable space group: P 21/M
;
_chemical_formula_sum "Si O2"
_cell_formula_units_Z 32
_cell_length_a 17.881154
_cell_length_b 14.082824
_cell_length_c 11.883293
_cell_angle_alpha 90.000000
_cell_angle_beta 148.913984
_cell_angle_gamma 90.000000
_cell_volume 1545.057649
_symmetry_space_group_name_H-M "P 21/M"
_symmetry_group_IT_number 11
_symmetry_cell_setting 'monoclinic'
loop_
_space_group_symop_operation_xyz
x,y,z
-x,1/2+y,-z
-x,-y,-z
x,1/2-y,z
loop_
_atom_site_type_symbol
_atom_site_label
_atom_site_fract_x
_atom_site_fract_y
_atom_site_fract_z
Si Si1 0.039090 0.637110 0.189277
Si Si2 0.839669 0.357107 0.884970
Si Si3 0.022673 0.638638 0.709447
Si Si4 0.289648 0.860607 0.888001
Si Si5 0.519567 0.408872 0.449149
Si Si6 0.568852 0.539859 0.328517
Si Si7 0.213496 0.987191 0.582004
Si Si8 0.274563 0.146336 0.273811
O O1 0.059994 0.750000 0.231074
O O2 0.113052 0.595176 0.171299
O O3 0.111263 0.587249 0.387922
O O4 0.871980 0.605508 0.968950
O O5 0.894415 0.250000 0.951312
O O6 0.667496 0.358542 0.675254
O O7 0.919005 0.401729 0.095652
O O8 0.980613 0.750000 0.658843
O O9 0.148226 0.621525 0.780650
O O10 0.880203 0.577384 0.495222
O O11 0.299943 0.750000 0.865349
O O12 0.284113 0.931147 0.775865
O O13 0.435421 0.887721 0.143316
O O14 0.500000 0.500000 0.500000
O O15 0.514136 0.438371 0.309646
O O16 0.386979 0.342061 0.314657
O O17 0.653538 0.524735 0.321861
O O18 0.678359 0.579703 0.563547
O O19 0.245041 0.250000 0.287866
#
# Coordination Sequence:
#
# PCOD8072505 Si02
#       8
#     4   4   4   4   4   4   4   4
#     4  10  22  37  59  93 129 165 200 246 320 386
#     4  10  19  36  59  88 125 162 199 249 311 378
#     4  10  23  40  65  95 122 161 212 262 313 369
#     4  11  25  46  65  87 121 169 220 263 312 371
#     4  10  20  33  54  88 123 158 202 249 307 371
#     4  11  23  38  62  92 121 160 215 261 312 364
#     4  12  24  41  66  90 129 165 211 260 315 368
#     4  10  21  37  58  90 127 163 200 253 316 373
#
# _framework density 20.711200999999999
#
# number of rings (size 3 to 8) (size 9 to 14) (size 15 to 20)
#    0.000    1.500    1.250    4.125    5.250    4.000 
#    0.000    0.000    0.000    0.750    0.000    0.000 
#    0.000    0.000    0.000    0.000    0.000    0.000 
#
# Total GULP energy -396728.838425 kJ/mol
# GULP energy per Si atom -12397.776201 kJ/mol
# Density = 2.066406 g / cm^3
# Si number density = 20.711201 Si / 1000 Ang^3
#
#
#
# Elastic Constant Matrix: (Units=GPa)
#
#
# Indices 1 2 3 4 5 6 
#
# 1 82.8969 27.3559 21.6166 0.0000 13.8005 0.0000
# 2 27.3559 77.2564 24.8283 0.0000 -0.9774 0.0000
# 3 21.6166 24.8283 71.8076 0.0000 9.7468 0.0000
# 4 0.0000 0.0000 0.0000 32.4675 0.0000 2.8586
# 5 13.8005 -0.9774 9.7468 0.0000 31.1910 0.0000
# 6 0.0000 0.0000 0.0000 2.8586 0.0000 24.5384
#
#
#
# Elastic Compliance Matrix: (Units=1/GPa)
#
#
# Indices 1 2 3 4 5 6 
#
# 1 0.015229 -0.004804 -0.002076 0.000000 -0.006240 0.000000
# 2 -0.004804 0.016213 -0.004717 0.000000 0.004108 0.000000
# 3 -0.002076 -0.004717 0.016790 0.000000 -0.004476 0.000000
# 4 0.000000 0.000000 0.000000 0.031119 0.000000 -0.003625
# 5 -0.006240 0.004108 -0.004476 0.000000 0.036349 0.000000
# 6 0.000000 0.000000 0.000000 -0.003625 0.000000 0.041175
#
#
# Mechanical properties :
#
#
# Convention : Reuss Voigt Hill
#
# Bulk Modulus (GPa) = 39.94225 42.17362 41.05794
# Shear Modulus (GPa) = 26.53725 28.18339 27.36032
#
# Velocity S-wave (km/s) = 3.58341 3.69288 3.63855
# Velocity P-wave (km/s) = 6.03724 6.21209 6.12529
#
# Compressibility (1/GPa) = 0.02503614
#
# Stress axis : x y z
#
# Youngs Moduli (GPa) = 65.66548 61.67918 59.56036
#
# Poissons Ratio (x) = 0.29631 0.12367
# Poissons Ratio (y) = 0.31546 0.28096
# Poissons Ratio (z) = 0.13635 0.29095
#
# Static dielectric constant tensor:
#      x y z
#    x 3.862520 0.000000 0.053580 
#    y 0.000000 3.959180 0.000000 
#    z 0.053580 0.000000 3.572370 
# 
# 
# High freq. dielectric constant tensor:
#      x y z
#    x 1.815810 0.000000 0.016860 
#    y 0.000000 1.815380 0.000000 
#    z 0.016860 0.000000 1.800010 
# 
# From -- ./inp_files/41710.got.cif
#   From: 2010.06.25/outbox.cif.g09.slc.cpg/sg11_21_cif.got.tgz:41710.got - 2010.06.27 23:14:04.
