data_PCOD8072160
_publ_section_title
;
Structure prediction by ZEFSAII (Michael W. Deem and Ramdas Pophale) SiO2 
 PCOD8072160
Probable space group: P 21/M
;
_chemical_formula_sum "Si O2"
_cell_formula_units_Z 28
_cell_length_a 26.491117
_cell_length_b 10.725052
_cell_length_c 28.805936
_cell_angle_alpha 90.000000
_cell_angle_beta 9.578911
_cell_angle_gamma 90.000000
_cell_volume 1361.915534
_symmetry_space_group_name_H-M "P 21/M"
_symmetry_group_IT_number 11
_symmetry_cell_setting 'monoclinic'
loop_
_space_group_symop_operation_xyz
x,y,z
-x,1/2+y,-z
-x,-y,-z
x,1/2-y,z
loop_
_atom_site_type_symbol
_atom_site_label
_atom_site_fract_x
_atom_site_fract_y
_atom_site_fract_z
Si Si1 0.855087 0.607042 0.759633
Si Si2 0.228582 0.750000 0.892385
Si Si3 0.238356 0.892427 0.496412
Si Si4 0.838067 0.527562 0.248563
Si Si5 0.906289 0.511487 0.882745
Si Si6 0.170541 0.897567 0.376231
Si Si7 0.939409 0.750000 0.255083
Si Si8 0.206335 0.612601 0.798599
O O1 0.810907 0.750000 0.812152
O O2 0.028896 0.546164 0.645995
O O3 0.053007 0.584627 0.534698
O O4 0.516776 0.554156 0.059997
O O5 0.585297 0.750000 0.567006
O O6 0.094579 0.619982 0.992514
O O7 0.114399 0.750000 0.048235
O O8 0.318771 0.750000 0.411730
O O9 0.061942 0.893946 0.705566
O O10 0.553176 0.966214 0.212103
O O11 0.531020 0.607908 0.529109
O O12 0.774031 0.405301 0.275323
O O13 0.923602 0.479664 0.222215
O O14 0.954718 0.375360 0.814740
O O15 0.129675 0.750000 0.397425
O O16 0.000000 0.000000 0.500000
O O17 0.070397 0.750000 0.932688
O O18 0.000000 0.500000 0.000000
#
# Coordination Sequence:
#
# PCOD8072160 Si02
#       8
#     4   2   4   4   4   4   2   4
#     4   9  19  36  59  87 121 166 212 252 300 370
#     4  10  20  38  70  88 114 152 202 250 296 369
#     4  11  23  40  64  93 125 166 209 258 317 370
#     4  10  24  41  62  88 120 153 208 250 318 373
#     4  11  23  40  65  91 121 160 207 260 307 375
#     4  10  19  34  61  91 125 166 215 260 304 359
#     4  10  22  38  64  92 114 158 210 246 296 367
#     4  11  26  42  63  90 121 159 197 252 318 385
#
# _framework density 20.559277999999999
#
# number of rings (size 3 to 8) (size 9 to 14) (size 15 to 20)
#    0.000    1.714    0.714    3.429    7.000    4.000 
#    0.000    0.000    9.429    0.000    0.000    0.000 
#    0.000    0.000    0.000    0.000    0.000    0.000 
#
# Total GULP energy -347051.179427 kJ/mol
# GULP energy per Si atom -12394.684980 kJ/mol
# Density = 2.051248 g / cm^3
# Si number density = 20.559278 Si / 1000 Ang^3
#
#
#
# Elastic Constant Matrix: (Units=GPa)
#
#
# Indices 1 2 3 4 5 6 
#
# 1 106.2237 34.5563 28.3544 0.0000 -18.8566 0.0000
# 2 34.5563 101.8683 31.7304 0.0000 -12.6875 0.0000
# 3 28.3544 31.7304 163.7864 0.0000 0.2309 0.0000
# 4 0.0000 0.0000 0.0000 32.6229 0.0000 -0.2739
# 5 -18.8566 -12.6875 0.2309 0.0000 33.1537 0.0000
# 6 0.0000 0.0000 0.0000 -0.2739 0.0000 23.5244
#
#
#
# Elastic Compliance Matrix: (Units=1/GPa)
#
#
# Indices 1 2 3 4 5 6 
#
# 1 0.011722 -0.002814 -0.001492 0.000000 0.005601 0.000000
# 2 -0.002814 0.011685 -0.001781 0.000000 0.002884 0.000000
# 3 -0.001492 -0.001781 0.006711 0.000000 -0.001577 0.000000
# 4 0.000000 0.000000 0.000000 0.030656 0.000000 0.000357
# 5 0.005601 0.002884 -0.001577 0.000000 0.034462 0.000000
# 6 0.000000 0.000000 0.000000 0.000357 0.000000 0.042513
#
#
# Mechanical properties :
#
#
# Convention : Reuss Voigt Hill
#
# Bulk Modulus (GPa) = 55.72744 62.35118 59.03931
# Shear Modulus (GPa) = 32.07082 36.34269 34.20676
#
# Velocity S-wave (km/s) = 3.95387 4.20897 4.08341
# Velocity P-wave (km/s) = 6.92883 7.34941 7.14222
#
# Compressibility (1/GPa) = 0.01794448
#
# Stress axis : x y z
#
# Youngs Moduli (GPa) = 85.30939 85.57978 149.00933
#
# Poissons Ratio (x) = 0.24083 0.22232
# Poissons Ratio (y) = 0.24007 0.26533
# Poissons Ratio (z) = 0.12728 0.15239
#
# Static dielectric constant tensor:
#      x y z
#    x 3.873740 0.000000 -0.025350 
#    y 0.000000 4.885970 0.000000 
#    z -0.025350 0.000000 3.774060 
# 
# 
# High freq. dielectric constant tensor:
#      x y z
#    x 1.804450 0.000000 0.009750 
#    y 0.000000 1.794250 0.000000 
#    z 0.009750 0.000000 1.819140 
# 
# From -- ./inp_files/73802.got.cif
#   From: 2010.06.25/outbox.cif.g09.slc.cpg/sg11_37_cif.got.tgz:73802.got - 2010.06.27 23:14:04.
