data_PCOD8072232
_publ_section_title
;
Structure prediction by ZEFSAII (Michael W. Deem and Ramdas Pophale) SiO2 
 PCOD8072232
Probable space group: P 21/M
;
_chemical_formula_sum "Si O2"
_cell_formula_units_Z 28
_cell_length_a 16.105058
_cell_length_b 8.910336
_cell_length_c 20.383359
_cell_angle_alpha 90.000000
_cell_angle_beta 150.000079
_cell_angle_gamma 90.000000
_cell_volume 1462.517580
_symmetry_space_group_name_H-M "P 21/M"
_symmetry_group_IT_number 11
_symmetry_cell_setting 'monoclinic'
loop_
_space_group_symop_operation_xyz
x,y,z
-x,1/2+y,-z
-x,-y,-z
x,1/2-y,z
loop_
_atom_site_type_symbol
_atom_site_label
_atom_site_fract_x
_atom_site_fract_y
_atom_site_fract_z
Si Si1 0.981739 0.571889 0.800952
Si Si2 0.436598 0.574865 0.276783
Si Si3 0.810321 0.928532 0.553359
Si Si4 0.046914 0.927085 0.600257
Si Si5 0.862682 0.927939 0.859984
Si Si6 0.644672 0.425006 0.929002
Si Si7 0.577581 0.426537 0.116836
O O1 0.980882 0.750000 0.799125
O O2 0.882072 0.505833 0.670648
O O3 0.894817 0.515329 0.807954
O O4 0.171851 0.516710 0.927317
O O5 0.418792 0.750000 0.281468
O O6 0.622597 0.515547 0.415801
O O7 0.319972 0.481248 0.245287
O O8 0.385186 0.542356 0.167433
O O9 0.817894 0.750000 0.559240
O O10 0.921139 0.989525 0.569276
O O11 0.030942 0.750000 0.581384
O O12 0.230915 0.974698 0.747695
O O13 0.000000 0.000000 0.500000
O O14 0.877901 0.750000 0.876116
O O15 0.000000 0.000000 0.000000
O O16 0.621719 0.250000 0.929853
O O17 0.512380 0.518446 0.879304
O O18 0.557853 0.250000 0.096963
O O19 0.500000 0.500000 0.000000
#
# Coordination Sequence:
#
# PCOD8072232 Si02
#       7
#     4   4   4   4   4   4   4
#     4   9  18  34  56  80 109 148 187 226 275 333
#     4  10  20  35  57  84 110 142 184 228 276 333
#     4   9  18  34  56  80 108 145 187 224 271 336
#     4  10  21  38  60  83 111 150 192 235 282 340
#     4  11  21  36  58  83 112 145 185 230 278 331
#     4  10  19  35  57  79 109 149 191 231 279 336
#     4  11  23  37  56  85 116 148 191 239 289 340
#
# _framework density 19.145068999999999
#
# number of rings (size 3 to 8) (size 9 to 14) (size 15 to 20)
#    0.000    2.000    1.429    2.571    0.000    5.714 
#    0.000    0.714    0.000    3.429    0.000    0.000 
#    0.000    0.000    0.000    0.000    0.000    0.000 
#
# Total GULP energy -347279.864423 kJ/mol
# GULP energy per Si atom -12402.852301 kJ/mol
# Density = 1.910149 g / cm^3
# Si number density = 19.145069 Si / 1000 Ang^3
#
#
#
# Elastic Constant Matrix: (Units=GPa)
#
#
# Indices 1 2 3 4 5 6 
#
# 1 152.5748 35.7717 77.2750 0.0000 9.7066 0.0000
# 2 35.7717 39.8258 35.2793 0.0000 2.8738 0.0000
# 3 77.2750 35.2793 167.8228 0.0000 4.7504 0.0000
# 4 0.0000 0.0000 0.0000 22.1222 0.0000 5.2941
# 5 9.7066 2.8738 4.7504 0.0000 42.0664 0.0000
# 6 0.0000 0.0000 0.0000 5.2941 0.0000 32.1987
#
#
#
# Elastic Compliance Matrix: (Units=1/GPa)
#
#
# Indices 1 2 3 4 5 6 
#
# 1 0.009592 -0.005695 -0.003178 0.000000 -0.001465 0.000000
# 2 -0.005695 0.034316 -0.004577 0.000000 -0.000513 0.000000
# 3 -0.003178 -0.004577 0.008381 0.000000 0.000100 0.000000
# 4 0.000000 0.000000 0.000000 0.047055 0.000000 -0.007737
# 5 -0.001465 -0.000513 0.000100 0.000000 0.024134 0.000000
# 6 0.000000 0.000000 0.000000 -0.007737 0.000000 0.032329
#
#
# Mechanical properties :
#
#
# Convention : Reuss Voigt Hill
#
# Bulk Modulus (GPa) = 39.38613 72.98615 56.18614
# Shear Modulus (GPa) = 26.15460 33.40395 29.77927
#
# Velocity S-wave (km/s) = 3.70013 4.18159 3.94820
# Velocity P-wave (km/s) = 6.23472 7.84345 7.08489
#
# Compressibility (1/GPa) = 0.02538965
#
# Stress axis : x y z
#
# Youngs Moduli (GPa) = 104.25155 29.14097 119.31094
#
# Poissons Ratio (x) = 0.16595 0.37919
# Poissons Ratio (y) = 0.59367 0.54610
# Poissons Ratio (z) = 0.33133 0.13338
#
# Static dielectric constant tensor:
#      x y z
#    x 3.749410 0.000000 0.030830 
#    y 0.000000 3.234450 0.000000 
#    z 0.030830 0.000000 3.723360 
# 
# 
# High freq. dielectric constant tensor:
#      x y z
#    x 1.761330 0.000000 0.002340 
#    y 0.000000 1.711190 0.000000 
#    z 0.002340 0.000000 1.759810 
# 
# From -- ./inp_files/54538.got.cif
#   From: 2010.06.25/outbox.cif.g09.slc.cpg/sg11_28_cif.got.tgz:54538.got - 2010.06.27 23:14:04.
