data_PCOD8072985
_publ_section_title
;
Structure prediction by ZEFSAII (Michael W. Deem and Ramdas Pophale) SiO2 
 PCOD8072985
Probable space group: P 21/M
;
_chemical_formula_sum "Si O2"
_cell_formula_units_Z 24
_cell_length_a 23.829701
_cell_length_b 9.309796
_cell_length_c 17.411255
_cell_angle_alpha 90.000000
_cell_angle_beta 20.915197
_cell_angle_gamma 90.000000
_cell_volume 1378.922133
_symmetry_space_group_name_H-M "P 21/M"
_symmetry_group_IT_number 11
_symmetry_cell_setting 'monoclinic'
loop_
_space_group_symop_operation_xyz
x,y,z
-x,1/2+y,-z
-x,-y,-z
x,1/2-y,z
loop_
_atom_site_type_symbol
_atom_site_label
_atom_site_fract_x
_atom_site_fract_y
_atom_site_fract_z
Si Si1 0.942525 0.917063 0.809035
Si Si2 0.288051 0.916998 0.322291
Si Si3 0.331456 0.087196 0.959815
Si Si4 0.426995 0.582757 0.980912
Si Si5 0.254852 0.585559 0.831567
Si Si6 0.484742 0.587006 0.416764
O O1 0.944422 0.750000 0.824794
O O2 0.112397 0.970609 0.564219
O O3 0.816724 0.954978 0.903942
O O4 0.897021 0.995231 0.947488
O O5 0.311678 0.750000 0.311498
O O6 0.321527 0.948227 0.190336
O O7 0.405087 0.005734 0.226603
O O8 0.313598 0.250000 0.013125
O O9 0.493683 0.070575 0.702886
O O10 0.332442 0.980228 0.029901
O O11 0.456621 0.750000 0.930051
O O12 0.219859 0.750000 0.896434
O O13 0.304068 0.566296 0.677981
O O14 0.407227 0.533197 0.682982
O O15 0.541313 0.750000 0.366973
#
# Coordination Sequence:
#
# PCOD8072985 Si02
#       6
#     4   4   4   4   4   4
#     4   9  18  32  49  70  96 126 158 190 231 283
#     4   9  19  36  53  67  90 126 160 190 233 287
#     4   9  17  30  48  70  97 127 155 186 229 279
#     4  10  20  33  50  72  94 119 157 199 234 275
#     4   9  15  24  42  68  95 122 154 193 231 267
#     4   8  15  27  42  63  94 129 158 184 224 279
#
# _framework density 17.404899
#
# number of rings (size 3 to 8) (size 9 to 14) (size 15 to 20)
#    0.000    3.000    0.000    2.000    0.000    5.333 
#    0.000    0.000    0.000    1.000    0.000    0.000 
#    0.000    0.000    0.000    0.000    0.000    0.000 
#
# Total GULP energy -297408.073838 kJ/mol
# GULP energy per Si atom -12392.003077 kJ/mol
# Density = 1.736528 g / cm^3
# Si number density = 17.404899 Si / 1000 Ang^3
#
#
#
# Elastic Constant Matrix: (Units=GPa)
#
#
# Indices 1 2 3 4 5 6 
#
# 1 17.3496 14.4175 30.8022 0.0000 0.8272 0.0000
# 2 14.4175 57.6154 43.8456 0.0000 2.2581 0.0000
# 3 30.8022 43.8456 138.2665 0.0000 11.0026 0.0000
# 4 0.0000 0.0000 0.0000 27.1228 0.0000 4.1625
# 5 0.8272 2.2581 11.0026 0.0000 13.9751 0.0000
# 6 0.0000 0.0000 0.0000 4.1625 0.0000 27.5468
#
#
#
# Elastic Compliance Matrix: (Units=1/GPa)
#
#
# Indices 1 2 3 4 5 6 
#
# 1 0.101808 -0.010502 -0.020275 0.000000 0.011633 0.000000
# 2 -0.010502 0.024021 -0.005354 0.000000 0.000955 0.000000
# 3 -0.020275 -0.005354 0.014170 0.000000 -0.009091 0.000000
# 4 0.000000 0.000000 0.000000 0.037745 0.000000 -0.005703
# 5 0.011633 0.000955 -0.009091 0.000000 0.077870 0.000000
# 6 0.000000 0.000000 0.000000 -0.005703 0.000000 0.037164
#
#
# Mechanical properties :
#
#
# Convention : Reuss Voigt Hill
#
# Bulk Modulus (GPa) = 14.76313 43.48468 29.12390
# Shear Modulus (GPa) = 12.89923 22.00669 17.45296
#
# Velocity S-wave (km/s) = 2.72532 3.55969 3.17008
# Velocity P-wave (km/s) = 4.28996 6.47562 5.49260
#
# Compressibility (1/GPa) = 0.06773633
#
# Stress axis : x y z
#
# Youngs Moduli (GPa) = 9.82244 41.62963 70.56959
#
# Poissons Ratio (x) = 0.43721 1.43083
# Poissons Ratio (y) = 0.10316 0.37781
# Poissons Ratio (z) = 0.19915 0.22288
#
# Static dielectric constant tensor:
#      x y z
#    x 2.990170 0.000000 0.369570 
#    y 0.000000 3.257250 0.000000 
#    z 0.369570 0.000000 3.499490 
# 
# 
# High freq. dielectric constant tensor:
#      x y z
#    x 1.634820 0.000000 0.032680 
#    y 0.000000 1.677490 0.000000 
#    z 0.032680 0.000000 1.671790 
# 
# From -- ./inp_files/23765.got.cif
#   From: 2010.06.25/outbox.cif.g09.slc.cpg/sg11_12_cif.got.tgz:23765.got - 2010.06.27 23:14:04.
