data_PCOD8072859
_publ_section_title
;
Structure prediction by ZEFSAII (Michael W. Deem and Ramdas Pophale) SiO2 
 PCOD8072859
Probable space group: P 21/M
;
_chemical_formula_sum "Si O2"
_cell_formula_units_Z 32
_cell_length_a 15.488846
_cell_length_b 9.083193
_cell_length_c 15.255241
_cell_angle_alpha 90.000000
_cell_angle_beta 124.075700
_cell_angle_gamma 90.000000
_cell_volume 1777.719795
_symmetry_space_group_name_H-M "P 21/M"
_symmetry_group_IT_number 11
_symmetry_cell_setting 'monoclinic'
loop_
_space_group_symop_operation_xyz
x,y,z
-x,1/2+y,-z
-x,-y,-z
x,1/2-y,z
loop_
_atom_site_type_symbol
_atom_site_label
_atom_site_fract_x
_atom_site_fract_y
_atom_site_fract_z
Si Si1 0.152998 0.079328 0.039086
Si Si2 0.578275 0.915895 0.242551
Si Si3 0.658046 0.075551 0.930915
Si Si4 0.392324 0.082136 0.934967
Si Si5 0.916414 0.081861 0.651939
Si Si6 0.035913 0.079957 0.150651
Si Si7 0.919671 0.919893 0.392911
Si Si8 0.237928 0.577499 0.592417
O O1 0.169375 0.250000 0.025169
O O2 0.116466 0.056447 0.117630
O O3 0.260939 0.990884 0.092300
O O4 0.068298 0.013849 0.923955
O O5 0.578829 0.750000 0.279390
O O6 0.458609 0.969829 0.166057
O O7 0.640844 0.922645 0.185400
O O8 0.642884 0.018625 0.346964
O O9 0.670038 0.250000 0.944896
O O10 0.684049 0.003628 0.041216
O O11 0.403446 0.250000 0.973616
O O12 0.500000 0.000000 0.000000
O O13 0.897128 0.250000 0.670195
O O14 0.827423 0.034576 0.531458
O O15 0.033609 0.065968 0.678631
O O16 0.906409 0.975834 0.729346
O O17 0.004263 0.250000 0.142442
O O18 0.908874 0.750000 0.413787
O O19 0.810334 0.001052 0.347591
O O20 0.000000 0.000000 0.500000
O O21 0.237420 0.750000 0.607462
#
# Coordination Sequence:
#
# PCOD8072859 Si02
#       8
#     4   4   4   4   4   4   4   4
#     4  10  21  37  56  78 103 129 160 204 257 308
#     4   9  19  33  49  72 103 138 173 209 249 291
#     4  10  20  34  53  77 103 134 173 212 254 304
#     4   9  17  30  47  69  99 133 169 208 248 290
#     4   9  19  34  51  74 103 134 168 208 254 299
#     4  10  21  36  56  80 101 127 164 204 252 309
#     4   9  17  30  47  68  97 131 167 205 245 288
#     4  10  20  32  49  74 103 138 176 209 247 295
#
# _framework density 18.000585999999998
#
# number of rings (size 3 to 8) (size 9 to 14) (size 15 to 20)
#    0.000    2.500    0.000    3.750    0.000    8.500 
#    0.000    1.250    0.000    0.750    0.000    0.000 
#    0.000    0.000    0.000    0.000    0.000    0.000 
#
# Total GULP energy -396602.790876 kJ/mol
# GULP energy per Si atom -12393.837215 kJ/mol
# Density = 1.795962 g / cm^3
# Si number density = 18.000586 Si / 1000 Ang^3
#
#
#
# Elastic Constant Matrix: (Units=GPa)
#
#
# Indices 1 2 3 4 5 6 
#
# 1 88.2368 54.2541 45.1202 0.0000 8.4835 0.0000
# 2 54.2541 120.7047 52.6309 0.0000 2.9979 0.0000
# 3 45.1202 52.6309 81.8726 0.0000 5.1863 0.0000
# 4 0.0000 0.0000 0.0000 30.3235 0.0000 0.6450
# 5 8.4835 2.9979 5.1863 0.0000 21.3374 0.0000
# 6 0.0000 0.0000 0.0000 0.6450 0.0000 33.6786
#
#
#
# Elastic Compliance Matrix: (Units=1/GPa)
#
#
# Indices 1 2 3 4 5 6 
#
# 1 0.018358 -0.005355 -0.006358 0.000000 -0.005001 0.000000
# 2 -0.005355 0.013074 -0.005557 0.000000 0.001643 0.000000
# 3 -0.006358 -0.005557 0.019379 0.000000 -0.001402 0.000000
# 4 0.000000 0.000000 0.000000 0.032991 0.000000 -0.000632
# 5 -0.005001 0.001643 -0.001402 0.000000 0.048964 0.000000
# 6 0.000000 0.000000 0.000000 -0.000632 0.000000 0.029705
#
#
# Mechanical properties :
#
#
# Convention : Reuss Voigt Hill
#
# Bulk Modulus (GPa) = 61.46074 66.09160 63.77617
# Shear Modulus (GPa) = 24.69932 26.32182 25.51057
#
# Velocity S-wave (km/s) = 3.70826 3.82812 3.76867
# Velocity P-wave (km/s) = 7.24933 7.50569 7.37862
#
# Compressibility (1/GPa) = 0.01627055
#
# Stress axis : x y z
#
# Youngs Moduli (GPa) = 54.47326 76.48756 51.60175
#
# Poissons Ratio (x) = 0.40959 0.32807
# Poissons Ratio (y) = 0.29170 0.28677
# Poissons Ratio (z) = 0.34633 0.42507
#
# Static dielectric constant tensor:
#      x y z
#    x 3.388620 0.000000 -0.016600 
#    y 0.000000 3.483900 0.000000 
#    z -0.016600 0.000000 3.193260 
# 
# 
# High freq. dielectric constant tensor:
#      x y z
#    x 1.681020 0.000000 0.008120 
#    y 0.000000 1.712260 0.000000 
#    z 0.008120 0.000000 1.676390 
# 
# From -- ./inp_files/51749.got.cif
#   From: 2010.06.25/outbox.cif.g09.slc.cpg/sg11_26_cif.got.tgz:51749.got - 2010.06.27 23:14:04.
