data_PCOD8072283
_publ_section_title
;
Structure prediction by ZEFSAII (Michael W. Deem and Ramdas Pophale) SiO2 
 PCOD8072283
Probable space group: P 21/M
;
_chemical_formula_sum "Si O2"
_cell_formula_units_Z 32
_cell_length_a 32.391593
_cell_length_b 8.719715
_cell_length_c 13.721957
_cell_angle_alpha 90.000000
_cell_angle_beta 155.237076
_cell_angle_gamma 90.000000
_cell_volume 1623.395290
_symmetry_space_group_name_H-M "P 21/M"
_symmetry_group_IT_number 11
_symmetry_cell_setting 'monoclinic'
loop_
_space_group_symop_operation_xyz
x,y,z
-x,1/2+y,-z
-x,-y,-z
x,1/2-y,z
loop_
_atom_site_type_symbol
_atom_site_label
_atom_site_fract_x
_atom_site_fract_y
_atom_site_fract_z
Si Si1 0.459246 0.567953 0.129169
Si Si2 0.839807 0.431600 0.012479
Si Si3 0.336196 0.567531 0.498968
Si Si4 0.951346 0.931082 0.619797
Si Si5 0.295427 0.932280 0.628460
Si Si6 0.084338 0.568424 0.247481
Si Si7 0.416396 0.929958 0.254430
Si Si8 0.199212 0.568494 0.852415
O O1 0.467356 0.750000 0.140945
O O2 0.563315 0.495855 0.327725
O O3 0.426804 0.510825 0.166271
O O4 0.378241 0.504793 0.879681
O O5 0.836648 0.250000 0.003517
O O6 0.825437 0.488676 0.091846
O O7 0.943690 0.491427 0.194459
O O8 0.752528 0.496938 0.757748
O O9 0.339391 0.750000 0.503880
O O10 0.319776 0.505413 0.573053
O O11 0.952710 0.750000 0.641582
O O12 0.928382 0.017961 0.669455
O O13 0.869397 0.973303 0.366041
O O14 0.294659 0.750000 0.628213
O O15 0.189018 0.994545 0.433252
O O16 0.079840 0.750000 0.230885
O O17 0.000000 0.500000 0.000000
O O18 0.429220 0.750000 0.285856
O O19 0.500000 0.000000 0.500000
O O20 0.310804 0.979531 0.069168
O O21 0.181996 0.750000 0.801091
#
# Coordination Sequence:
#
# PCOD8072283 Si02
#       8
#     4   4   4   4   4   4   4   4
#     4  10  20  35  53  79 111 142 175 220 273 324
#     4   9  19  35  56  80 110 145 184 226 274 329
#     4  10  19  35  58  81 104 140 183 222 265 322
#     4  11  22  37  57  84 114 145 182 229 277 327
#     4   9  19  36  58  79 107 145 181 216 267 327
#     4  11  22  39  61  84 111 147 186 227 274 328
#     4  10  21  36  56  79 108 144 185 229 276 326
#     4  10  20  37  58  80 108 148 189 227 273 329
#
# _framework density 19.711772
#
# number of rings (size 3 to 8) (size 9 to 14) (size 15 to 20)
#    0.000    2.000    0.000    3.750    0.000    6.000 
#    0.000    7.500    0.000    0.000    0.000    0.000 
#    0.000    0.000    0.000    0.000    0.000    0.000 
#
# Total GULP energy -396902.078432 kJ/mol
# GULP energy per Si atom -12403.189951 kJ/mol
# Density = 1.966691 g / cm^3
# Si number density = 19.711772 Si / 1000 Ang^3
#
#
#
# Elastic Constant Matrix: (Units=GPa)
#
#
# Indices 1 2 3 4 5 6 
#
# 1 110.4144 18.7332 17.6146 0.0000 0.7451 0.0000
# 2 18.7332 28.6249 20.5679 0.0000 2.4209 0.0000
# 3 17.6146 20.5679 118.4866 0.0000 -1.0043 0.0000
# 4 0.0000 0.0000 0.0000 33.9782 0.0000 0.9455
# 5 0.7451 2.4209 -1.0043 0.0000 47.5696 0.0000
# 6 0.0000 0.0000 0.0000 0.9455 0.0000 26.4491
#
#
#
# Elastic Compliance Matrix: (Units=1/GPa)
#
#
# Indices 1 2 3 4 5 6 
#
# 1 0.010206 -0.006402 -0.000405 0.000000 0.000157 0.000000
# 2 -0.006402 0.044156 -0.006733 0.000000 -0.002289 0.000000
# 3 -0.000405 -0.006733 0.009673 0.000000 0.000553 0.000000
# 4 0.000000 0.000000 0.000000 0.029460 0.000000 -0.001053
# 5 0.000157 -0.002289 0.000553 0.000000 0.021148 0.000000
# 6 0.000000 0.000000 0.000000 -0.001053 0.000000 0.037846
#
#
# Mechanical properties :
#
#
# Convention : Reuss Voigt Hill
#
# Bulk Modulus (GPa) = 27.05861 41.26192 34.16026
# Shear Modulus (GPa) = 26.05709 34.97340 30.51525
#
# Velocity S-wave (km/s) = 3.63975 4.21674 3.93882
# Velocity P-wave (km/s) = 5.60541 6.68476 6.16873
#
# Compressibility (1/GPa) = 0.03695681
#
# Stress axis : x y z
#
# Youngs Moduli (GPa) = 97.97699 22.64720 103.37720
#
# Poissons Ratio (x) = 0.14499 0.04183
# Poissons Ratio (y) = 0.62725 0.69599
# Poissons Ratio (z) = 0.03965 0.15247
#
# Static dielectric constant tensor:
#      x y z
#    x 3.720170 0.000000 0.062810 
#    y 0.000000 3.323440 0.000000 
#    z 0.062810 0.000000 3.775350 
# 
# 
# High freq. dielectric constant tensor:
#      x y z
#    x 1.790490 0.000000 -0.000830 
#    y 0.000000 1.736300 0.000000 
#    z -0.000830 0.000000 1.788890 
# 
# From -- ./inp_files/45310.got.cif
#   From: 2010.06.25/outbox.cif.g09.slc.cpg/sg11_23_cif.got.tgz:45310.got - 2010.06.27 23:14:04.
