data_PCOD8072438
_publ_section_title
;
Structure prediction by ZEFSAII (Michael W. Deem and Ramdas Pophale) SiO2 
 PCOD8072438
Probable space group: P 21/M
;
_chemical_formula_sum "Si O2"
_cell_formula_units_Z 28
_cell_length_a 19.658316
_cell_length_b 8.947177
_cell_length_c 16.856590
_cell_angle_alpha 90.000000
_cell_angle_beta 31.162116
_cell_angle_gamma 90.000000
_cell_volume 1534.192884
_symmetry_space_group_name_H-M "P 21/M"
_symmetry_group_IT_number 11
_symmetry_cell_setting 'monoclinic'
loop_
_space_group_symop_operation_xyz
x,y,z
-x,1/2+y,-z
-x,-y,-z
x,1/2-y,z
loop_
_atom_site_type_symbol
_atom_site_label
_atom_site_fract_x
_atom_site_fract_y
_atom_site_fract_z
Si Si1 0.853739 0.575088 0.479771
Si Si2 0.850421 0.077131 0.807267
Si Si3 0.741825 0.573591 0.429143
Si Si4 0.022373 0.927218 0.893434
Si Si5 0.478546 0.924957 0.605594
Si Si6 0.215103 0.575784 0.954416
Si Si7 0.141093 0.074812 0.353584
O O1 0.866553 0.750000 0.454976
O O2 0.763135 0.514796 0.498366
O O3 0.789023 0.538805 0.630924
O O4 0.002496 0.511110 0.324869
O O5 0.857352 0.250000 0.777282
O O6 0.783715 0.993297 0.798082
O O7 0.763358 0.050890 0.972793
O O8 0.770189 0.750000 0.391782
O O9 0.837463 0.482882 0.276615
O O10 0.594258 0.533134 0.551001
O O11 0.023129 0.750000 0.900559
O O12 0.000000 0.000000 0.000000
O O13 0.908481 0.978132 0.947819
O O14 0.472736 0.750000 0.596271
O O15 0.343461 0.981467 0.779961
O O16 0.500000 0.000000 0.500000
O O17 0.185744 0.750000 0.966235
O O18 0.125560 0.250000 0.356812
O O19 0.000000 0.000000 0.500000
#
# Coordination Sequence:
#
# PCOD8072438 Si02
#       7
#     4   4   4   4   4   4   4
#     4   8  14  27  48  72 100 135 168 204 256 305
#     4   9  16  29  49  72 102 138 170 210 261 307
#     4  10  19  36  57  78 104 137 175 219 265 315
#     4  12  24  36  53  79 104 135 173 216 270 319
#     4  10  22  37  57  78 101 137 179 218 265 322
#     4  10  20  37  56  77 106 139 176 220 265 315
#     4   9  16  26  43  71 104 137 170 208 256 309
#
# _framework density 18.250640000000001
#
# number of rings (size 3 to 8) (size 9 to 14) (size 15 to 20)
#    0.000    2.286    1.429    3.429    0.000    4.000 
#    0.000    0.714    0.000    0.857    0.000    0.000 
#    0.000    0.000    0.000    0.000    0.000    0.571 
#
# Total GULP energy -347028.286277 kJ/mol
# GULP energy per Si atom -12393.867367 kJ/mol
# Density = 1.820910 g / cm^3
# Si number density = 18.250640 Si / 1000 Ang^3
#
#
#
# Elastic Constant Matrix: (Units=GPa)
#
#
# Indices 1 2 3 4 5 6 
#
# 1 98.3598 29.3159 25.5427 0.0000 25.5148 0.0000
# 2 29.3159 66.1981 23.5959 0.0000 7.8924 0.0000
# 3 25.5427 23.5959 70.2684 0.0000 12.0490 0.0000
# 4 0.0000 0.0000 0.0000 21.9369 0.0000 9.2886
# 5 25.5148 7.8924 12.0490 0.0000 33.8513 0.0000
# 6 0.0000 0.0000 0.0000 9.2886 0.0000 24.9362
#
#
#
# Elastic Compliance Matrix: (Units=1/GPa)
#
#
# Indices 1 2 3 4 5 6 
#
# 1 0.014429 -0.004538 -0.002170 0.000000 -0.009045 0.000000
# 2 -0.004538 0.018726 -0.004767 0.000000 0.000751 0.000000
# 3 -0.002170 -0.004767 0.017200 0.000000 -0.003375 0.000000
# 4 0.000000 0.000000 0.000000 0.054122 0.000000 -0.020160
# 5 -0.009045 0.000751 -0.003375 0.000000 0.037385 0.000000
# 6 0.000000 0.000000 0.000000 -0.020160 0.000000 0.047612
#
#
# Mechanical properties :
#
#
# Convention : Reuss Voigt Hill
#
# Bulk Modulus (GPa) = 36.49187 43.52614 40.00901
# Shear Modulus (GPa) = 22.56747 26.56965 24.56856
#
# Velocity S-wave (km/s) = 3.52025 3.81966 3.67301
# Velocity P-wave (km/s) = 6.04658 6.58437 6.32120
#
# Compressibility (1/GPa) = 0.02740336
#
# Stress axis : x y z
#
# Youngs Moduli (GPa) = 69.30364 53.40310 58.14114
#
# Poissons Ratio (x) = 0.24235 0.12618
# Poissons Ratio (y) = 0.31450 0.27717
# Poissons Ratio (z) = 0.15040 0.25459
#
# Static dielectric constant tensor:
#      x y z
#    x 3.987900 0.000000 0.412620 
#    y 0.000000 3.339830 0.000000 
#    z 0.412620 0.000000 3.332970 
# 
# 
# High freq. dielectric constant tensor:
#      x y z
#    x 1.716340 0.000000 0.030110 
#    y 0.000000 1.690300 0.000000 
#    z 0.030110 0.000000 1.682770 
# 
# From -- ./inp_files/61231.got.cif
#   From: 2010.06.25/outbox.cif.g09.slc.cpg/sg11_31_cif.got.tgz:61231.got - 2010.06.27 23:14:04.
