data_PCOD8072222
_publ_section_title
;
Structure prediction by ZEFSAII (Michael W. Deem and Ramdas Pophale) SiO2 
 PCOD8072222
Probable space group: P 21/M
;
_chemical_formula_sum "Si O2"
_cell_formula_units_Z 28
_cell_length_a 10.900830
_cell_length_b 11.852609
_cell_length_c 21.924659
_cell_angle_alpha 90.000000
_cell_angle_beta 30.930936
_cell_angle_gamma 90.000000
_cell_volume 1456.039891
_symmetry_space_group_name_H-M "P 21/M"
_symmetry_group_IT_number 11
_symmetry_cell_setting 'monoclinic'
loop_
_space_group_symop_operation_xyz
x,y,z
-x,1/2+y,-z
-x,-y,-z
x,1/2-y,z
loop_
_atom_site_type_symbol
_atom_site_label
_atom_site_fract_x
_atom_site_fract_y
_atom_site_fract_z
Si Si1 0.391003 0.621388 0.328015
Si Si2 0.369769 0.984297 0.467983
Si Si3 0.526910 0.918434 0.080733
Si Si4 0.689272 0.626276 0.878921
Si Si5 0.228306 0.878301 0.645997
Si Si6 0.146385 0.118437 0.945960
Si Si7 0.911041 0.125321 0.654056
O O1 0.320794 0.750000 0.370308
O O2 0.362011 0.554863 0.402410
O O3 0.660521 0.612669 0.189834
O O4 0.213391 0.568765 0.352623
O O5 0.344014 0.884985 0.528833
O O6 0.617333 0.049393 0.372289
O O7 0.142218 0.061422 0.578270
O O8 0.740424 0.892120 0.035527
O O9 0.281814 0.865656 0.209657
O O10 0.485650 0.052331 0.088652
O O11 0.590271 0.863488 0.989380
O O12 0.691838 0.750000 0.847793
O O13 0.957216 0.575480 0.763853
O O14 0.234244 0.750000 0.665760
O O15 0.031008 0.250000 0.991886
O O16 0.000000 0.000000 0.000000
O O17 0.995527 0.250000 0.600614
#
# Coordination Sequence:
#
# PCOD8072222 Si02
#       7
#     4   4   4   4   4   4   4
#     4   9  20  37  58  81 111 147 188 234 285 340
#     4  11  20  35  57  80 111 150 184 230 278 338
#     4  10  20  37  60  82 112 151 190 233 291 342
#     4  10  20  36  58  83 112 148 190 239 286 340
#     4  10  22  36  53  80 114 148 185 232 283 333
#     4  10  22  40  62  88 119 153 191 239 291 347
#     4  10  19  35  56  83 110 143 187 232 279 338
#
# _framework density 19.230242000000001
#
# number of rings (size 3 to 8) (size 9 to 14) (size 15 to 20)
#    0.000    2.000    1.429    3.429    2.000    0.571 
#    0.000    0.714    0.000    0.857    0.000    0.000 
#    0.000    0.000    0.000    0.000    0.000    0.000 
#
# Total GULP energy -346911.970409 kJ/mol
# GULP energy per Si atom -12389.713229 kJ/mol
# Density = 1.918647 g / cm^3
# Si number density = 19.230242 Si / 1000 Ang^3
#
#
#
# Elastic Constant Matrix: (Units=GPa)
#
#
# Indices 1 2 3 4 5 6 
#
# 1 54.9239 29.2057 24.5517 0.0000 8.0983 0.0000
# 2 29.2057 102.7005 24.6654 0.0000 -12.3560 0.0000
# 3 24.5517 24.6654 62.5308 0.0000 4.9345 0.0000
# 4 0.0000 0.0000 0.0000 16.4168 0.0000 -5.6451
# 5 8.0983 -12.3560 4.9345 0.0000 30.7171 0.0000
# 6 0.0000 0.0000 0.0000 -5.6451 0.0000 21.1043
#
#
#
# Elastic Compliance Matrix: (Units=1/GPa)
#
#
# Indices 1 2 3 4 5 6 
#
# 1 0.026178 -0.006809 -0.006920 0.000000 -0.008529 0.000000
# 2 -0.006809 0.013368 -0.003206 0.000000 0.007688 0.000000
# 3 -0.006920 -0.003206 0.020188 0.000000 -0.002708 0.000000
# 4 0.000000 0.000000 0.000000 0.067083 0.000000 0.017944
# 5 -0.008529 0.007688 -0.002708 0.000000 0.038331 0.000000
# 6 0.000000 0.000000 0.000000 0.017944 0.000000 0.052183
#
#
# Mechanical properties :
#
#
# Convention : Reuss Voigt Hill
#
# Bulk Modulus (GPa) = 38.66329 41.88897 40.27613
# Shear Modulus (GPa) = 19.24386 23.09648 21.17017
#
# Velocity S-wave (km/s) = 3.16683 3.46938 3.32155
# Velocity P-wave (km/s) = 5.78972 6.15458 5.97494
#
# Compressibility (1/GPa) = 0.02586433
#
# Stress axis : x y z
#
# Youngs Moduli (GPa) = 38.19960 74.80393 49.53543
#
# Poissons Ratio (x) = 0.50932 0.34277
# Poissons Ratio (y) = 0.26009 0.15883
# Poissons Ratio (z) = 0.26433 0.23986
#
# Static dielectric constant tensor:
#      x y z
#    x 3.429420 0.000000 -0.040130 
#    y 0.000000 3.683900 0.000000 
#    z -0.040130 0.000000 3.493730 
# 
# 
# High freq. dielectric constant tensor:
#      x y z
#    x 1.740220 0.000000 0.006380 
#    y 0.000000 1.751570 0.000000 
#    z 0.006380 0.000000 1.746230 
# 
# From -- ./inp_files/68522.got.cif
#   From: 2010.06.25/outbox.cif.g09.slc.cpg/sg11_35_cif.got.tgz:68522.got - 2010.06.27 23:14:04.
