data_PCOD8072701
_publ_section_title
;
Structure prediction by ZEFSAII (Michael W. Deem and Ramdas Pophale) SiO2 
 PCOD8072701
Probable space group: P 21/M
;
_chemical_formula_sum "Si O2"
_cell_formula_units_Z 32
_cell_length_a 9.268076
_cell_length_b 14.983626
_cell_length_c 10.758792
_cell_angle_alpha 90.000000
_cell_angle_beta 87.698846
_cell_angle_gamma 90.000000
_cell_volume 1492.861988
_symmetry_space_group_name_H-M "P 21/M"
_symmetry_group_IT_number 11
_symmetry_cell_setting 'monoclinic'
loop_
_space_group_symop_operation_xyz
x,y,z
-x,1/2+y,-z
-x,-y,-z
x,1/2-y,z
loop_
_atom_site_type_symbol
_atom_site_label
_atom_site_fract_x
_atom_site_fract_y
_atom_site_fract_z
Si Si1 0.292910 0.008892 0.946690
Si Si2 0.788441 0.472127 0.782708
Si Si3 0.721781 0.146701 0.390683
Si Si4 0.390361 0.650020 0.339763
Si Si5 0.588518 0.613215 0.683522
Si Si6 0.690601 0.848972 0.418477
Si Si7 0.507393 0.850923 0.948608
Si Si8 0.885054 0.987926 0.290445
O O1 0.367978 0.912523 0.922414
O O2 0.180299 0.029795 0.843096
O O3 0.203460 0.007611 0.078134
O O4 0.404919 0.092436 0.949875
O O5 0.703993 0.377457 0.778571
O O6 0.676101 0.521655 0.693699
O O7 0.945016 0.472241 0.718014
O O8 0.734104 0.250000 0.345143
O O9 0.716612 0.140576 0.539051
O O10 0.580314 0.099456 0.338945
O O11 0.857367 0.089324 0.336702
O O12 0.437983 0.750000 0.316688
O O13 0.547989 0.605277 0.359875
O O14 0.661377 0.665695 0.567125
O O15 0.599467 0.661592 0.817803
O O16 0.729121 0.750000 0.365758
O O17 0.822162 0.915985 0.389417
O O18 0.470175 0.750000 0.997727
#
# Coordination Sequence:
#
# PCOD8072701 Si02
#       8
#     4   4   4   4   4   4   4   4
#     4  10  24  40  58  89 117 157 204 244 291 351
#     4  11  24  40  58  84 124 167 201 241 294 353
#     4  10  20  38  64  90 118 153 199 253 302 352
#     4   9  20  38  60  89 121 156 201 250 299 351
#     4  10  19  38  64  90 116 149 198 248 302 352
#     4  10  22  38  63  93 122 156 196 248 302 355
#     4  10  20  38  66  91 113 144 198 261 300 339
#     4  12  24  40  59  86 127 165 196 238 298 362
#
# _framework density 21.435337000000001
#
# number of rings (size 3 to 8) (size 9 to 14) (size 15 to 20)
#    0.000    1.750    1.250    3.750    3.500    5.500 
#    0.000    5.000    0.000    4.500    0.000    0.000 
#    0.000    0.000    0.000    0.000    0.000    0.000 
#
# Total GULP energy -396515.540456 kJ/mol
# GULP energy per Si atom -12391.110639 kJ/mol
# Density = 2.138655 g / cm^3
# Si number density = 21.435337 Si / 1000 Ang^3
#
#
#
# Elastic Constant Matrix: (Units=GPa)
#
#
# Indices 1 2 3 4 5 6 
#
# 1 92.7086 47.2644 4.4376 0.0000 -12.2711 0.0000
# 2 47.2644 110.1008 20.1586 0.0000 -6.0834 0.0000
# 3 4.4376 20.1586 41.2668 0.0000 3.0546 0.0000
# 4 0.0000 0.0000 0.0000 20.0380 0.0000 -0.5458
# 5 -12.2711 -6.0834 3.0546 0.0000 28.8247 0.0000
# 6 0.0000 0.0000 0.0000 -0.5458 0.0000 8.2676
#
#
#
# Elastic Compliance Matrix: (Units=1/GPa)
#
#
# Indices 1 2 3 4 5 6 
#
# 1 0.014507 -0.006166 0.001100 0.000000 0.004758 0.000000
# 2 -0.006166 0.012799 -0.005639 0.000000 0.000674 0.000000
# 3 0.001100 -0.005639 0.027135 0.000000 -0.003597 0.000000
# 4 0.000000 0.000000 0.000000 0.049995 0.000000 0.003300
# 5 0.004758 0.000674 -0.003597 0.000000 0.037241 0.000000
# 6 0.000000 0.000000 0.000000 0.003300 0.000000 0.121172
#
#
# Mechanical properties :
#
#
# Convention : Reuss Voigt Hill
#
# Bulk Modulus (GPa) = 30.27467 43.08860 36.68164
# Shear Modulus (GPa) = 16.93354 22.90709 19.92032
#
# Velocity S-wave (km/s) = 2.81371 3.27258 3.05178
# Velocity P-wave (km/s) = 4.97095 5.86729 5.43762
#
# Compressibility (1/GPa) = 0.03303091
#
# Stress axis : x y z
#
# Youngs Moduli (GPa) = 68.93109 78.12889 36.85241
#
# Poissons Ratio (x) = 0.48176 -0.04054
# Poissons Ratio (y) = 0.42504 0.20782
# Poissons Ratio (z) = -0.07582 0.44059
#
# Static dielectric constant tensor:
#      x y z
#    x 3.508160 0.000000 -0.018110 
#    y 0.000000 3.895200 0.000000 
#    z -0.018110 0.000000 3.939930 
# 
# 
# High freq. dielectric constant tensor:
#      x y z
#    x 1.807940 0.000000 -0.001980 
#    y 0.000000 1.840500 0.000000 
#    z -0.001980 0.000000 1.848930 
# 
# From -- ./inp_files/31862.got.cif
#   From: 2010.06.25/outbox.cif.g09.slc.cpg/sg11_16_cif.got.tgz:31862.got - 2010.06.27 23:14:04.
