data_PCOD8072148
_publ_section_title
;
Structure prediction by ZEFSAII (Michael W. Deem and Ramdas Pophale) SiO2 
 PCOD8072148
Probable space group: P 21/M
;
_chemical_formula_sum "Si O2"
_cell_formula_units_Z 32
_cell_length_a 14.563867
_cell_length_b 9.331748
_cell_length_c 12.842244
_cell_angle_alpha 90.000000
_cell_angle_beta 78.977616
_cell_angle_gamma 90.000000
_cell_volume 1713.145247
_symmetry_space_group_name_H-M "P 21/M"
_symmetry_group_IT_number 11
_symmetry_cell_setting 'monoclinic'
loop_
_space_group_symop_operation_xyz
x,y,z
-x,1/2+y,-z
-x,-y,-z
x,1/2-y,z
loop_
_atom_site_type_symbol
_atom_site_label
_atom_site_fract_x
_atom_site_fract_y
_atom_site_fract_z
Si Si1 0.923253 0.418318 0.321654
Si Si2 0.591436 0.916757 0.446472
Si Si3 0.148377 0.909085 0.873956
Si Si4 0.863787 0.584437 0.708713
Si Si5 0.790483 0.421831 0.923371
Si Si6 0.414899 0.914327 0.972926
Si Si7 0.214048 0.083716 0.496206
Si Si8 0.639469 0.093004 0.242379
O O1 0.898164 0.250000 0.326356
O O2 0.912878 0.482416 0.205162
O O3 0.851390 0.493671 0.413925
O O4 0.027660 0.446884 0.338759
O O5 0.568130 0.750000 0.448921
O O6 0.677203 0.950542 0.505948
O O7 0.500000 0.000000 0.500000
O O8 0.619229 0.965765 0.325572
O O9 0.108369 0.750000 0.898047
O O10 0.253041 0.905593 0.809967
O O11 0.149257 0.981317 0.989238
O O12 0.848069 0.750000 0.742341
O O13 0.830840 0.486277 0.809856
O O14 0.805841 0.541337 0.618836
O O15 0.795758 0.250000 0.919855
O O16 0.683237 0.472229 0.959640
O O17 0.426910 0.750000 0.002024
O O18 0.420472 0.935038 0.847844
O O19 0.500000 0.000000 0.000000
O O20 0.191080 0.250000 0.521028
O O21 0.612671 0.250000 0.295214
#
# Coordination Sequence:
#
# PCOD8072148 Si02
#       8
#     4   4   4   4   4   4   4   4
#     4  10  19  34  60  85 105 141 188 224 266 329
#     4  11  23  37  55  80 108 141 181 227 279 330
#     4   8  15  31  56  80 104 136 175 222 266 312
#     4  10  22  37  53  80 116 148 180 223 273 325
#     4   9  19  36  54  76 109 146 182 220 270 325
#     4   9  19  34  55  81 107 141 182 225 274 327
#     4  10  22  39  55  77 113 146 178 228 280 323
#     4   9  17  34  56  76 104 140 176 221 275 322
#
# _framework density 18.679093000000002
#
# number of rings (size 3 to 8) (size 9 to 14) (size 15 to 20)
#    0.000    2.500    1.250    2.250    0.000    4.000 
#    0.000    6.250    0.000    0.000    0.000    0.000 
#    0.000    0.000    0.000    0.000    0.000    0.000 
#
# Total GULP energy -396629.012129 kJ/mol
# GULP energy per Si atom -12394.656629 kJ/mol
# Density = 1.863658 g / cm^3
# Si number density = 18.679093 Si / 1000 Ang^3
#
#
#
# Elastic Constant Matrix: (Units=GPa)
#
#
# Indices 1 2 3 4 5 6 
#
# 1 90.5629 42.0337 56.2410 0.0000 19.8321 0.0000
# 2 42.0337 58.4702 49.9394 0.0000 3.6521 0.0000
# 3 56.2410 49.9394 128.5500 0.0000 9.2077 0.0000
# 4 0.0000 0.0000 0.0000 29.9499 0.0000 -2.9519
# 5 19.8321 3.6521 9.2077 0.0000 25.6799 0.0000
# 6 0.0000 0.0000 0.0000 -2.9519 0.0000 27.4519
#
#
#
# Elastic Compliance Matrix: (Units=1/GPa)
#
#
# Indices 1 2 3 4 5 6 
#
# 1 0.021932 -0.011304 -0.004214 0.000000 -0.013819 0.000000
# 2 -0.011304 0.031422 -0.007766 0.000000 0.007046 0.000000
# 3 -0.004214 -0.007766 0.012652 0.000000 -0.000178 0.000000
# 4 0.000000 0.000000 0.000000 0.033747 0.000000 0.003629
# 5 -0.013819 0.007046 -0.000178 0.000000 0.048675 0.000000
# 6 0.000000 0.000000 0.000000 0.003629 0.000000 0.036818
#
#
# Mechanical properties :
#
#
# Convention : Reuss Voigt Hill
#
# Bulk Modulus (GPa) = 51.44579 63.77904 57.61242
# Shear Modulus (GPa) = 20.98255 25.24094 23.11175
#
# Velocity S-wave (km/s) = 3.35523 3.67998 3.52135
# Velocity P-wave (km/s) = 6.52777 7.23015 6.88792
#
# Compressibility (1/GPa) = 0.01943793
#
# Stress axis : x y z
#
# Youngs Moduli (GPa) = 45.59561 31.82473 79.03695
#
# Poissons Ratio (x) = 0.35976 0.33305
# Poissons Ratio (y) = 0.51543 0.61379
# Poissons Ratio (z) = 0.19214 0.24715
#
# Static dielectric constant tensor:
#      x y z
#    x 3.496380 0.000000 0.301480 
#    y 0.000000 3.233710 0.000000 
#    z 0.301480 0.000000 4.223280 
# 
# 
# High freq. dielectric constant tensor:
#      x y z
#    x 1.727070 0.000000 0.015330 
#    y 0.000000 1.705390 0.000000 
#    z 0.015330 0.000000 1.732540 
# 
# From -- ./inp_files/38115.got.cif
#   From: 2010.06.25/outbox.cif.g09.slc.cpg/sg11_20_cif.got.tgz:38115.got - 2010.06.27 23:14:04.
