data_PCOD8072900
_publ_section_title
;
Structure prediction by ZEFSAII (Michael W. Deem and Ramdas Pophale) SiO2 
 PCOD8072900
Probable space group: P 21/M
;
_chemical_formula_sum "Si O2"
_cell_formula_units_Z 24
_cell_length_a 13.820582
_cell_length_b 11.091841
_cell_length_c 13.757734
_cell_angle_alpha 90.000000
_cell_angle_beta 31.817540
_cell_angle_gamma 90.000000
_cell_volume 1111.899194
_symmetry_space_group_name_H-M "P 21/M"
_symmetry_group_IT_number 11
_symmetry_cell_setting 'monoclinic'
loop_
_space_group_symop_operation_xyz
x,y,z
-x,1/2+y,-z
-x,-y,-z
x,1/2-y,z
loop_
_atom_site_type_symbol
_atom_site_label
_atom_site_fract_x
_atom_site_fract_y
_atom_site_fract_z
Si Si1 0.134325 0.750000 0.611107
Si Si2 0.873458 0.510721 0.407329
Si Si3 0.305895 0.750000 0.659458
Si Si4 0.718295 0.508517 0.324417
Si Si5 0.727275 0.750000 0.012967
Si Si6 0.283678 0.492040 0.085528
Si Si7 0.694200 0.750000 0.261091
Si Si8 0.347416 0.113554 0.232596
O O1 0.142547 0.628365 0.539745
O O2 0.296440 0.750000 0.550138
O O3 0.946768 0.750000 0.834230
O O4 0.780291 0.524578 0.382343
O O5 0.772932 0.596677 0.568355
O O6 0.088850 0.544283 0.215849
O O7 0.213476 0.623836 0.776245
O O8 0.526441 0.750000 0.482432
O O9 0.500000 0.500000 0.500000
O O10 0.799803 0.622892 0.194332
O O11 0.640773 0.750000 0.193996
O O12 0.657283 0.867872 0.016682
O O13 0.275059 0.473157 0.209123
O O14 0.439414 0.588432 0.925180
O O15 0.324771 0.250000 0.216923
#
# Coordination Sequence:
#
# PCOD8072900 Si02
#       8
#     2   4   2   4   2   4   2   4
#     4   8  18  36  58  93 107 156 214 245 298 383
#     4  10  21  40  67  89 129 168 206 263 320 375
#     4   8  16  34  54  77 114 154 209 255 291 369
#     4   9  19  35  58  91 122 162 215 257 309 381
#     4  10  20  38  65  82 127 162 206 264 303 379
#     4  10  23  43  62  95 126 162 216 263 310 396
#     4  10  20  32  59  88 116 166 205 258 322 353
#     4  11  24  41  64  94 126 165 210 265 329 375
#
# _framework density 21.584690999999999
#
# number of rings (size 3 to 8) (size 9 to 14) (size 15 to 20)
#    0.000    2.333    0.833    0.500    8.167    0.667 
#    1.500    7.500    0.000    0.000    0.000    0.000 
#    0.000    0.000    0.000    0.000    0.000    0.000 
#
# Total GULP energy -297358.468246 kJ/mol
# GULP energy per Si atom -12389.936177 kJ/mol
# Density = 2.153556 g / cm^3
# Si number density = 21.584691 Si / 1000 Ang^3
#
#
#
# Elastic Constant Matrix: (Units=GPa)
#
#
# Indices 1 2 3 4 5 6 
#
# 1 97.6511 13.0156 25.9419 0.0000 -11.8845 0.0000
# 2 13.0156 129.7060 18.5526 0.0000 6.3323 0.0000
# 3 25.9419 18.5526 59.9961 0.0000 -12.5585 0.0000
# 4 0.0000 0.0000 0.0000 12.4683 0.0000 -0.1908
# 5 -11.8845 6.3323 -12.5585 0.0000 27.1266 0.0000
# 6 0.0000 0.0000 0.0000 -0.1908 0.0000 32.5409
#
#
#
# Elastic Compliance Matrix: (Units=1/GPa)
#
#
# Indices 1 2 3 4 5 6 
#
# 1 0.011871 -0.000762 -0.004176 0.000000 0.003445 0.000000
# 2 -0.000762 0.008403 -0.003044 0.000000 -0.003705 0.000000
# 3 -0.004176 -0.003044 0.021239 0.000000 0.008714 0.000000
# 4 0.000000 0.000000 0.000000 0.080211 0.000000 0.000470
# 5 0.003445 -0.003705 0.008714 0.000000 0.043273 0.000000
# 6 0.000000 0.000000 0.000000 0.000470 0.000000 0.030733
#
#
# Mechanical properties :
#
#
# Convention : Reuss Voigt Hill
#
# Bulk Modulus (GPa) = 39.14292 44.70815 41.92553
# Shear Modulus (GPa) = 22.70568 29.75003 26.22785
#
# Velocity S-wave (km/s) = 3.24687 3.71656 3.48963
# Velocity P-wave (km/s) = 5.67716 6.25899 5.97516
#
# Compressibility (1/GPa) = 0.02554741
#
# Stress axis : x y z
#
# Youngs Moduli (GPa) = 84.24014 119.01196 47.08362
#
# Poissons Ratio (x) = 0.09070 0.19662
# Poissons Ratio (y) = 0.06420 0.14334
# Poissons Ratio (z) = 0.35179 0.36230
#
# Static dielectric constant tensor:
#      x y z
#    x 3.762420 0.000000 -0.250440 
#    y 0.000000 4.526600 0.000000 
#    z -0.250440 0.000000 3.466300 
# 
# 
# High freq. dielectric constant tensor:
#      x y z
#    x 1.842690 0.000000 -0.019450 
#    y 0.000000 1.858580 0.000000 
#    z -0.019450 0.000000 1.814170 
# 
# From -- ./inp_files/20885.got.cif
#   From: 2010.06.25/outbox.cif.g09.slc.cpg/sg11_11_cif.got.tgz:20885.got - 2010.06.27 23:14:04.
