data_PCOD8072037
_publ_section_title
;
Structure prediction by ZEFSAII (Michael W. Deem and Ramdas Pophale) SiO2 
 PCOD8072037
Probable space group: P 21/M
;
_chemical_formula_sum "Si O2"
_cell_formula_units_Z 32
_cell_length_a 15.665882
_cell_length_b 20.003916
_cell_length_c 9.378610
_cell_angle_alpha 90.000000
_cell_angle_beta 37.259728
_cell_angle_gamma 90.000000
_cell_volume 1779.392116
_symmetry_space_group_name_H-M "P 21/M"
_symmetry_group_IT_number 11
_symmetry_cell_setting 'monoclinic'
loop_
_space_group_symop_operation_xyz
x,y,z
-x,1/2+y,-z
-x,-y,-z
x,1/2-y,z
loop_
_atom_site_type_symbol
_atom_site_label
_atom_site_fract_x
_atom_site_fract_y
_atom_site_fract_z
Si Si1 0.566147 0.827087 0.316200
Si Si2 0.162271 0.440317 0.682103
Si Si3 0.847392 0.825838 0.085042
Si Si4 0.152991 0.561197 0.910118
Si Si5 0.840439 0.326375 0.321039
Si Si6 0.551445 0.327397 0.831906
Si Si7 0.449098 0.059950 0.165094
Si Si8 0.434027 0.560338 0.675464
O O1 0.523162 0.750000 0.397337
O O2 0.734918 0.837935 0.108383
O O3 0.523067 0.850492 0.215795
O O4 0.486231 0.869653 0.541808
O O5 0.187301 0.372002 0.734493
O O6 0.181932 0.501604 0.762470
O O7 0.279642 0.444664 0.403486
O O8 0.006801 0.442283 0.817516
O O9 0.837775 0.750000 0.154313
O O10 0.005263 0.841066 0.815396
O O11 0.180535 0.630535 0.792627
O O12 0.263564 0.556328 0.892588
O O13 0.825218 0.250000 0.290866
O O14 0.719195 0.342424 0.597574
O O15 0.520798 0.250000 0.905104
O O16 0.488780 0.369176 0.044604
O O17 0.523367 0.053905 0.218244
O O18 0.500000 0.000000 0.000000
O O19 0.500000 0.500000 0.500000
#
# Coordination Sequence:
#
# PCOD8072037 Si02
#       8
#     4   4   4   4   4   4   4   4
#     4  10  19  34  57  84 109 139 185 229 264 311
#     4  10  20  35  54  81 107 140 176 225 276 320
#     4   9  17  31  55  84 107 134 180 231 268 306
#     4  10  19  34  58  81 105 132 182 235 272 306
#     4   9  17  32  55  81 109 141 177 219 270 320
#     4  10  21  36  54  80 115 150 178 214 270 331
#     4  12  24  37  53  79 115 149 178 217 274 335
#     4  12  21  36  58  83 106 139 186 234 266 311
#
# _framework density 17.983668999999999
#
# number of rings (size 3 to 8) (size 9 to 14) (size 15 to 20)
#    0.000    1.750    3.750    1.500    0.000    1.000 
#    0.000    1.875    0.000    0.000    0.000    0.000 
#    0.000    0.000    0.000    0.000    0.000    0.000 
#
# Total GULP energy -396766.361373 kJ/mol
# GULP energy per Si atom -12398.948793 kJ/mol
# Density = 1.794274 g / cm^3
# Si number density = 17.983669 Si / 1000 Ang^3
#
#
#
# Elastic Constant Matrix: (Units=GPa)
#
#
# Indices 1 2 3 4 5 6 
#
# 1 125.9449 40.2556 65.9715 0.0000 -13.7142 0.0000
# 2 40.2556 89.7539 53.4686 0.0000 1.6052 0.0000
# 3 65.9715 53.4686 137.5808 0.0000 -15.7065 0.0000
# 4 0.0000 0.0000 0.0000 32.3724 0.0000 3.4783
# 5 -13.7142 1.6052 -15.7065 0.0000 34.7610 0.0000
# 6 0.0000 0.0000 0.0000 3.4783 0.0000 21.8645
#
#
#
# Elastic Compliance Matrix: (Units=1/GPa)
#
#
# Indices 1 2 3 4 5 6 
#
# 1 0.011197 -0.002678 -0.004017 0.000000 0.002726 0.000000
# 2 -0.002678 0.015528 -0.005222 0.000000 -0.004133 0.000000
# 3 -0.004017 -0.005222 0.011673 0.000000 0.003931 0.000000
# 4 0.000000 0.000000 0.000000 0.031428 0.000000 -0.005000
# 5 0.002726 -0.004133 0.003931 0.000000 0.031810 0.000000
# 6 0.000000 0.000000 0.000000 -0.005000 0.000000 0.046532
#
#
# Mechanical properties :
#
#
# Convention : Reuss Voigt Hill
#
# Bulk Modulus (GPa) = 68.66677 74.74123 71.70400
# Shear Modulus (GPa) = 28.27158 30.70517 29.48838
#
# Velocity S-wave (km/s) = 3.96923 4.13654 4.05375
# Velocity P-wave (km/s) = 7.69884 8.02904 7.86567
#
# Compressibility (1/GPa) = 0.01456309
#
# Stress axis : x y z
#
# Youngs Moduli (GPa) = 89.31030 64.40158 85.66671
#
# Poissons Ratio (x) = 0.17244 0.34415
# Poissons Ratio (y) = 0.23913 0.44739
# Poissons Ratio (z) = 0.35878 0.33634
#
# Static dielectric constant tensor:
#      x y z
#    x 3.490450 0.000000 -0.417400 
#    y 0.000000 3.545950 0.000000 
#    z -0.417400 0.000000 3.345340 
# 
# 
# High freq. dielectric constant tensor:
#      x y z
#    x 1.686410 0.000000 -0.038540 
#    y 0.000000 1.717930 0.000000 
#    z -0.038540 0.000000 1.677660 
# 
# From -- ./inp_files/23079.got.cif
#   From: 2010.06.25/outbox.cif.g09.slc.cpg/sg11_12_cif.got.tgz:23079.got - 2010.06.27 23:14:04.
