data_PCOD8072380
_publ_section_title
;
Structure prediction by ZEFSAII (Michael W. Deem and Ramdas Pophale) SiO2 
 PCOD8072380
Probable space group: P 21/M
;
_chemical_formula_sum "Si O2"
_cell_formula_units_Z 32
_cell_length_a 20.392820
_cell_length_b 9.091371
_cell_length_c 25.140418
_cell_angle_alpha 90.000000
_cell_angle_beta 22.284010
_cell_angle_gamma 90.000000
_cell_volume 1767.441829
_symmetry_space_group_name_H-M "P 21/M"
_symmetry_group_IT_number 11
_symmetry_cell_setting 'monoclinic'
loop_
_space_group_symop_operation_xyz
x,y,z
-x,1/2+y,-z
-x,-y,-z
x,1/2-y,z
loop_
_atom_site_type_symbol
_atom_site_label
_atom_site_fract_x
_atom_site_fract_y
_atom_site_fract_z
Si Si1 0.892556 0.581006 0.935160
Si Si2 0.421454 0.079368 0.906190
Si Si3 0.382152 0.921618 0.045732
Si Si4 0.687252 0.080936 0.618164
Si Si5 0.489555 0.080928 0.659271
Si Si6 0.152588 0.918339 0.652390
Si Si7 0.012741 0.420660 0.657522
Si Si8 0.143667 0.924255 0.927638
O O1 0.870132 0.750000 0.971326
O O2 0.078106 0.556376 0.767393
O O3 0.881749 0.472466 0.992579
O O4 0.745164 0.539498 0.003739
O O5 0.416655 0.250000 0.926373
O O6 0.593886 0.041842 0.743361
O O7 0.425882 0.980411 0.954661
O O8 0.423000 0.750000 0.015631
O O9 0.184295 0.954161 0.210156
O O10 0.500000 0.000000 0.000000
O O11 0.741800 0.250000 0.574881
O O12 0.555599 0.045714 0.669036
O O13 0.862987 0.988609 0.480803
O O14 0.428707 0.250000 0.700443
O O15 0.642894 0.044727 0.502206
O O16 0.329966 0.975203 0.765940
O O17 0.125148 0.750000 0.654753
O O18 0.047670 0.015146 0.689480
O O19 0.052543 0.250000 0.630563
O O20 0.128036 0.750000 0.934646
O O21 0.000000 0.000000 0.000000
#
# Coordination Sequence:
#
# PCOD8072380 Si02
#       8
#     4   4   4   4   4   4   4   4
#     4  10  19  36  60  86 114 145 185 231 277 330
#     4  10  19  35  60  86 113 145 186 232 277 330
#     4  11  24  39  56  81 114 151 190 232 281 335
#     4   9  18  33  56  84 112 146 183 224 276 333
#     4   9  17  34  56  83 114 144 184 226 272 331
#     4   9  18  33  58  85 111 146 182 222 277 334
#     4  10  20  33  52  82 115 144 182 233 277 323
#     4  12  25  39  57  81 113 153 190 230 280 332
#
# _framework density 18.105263000000001
#
# number of rings (size 3 to 8) (size 9 to 14) (size 15 to 20)
#    0.000    2.000    2.500    2.625    0.000    5.000 
#    0.000    1.250    0.000    0.000    0.000    0.000 
#    0.000    0.000    0.000    0.000    0.000    0.000 
#
# Total GULP energy -396843.791324 kJ/mol
# GULP energy per Si atom -12401.368479 kJ/mol
# Density = 1.806405 g / cm^3
# Si number density = 18.105263 Si / 1000 Ang^3
#
#
#
# Elastic Constant Matrix: (Units=GPa)
#
#
# Indices 1 2 3 4 5 6 
#
# 1 67.7457 47.1732 51.6199 0.0000 -5.1931 0.0000
# 2 47.1732 107.8635 73.5853 0.0000 -9.9844 0.0000
# 3 51.6199 73.5853 131.8610 0.0000 0.5789 0.0000
# 4 0.0000 0.0000 0.0000 32.5842 0.0000 -0.2908
# 5 -5.1931 -9.9844 0.5789 0.0000 23.3068 0.0000
# 6 0.0000 0.0000 0.0000 -0.2908 0.0000 29.9000
#
#
#
# Elastic Compliance Matrix: (Units=1/GPa)
#
#
# Indices 1 2 3 4 5 6 
#
# 1 0.023708 -0.006083 -0.005899 0.000000 0.002823 0.000000
# 2 -0.006083 0.017628 -0.007484 0.000000 0.006382 0.000000
# 3 -0.005899 -0.007484 0.014091 0.000000 -0.004870 0.000000
# 4 0.000000 0.000000 0.000000 0.030692 0.000000 0.000299
# 5 0.002823 0.006382 -0.004870 0.000000 0.046390 0.000000
# 6 0.000000 0.000000 0.000000 0.000299 0.000000 0.033448
#
#
# Mechanical properties :
#
#
# Convention : Reuss Voigt Hill
#
# Bulk Modulus (GPa) = 60.62411 72.46966 66.54689
# Shear Modulus (GPa) = 23.76587 26.16431 24.96509
#
# Velocity S-wave (km/s) = 3.62698 3.80560 3.71736
# Velocity P-wave (km/s) = 7.14821 7.70869 7.43373
#
# Compressibility (1/GPa) = 0.01649509
#
# Stress axis : x y z
#
# Youngs Moduli (GPa) = 42.18005 56.72935 70.96890
#
# Poissons Ratio (x) = 0.34508 0.41863
# Poissons Ratio (y) = 0.25658 0.53112
# Poissons Ratio (z) = 0.24881 0.42455
#
# Static dielectric constant tensor:
#      x y z
#    x 4.392400 0.000000 0.534950 
#    y 0.000000 3.301480 0.000000 
#    z 0.534950 0.000000 3.807810 
# 
# 
# High freq. dielectric constant tensor:
#      x y z
#    x 1.671720 0.000000 0.010860 
#    y 0.000000 1.700350 0.000000 
#    z 0.010860 0.000000 1.720060 
# 
# From -- ./inp_files/72047.got.cif
#   From: 2010.06.25/outbox.cif.g09.slc.cpg/sg11_37_cif.got.tgz:72047.got - 2010.06.27 23:14:04.
