data_PCOD8072710
_publ_section_title
;
Structure prediction by ZEFSAII (Michael W. Deem and Ramdas Pophale) SiO2 
 PCOD8072710
Probable space group: P 21/M
;
_chemical_formula_sum "Si O2"
_cell_formula_units_Z 32
_cell_length_a 9.016779
_cell_length_b 19.293849
_cell_length_c 12.057072
_cell_angle_alpha 90.000000
_cell_angle_beta 128.059777
_cell_angle_gamma 90.000000
_cell_volume 1651.543117
_symmetry_space_group_name_H-M "P 21/M"
_symmetry_group_IT_number 11
_symmetry_cell_setting 'monoclinic'
loop_
_space_group_symop_operation_xyz
x,y,z
-x,1/2+y,-z
-x,-y,-z
x,1/2-y,z
loop_
_atom_site_type_symbol
_atom_site_label
_atom_site_fract_x
_atom_site_fract_y
_atom_site_fract_z
Si Si1 0.263817 0.946300 0.908641
Si Si2 0.197433 0.172192 0.006742
Si Si3 0.175671 0.169116 0.741553
Si Si4 0.504241 0.040227 0.386608
Si Si5 0.603350 0.959359 0.217352
Si Si6 0.082684 0.060453 0.111283
Si Si7 0.384959 0.674130 0.821483
Si Si8 0.245082 0.670557 0.525995
O O1 0.357701 0.875975 0.910775
O O2 0.049754 0.931063 0.842891
O O3 0.261529 0.002076 0.808671
O O4 0.389062 0.968243 0.073035
O O5 0.123246 0.250000 0.984392
O O6 0.189100 0.148009 0.876011
O O7 0.065568 0.127563 0.025211
O O8 0.413340 0.162583 0.145068
O O9 0.228956 0.250000 0.745372
O O10 0.320507 0.119934 0.739548
O O11 0.962753 0.152866 0.609976
O O12 0.291604 0.049928 0.250275
O O13 0.608130 0.114136 0.454918
O O14 0.500000 0.000000 0.500000
O O15 0.613730 0.995570 0.342622
O O16 0.000000 0.000000 0.000000
O O17 0.376500 0.750000 0.871593
O O18 0.233860 0.664141 0.654376
O O19 0.304050 0.750000 0.519410
#
# Coordination Sequence:
#
# PCOD8072710 Si02
#       8
#     4   4   4   4   4   4   4   4
#     4  11  22  36  64  95 123 161 207 267 313 361
#     4  10  20  38  64  90 121 166 214 255 310 380
#     4  10  22  38  66  96 122 165 215 262 314 379
#     4  12  27  43  62  95 132 170 211 257 320 386
#     4  11  22  41  63  90 127 161 208 263 318 367
#     4  12  24  39  60  92 129 167 207 260 314 368
#     4  10  19  38  65  91 120 161 210 258 309 374
#     4  10  22  42  65  89 125 166 209 252 309 380
#
# _framework density 19.375819
#
# number of rings (size 3 to 8) (size 9 to 14) (size 15 to 20)
#    0.000    1.250    5.000    0.750    3.500    2.000 
#    0.000    0.625    0.000    0.000    0.000    0.000 
#    0.000    0.000    0.000    0.000    0.000    0.000 
#
# Total GULP energy -396747.713711 kJ/mol
# GULP energy per Si atom -12398.366053 kJ/mol
# Density = 1.933172 g / cm^3
# Si number density = 19.375819 Si / 1000 Ang^3
#
#
#
# Elastic Constant Matrix: (Units=GPa)
#
#
# Indices 1 2 3 4 5 6 
#
# 1 87.5397 59.4778 24.6813 0.0000 -5.0339 0.0000
# 2 59.4778 123.8773 38.0801 0.0000 -7.0014 0.0000
# 3 24.6813 38.0801 89.9703 0.0000 2.1259 0.0000
# 4 0.0000 0.0000 0.0000 28.0538 0.0000 -0.7234
# 5 -5.0339 -7.0014 2.1259 0.0000 27.8077 0.0000
# 6 0.0000 0.0000 0.0000 -0.7234 0.0000 34.4923
#
#
#
# Elastic Compliance Matrix: (Units=1/GPa)
#
#
# Indices 1 2 3 4 5 6 
#
# 1 0.017150 -0.007710 -0.001472 0.000000 0.001276 0.000000
# 2 -0.007710 0.012944 -0.003414 0.000000 0.002124 0.000000
# 3 -0.001472 -0.003414 0.013013 0.000000 -0.002121 0.000000
# 4 0.000000 0.000000 0.000000 0.035665 0.000000 0.000748
# 5 0.001276 0.002124 -0.002121 0.000000 0.036889 0.000000
# 6 0.000000 0.000000 0.000000 0.000748 0.000000 0.029008
#
#
# Mechanical properties :
#
#
# Convention : Reuss Voigt Hill
#
# Bulk Modulus (GPa) = 55.81318 60.65176 58.23247
# Shear Modulus (GPa) = 28.43630 30.01397 29.22514
#
# Velocity S-wave (km/s) = 3.83511 3.94006 3.88794
# Velocity P-wave (km/s) = 6.96268 7.21592 7.09043
#
# Compressibility (1/GPa) = 0.01791691
#
# Stress axis : x y z
#
# Youngs Moduli (GPa) = 58.30891 77.25785 76.84365
#
# Poissons Ratio (x) = 0.59564 0.11309
# Poissons Ratio (y) = 0.44955 0.26231
# Poissons Ratio (z) = 0.08581 0.26373
#
# Static dielectric constant tensor:
#      x y z
#    x 2.186950 0.000000 -0.543680 
#    y 0.000000 3.763250 0.000000 
#    z -0.543680 0.000000 3.343440 
# 
# 
# High freq. dielectric constant tensor:
#      x y z
#    x 1.728530 0.000000 0.004780 
#    y 0.000000 1.770480 0.000000 
#    z 0.004780 0.000000 1.759390 
# 
# From -- ./inp_files/32839.got.cif
#   From: 2010.06.25/outbox.cif.g09.slc.cpg/sg11_17_cif.got.tgz:32839.got - 2010.06.27 23:14:04.
