data_PCOD8072834
_publ_section_title
;
Structure prediction by ZEFSAII (Michael W. Deem and Ramdas Pophale) SiO2 
 PCOD8072834
Probable space group: P 21/M
;
_chemical_formula_sum "Si O2"
_cell_formula_units_Z 32
_cell_length_a 25.121522
_cell_length_b 9.679299
_cell_length_c 17.999108
_cell_angle_alpha 90.000000
_cell_angle_beta 24.628949
_cell_angle_gamma 90.000000
_cell_volume 1823.921594
_symmetry_space_group_name_H-M "P 21/M"
_symmetry_group_IT_number 11
_symmetry_cell_setting 'monoclinic'
loop_
_space_group_symop_operation_xyz
x,y,z
-x,1/2+y,-z
-x,-y,-z
x,1/2-y,z
loop_
_atom_site_type_symbol
_atom_site_label
_atom_site_fract_x
_atom_site_fract_y
_atom_site_fract_z
Si Si1 0.545109 0.911668 0.222750
Si Si2 0.077238 0.091142 0.779135
Si Si3 0.680969 0.909379 0.432473
Si Si4 0.189787 0.410237 0.041419
Si Si5 0.683221 0.908925 0.745265
Si Si6 0.955062 0.907407 0.351171
Si Si7 0.157672 0.408037 0.913103
Si Si8 0.496809 0.409541 0.893380
O O1 0.520009 0.750000 0.267817
O O2 0.683073 0.956328 0.077701
O O3 0.540924 0.951724 0.141671
O O4 0.441098 0.995760 0.400603
O O5 0.047656 0.250000 0.835966
O O6 0.208586 0.044313 0.650636
O O7 0.090922 0.064853 0.674362
O O8 0.961992 0.001483 0.958650
O O9 0.643355 0.750000 0.493402
O O10 0.726741 0.934402 0.290110
O O11 0.159760 0.250000 0.092283
O O12 0.207254 0.446026 0.932340
O O13 0.071833 0.494679 0.225800
O O14 0.660961 0.750000 0.750390
O O15 0.834133 0.941843 0.557075
O O16 0.617419 0.001124 0.765666
O O17 0.625120 0.941703 0.899809
O O18 0.000751 0.750000 0.303288
O O19 0.111042 0.250000 0.968081
O O20 0.537014 0.250000 0.847759
#
# Coordination Sequence:
#
# PCOD8072834 Si02
#       8
#     4   4   4   4   4   4   4   4
#     4  10  21  35  49  67  94 128 163 196 233 278
#     4   9  17  29  46  70  98 122 147 187 239 289
#     4  10  20  32  48  71  96 122 156 199 242 283
#     4   9  19  35  50  65  92 128 162 198 236 274
#     4   9  17  31  52  76 101 125 151 189 235 281
#     4   9  17  30  49  71  93 121 156 191 233 283
#     4   9  18  32  49  69  93 123 159 197 237 280
#     4   9  18  32  50  73 100 128 156 188 230 281
#
# _framework density 17.544613999999999
#
# number of rings (size 3 to 8) (size 9 to 14) (size 15 to 20)
#    0.000    2.750    0.000    1.125    0.000    4.000 
#    0.000    3.125    0.000    0.000    0.000    0.000 
#    0.000    0.000    0.000    0.000    0.000    0.000 
#
# Total GULP energy -396868.524056 kJ/mol
# GULP energy per Si atom -12402.141377 kJ/mol
# Density = 1.750468 g / cm^3
# Si number density = 17.544614 Si / 1000 Ang^3
#
#
#
# Elastic Constant Matrix: (Units=GPa)
#
#
# Indices 1 2 3 4 5 6 
#
# 1 55.5616 33.4028 49.8831 0.0000 -8.0191 0.0000
# 2 33.4028 64.9173 67.2131 0.0000 -6.8325 0.0000
# 3 49.8831 67.2131 136.0211 0.0000 -8.9716 0.0000
# 4 0.0000 0.0000 0.0000 35.7214 0.0000 -2.9797
# 5 -8.0191 -6.8325 -8.9716 0.0000 23.5533 0.0000
# 6 0.0000 0.0000 0.0000 -2.9797 0.0000 20.7087
#
#
#
# Elastic Compliance Matrix: (Units=1/GPa)
#
#
# Indices 1 2 3 4 5 6 
#
# 1 0.029304 -0.007695 -0.006599 0.000000 0.005231 0.000000
# 2 -0.007695 0.033813 -0.013758 0.000000 0.001948 0.000000
# 3 -0.006599 -0.013758 0.016575 0.000000 0.000076 0.000000
# 4 0.000000 0.000000 0.000000 0.028334 0.000000 0.004077
# 5 0.005231 0.001948 0.000076 0.000000 0.044832 0.000000
# 6 0.000000 0.000000 0.000000 0.004077 0.000000 0.048875
#
#
# Mechanical properties :
#
#
# Convention : Reuss Voigt Hill
#
# Bulk Modulus (GPa) = 42.39419 61.94423 52.16921
# Shear Modulus (GPa) = 18.81818 23.06343 20.94080
#
# Velocity S-wave (km/s) = 3.27860 3.62962 3.45856
# Velocity P-wave (km/s) = 6.20873 7.27660 6.76377
#
# Compressibility (1/GPa) = 0.02358814
#
# Stress axis : x y z
#
# Youngs Moduli (GPa) = 34.12515 29.57447 60.33115
#
# Poissons Ratio (x) = 0.22757 0.39814
# Poissons Ratio (y) = 0.26259 0.83002
# Poissons Ratio (z) = 0.22520 0.40688
#
# Static dielectric constant tensor:
#      x y z
#    x 3.220340 0.000000 0.072360 
#    y 0.000000 3.272520 0.000000 
#    z 0.072360 0.000000 3.235340 
# 
# 
# High freq. dielectric constant tensor:
#      x y z
#    x 1.668230 0.000000 0.006910 
#    y 0.000000 1.677160 0.000000 
#    z 0.006910 0.000000 1.676160 
# 
# From -- ./inp_files/42887.got.cif
#   From: 2010.06.25/outbox.cif.g09.slc.cpg/sg11_22_cif.got.tgz:42887.got - 2010.06.27 23:14:04.
