data_PCOD8072372
_publ_section_title
;
Structure prediction by ZEFSAII (Michael W. Deem and Ramdas Pophale) SiO2 
 PCOD8072372
Probable space group: P 21/M
;
_chemical_formula_sum "Si O2"
_cell_formula_units_Z 24
_cell_length_a 14.767016
_cell_length_b 8.898255
_cell_length_c 10.122125
_cell_angle_alpha 90.000000
_cell_angle_beta 80.769909
_cell_angle_gamma 90.000000
_cell_volume 1312.832722
_symmetry_space_group_name_H-M "P 21/M"
_symmetry_group_IT_number 11
_symmetry_cell_setting 'monoclinic'
loop_
_space_group_symop_operation_xyz
x,y,z
-x,1/2+y,-z
-x,-y,-z
x,1/2-y,z
loop_
_atom_site_type_symbol
_atom_site_label
_atom_site_fract_x
_atom_site_fract_y
_atom_site_fract_z
Si Si1 0.930701 0.074546 0.915544
Si Si2 0.744432 0.922090 0.961005
Si Si3 0.448714 0.928650 0.390348
Si Si4 0.447839 0.425092 0.894098
Si Si5 0.074064 0.571394 0.386174
Si Si6 0.266918 0.074871 0.340978
O O1 0.940901 0.250000 0.929804
O O2 0.950350 0.025685 0.759337
O O3 0.828406 0.027699 0.980899
O O4 0.000000 0.000000 0.000000
O O5 0.775530 0.750000 0.973034
O O6 0.660151 0.965837 0.076009
O O7 0.712596 0.949972 0.818221
O O8 0.442403 0.750000 0.405155
O O9 0.509493 0.981078 0.252142
O O10 0.500000 0.000000 0.500000
O O11 0.346987 0.996212 0.405192
O O12 0.461714 0.250000 0.910059
O O13 0.500000 0.500000 0.000000
O O14 0.076588 0.750000 0.402728
O O15 0.172008 0.503666 0.403656
O O16 0.000000 0.500000 0.500000
O O17 0.261792 0.250000 0.379688
#
# Coordination Sequence:
#
# PCOD8072372 Si02
#       6
#     4   4   4   4   4   4
#     4  10  21  37  58  84 114 147 182 229 281 331
#     4   9  18  34  57  84 111 143 184 229 277 331
#     4  11  23  38  56  81 116 154 189 231 281 333
#     4  10  20  35  58  85 111 144 186 232 276 328
#     4  10  21  38  60  86 113 146 189 232 277 334
#     4  10  19  35  60  84 111 148 186 230 282 336
#
# _framework density 18.281079999999999
#
# number of rings (size 3 to 8) (size 9 to 14) (size 15 to 20)
#    0.000    2.000    1.667    2.000    0.000    4.000 
#    3.000    0.000    0.000    0.000    0.000    0.000 
#    0.000    0.000    0.000    0.000    0.000    0.000 
#
# Total GULP energy -297647.766354 kJ/mol
# GULP energy per Si atom -12401.990265 kJ/mol
# Density = 1.823947 g / cm^3
# Si number density = 18.281080 Si / 1000 Ang^3
#
#
#
# Elastic Constant Matrix: (Units=GPa)
#
#
# Indices 1 2 3 4 5 6 
#
# 1 158.9516 68.8303 91.6484 0.0000 4.2782 0.0000
# 2 68.8303 84.7866 56.6103 0.0000 2.9693 0.0000
# 3 91.6484 56.6103 115.7035 0.0000 -3.7254 0.0000
# 4 0.0000 0.0000 0.0000 28.4374 0.0000 2.2416
# 5 4.2782 2.9693 -3.7254 0.0000 36.6937 0.0000
# 6 0.0000 0.0000 0.0000 2.2416 0.0000 40.5285
#
#
#
# Elastic Compliance Matrix: (Units=1/GPa)
#
#
# Indices 1 2 3 4 5 6 
#
# 1 0.013241 -0.005404 -0.007906 0.000000 -0.001909 0.000000
# 2 -0.005404 0.019917 -0.005514 0.000000 -0.001541 0.000000
# 3 -0.007906 -0.005514 0.017705 0.000000 0.003165 0.000000
# 4 0.000000 0.000000 0.000000 0.035319 0.000000 -0.001953
# 5 -0.001909 -0.001541 0.003165 0.000000 0.027921 0.000000
# 6 0.000000 0.000000 0.000000 -0.001953 0.000000 0.024782
#
#
# Mechanical properties :
#
#
# Convention : Reuss Voigt Hill
#
# Bulk Modulus (GPa) = 75.66940 88.17997 81.92468
# Shear Modulus (GPa) = 27.63413 30.62212 29.12812
#
# Velocity S-wave (km/s) = 3.89218 4.09720 3.99601
# Velocity P-wave (km/s) = 7.85371 8.40970 8.13646
#
# Compressibility (1/GPa) = 0.01321538
#
# Stress axis : x y z
#
# Youngs Moduli (GPa) = 75.52454 50.20937 56.48276
#
# Poissons Ratio (x) = 0.27131 0.44653
# Poissons Ratio (y) = 0.40811 0.31145
# Poissons Ratio (z) = 0.59706 0.27686
#
# Static dielectric constant tensor:
#      x y z
#    x 3.484920 0.000000 -0.168730 
#    y 0.000000 3.441530 0.000000 
#    z -0.168730 0.000000 3.350310 
# 
# 
# High freq. dielectric constant tensor:
#      x y z
#    x 1.718480 0.000000 -0.007030 
#    y 0.000000 1.718900 0.000000 
#    z -0.007030 0.000000 1.696420 
# 
# From -- ./inp_files/20373.got.cif
#   From: 2010.06.25/outbox.cif.g09.slc.cpg/sg11_11_cif.got.tgz:20373.got - 2010.06.27 23:14:04.
