data_PCOD8072100
_publ_section_title
;
Structure prediction by ZEFSAII (Michael W. Deem and Ramdas Pophale) SiO2 
 PCOD8072100
Probable space group: P 21/M
;
_chemical_formula_sum "Si O2"
_cell_formula_units_Z 32
_cell_length_a 11.792473
_cell_length_b 9.201673
_cell_length_c 15.250542
_cell_angle_alpha 90.000000
_cell_angle_beta 89.623128
_cell_angle_gamma 90.000000
_cell_volume 1654.807840
_symmetry_space_group_name_H-M "P 21/M"
_symmetry_group_IT_number 11
_symmetry_cell_setting 'monoclinic'
loop_
_space_group_symop_operation_xyz
x,y,z
-x,1/2+y,-z
-x,-y,-z
x,1/2-y,z
loop_
_atom_site_type_symbol
_atom_site_label
_atom_site_fract_x
_atom_site_fract_y
_atom_site_fract_z
Si Si1 0.144665 0.417889 0.261415
Si Si2 0.501852 0.418600 0.159645
Si Si3 0.259707 0.919425 0.911610
Si Si4 0.258818 0.078010 0.595308
Si Si5 0.878073 0.083934 0.258537
Si Si6 0.501968 0.416995 0.662813
Si Si7 0.735184 0.582176 0.915960
Si Si8 0.739163 0.081016 0.581525
O O1 0.177949 0.250000 0.278851
O O2 0.199698 0.473307 0.170626
O O3 0.190841 0.517239 0.338373
O O4 0.011237 0.439427 0.255495
O O5 0.516885 0.250000 0.181472
O O6 0.617467 0.481725 0.118095
O O7 0.471992 0.493791 0.250661
O O8 0.399223 0.446708 0.093191
O O9 0.268027 0.750000 0.931861
O O10 0.169352 0.955710 0.836940
O O11 0.218674 0.996645 0.000298
O O12 0.247226 0.250000 0.584378
O O13 0.386626 0.029496 0.617847
O O14 0.175001 0.024768 0.671181
O O15 0.221758 0.002135 0.505631
O O16 0.845668 0.250000 0.283035
O O17 0.491357 0.250000 0.690814
O O18 0.604870 0.442667 0.595248
O O19 0.762387 0.750000 0.931426
O O20 0.769731 0.250000 0.571792
#
# Coordination Sequence:
#
# PCOD8072100 Si02
#       8
#     4   4   4   4   4   4   4   4
#     4  10  22  41  62  84 114 153 198 245 289 336
#     4  10  19  34  58  85 115 153 191 231 289 348
#     4  10  21  36  57  86 117 152 191 235 288 345
#     4  11  23  39  61  89 119 152 190 235 288 347
#     4  10  22  41  62  84 114 153 198 245 289 336
#     4  10  21  36  58  89 119 149 187 233 287 344
#     4  10  21  36  57  86 117 152 191 235 288 345
#     4  11  23  39  61  89 119 152 190 235 288 347
#
# _framework density 19.337593999999999
#
# number of rings (size 3 to 8) (size 9 to 14) (size 15 to 20)
#    0.000    1.750    2.500    1.500    0.000    4.500 
#    0.000    0.000    0.000    0.000    0.000    0.000 
#    0.000    0.000    0.000    0.000    0.000    0.000 
#
# Total GULP energy -396961.280453 kJ/mol
# GULP energy per Si atom -12405.040014 kJ/mol
# Density = 1.929358 g / cm^3
# Si number density = 19.337594 Si / 1000 Ang^3
#
#
#
# Elastic Constant Matrix: (Units=GPa)
#
#
# Indices 1 2 3 4 5 6 
#
# 1 93.1091 31.6709 36.6405 0.0000 4.3349 0.0000
# 2 31.6709 70.4282 62.1117 0.0000 0.7062 0.0000
# 3 36.6405 62.1117 137.3062 0.0000 7.8595 0.0000
# 4 0.0000 0.0000 0.0000 40.4967 0.0000 -2.9430
# 5 4.3349 0.7062 7.8595 0.0000 7.1752 0.0000
# 6 0.0000 0.0000 0.0000 -2.9430 0.0000 22.0915
#
#
#
# Elastic Compliance Matrix: (Units=1/GPa)
#
#
# Indices 1 2 3 4 5 6 
#
# 1 0.013101 -0.005111 -0.000811 0.000000 -0.006524 0.000000
# 2 -0.005111 0.026311 -0.011273 0.000000 0.012846 0.000000
# 3 -0.000811 -0.011273 0.013344 0.000000 -0.013017 0.000000
# 4 0.000000 0.000000 0.000000 0.024935 0.000000 0.003322
# 5 -0.006524 0.012846 -0.013017 0.000000 0.156303 0.000000
# 6 0.000000 0.000000 0.000000 0.003322 0.000000 0.045709
#
#
# Mechanical properties :
#
#
# Convention : Reuss Voigt Hill
#
# Bulk Modulus (GPa) = 54.44913 62.40998 58.42955
# Shear Modulus (GPa) = 15.61451 25.31405 20.46428
#
# Velocity S-wave (km/s) = 2.84468 3.62202 3.25663
# Velocity P-wave (km/s) = 6.24563 7.05946 6.66498
#
# Compressibility (1/GPa) = 0.01836577
#
# Stress axis : x y z
#
# Youngs Moduli (GPa) = 76.32765 38.00758 74.94057
#
# Poissons Ratio (x) = 0.19427 0.06074
# Poissons Ratio (y) = 0.39014 0.84482
# Poissons Ratio (z) = 0.06187 0.42847
#
# Static dielectric constant tensor:
#      x y z
#    x 3.580310 0.000000 -0.008500 
#    y 0.000000 3.712640 0.000000 
#    z -0.008500 0.000000 3.460130 
# 
# 
# High freq. dielectric constant tensor:
#      x y z
#    x 1.754270 0.000000 0.000880 
#    y 0.000000 1.747720 0.000000 
#    z 0.000880 0.000000 1.758500 
# 
# From -- ./inp_files/45227.got.cif
#   From: 2010.06.25/outbox.cif.g09.slc.cpg/sg11_23_cif.got.tgz:45227.got - 2010.06.27 23:14:04.
