data_PCOD8072525
_publ_section_title
;
Structure prediction by ZEFSAII (Michael W. Deem and Ramdas Pophale) SiO2 
 PCOD8072525
Probable space group: P 21/M
;
_chemical_formula_sum "Si O2"
_cell_formula_units_Z 24
_cell_length_a 10.273851
_cell_length_b 8.610327
_cell_length_c 14.820072
_cell_angle_alpha 90.000000
_cell_angle_beta 80.667729
_cell_angle_gamma 90.000000
_cell_volume 1293.649889
_symmetry_space_group_name_H-M "P 21/M"
_symmetry_group_IT_number 11
_symmetry_cell_setting 'monoclinic'
loop_
_space_group_symop_operation_xyz
x,y,z
-x,1/2+y,-z
-x,-y,-z
x,1/2-y,z
loop_
_atom_site_type_symbol
_atom_site_label
_atom_site_fract_x
_atom_site_fract_y
_atom_site_fract_z
Si Si1 0.467779 0.071437 0.240867
Si Si2 0.875062 0.935352 0.566008
Si Si3 0.829117 0.927733 0.767928
Si Si4 0.601328 0.933731 0.060320
Si Si5 0.595384 0.067137 0.564365
Si Si6 0.882347 0.565772 0.955602
O O1 0.498951 0.250000 0.260975
O O2 0.328121 0.055668 0.206403
O O3 0.577858 0.003640 0.162136
O O4 0.468094 0.973521 0.332328
O O5 0.874232 0.750000 0.564875
O O6 0.881126 0.002494 0.668353
O O7 0.740198 0.992772 0.535269
O O8 0.000000 0.000000 0.500000
O O9 0.871571 0.750000 0.760206
O O10 0.890372 0.002977 0.851987
O O11 0.586194 0.750000 0.064951
O O12 0.746930 0.988012 0.016456
O O13 0.500000 0.000000 0.000000
O O14 0.608382 0.250000 0.551858
O O15 0.500000 0.000000 0.500000
O O16 0.889718 0.750000 0.951375
O O17 0.000000 0.500000 0.000000
#
# Coordination Sequence:
#
# PCOD8072525 Si02
#       6
#     4   4   4   4   4   4
#     4  10  19  36  60  86 114 149 190 235 287 344
#     4  10  20  37  61  86 114 152 196 241 288 345
#     4   8  16  34  57  78 108 147 186 230 281 334
#     4  11  21  35  58  85 114 147 191 240 283 339
#     4  11  22  39  61  88 119 152 190 238 295 348
#     4  10  21  38  55  79 113 150 187 232 283 334
#
# _framework density 18.552160000000001
#
# number of rings (size 3 to 8) (size 9 to 14) (size 15 to 20)
#    0.000    2.000    1.667    4.000    0.000    1.333 
#    3.000    1.667    0.000    0.000    0.000    0.000 
#    0.000    0.000    0.000    0.000    0.000    0.000 
#
# Total GULP energy -297554.564192 kJ/mol
# GULP energy per Si atom -12398.106841 kJ/mol
# Density = 1.850993 g / cm^3
# Si number density = 18.552160 Si / 1000 Ang^3
#
#
#
# Elastic Constant Matrix: (Units=GPa)
#
#
# Indices 1 2 3 4 5 6 
#
# 1 137.6049 42.7155 91.0076 0.0000 -2.5912 0.0000
# 2 42.7155 81.0062 39.5786 0.0000 -3.0624 0.0000
# 3 91.0076 39.5786 139.4866 0.0000 -2.6333 0.0000
# 4 0.0000 0.0000 0.0000 31.3995 0.0000 -0.0227
# 5 -2.5912 -3.0624 -2.6333 0.0000 37.3693 0.0000
# 6 0.0000 0.0000 0.0000 -0.0227 0.0000 32.1263
#
#
#
# Elastic Compliance Matrix: (Units=1/GPa)
#
#
# Indices 1 2 3 4 5 6 
#
# 1 0.013489 -0.003262 -0.007873 0.000000 0.000113 0.000000
# 2 -0.003262 0.015150 -0.002154 0.000000 0.000864 0.000000
# 3 -0.007873 -0.002154 0.012921 0.000000 0.000188 0.000000
# 4 0.000000 0.000000 0.000000 0.031848 0.000000 0.000022
# 5 0.000113 0.000864 0.000188 0.000000 0.026852 0.000000
# 6 0.000000 0.000000 0.000000 0.000022 0.000000 0.031127
#
#
# Mechanical properties :
#
#
# Convention : Reuss Voigt Hill
#
# Bulk Modulus (GPa) = 66.75049 78.30011 72.52530
# Shear Modulus (GPa) = 30.68269 32.49875 31.59072
#
# Velocity S-wave (km/s) = 4.07118 4.18993 4.13098
# Velocity P-wave (km/s) = 7.62610 8.10582 7.86962
#
# Compressibility (1/GPa) = 0.01498116
#
# Stress axis : x y z
#
# Youngs Moduli (GPa) = 74.13496 66.00699 77.39494
#
# Poissons Ratio (x) = 0.21531 0.60934
# Poissons Ratio (y) = 0.24182 0.16672
# Poissons Ratio (z) = 0.58367 0.14219
#
# Static dielectric constant tensor:
#      x y z
#    x 3.221850 0.000000 -0.175290 
#    y 0.000000 3.355190 0.000000 
#    z -0.175290 0.000000 3.739180 
# 
# 
# High freq. dielectric constant tensor:
#      x y z
#    x 1.705830 0.000000 -0.004300 
#    y 0.000000 1.714230 0.000000 
#    z -0.004300 0.000000 1.736370 
# 
# From -- ./inp_files/28932.got.cif
#   From: 2010.06.25/outbox.cif.g09.slc.cpg/sg11_15_cif.got.tgz:28932.got - 2010.06.27 23:14:04.
