data_PCOD8072681
_publ_section_title
;
Structure prediction by ZEFSAII (Michael W. Deem and Ramdas Pophale) SiO2 
 PCOD8072681
Probable space group: P 21/M
;
_chemical_formula_sum "Si O2"
_cell_formula_units_Z 32
_cell_length_a 17.386871
_cell_length_b 15.716030
_cell_length_c 11.274252
_cell_angle_alpha 90.000000
_cell_angle_beta 146.017524
_cell_angle_gamma 90.000000
_cell_volume 1721.934697
_symmetry_space_group_name_H-M "P 21/M"
_symmetry_group_IT_number 11
_symmetry_cell_setting 'monoclinic'
loop_
_space_group_symop_operation_xyz
x,y,z
-x,1/2+y,-z
-x,-y,-z
x,1/2-y,z
loop_
_atom_site_type_symbol
_atom_site_label
_atom_site_fract_x
_atom_site_fract_y
_atom_site_fract_z
Si Si1 0.910660 0.848754 0.640889
Si Si2 0.291846 0.572763 0.387015
Si Si3 0.991840 0.347692 0.983592
Si Si4 0.912477 0.461782 0.282688
Si Si5 0.414035 0.148444 0.196277
Si Si6 0.197309 0.057964 0.074765
Si Si7 0.660249 0.959201 0.331468
Si Si8 0.363050 0.992864 0.962494
O O1 0.914530 0.750000 0.638490
O O2 0.750854 0.875162 0.431306
O O3 0.002657 0.879677 0.648713
O O4 0.977935 0.883860 0.847060
O O5 0.169273 0.640083 0.244549
O O6 0.433195 0.625629 0.563190
O O7 0.277260 0.516589 0.248432
O O8 0.276525 0.515672 0.484053
O O9 0.031520 0.250000 0.022299
O O10 0.089140 0.397584 0.020367
O O11 0.758542 0.440053 0.130288
O O12 0.000000 0.500000 0.500000
O O13 0.897322 0.525438 0.153560
O O14 0.403141 0.250000 0.152312
O O15 0.309652 0.124883 0.169047
O O16 0.377711 0.089568 0.034352
O O17 0.665986 0.008454 0.214247
O O18 0.502075 0.938874 0.163628
#
# Coordination Sequence:
#
# PCOD8072681 Si02
#       8
#     4   4   4   4   4   4   4   4
#     4  11  22  37  58  85 117 149 188 238 293 341
#     4  11  20  36  62  82 112 150 194 231 285 342
#     4  11  22  36  56  88 117 144 186 243 292 332
#     4  11  21  38  60  85 114 153 192 233 284 347
#     4  10  22  38  56  84 117 149 185 235 288 341
#     4  11  21  37  59  84 112 150 193 234 277 346
#     4  10  19  38  59  85 108 149 195 234 278 337
#     4   9  21  36  61  83 113 148 193 236 275 342
#
# _framework density 18.583748
#
# number of rings (size 3 to 8) (size 9 to 14) (size 15 to 20)
#    0.000    1.500    3.750    2.250    0.000    0.500 
#    0.000    1.250    0.000    0.750    0.000    0.000 
#    0.000    0.000    0.000    0.000    0.000    0.000 
#
# Total GULP energy -396660.428799 kJ/mol
# GULP energy per Si atom -12395.638400 kJ/mol
# Density = 1.854145 g / cm^3
# Si number density = 18.583748 Si / 1000 Ang^3
#
#
#
# Elastic Constant Matrix: (Units=GPa)
#
#
# Indices 1 2 3 4 5 6 
#
# 1 121.4259 53.2868 57.5158 0.0000 13.8192 0.0000
# 2 53.2868 33.5932 40.5799 0.0000 8.3268 0.0000
# 3 57.5158 40.5799 115.4828 0.0000 5.3321 0.0000
# 4 0.0000 0.0000 0.0000 19.5321 0.0000 7.2692
# 5 13.8192 8.3268 5.3321 0.0000 44.7386 0.0000
# 6 0.0000 0.0000 0.0000 7.2692 0.0000 21.6374
#
#
#
# Elastic Compliance Matrix: (Units=1/GPa)
#
#
# Indices 1 2 3 4 5 6 
#
# 1 0.027629 -0.047241 0.002843 0.000000 -0.000081 0.000000
# 2 -0.047241 0.135128 -0.023597 0.000000 -0.007745 0.000000
# 3 0.002843 -0.023597 0.015458 0.000000 0.001671 0.000000
# 4 0.000000 0.000000 0.000000 0.058514 0.000000 -0.019658
# 5 -0.000081 -0.007745 0.001671 0.000000 0.023619 0.000000
# 6 0.000000 0.000000 0.000000 -0.019658 0.000000 0.052821
#
#
# Mechanical properties :
#
#
# Convention : Reuss Voigt Hill
#
# Bulk Modulus (GPa) = 23.68249 63.69631 43.68940
# Shear Modulus (GPa) = 10.79365 25.12292 17.95828
#
# Velocity S-wave (km/s) = 2.41262 3.68077 3.11198
# Velocity P-wave (km/s) = 4.53126 7.23974 6.03929
#
# Compressibility (1/GPa) = 0.04222529
#
# Stress axis : x y z
#
# Youngs Moduli (GPa) = 36.19346 7.40036 64.69151
#
# Poissons Ratio (x) = 0.34960 -0.18394
# Poissons Ratio (y) = 1.70982 1.52655
# Poissons Ratio (z) = -0.10291 0.17463
#
# Static dielectric constant tensor:
#      x y z
#    x 4.209900 0.000000 0.041040 
#    y 0.000000 3.232250 0.000000 
#    z 0.041040 0.000000 3.552730 
# 
# 
# High freq. dielectric constant tensor:
#      x y z
#    x 1.739070 0.000000 0.004520 
#    y 0.000000 1.690740 0.000000 
#    z 0.004520 0.000000 1.740990 
# 
# From -- ./inp_files/41696.got.cif
#   From: 2010.06.25/outbox.cif.g09.slc.cpg/sg11_21_cif.got.tgz:41696.got - 2010.06.27 23:14:04.
