data_PCOD8072947
_publ_section_title
;
Structure prediction by ZEFSAII (Michael W. Deem and Ramdas Pophale) SiO2 
 PCOD8072947
Probable space group: P 21/M
;
_chemical_formula_sum "Si O2"
_cell_formula_units_Z 28
_cell_length_a 26.653717
_cell_length_b 9.143562
_cell_length_c 9.580315
_cell_angle_alpha 90.000000
_cell_angle_beta 140.626169
_cell_angle_gamma 90.000000
_cell_volume 1481.155872
_symmetry_space_group_name_H-M "P 21/M"
_symmetry_group_IT_number 11
_symmetry_cell_setting 'monoclinic'
loop_
_space_group_symop_operation_xyz
x,y,z
-x,1/2+y,-z
-x,-y,-z
x,1/2-y,z
loop_
_atom_site_type_symbol
_atom_site_label
_atom_site_fract_x
_atom_site_fract_y
_atom_site_fract_z
Si Si1 0.490871 0.585466 0.119012
Si Si2 0.184275 0.918261 0.675943
Si Si3 0.431136 0.422819 0.437706
Si Si4 0.686192 0.082710 0.263031
Si Si5 0.218994 0.076191 0.316415
Si Si6 0.252434 0.077670 0.070014
Si Si7 0.917017 0.423157 0.801982
O O1 0.508685 0.750000 0.116620
O O2 0.552683 0.533004 0.367354
O O3 0.500000 0.500000 0.000000
O O4 0.401994 0.563727 0.983594
O O5 0.185533 0.750000 0.723053
O O6 0.260825 0.964613 0.752832
O O7 0.109099 0.952560 0.415102
O O8 0.186784 0.010422 0.824428
O O9 0.500000 0.500000 0.500000
O O10 0.440322 0.250000 0.433732
O O11 0.341134 0.475882 0.216502
O O12 0.705476 0.250000 0.348913
O O13 0.703478 0.977960 0.432506
O O14 0.208992 0.250000 0.311930
O O15 0.143249 0.993598 0.216946
O O16 0.230150 0.030593 0.179174
O O17 0.248310 0.250000 0.047605
O O18 0.922236 0.250000 0.842175
O O19 0.000000 0.500000 0.000000
#
# Coordination Sequence:
#
# PCOD8072947 Si02
#       7
#     4   4   4   4   4   4   4
#     4  10  20  33  49  70 100 135 176 227 278 321
#     4   9  19  35  56  79 104 135 172 212 257 309
#     4  10  21  36  51  72 104 142 183 229 274 317
#     4   9  18  33  51  73 100 135 180 226 269 319
#     4  10  20  35  56  81 109 143 178 218 266 315
#     4  10  21  35  52  77 109 142 181 223 265 316
#     4  10  21  39  62  88 113 138 171 211 256 313
#
# _framework density 18.904154999999999
#
# number of rings (size 3 to 8) (size 9 to 14) (size 15 to 20)
#    0.000    2.286    0.000    3.429    0.000    8.000 
#    0.000    0.714    0.000    0.000    0.000    0.000 
#    0.000    0.000    0.000    0.000    0.000    0.000 
#
# Total GULP energy -347074.107328 kJ/mol
# GULP energy per Si atom -12395.503833 kJ/mol
# Density = 1.886113 g / cm^3
# Si number density = 18.904155 Si / 1000 Ang^3
#
#
#
# Elastic Constant Matrix: (Units=GPa)
#
#
# Indices 1 2 3 4 5 6 
#
# 1 63.0351 35.8453 37.2036 0.0000 -10.6424 0.0000
# 2 35.8453 66.7905 46.0262 0.0000 -9.2809 0.0000
# 3 37.2036 46.0262 113.9717 0.0000 -10.9725 0.0000
# 4 0.0000 0.0000 0.0000 34.1167 0.0000 -3.3434
# 5 -10.6424 -9.2809 -10.9725 0.0000 24.0012 0.0000
# 6 0.0000 0.0000 0.0000 -3.3434 0.0000 33.4691
#
#
#
# Elastic Compliance Matrix: (Units=1/GPa)
#
#
# Indices 1 2 3 4 5 6 
#
# 1 0.024510 -0.010042 -0.003424 0.000000 0.005420 0.000000
# 2 -0.010042 0.025310 -0.006726 0.000000 0.002260 0.000000
# 3 -0.003424 -0.006726 0.012774 0.000000 0.001721 0.000000
# 4 0.000000 0.000000 0.000000 0.029601 0.000000 0.002957
# 5 0.005420 0.002260 0.001721 0.000000 0.045728 0.000000
# 6 0.000000 0.000000 0.000000 0.002957 0.000000 0.030174
#
#
# Mechanical properties :
#
#
# Convention : Reuss Voigt Hill
#
# Bulk Modulus (GPa) = 45.02200 53.54972 49.28586
# Shear Modulus (GPa) = 23.16066 26.63222 24.89644
#
# Velocity S-wave (km/s) = 3.50403 3.75747 3.63296
# Velocity P-wave (km/s) = 6.34339 6.87119 6.61256
#
# Compressibility (1/GPa) = 0.02221136
#
# Stress axis : x y z
#
# Youngs Moduli (GPa) = 40.79926 39.50968 78.28678
#
# Poissons Ratio (x) = 0.39674 0.26804
# Poissons Ratio (y) = 0.40969 0.52654
# Poissons Ratio (z) = 0.13969 0.26574
#
# Static dielectric constant tensor:
#      x y z
#    x 3.063890 0.000000 -0.162730 
#    y 0.000000 3.341640 0.000000 
#    z -0.162730 0.000000 3.573760 
# 
# 
# High freq. dielectric constant tensor:
#      x y z
#    x 1.723340 0.000000 -0.004600 
#    y 0.000000 1.732210 0.000000 
#    z -0.004600 0.000000 1.741160 
# 
# From -- ./inp_files/28246.got.cif
#   From: 2010.06.25/outbox.cif.g09.slc.cpg/sg11_15_cif.got.tgz:28246.got - 2010.06.27 23:14:04.
