data_PCOD8072740
_publ_section_title
;
Structure prediction by ZEFSAII (Michael W. Deem and Ramdas Pophale) SiO2 
 PCOD8072740
Probable space group: P 21/M
;
_chemical_formula_sum "Si O2"
_cell_formula_units_Z 32
_cell_length_a 11.853954
_cell_length_b 17.945839
_cell_length_c 14.223729
_cell_angle_alpha 90.000000
_cell_angle_beta 147.856808
_cell_angle_gamma 90.000000
_cell_volume 1609.838577
_symmetry_space_group_name_H-M "P 21/M"
_symmetry_group_IT_number 11
_symmetry_cell_setting 'monoclinic'
loop_
_space_group_symop_operation_xyz
x,y,z
-x,1/2+y,-z
-x,-y,-z
x,1/2-y,z
loop_
_atom_site_type_symbol
_atom_site_label
_atom_site_fract_x
_atom_site_fract_y
_atom_site_fract_z
Si Si1 0.998092 0.068434 0.639381
Si Si2 0.164038 0.163902 0.589377
Si Si3 0.566759 0.058060 0.231153
Si Si4 0.623396 0.835678 0.755873
Si Si5 0.613071 0.103725 0.893139
Si Si6 0.790234 0.336125 0.647719
Si Si7 0.100459 0.663247 0.064325
Si Si8 0.192826 0.588877 0.779021
O O1 0.131717 0.119758 0.663353
O O2 0.785357 0.040573 0.438728
O O3 0.950956 0.114410 0.700308
O O4 0.133781 0.996411 0.761302
O O5 0.113826 0.250000 0.571988
O O6 0.405426 0.153001 0.726459
O O7 0.010305 0.134501 0.399352
O O8 0.428962 0.119572 0.186942
O O9 0.618975 0.089988 0.164925
O O10 0.436056 0.983010 0.133025
O O11 0.621367 0.750000 0.785693
O O12 0.452381 0.851895 0.553641
O O13 0.853446 0.858191 0.879570
O O14 0.774367 0.114119 0.921686
O O15 0.722922 0.129285 0.067883
O O16 0.851140 0.250000 0.674445
O O17 0.814357 0.358755 0.772792
O O18 0.138732 0.750000 0.070330
#
# Coordination Sequence:
#
# PCOD8072740 Si02
#       8
#     4   4   4   4   4   4   4   4
#     4  10  19  40  63  92 120 155 195 248 300 361
#     4  11  23  40  63  91 122 158 198 244 296 357
#     4  10  20  39  63  89 122 157 196 245 304 353
#     4   9  20  39  61  86 116 153 201 257 302 346
#     4  12  24  39  61  88 123 164 201 236 292 366
#     4   9  19  37  62  86 114 154 201 253 302 346
#     4  10  23  41  57  82 120 157 201 252 297 347
#     4  11  23  40  63  88 128 159 191 242 305 353
#
# _framework density 19.877768
#
# number of rings (size 3 to 8) (size 9 to 14) (size 15 to 20)
#    0.000    1.750    2.500    1.875    1.750    5.500 
#    0.000    3.750    0.000    0.000    0.000    0.000 
#    0.000    0.000    0.000    0.000    0.000    0.000 
#
# Total GULP energy -396965.974300 kJ/mol
# GULP energy per Si atom -12405.186697 kJ/mol
# Density = 1.983253 g / cm^3
# Si number density = 19.877768 Si / 1000 Ang^3
#
#
#
# Elastic Constant Matrix: (Units=GPa)
#
#
# Indices 1 2 3 4 5 6 
#
# 1 119.5036 23.9328 48.8657 0.0000 3.3115 0.0000
# 2 23.9328 60.6194 36.1510 0.0000 3.8822 0.0000
# 3 48.8657 36.1510 83.7623 0.0000 4.1743 0.0000
# 4 0.0000 0.0000 0.0000 13.8047 0.0000 -0.1212
# 5 3.3115 3.8822 4.1743 0.0000 33.5803 0.0000
# 6 0.0000 0.0000 0.0000 -0.1212 0.0000 15.7424
#
#
#
# Elastic Compliance Matrix: (Units=1/GPa)
#
#
# Indices 1 2 3 4 5 6 
#
# 1 0.011013 -0.000684 -0.006117 0.000000 -0.000247 0.000000
# 2 -0.000684 0.022321 -0.009166 0.000000 -0.001374 0.000000
# 3 -0.006117 -0.009166 0.019501 0.000000 -0.000761 0.000000
# 4 0.000000 0.000000 0.000000 0.072444 0.000000 0.000558
# 5 -0.000247 -0.001374 -0.000761 0.000000 0.030057 0.000000
# 6 0.000000 0.000000 0.000000 0.000558 0.000000 0.063527
#
#
# Mechanical properties :
#
#
# Convention : Reuss Voigt Hill
#
# Bulk Modulus (GPa) = 47.84615 53.53158 50.68886
# Shear Modulus (GPa) = 19.39758 22.95455 21.17607
#
# Velocity S-wave (km/s) = 3.12724 3.40190 3.26746
# Velocity P-wave (km/s) = 6.09606 6.51302 6.30798
#
# Compressibility (1/GPa) = 0.02090032
#
# Stress axis : x y z
#
# Youngs Moduli (GPa) = 90.79986 44.80185 51.27904
#
# Poissons Ratio (x) = 0.03065 0.31370
# Poissons Ratio (y) = 0.06212 0.47001
# Poissons Ratio (z) = 0.55546 0.41064
#
# Static dielectric constant tensor:
#      x y z
#    x 3.526020 0.000000 0.085340 
#    y 0.000000 3.530140 0.000000 
#    z 0.085340 0.000000 3.765250 
# 
# 
# High freq. dielectric constant tensor:
#      x y z
#    x 1.770250 0.000000 0.004050 
#    y 0.000000 1.769890 0.000000 
#    z 0.004050 0.000000 1.786930 
# 
# From -- ./inp_files/50723.got.cif
#   From: 2010.06.25/outbox.cif.g09.slc.cpg/sg11_26_cif.got.tgz:50723.got - 2010.06.27 23:14:04.
