data_PCOD8072753
_publ_section_title
;
Structure prediction by ZEFSAII (Michael W. Deem and Ramdas Pophale) SiO2 
 PCOD8072753
Probable space group: P 21/M
;
_chemical_formula_sum "Si O2"
_cell_formula_units_Z 32
_cell_length_a 31.058971
_cell_length_b 8.889608
_cell_length_c 23.172179
_cell_angle_alpha 90.000000
_cell_angle_beta 162.505833
_cell_angle_gamma 90.000000
_cell_volume 1923.260450
_symmetry_space_group_name_H-M "P 21/M"
_symmetry_group_IT_number 11
_symmetry_cell_setting 'monoclinic'
loop_
_space_group_symop_operation_xyz
x,y,z
-x,1/2+y,-z
-x,-y,-z
x,1/2-y,z
loop_
_atom_site_type_symbol
_atom_site_label
_atom_site_fract_x
_atom_site_fract_y
_atom_site_fract_z
Si Si1 0.830729 0.583540 0.455024
Si Si2 0.853424 0.426118 0.792887
Si Si3 0.601230 0.930604 0.081671
Si Si4 0.028318 0.572334 0.800908
Si Si5 0.642977 0.924420 0.610554
Si Si6 0.191820 0.573226 0.397120
Si Si7 0.324309 0.576740 0.229073
Si Si8 0.408446 0.081406 0.752149
O O1 0.880190 0.750000 0.502065
O O2 0.763061 0.515948 0.308952
O O3 0.705600 0.583382 0.342487
O O4 0.967956 0.505250 0.662027
O O5 0.870474 0.250000 0.823029
O O6 0.720768 0.482100 0.660936
O O7 0.819674 0.469962 0.684285
O O8 0.000000 0.500000 0.000000
O O9 0.589198 0.750000 0.066449
O O10 0.500000 0.000000 0.000000
O O11 0.554352 0.996475 0.959621
O O12 0.993314 0.750000 0.759480
O O13 0.947950 0.494697 0.751142
O O14 0.197322 0.540211 0.021601
O O15 0.679309 0.750000 0.648882
O O16 0.473613 0.958533 0.388273
O O17 0.697924 0.973435 0.743636
O O18 0.194445 0.750000 0.411400
O O19 0.340297 0.504374 0.610598
O O20 0.319181 0.750000 0.242946
O O21 0.450399 0.250000 0.787019
#
# Coordination Sequence:
#
# PCOD8072753 Si02
#       8
#     4   4   4   4   4   4   4   4
#     4   7  12  21  34  54  79 108 140 172 207 251
#     4  11  23  36  50  68  91 119 150 186 227 270
#     4   9  14  21  34  53  79 111 146 180 214 256
#     4   9  16  28  45  64  88 117 148 180 218 263
#     4  10  20  33  49  69  91 117 151 187 224 268
#     4  10  20  31  43  63  88 114 148 186 222 264
#     4   9  18  32  50  69  90 118 150 186 225 264
#     4   9  16  26  39  55  78 112 148 179 217 261
#
# _framework density 16.638411999999999
#
# number of rings (size 3 to 8) (size 9 to 14) (size 15 to 20)
#    0.000    2.750    0.000    4.125    0.000    5.000 
#    0.000    0.625    0.000    0.000    0.000    0.000 
#    0.000    1.000    0.000    2.000    0.000    4.250 
#
# Total GULP energy -396444.951600 kJ/mol
# GULP energy per Si atom -12388.904738 kJ/mol
# Density = 1.660054 g / cm^3
# Si number density = 16.638412 Si / 1000 Ang^3
#
#
#
# Elastic Constant Matrix: (Units=GPa)
#
#
# Indices 1 2 3 4 5 6 
#
# 1 59.8647 35.4249 60.8740 0.0000 -15.0685 0.0000
# 2 35.4249 66.3012 46.6892 0.0000 -16.9009 0.0000
# 3 60.8740 46.6892 156.2984 0.0000 -36.2794 0.0000
# 4 0.0000 0.0000 0.0000 24.4180 0.0000 -4.1884
# 5 -15.0685 -16.9009 -36.2794 0.0000 26.6547 0.0000
# 6 0.0000 0.0000 0.0000 -4.1884 0.0000 21.1492
#
#
#
# Elastic Compliance Matrix: (Units=1/GPa)
#
#
# Indices 1 2 3 4 5 6 
#
# 1 0.032879 -0.011057 -0.009963 0.000000 -0.001985 0.000000
# 2 -0.011057 0.023584 -0.001050 0.000000 0.007274 0.000000
# 3 -0.009963 -0.001050 0.013347 0.000000 0.011868 0.000000
# 4 0.000000 0.000000 0.000000 0.042393 0.000000 0.008396
# 5 -0.001985 0.007274 0.011868 0.000000 0.057160 0.000000
# 6 0.000000 0.000000 0.000000 0.008396 0.000000 0.048946
#
#
# Mechanical properties :
#
#
# Convention : Reuss Voigt Hill
#
# Bulk Modulus (GPa) = 38.95742 63.16006 51.05874
# Shear Modulus (GPa) = 18.44970 23.74281 21.09626
#
# Velocity S-wave (km/s) = 3.33357 3.78165 3.56466
# Velocity P-wave (km/s) = 6.18724 7.55716 6.90625
#
# Compressibility (1/GPa) = 0.02566905
#
# Stress axis : x y z
#
# Youngs Moduli (GPa) = 30.41448 42.40110 74.92398
#
# Poissons Ratio (x) = 0.46884 0.74648
# Poissons Ratio (y) = 0.33630 0.07869
# Poissons Ratio (z) = 0.30302 0.04453
#
# Static dielectric constant tensor:
#      x y z
#    x 3.875800 0.000000 -2.784330 
#    y 0.000000 3.222540 0.000000 
#    z -2.784330 0.000000 9.012150 
# 
# 
# High freq. dielectric constant tensor:
#      x y z
#    x 1.589630 0.000000 -0.038230 
#    y 0.000000 1.641980 0.000000 
#    z -0.038230 0.000000 1.651170 
# 
# From -- ./inp_files/67143.got.cif
#   From: 2010.06.25/outbox.cif.g09.slc.cpg/sg11_34_cif.got.tgz:67143.got - 2010.06.27 23:14:04.
