data_PCOD8072039
_publ_section_title
;
Structure prediction by ZEFSAII (Michael W. Deem and Ramdas Pophale) SiO2 
 PCOD8072039
Probable space group: P 21/M
;
_chemical_formula_sum "Si O2"
_cell_formula_units_Z 32
_cell_length_a 9.339676
_cell_length_b 14.546427
_cell_length_c 21.710786
_cell_angle_alpha 90.000000
_cell_angle_beta 147.069700
_cell_angle_gamma 90.000000
_cell_volume 1603.458899
_symmetry_space_group_name_H-M "P 21/M"
_symmetry_group_IT_number 11
_symmetry_cell_setting 'monoclinic'
loop_
_space_group_symop_operation_xyz
x,y,z
-x,1/2+y,-z
-x,-y,-z
x,1/2-y,z
loop_
_atom_site_type_symbol
_atom_site_label
_atom_site_fract_x
_atom_site_fract_y
_atom_site_fract_z
Si Si1 0.445624 0.532464 0.899951
Si Si2 0.983226 0.146836 0.595855
Si Si3 0.525366 0.353918 0.334698
Si Si4 0.121033 0.405481 0.284570
Si Si5 0.231224 0.892557 0.346747
Si Si6 0.815918 0.652904 0.561939
Si Si7 0.712941 0.856673 0.092442
Si Si8 0.710033 0.472059 0.293238
O O1 0.450513 0.423163 0.919004
O O2 0.445075 0.543835 0.826434
O O3 0.186439 0.576757 0.837803
O O4 0.681689 0.593916 0.013964
O O5 0.089508 0.250000 0.624721
O O6 0.758227 0.122817 0.465763
O O7 0.862102 0.138440 0.619814
O O8 0.234076 0.079988 0.675978
O O9 0.546888 0.250000 0.316937
O O10 0.245279 0.365000 0.267333
O O11 0.532754 0.427170 0.281976
O O12 0.262185 0.498639 0.356842
O O13 0.171418 0.337697 0.359533
O O14 0.515476 0.854544 0.431322
O O15 0.021289 0.856415 0.220872
O O16 0.923067 0.750000 0.574091
O O17 0.998863 0.572542 0.602214
O O18 0.610871 0.750000 0.056184
#
# Coordination Sequence:
#
# PCOD8072039 Si02
#       8
#     4   4   4   4   4   4   4   4
#     4   9  21  36  57  86 109 140 191 236 280 333
#     4  11  20  34  55  82 112 150 192 227 275 337
#     4  11  23  35  53  83 119 158 189 219 276 346
#     4  10  19  35  55  79 115 143 184 228 279 331
#     4  11  19  33  55  84 110 141 187 235 281 324
#     4  11  19  30  53  82 114 144 180 228 276 334
#     4  10  19  34  57  84 111 141 184 238 285 327
#     4  11  22  38  54  83 119 151 184 232 282 329
#
# _framework density 19.956855999999998
#
# number of rings (size 3 to 8) (size 9 to 14) (size 15 to 20)
#    0.000    1.500    5.000    3.375    0.000    3.000 
#    0.000    0.000    0.000   10.500    0.000    3.500 
#    0.000    0.000    0.000    0.000    0.000    0.000 
#
# Total GULP energy -396665.530723 kJ/mol
# GULP energy per Si atom -12395.797835 kJ/mol
# Density = 1.991143 g / cm^3
# Si number density = 19.956856 Si / 1000 Ang^3
#
#
#
# Elastic Constant Matrix: (Units=GPa)
#
#
# Indices 1 2 3 4 5 6 
#
# 1 71.5895 15.1963 20.2274 0.0000 -10.5178 0.0000
# 2 15.1963 118.9683 32.8034 0.0000 -9.9122 0.0000
# 3 20.2274 32.8034 83.1772 0.0000 -21.9362 0.0000
# 4 0.0000 0.0000 0.0000 9.7509 0.0000 5.7084
# 5 -10.5178 -9.9122 -21.9362 0.0000 19.1643 0.0000
# 6 0.0000 0.0000 0.0000 5.7084 0.0000 12.3266
#
#
#
# Elastic Compliance Matrix: (Units=1/GPa)
#
#
# Indices 1 2 3 4 5 6 
#
# 1 0.015568 -0.000989 -0.001830 0.000000 0.005938 0.000000
# 2 -0.000989 0.009505 -0.003373 0.000000 0.000513 0.000000
# 3 -0.001830 -0.003373 0.018725 0.000000 0.018685 0.000000
# 4 0.000000 0.000000 0.000000 0.140699 0.000000 -0.065158
# 5 0.005938 0.000513 0.018685 0.000000 0.077092 0.000000
# 6 0.000000 0.000000 0.000000 -0.065158 0.000000 0.111300
#
#
# Mechanical properties :
#
#
# Convention : Reuss Voigt Hill
#
# Bulk Modulus (GPa) = 31.83233 45.57659 38.70446
# Shear Modulus (GPa) = 12.63442 21.94887 17.29165
#
# Velocity S-wave (km/s) = 2.51885 3.31995 2.94675
# Velocity P-wave (km/s) = 4.94416 6.13051 5.56902
#
# Compressibility (1/GPa) = 0.03141460
#
# Stress axis : x y z
#
# Youngs Moduli (GPa) = 64.23470 105.21188 53.40331
#
# Poissons Ratio (x) = 0.10409 0.09771
# Poissons Ratio (y) = 0.06355 0.18011
# Poissons Ratio (z) = 0.11753 0.35484
#
# Static dielectric constant tensor:
#      x y z
#    x 3.265410 0.000000 -0.141320 
#    y 0.000000 3.934750 0.000000 
#    z -0.141320 0.000000 3.618500 
# 
# 
# High freq. dielectric constant tensor:
#      x y z
#    x 1.733560 0.000000 -0.015300 
#    y 0.000000 1.798730 0.000000 
#    z -0.015300 0.000000 1.769470 
# 
# From -- ./inp_files/50400.got.cif
#   From: 2010.06.25/outbox.cif.g09.slc.cpg/sg11_26_cif.got.tgz:50400.got - 2010.06.27 23:14:04.
