data_PCOD8072516
_publ_section_title
;
Structure prediction by ZEFSAII (Michael W. Deem and Ramdas Pophale) SiO2 
 PCOD8072516
Probable space group: P 21/M
;
_chemical_formula_sum "Si O2"
_cell_formula_units_Z 32
_cell_length_a 10.275977
_cell_length_b 17.234968
_cell_length_c 16.347486
_cell_angle_alpha 90.000000
_cell_angle_beta 143.844569
_cell_angle_gamma 90.000000
_cell_volume 1708.127285
_symmetry_space_group_name_H-M "P 21/M"
_symmetry_group_IT_number 11
_symmetry_cell_setting 'monoclinic'
loop_
_space_group_symop_operation_xyz
x,y,z
-x,1/2+y,-z
-x,-y,-z
x,1/2-y,z
loop_
_atom_site_type_symbol
_atom_site_label
_atom_site_fract_x
_atom_site_fract_y
_atom_site_fract_z
Si Si1 0.288214 0.159856 0.193072
Si Si2 0.791784 0.159066 0.909595
Si Si3 0.383848 0.084804 0.786710
Si Si4 0.863360 0.342065 0.764676
Si Si5 0.403354 0.902999 0.785883
Si Si6 0.962287 0.158483 0.510433
Si Si7 0.350971 0.841096 0.504238
Si Si8 0.666392 0.658974 0.062840
O O1 0.332933 0.250000 0.193760
O O2 0.397267 0.110698 0.176191
O O3 0.404048 0.138167 0.338696
O O4 0.030784 0.142638 0.070421
O O5 0.732985 0.250000 0.883520
O O6 0.621976 0.110505 0.876108
O O7 0.790065 0.126162 0.815841
O O8 0.348537 0.115980 0.859230
O O9 0.200009 0.117722 0.631140
O O10 0.367657 0.993214 0.780654
O O11 0.857547 0.250000 0.766665
O O12 0.696595 0.375688 0.610283
O O13 0.110847 0.368684 0.869364
O O14 0.174549 0.865325 0.639354
O O15 0.460336 0.863571 0.901412
O O16 0.998443 0.250000 0.529307
O O17 0.829516 0.128286 0.522704
O O18 0.318114 0.750000 0.480901
O O19 0.667711 0.750000 0.081622
#
# Coordination Sequence:
#
# PCOD8072516 Si02
#       8
#     4   4   4   4   4   4   4   4
#     4   9  17  33  56  79 106 146 200 239 268 328
#     4  10  20  35  55  81 111 148 188 231 281 340
#     4  12  24  36  54  87 127 148 174 237 313 348
#     4   9  16  30  55  81 102 136 195 241 262 315
#     4  11  22  36  57  85 116 150 191 239 291 335
#     4  10  19  36  60  84 109 148 196 237 277 338
#     4   8  14  27  53  82  98 125 184 245 269 297
#     4  11  20  37  60  83 108 149 202 240 270 334
#
# _framework density 18.733965999999999
#
# number of rings (size 3 to 8) (size 9 to 14) (size 15 to 20)
#    0.000    2.000    2.500    3.750    0.000    0.500 
#    0.000    1.250    0.000    6.000    0.000    0.000 
#    0.000    0.000    0.000    0.000    0.000    0.000 
#
# Total GULP energy -396763.105218 kJ/mol
# GULP energy per Si atom -12398.847038 kJ/mol
# Density = 1.869133 g / cm^3
# Si number density = 18.733966 Si / 1000 Ang^3
#
#
#
# Elastic Constant Matrix: (Units=GPa)
#
#
# Indices 1 2 3 4 5 6 
#
# 1 43.7947 10.7350 16.3683 0.0000 5.2586 0.0000
# 2 10.7350 35.1335 9.3771 0.0000 2.8134 0.0000
# 3 16.3683 9.3771 124.7083 0.0000 -4.6103 0.0000
# 4 0.0000 0.0000 0.0000 38.6216 0.0000 0.3725
# 5 5.2586 2.8134 -4.6103 0.0000 26.4868 0.0000
# 6 0.0000 0.0000 0.0000 0.3725 0.0000 11.1915
#
#
#
# Elastic Compliance Matrix: (Units=1/GPa)
#
#
# Indices 1 2 3 4 5 6 
#
# 1 0.026271 -0.006790 -0.003124 0.000000 -0.005038 0.000000
# 2 -0.006790 0.031124 -0.001531 0.000000 -0.002225 0.000000
# 3 -0.003124 -0.001531 0.008628 0.000000 0.002285 0.000000
# 4 0.000000 0.000000 0.000000 0.025901 0.000000 -0.000862
# 5 -0.005038 -0.002225 0.002285 0.000000 0.039389 0.000000
# 6 0.000000 0.000000 0.000000 -0.000862 0.000000 0.089382
#
#
# Mechanical properties :
#
#
# Convention : Reuss Voigt Hill
#
# Bulk Modulus (GPa) = 23.18388 30.73304 26.95846
# Shear Modulus (GPa) = 19.38266 26.40373 22.89319
#
# Velocity S-wave (km/s) = 3.22005 3.75828 3.49953
# Velocity P-wave (km/s) = 5.12125 5.93915 5.54530
#
# Compressibility (1/GPa) = 0.04313342
#
# Stress axis : x y z
#
# Youngs Moduli (GPa) = 38.06531 32.12917 115.89727
#
# Poissons Ratio (x) = 0.21815 0.36204
# Poissons Ratio (y) = 0.25845 0.17748
# Poissons Ratio (z) = 0.11891 0.04920
#
# Static dielectric constant tensor:
#      x y z
#    x 3.306390 0.000000 -0.187410 
#    y 0.000000 3.165100 0.000000 
#    z -0.187410 0.000000 3.907240 
# 
# 
# High freq. dielectric constant tensor:
#      x y z
#    x 1.703940 0.000000 -0.008170 
#    y 0.000000 1.698760 0.000000 
#    z -0.008170 0.000000 1.751050 
# 
# From -- ./inp_files/59650.got.cif
#   From: 2010.06.25/outbox.cif.g09.slc.cpg/sg11_30_cif.got.tgz:59650.got - 2010.06.27 23:14:04.
