data_PCOD8072042
_publ_section_title
;
Structure prediction by ZEFSAII (Michael W. Deem and Ramdas Pophale) SiO2 
 PCOD8072042
Probable space group: P 21/M
;
_chemical_formula_sum "Si O2"
_cell_formula_units_Z 32
_cell_length_a 19.570606
_cell_length_b 8.932127
_cell_length_c 24.321709
_cell_angle_alpha 90.000000
_cell_angle_beta 22.270723
_cell_angle_gamma 90.000000
_cell_volume 1611.288759
_symmetry_space_group_name_H-M "P 21/M"
_symmetry_group_IT_number 11
_symmetry_cell_setting 'monoclinic'
loop_
_space_group_symop_operation_xyz
x,y,z
-x,1/2+y,-z
-x,-y,-z
x,1/2-y,z
loop_
_atom_site_type_symbol
_atom_site_label
_atom_site_fract_x
_atom_site_fract_y
_atom_site_fract_z
Si Si1 0.142665 0.072870 0.851950
Si Si2 0.083806 0.083829 0.519924
Si Si3 0.122617 0.075492 0.740746
Si Si4 0.445085 0.073260 0.983461
Si Si5 0.472962 0.427669 0.413907
Si Si6 0.726845 0.421526 0.531520
Si Si7 0.914881 0.919858 0.804611
Si Si8 0.227982 0.415374 0.292144
O O1 0.147417 0.250000 0.858864
O O2 0.088221 0.034610 0.829842
O O3 0.340560 0.006307 0.711144
O O4 0.000000 0.000000 0.000000
O O5 0.055816 0.250000 0.566519
O O6 0.127394 0.101082 0.423974
O O7 0.247360 0.997903 0.428351
O O8 0.899381 0.987993 0.660329
O O9 0.114111 0.250000 0.736375
O O10 0.319788 0.020020 0.572048
O O11 0.958761 0.004000 0.828708
O O12 0.439700 0.250000 0.993691
O O13 0.257539 0.010945 0.098284
O O14 0.500000 0.000000 0.000000
O O15 0.599322 0.020484 0.826393
O O16 0.499712 0.250000 0.393644
O O17 0.419889 0.484366 0.392833
O O18 0.662551 0.250000 0.585400
O O19 0.918912 0.434908 0.359795
O O20 0.874832 0.750000 0.851093
O O21 0.282062 0.250000 0.229846
#
# Coordination Sequence:
#
# PCOD8072042 Si02
#       8
#     4   4   4   4   4   4   4   4
#     4  11  23  40  60  88 121 156 193 235 290 349
#     4  10  20  35  55  78 106 144 188 235 284 336
#     4   9  20  38  62  88 115 150 193 240 290 344
#     4  11  22  36  55  81 112 148 189 235 284 340
#     4  10  20  37  61  89 117 149 193 240 285 343
#     4  10  19  34  57  84 113 145 183 232 280 332
#     4   9  20  36  55  82 113 145 186 231 280 334
#     4  10  21  36  53  76 106 143 187 234 285 341
#
# _framework density 19.85988
#
# number of rings (size 3 to 8) (size 9 to 14) (size 15 to 20)
#    0.000    2.000    0.000    3.375    0.000    5.500 
#    2.250    0.000    0.000    0.000    0.000    0.000 
#    0.000    0.000    0.000    0.000    0.000    0.000 
#
# Total GULP energy -396738.943065 kJ/mol
# GULP energy per Si atom -12398.091971 kJ/mol
# Density = 1.981468 g / cm^3
# Si number density = 19.859880 Si / 1000 Ang^3
#
#
#
# Elastic Constant Matrix: (Units=GPa)
#
#
# Indices 1 2 3 4 5 6 
#
# 1 129.2884 61.9987 49.6523 0.0000 -21.4238 0.0000
# 2 61.9987 101.1844 42.1770 0.0000 -9.4262 0.0000
# 3 49.6523 42.1770 79.7743 0.0000 -18.8887 0.0000
# 4 0.0000 0.0000 0.0000 32.7448 0.0000 -4.9389
# 5 -21.4238 -9.4262 -18.8887 0.0000 29.3191 0.0000
# 6 0.0000 0.0000 0.0000 -4.9389 0.0000 36.3974
#
#
#
# Elastic Compliance Matrix: (Units=1/GPa)
#
#
# Indices 1 2 3 4 5 6 
#
# 1 0.012784 -0.005829 -0.003666 0.000000 0.005105 0.000000
# 2 -0.005829 0.015337 -0.005099 0.000000 -0.002614 0.000000
# 3 -0.003666 -0.005099 0.019459 0.000000 0.008218 0.000000
# 4 0.000000 0.000000 0.000000 0.031177 0.000000 0.004231
# 5 0.005105 -0.002614 0.008218 0.000000 0.042292 0.000000
# 6 0.000000 0.000000 0.000000 0.004231 0.000000 0.028049
#
#
# Mechanical properties :
#
#
# Convention : Reuss Voigt Hill
#
# Bulk Modulus (GPa) = 54.37615 68.65590 61.51602
# Shear Modulus (GPa) = 27.11245 30.12021 28.61633
#
# Velocity S-wave (km/s) = 3.69885 3.89863 3.80005
# Velocity P-wave (km/s) = 6.75880 7.41019 7.09198
#
# Compressibility (1/GPa) = 0.01839042
#
# Stress axis : x y z
#
# Youngs Moduli (GPa) = 78.22312 65.20258 51.39016
#
# Poissons Ratio (x) = 0.38009 0.18840
# Poissons Ratio (y) = 0.45599 0.26205
# Poissons Ratio (z) = 0.28677 0.33249
#
# Static dielectric constant tensor:
#      x y z
#    x 3.741270 0.000000 -0.134510 
#    y 0.000000 3.918150 0.000000 
#    z -0.134510 0.000000 3.701710 
# 
# 
# High freq. dielectric constant tensor:
#      x y z
#    x 1.779260 0.000000 -0.009250 
#    y 0.000000 1.785400 0.000000 
#    z -0.009250 0.000000 1.758460 
# 
# From -- ./inp_files/72004.got.cif
#   From: 2010.06.25/outbox.cif.g09.slc.cpg/sg11_37_cif.got.tgz:72004.got - 2010.06.27 23:14:04.
