data_PCOD8072270
_publ_section_title
;
Structure prediction by ZEFSAII (Michael W. Deem and Ramdas Pophale) SiO2 
 PCOD8072270
Probable space group: P 21/M
;
_chemical_formula_sum "Si O2"
_cell_formula_units_Z 28
_cell_length_a 14.506019
_cell_length_b 8.487068
_cell_length_c 20.370998
_cell_angle_alpha 90.000000
_cell_angle_beta 147.548396
_cell_angle_gamma 90.000000
_cell_volume 1345.731446
_symmetry_space_group_name_H-M "P 21/M"
_symmetry_group_IT_number 11
_symmetry_cell_setting 'monoclinic'
loop_
_space_group_symop_operation_xyz
x,y,z
-x,1/2+y,-z
-x,-y,-z
x,1/2-y,z
loop_
_atom_site_type_symbol
_atom_site_label
_atom_site_fract_x
_atom_site_fract_y
_atom_site_fract_z
Si Si1 0.471770 0.434170 0.695404
Si Si2 0.882689 0.432414 0.762006
Si Si3 0.174938 0.065754 0.134778
Si Si4 0.238952 0.568166 0.940427
Si Si5 0.155967 0.567514 0.746227
Si Si6 0.793116 0.936053 0.572932
Si Si7 0.583834 0.064849 0.203293
O O1 0.456067 0.250000 0.700159
O O2 0.669475 0.482821 0.809792
O O3 0.373613 0.480334 0.569466
O O4 0.377399 0.526584 0.697717
O O5 0.851088 0.250000 0.757916
O O6 0.809380 0.530926 0.778761
O O7 0.776614 0.481859 0.633654
O O8 0.084854 0.463495 0.875899
O O9 0.186077 0.250000 0.127926
O O10 0.000000 0.000000 0.000000
O O11 0.191616 0.750000 0.924830
O O12 0.262068 0.535609 0.876781
O O13 0.410791 0.524760 0.080790
O O14 0.136402 0.750000 0.719408
O O15 0.261669 0.494042 0.748746
O O16 0.963532 0.497521 0.638053
O O17 0.812280 0.750000 0.596346
O O18 0.559633 0.250000 0.176798
#
# Coordination Sequence:
#
# PCOD8072270 Si02
#       7
#     4   4   4   4   4   4   4
#     4  11  24  41  60  84 116 153 194 238 285 339
#     4  11  22  38  62  90 118 149 188 235 289 343
#     4  12  25  43  65  89 118 150 188 232 284 342
#     4  10  19  35  57  83 117 154 194 237 287 343
#     4   8  17  34  57  83 113 151 193 239 286 336
#     4   9  20  41  63  84 114 153 196 238 281 334
#     4  11  21  34  54  83 118 154 195 241 290 339
#
# _framework density 20.806529000000001
#
# number of rings (size 3 to 8) (size 9 to 14) (size 15 to 20)
#    0.000    1.714    0.000    6.000    0.000    2.286 
#    0.000    6.429    0.000    0.000    0.000    0.000 
#    0.000    0.000    0.000    0.000    0.000    0.000 
#
# Total GULP energy -347274.023369 kJ/mol
# GULP energy per Si atom -12402.643692 kJ/mol
# Density = 2.075917 g / cm^3
# Si number density = 20.806529 Si / 1000 Ang^3
#
#
#
# Elastic Constant Matrix: (Units=GPa)
#
#
# Indices 1 2 3 4 5 6 
#
# 1 104.4545 10.7946 13.9183 0.0000 -11.5668 0.0000
# 2 10.7946 48.9413 20.1914 0.0000 -3.8272 0.0000
# 3 13.9183 20.1914 89.1933 0.0000 -7.3358 0.0000
# 4 0.0000 0.0000 0.0000 28.2867 0.0000 -3.6449
# 5 -11.5668 -3.8272 -7.3358 0.0000 22.2878 0.0000
# 6 0.0000 0.0000 0.0000 -3.6449 0.0000 28.8315
#
#
#
# Elastic Compliance Matrix: (Units=1/GPa)
#
#
# Indices 1 2 3 4 5 6 
#
# 1 0.010386 -0.001553 -0.000871 0.000000 0.004836 0.000000
# 2 -0.001553 0.022880 -0.004811 0.000000 0.001540 0.000000
# 3 -0.000871 -0.004811 0.012675 0.000000 0.002893 0.000000
# 4 0.000000 0.000000 0.000000 0.035938 0.000000 0.004543
# 5 0.004836 0.001540 0.002893 0.000000 0.048594 0.000000
# 6 0.000000 0.000000 0.000000 0.004543 0.000000 0.035259
#
#
# Mechanical properties :
#
#
# Convention : Reuss Voigt Hill
#
# Bulk Modulus (GPa) = 31.77568 36.93311 34.35439
# Shear Modulus (GPa) = 26.22037 29.06017 27.64027
#
# Velocity S-wave (km/s) = 3.55378 3.74128 3.64873
# Velocity P-wave (km/s) = 5.66959 6.03756 5.85647
#
# Compressibility (1/GPa) = 0.03147061
#
# Stress axis : x y z
#
# Youngs Moduli (GPa) = 96.28617 43.70574 78.89818
#
# Poissons Ratio (x) = 0.06788 0.06874
# Poissons Ratio (y) = 0.14954 0.37955
# Poissons Ratio (z) = 0.08389 0.21025
#
# Static dielectric constant tensor:
#      x y z
#    x 4.029740 0.000000 0.003600 
#    y 0.000000 3.623780 0.000000 
#    z 0.003600 0.000000 3.652890 
# 
# 
# High freq. dielectric constant tensor:
#      x y z
#    x 1.824880 0.000000 -0.005610 
#    y 0.000000 1.803650 0.000000 
#    z -0.005610 0.000000 1.810460 
# 
# From -- ./inp_files/65445.got.cif
#   From: 2010.06.25/outbox.cif.g09.slc.cpg/sg11_33_cif.got.tgz:65445.got - 2010.06.27 23:14:04.
