data_PCOD8072702
_publ_section_title
;
Structure prediction by ZEFSAII (Michael W. Deem and Ramdas Pophale) SiO2 
 PCOD8072702
Probable space group: P 21/M
;
_chemical_formula_sum "Si O2"
_cell_formula_units_Z 32
_cell_length_a 11.369067
_cell_length_b 13.259321
_cell_length_c 17.083983
_cell_angle_alpha 90.000000
_cell_angle_beta 34.010551
_cell_angle_gamma 90.000000
_cell_volume 1440.507212
_symmetry_space_group_name_H-M "P 21/M"
_symmetry_group_IT_number 11
_symmetry_cell_setting 'monoclinic'
loop_
_space_group_symop_operation_xyz
x,y,z
-x,1/2+y,-z
-x,-y,-z
x,1/2-y,z
loop_
_atom_site_type_symbol
_atom_site_label
_atom_site_fract_x
_atom_site_fract_y
_atom_site_fract_z
Si Si1 0.156736 0.947812 0.181138
Si Si2 0.661388 0.133065 0.349901
Si Si3 0.573526 0.636323 0.752402
Si Si4 0.407635 0.552846 0.457942
Si Si5 0.157150 0.869858 0.907019
Si Si6 0.871097 0.868217 0.200166
Si Si7 0.397033 0.134357 0.090887
Si Si8 0.895805 0.961946 0.479291
O O1 0.987341 0.926909 0.206246
O O2 0.048433 0.928567 0.325265
O O3 0.246922 0.062230 0.121785
O O4 0.356117 0.873052 0.066781
O O5 0.599801 0.250000 0.374142
O O6 0.739286 0.106052 0.394310
O O7 0.836147 0.097773 0.188918
O O8 0.450232 0.065178 0.455953
O O9 0.513115 0.750000 0.804586
O O10 0.364586 0.582934 0.833597
O O11 0.637796 0.591160 0.801312
O O12 0.754700 0.631632 0.586906
O O13 0.622919 0.614374 0.332273
O O14 0.261474 0.552607 0.461968
O O15 0.166071 0.750000 0.903683
O O16 0.957178 0.907327 0.067495
O O17 0.916241 0.750000 0.186986
O O18 0.323608 0.250000 0.119660
O O19 0.000000 0.000000 0.500000
#
# Coordination Sequence:
#
# PCOD8072702 Si02
#       8
#     4   4   4   4   4   4   4   4
#     4  11  22  38  69 100 134 181 227 274 341 392
#     4  10  20  39  63  90 128 166 208 263 321 394
#     4  10  19  38  64  91 126 170 223 280 328 390
#     4  11  24  40  63  98 125 170 221 273 338 387
#     4   9  18  35  64  95 124 168 221 266 324 391
#     4  11  23  41  66 100 136 174 225 278 331 400
#     4  10  21  40  65 100 136 175 231 285 332 394
#     4  12  25  43  62  94 128 170 224 272 328 405
#
# _framework density 22.214399
#
# number of rings (size 3 to 8) (size 9 to 14) (size 15 to 20)
#    0.000    1.500    3.750    2.250    0.000    1.500 
#    0.000    4.375    0.000    0.000    0.000    0.000 
#    0.000    0.000    0.000    0.000    0.000    0.000 
#
# Total GULP energy -396474.018788 kJ/mol
# GULP energy per Si atom -12389.813087 kJ/mol
# Density = 2.216384 g / cm^3
# Si number density = 22.214399 Si / 1000 Ang^3
#
#
#
# Elastic Constant Matrix: (Units=GPa)
#
#
# Indices 1 2 3 4 5 6 
#
# 1 140.0222 27.0613 65.0954 0.0000 17.1189 0.0000
# 2 27.0613 71.3064 40.1341 0.0000 11.2600 0.0000
# 3 65.0954 40.1341 149.7692 0.0000 29.8962 0.0000
# 4 0.0000 0.0000 0.0000 33.4755 0.0000 6.1797
# 5 17.1189 11.2600 29.8962 0.0000 38.7327 0.0000
# 6 0.0000 0.0000 0.0000 6.1797 0.0000 19.6975
#
#
#
# Elastic Compliance Matrix: (Units=1/GPa)
#
#
# Indices 1 2 3 4 5 6 
#
# 1 0.009107 -0.001392 -0.003384 0.000000 -0.001008 0.000000
# 2 -0.001392 0.016816 -0.003603 0.000000 -0.001492 0.000000
# 3 -0.003384 -0.003603 0.010173 0.000000 -0.005309 0.000000
# 4 0.000000 0.000000 0.000000 0.031709 0.000000 -0.009948
# 5 -0.001008 -0.001492 -0.005309 0.000000 0.030795 0.000000
# 6 0.000000 0.000000 0.000000 -0.009948 0.000000 0.053889
#
#
# Mechanical properties :
#
#
# Convention : Reuss Voigt Hill
#
# Bulk Modulus (GPa) = 51.71363 69.51994 60.61678
# Shear Modulus (GPa) = 28.45845 33.63493 31.04669
#
# Velocity S-wave (km/s) = 3.58310 3.89537 3.74250
# Velocity P-wave (km/s) = 6.35988 7.18295 6.78391
#
# Compressibility (1/GPa) = 0.01933726
#
# Stress axis : x y z
#
# Youngs Moduli (GPa) = 109.80208 59.46691 98.29871
#
# Poissons Ratio (x) = 0.08280 0.33264
# Poissons Ratio (y) = 0.15289 0.35419
# Poissons Ratio (z) = 0.37156 0.21427
#
# Static dielectric constant tensor:
#      x y z
#    x 4.135280 0.000000 0.347130 
#    y 0.000000 3.924260 0.000000 
#    z 0.347130 0.000000 4.404580 
# 
# 
# High freq. dielectric constant tensor:
#      x y z
#    x 1.865020 0.000000 0.017860 
#    y 0.000000 1.857960 0.000000 
#    z 0.017860 0.000000 1.890650 
# 
# From -- ./inp_files/59478.got.cif
#   From: 2010.06.25/outbox.cif.g09.slc.cpg/sg11_30_cif.got.tgz:59478.got - 2010.06.27 23:14:04.
