data_PCOD8072076
_publ_section_title
;
Structure prediction by ZEFSAII (Michael W. Deem and Ramdas Pophale) SiO2 
 PCOD8072076
Probable space group: P 21/M
;
_chemical_formula_sum "Si O2"
_cell_formula_units_Z 28
_cell_length_a 10.085556
_cell_length_b 8.811818
_cell_length_c 22.785370
_cell_angle_alpha 90.000000
_cell_angle_beta 46.229385
_cell_angle_gamma 90.000000
_cell_volume 1462.271047
_symmetry_space_group_name_H-M "P 21/M"
_symmetry_group_IT_number 11
_symmetry_cell_setting 'monoclinic'
loop_
_space_group_symop_operation_xyz
x,y,z
-x,1/2+y,-z
-x,-y,-z
x,1/2-y,z
loop_
_atom_site_type_symbol
_atom_site_label
_atom_site_fract_x
_atom_site_fract_y
_atom_site_fract_z
Si Si1 0.577280 0.927088 0.263014
Si Si2 0.499084 0.575292 0.832295
Si Si3 0.208715 0.425997 0.594120
Si Si4 0.002230 0.428004 0.846518
Si Si5 0.902146 0.924906 0.756285
Si Si6 0.152815 0.428698 0.994574
Si Si7 0.449948 0.574622 0.429412
O O1 0.562589 0.750000 0.252404
O O2 0.466779 0.966279 0.355979
O O3 0.788681 0.975129 0.205187
O O4 0.485764 0.024301 0.239795
O O5 0.437997 0.750000 0.853598
O O6 0.692504 0.548695 0.803729
O O7 0.353313 0.473954 0.911339
O O8 0.156881 0.250000 0.608521
O O9 0.287164 0.474605 0.506729
O O10 0.357126 0.463882 0.598864
O O11 0.026990 0.521923 0.663567
O O12 0.973094 0.250000 0.863710
O O13 0.947669 0.472087 0.797874
O O14 0.870671 0.515541 0.931748
O O15 0.942772 0.750000 0.758373
O O16 0.131790 0.250000 0.997954
O O17 0.000000 0.500000 0.000000
O O18 0.401432 0.750000 0.454263
#
# Coordination Sequence:
#
# PCOD8072076 Si02
#       7
#     4   4   4   4   4   4   4
#     4  10  20  37  61  89 119 154 197 247 299 353
#     4  11  25  42  61  87 121 160 202 246 297 357
#     4  10  19  34  57  87 120 155 196 244 298 351
#     4  11  22  39  64  92 120 154 200 249 295 352
#     4  11  24  41  60  87 123 162 200 244 300 356
#     4  12  24  40  63  91 121 156 198 246 299 351
#     4   9  18  34  56  87 120 150 193 245 296 351
#
# _framework density 19.148296999999999
#
# number of rings (size 3 to 8) (size 9 to 14) (size 15 to 20)
#    0.000    1.429    2.857    3.000    0.000    4.571 
#    0.000    0.714    0.000    0.000    0.000    0.000 
#    0.000    0.000    0.000    0.000    0.000    0.000 
#
# Total GULP energy -347370.212304 kJ/mol
# GULP energy per Si atom -12406.079011 kJ/mol
# Density = 1.910471 g / cm^3
# Si number density = 19.148297 Si / 1000 Ang^3
#
#
#
# Elastic Constant Matrix: (Units=GPa)
#
#
# Indices 1 2 3 4 5 6 
#
# 1 48.0084 38.1859 26.1562 0.0000 4.3883 0.0000
# 2 38.1859 100.0787 46.8570 0.0000 -4.1482 0.0000
# 3 26.1562 46.8570 116.9207 0.0000 3.1618 0.0000
# 4 0.0000 0.0000 0.0000 38.1158 0.0000 4.4178
# 5 4.3883 -4.1482 3.1618 0.0000 26.4897 0.0000
# 6 0.0000 0.0000 0.0000 4.4178 0.0000 28.9334
#
#
#
# Elastic Compliance Matrix: (Units=1/GPa)
#
#
# Indices 1 2 3 4 5 6 
#
# 1 0.031702 -0.011251 -0.002401 0.000000 -0.006727 0.000000
# 2 -0.011251 0.016463 -0.004215 0.000000 0.004945 0.000000
# 3 -0.002401 -0.004215 0.010821 0.000000 -0.001554 0.000000
# 4 0.000000 0.000000 0.000000 0.026709 0.000000 -0.004078
# 5 -0.006727 0.004945 -0.001554 0.000000 0.039825 0.000000
# 6 0.000000 0.000000 0.000000 -0.004078 0.000000 0.035185
#
#
# Mechanical properties :
#
#
# Convention : Reuss Voigt Hill
#
# Bulk Modulus (GPa) = 43.00543 54.15624 48.58084
# Shear Modulus (GPa) = 24.48730 28.96170 26.72450
#
# Velocity S-wave (km/s) = 3.57994 3.89330 3.73991
# Velocity P-wave (km/s) = 6.29253 6.96809 6.63891
#
# Compressibility (1/GPa) = 0.02325287
#
# Stress axis : x y z
#
# Youngs Moduli (GPa) = 31.54424 60.74170 92.41249
#
# Poissons Ratio (x) = 0.68338 0.22190
# Poissons Ratio (y) = 0.35489 0.38948
# Poissons Ratio (z) = 0.07574 0.25600
#
# Static dielectric constant tensor:
#      x y z
#    x 3.323860 0.000000 0.054380 
#    y 0.000000 3.583590 0.000000 
#    z 0.054380 0.000000 3.717330 
# 
# 
# High freq. dielectric constant tensor:
#      x y z
#    x 1.724340 0.000000 0.006460 
#    y 0.000000 1.754360 0.000000 
#    z 0.006460 0.000000 1.760140 
# 
# From -- ./inp_files/63375.got.cif
#   From: 2010.06.25/outbox.cif.g09.slc.cpg/sg11_32_cif.got.tgz:63375.got - 2010.06.27 23:14:04.
