data_PCOD8072011
_publ_section_title
;
Structure prediction by ZEFSAII (Michael W. Deem and Ramdas Pophale) SiO2 
 PCOD8072011
Probable space group: P 21/M
;
_chemical_formula_sum "Si O2"
_cell_formula_units_Z 28
_cell_length_a 15.536753
_cell_length_b 9.175681
_cell_length_c 18.273495
_cell_angle_alpha 90.000000
_cell_angle_beta 35.168153
_cell_angle_gamma 90.000000
_cell_volume 1500.465812
_symmetry_space_group_name_H-M "P 21/M"
_symmetry_group_IT_number 11
_symmetry_cell_setting 'monoclinic'
loop_
_space_group_symop_operation_xyz
x,y,z
-x,1/2+y,-z
-x,-y,-z
x,1/2-y,z
loop_
_atom_site_type_symbol
_atom_site_label
_atom_site_fract_x
_atom_site_fract_y
_atom_site_fract_z
Si Si1 0.970748 0.918207 0.445119
Si Si2 0.714847 0.578654 0.518471
Si Si3 0.706668 0.416037 0.826881
Si Si4 0.603141 0.078842 0.199406
Si Si5 0.156017 0.422760 0.875413
Si Si6 0.473622 0.919589 0.909127
Si Si7 0.659377 0.578103 0.395845
O O1 0.938664 0.750000 0.486522
O O2 0.116529 0.936042 0.293499
O O3 0.837019 0.989445 0.489541
O O4 0.000000 0.000000 0.500000
O O5 0.733744 0.750000 0.512666
O O6 0.550187 0.529658 0.656172
O O7 0.737916 0.531136 0.417898
O O8 0.659981 0.250000 0.847069
O O9 0.633764 0.504462 0.810350
O O10 0.643351 0.473207 0.948261
O O11 0.636722 0.250000 0.189236
O O12 0.595728 0.037548 0.119777
O O13 0.732840 0.978707 0.140043
O O14 0.134392 0.250000 0.896011
O O15 0.225484 0.467357 0.748222
O O16 0.000000 0.500000 0.000000
O O17 0.506877 0.750000 0.888909
O O18 0.500000 0.500000 0.500000
O O19 0.626564 0.750000 0.417092
#
# Coordination Sequence:
#
# PCOD8072011 Si02
#       7
#     4   4   4   4   4   4   4
#     4  10  20  34  52  76 108 142 179 224 273 323
#     4   9  18  33  56  82 107 142 182 223 276 336
#     4   9  18  32  50  75 107 142 179 227 276 321
#     4  10  19  34  57  81 107 141 182 228 277 336
#     4  11  24  39  58  85 115 149 185 231 287 340
#     4   9  18  32  53  78 104 142 185 221 270 335
#     4  10  20  37  61  85 111 146 188 233 283 338
#
# _framework density 18.660872000000001
#
# number of rings (size 3 to 8) (size 9 to 14) (size 15 to 20)
#    0.000    2.286    1.429    1.286    0.000    4.000 
#    0.000    5.714    0.000    1.714    0.000    0.000 
#    0.000    0.000    0.000    0.000    0.000    0.000 
#
# Total GULP energy -347143.434531 kJ/mol
# GULP energy per Si atom -12397.979805 kJ/mol
# Density = 1.861840 g / cm^3
# Si number density = 18.660872 Si / 1000 Ang^3
#
#
#
# Elastic Constant Matrix: (Units=GPa)
#
#
# Indices 1 2 3 4 5 6 
#
# 1 163.9211 50.3779 77.2077 0.0000 -2.8109 0.0000
# 2 50.3779 47.1387 43.5399 0.0000 0.8214 0.0000
# 3 77.2077 43.5399 116.0599 0.0000 0.2027 0.0000
# 4 0.0000 0.0000 0.0000 26.6287 0.0000 -2.6850
# 5 -2.8109 0.8214 0.2027 0.0000 29.9795 0.0000
# 6 0.0000 0.0000 0.0000 -2.6850 0.0000 30.8056
#
#
#
# Elastic Compliance Matrix: (Units=1/GPa)
#
#
# Indices 1 2 3 4 5 6 
#
# 1 0.010280 -0.007175 -0.004149 0.000000 0.001189 0.000000
# 2 -0.007175 0.037490 -0.009288 0.000000 -0.001637 0.000000
# 3 -0.004149 -0.009288 0.014861 0.000000 -0.000235 0.000000
# 4 0.000000 0.000000 0.000000 0.037886 0.000000 0.003302
# 5 0.001189 -0.001637 -0.000235 0.000000 0.033514 0.000000
# 6 0.000000 0.000000 0.000000 0.003302 0.000000 0.032749
#
#
# Mechanical properties :
#
#
# Convention : Reuss Voigt Hill
#
# Bulk Modulus (GPa) = 46.71509 74.37453 60.54481
# Shear Modulus (GPa) = 23.24048 27.88237 25.56143
#
# Velocity S-wave (km/s) = 3.53287 3.86963 3.70508
# Velocity P-wave (km/s) = 6.45985 7.74001 7.12872
#
# Compressibility (1/GPa) = 0.02140636
#
# Stress axis : x y z
#
# Youngs Moduli (GPa) = 97.27368 26.67394 67.28831
#
# Poissons Ratio (x) = 0.19138 0.27920
# Poissons Ratio (y) = 0.69793 0.62500
# Poissons Ratio (z) = 0.40361 0.24776
#
# Static dielectric constant tensor:
#      x y z
#    x 3.652340 0.000000 0.082140 
#    y 0.000000 3.272660 0.000000 
#    z 0.082140 0.000000 3.747300 
# 
# 
# High freq. dielectric constant tensor:
#      x y z
#    x 1.732630 0.000000 0.005480 
#    y 0.000000 1.701920 0.000000 
#    z 0.005480 0.000000 1.732250 
# 
# From -- ./inp_files/53204.got.cif
#   From: 2010.06.25/outbox.cif.g09.slc.cpg/sg11_27_cif.got.tgz:53204.got - 2010.06.27 23:14:04.
