data_PCOD8072031
_publ_section_title
;
Structure prediction by ZEFSAII (Michael W. Deem and Ramdas Pophale) SiO2 
 PCOD8072031
Probable space group: P 21/M
;
_chemical_formula_sum "Si O2"
_cell_formula_units_Z 28
_cell_length_a 13.651770
_cell_length_b 13.262983
_cell_length_c 9.059025
_cell_angle_alpha 90.000000
_cell_angle_beta 116.813632
_cell_angle_gamma 90.000000
_cell_volume 1463.893242
_symmetry_space_group_name_H-M "P 21/M"
_symmetry_group_IT_number 11
_symmetry_cell_setting 'monoclinic'
loop_
_space_group_symop_operation_xyz
x,y,z
-x,1/2+y,-z
-x,-y,-z
x,1/2-y,z
loop_
_atom_site_type_symbol
_atom_site_label
_atom_site_fract_x
_atom_site_fract_y
_atom_site_fract_z
Si Si1 0.989136 0.984911 0.237950
Si Si2 0.928348 0.364123 0.445387
Si Si3 0.685422 0.362354 0.234545
Si Si4 0.624285 0.631113 0.616954
Si Si5 0.537567 0.500237 0.314580
Si Si6 0.823108 0.519477 0.867035
Si Si7 0.666227 0.135778 0.884206
O O1 0.005710 0.893080 0.362253
O O2 0.096971 0.007726 0.216391
O O3 0.966317 0.081494 0.322483
O O4 0.888741 0.956511 0.061987
O O5 0.954420 0.250000 0.427008
O O6 0.800329 0.383392 0.393956
O O7 0.640807 0.250000 0.243263
O O8 0.599189 0.447860 0.220575
O O9 0.712000 0.368731 0.079959
O O10 0.612179 0.750000 0.578436
O O11 0.626071 0.565255 0.467799
O O12 0.517169 0.591059 0.630921
O O13 0.737465 0.610733 0.781792
O O14 0.448811 0.578262 0.194224
O O15 0.754547 0.415837 0.836506
O O16 0.648697 0.250000 0.816745
#
# Coordination Sequence:
#
# PCOD8072031 Si02
#       7
#     4   4   4   4   4   4   4
#     4  10  21  38  58  83 112 148 191 232 288 335
#     4  10  21  37  58  84 114 147 189 238 281 336
#     4  10  19  34  57  83 111 147 186 228 280 337
#     4  10  21  36  53  79 111 146 187 231 280 336
#     4  10  20  35  56  80 113 150 183 230 282 332
#     4  10  21  37  59  82 113 152 186 238 284 337
#     4  10  20  35  57  86 113 144 188 233 277 336
#
# _framework density 19.127078999999998
#
# number of rings (size 3 to 8) (size 9 to 14) (size 15 to 20)
#    0.000    2.000    1.429    2.143    0.000    1.714 
#    0.000    6.429    0.000    1.714    0.000    0.000 
#    0.000    0.000    0.000    0.000    0.000    0.000 
#
# Total GULP energy -347176.782011 kJ/mol
# GULP energy per Si atom -12399.170786 kJ/mol
# Density = 1.908355 g / cm^3
# Si number density = 19.127079 Si / 1000 Ang^3
#
#
#
# Elastic Constant Matrix: (Units=GPa)
#
#
# Indices 1 2 3 4 5 6 
#
# 1 85.7381 56.0889 37.0603 0.0000 6.5558 0.0000
# 2 56.0889 112.5564 40.8029 0.0000 11.0173 0.0000
# 3 37.0603 40.8029 101.9646 0.0000 11.5428 0.0000
# 4 0.0000 0.0000 0.0000 19.0183 0.0000 -0.3693
# 5 6.5558 11.0173 11.5428 0.0000 28.6986 0.0000
# 6 0.0000 0.0000 0.0000 -0.3693 0.0000 26.0223
#
#
#
# Elastic Compliance Matrix: (Units=1/GPa)
#
#
# Indices 1 2 3 4 5 6 
#
# 1 0.018324 -0.007874 -0.003539 0.000000 0.000260 0.000000
# 2 -0.007874 0.013939 -0.002424 0.000000 -0.002577 0.000000
# 3 -0.003539 -0.002424 0.012433 0.000000 -0.003262 0.000000
# 4 0.000000 0.000000 0.000000 0.052595 0.000000 0.000746
# 5 0.000260 -0.002577 -0.003262 0.000000 0.037087 0.000000
# 6 0.000000 0.000000 0.000000 0.000746 0.000000 0.038439
#
#
# Mechanical properties :
#
#
# Convention : Reuss Voigt Hill
#
# Bulk Modulus (GPa) = 58.74643 63.12926 60.93785
# Shear Modulus (GPa) = 24.25233 25.83498 25.04366
#
# Velocity S-wave (km/s) = 3.56470 3.67918 3.62239
# Velocity P-wave (km/s) = 6.90820 7.15019 7.03024
#
# Compressibility (1/GPa) = 0.01702231
#
# Stress axis : x y z
#
# Youngs Moduli (GPa) = 54.57278 71.73965 80.43178
#
# Poissons Ratio (x) = 0.56487 0.28462
# Poissons Ratio (y) = 0.42970 0.19500
# Poissons Ratio (z) = 0.19312 0.17393
#
# Static dielectric constant tensor:
#      x y z
#    x 3.379430 0.000000 0.138930 
#    y 0.000000 3.438560 0.000000 
#    z 0.138930 0.000000 3.625960 
# 
# 
# High freq. dielectric constant tensor:
#      x y z
#    x 1.739440 0.000000 0.008410 
#    y 0.000000 1.740430 0.000000 
#    z 0.008410 0.000000 1.753550 
# 
# From -- ./inp_files/21295.got.cif
#   From: 2010.06.25/outbox.cif.g09.slc.cpg/sg11_11_cif.got.tgz:21295.got - 2010.06.27 23:14:04.
