data_PCOD8072157
_publ_section_title
;
Structure prediction by ZEFSAII (Michael W. Deem and Ramdas Pophale) SiO2 
 PCOD8072157
Probable space group: P 21/M
;
_chemical_formula_sum "Si O2"
_cell_formula_units_Z 32
_cell_length_a 12.677107
_cell_length_b 9.098036
_cell_length_c 14.508371
_cell_angle_alpha 90.000000
_cell_angle_beta 80.996336
_cell_angle_gamma 90.000000
_cell_volume 1652.730291
_symmetry_space_group_name_H-M "P 21/M"
_symmetry_group_IT_number 11
_symmetry_cell_setting 'monoclinic'
loop_
_space_group_symop_operation_xyz
x,y,z
-x,1/2+y,-z
-x,-y,-z
x,1/2-y,z
loop_
_atom_site_type_symbol
_atom_site_label
_atom_site_fract_x
_atom_site_fract_y
_atom_site_fract_z
Si Si1 0.222253 0.413520 0.168787
Si Si2 0.701448 0.921523 0.378332
Si Si3 0.536441 0.579994 0.903908
Si Si4 0.884926 0.080957 0.659503
Si Si5 0.502636 0.920186 0.274462
Si Si6 0.919050 0.424926 0.294882
Si Si7 0.687863 0.079685 0.566683
Si Si8 0.018049 0.085989 0.090014
O O1 0.214370 0.250000 0.215446
O O2 0.338040 0.446749 0.115503
O O3 0.190761 0.537101 0.245626
O O4 0.143996 0.420369 0.092110
O O5 0.729420 0.750000 0.379832
O O6 0.605023 0.953771 0.322667
O O7 0.803927 0.010483 0.330699
O O8 0.664328 0.977932 0.482856
O O9 0.504553 0.750000 0.913272
O O10 0.482321 0.512635 0.820483
O O11 0.500000 0.500000 0.000000
O O12 0.918252 0.250000 0.665212
O O13 0.811760 0.056068 0.579066
O O14 0.993242 0.984646 0.643422
O O15 0.495806 0.750000 0.248347
O O16 0.394503 0.969233 0.342022
O O17 0.916836 0.250000 0.304615
O O18 0.954151 0.476981 0.187620
O O19 0.667113 0.250000 0.543993
O O20 0.977318 0.250000 0.077793
O O21 0.000000 0.000000 0.000000
#
# Coordination Sequence:
#
# PCOD8072157 Si02
#       8
#     4   4   4   4   4   4   4   4
#     4   9  19  36  55  79 112 149 189 237 291 344
#     4  11  24  39  60  88 120 159 201 246 298 357
#     4  11  23  38  60  88 118 156 200 247 301 355
#     4  10  19  34  61  89 113 148 193 240 292 350
#     4  10  22  42  62  86 121 157 199 251 300 353
#     4  10  22  40  58  81 120 158 195 244 297 352
#     4  10  21  38  62  89 119 155 196 245 302 360
#     4   9  19  35  56  81 108 144 188 234 286 345
#
# _framework density 19.361901
#
# number of rings (size 3 to 8) (size 9 to 14) (size 15 to 20)
#    0.000    2.000    1.250    2.625    0.000    7.000 
#    0.000    3.750    0.000    0.000    0.000    0.000 
#    0.000    0.000    0.000    0.000    0.000    0.000 
#
# Total GULP energy -396815.774344 kJ/mol
# GULP energy per Si atom -12400.492948 kJ/mol
# Density = 1.931783 g / cm^3
# Si number density = 19.361901 Si / 1000 Ang^3
#
#
#
# Elastic Constant Matrix: (Units=GPa)
#
#
# Indices 1 2 3 4 5 6 
#
# 1 105.1110 48.8235 38.9792 0.0000 3.0880 0.0000
# 2 48.8235 96.0508 56.0749 0.0000 6.6690 0.0000
# 3 38.9792 56.0749 107.3504 0.0000 8.9748 0.0000
# 4 0.0000 0.0000 0.0000 35.8006 0.0000 -1.7662
# 5 3.0880 6.6690 8.9748 0.0000 21.9766 0.0000
# 6 0.0000 0.0000 0.0000 -1.7662 0.0000 31.5199
#
#
#
# Elastic Compliance Matrix: (Units=1/GPa)
#
#
# Indices 1 2 3 4 5 6 
#
# 1 0.012695 -0.005430 -0.001824 0.000000 0.000609 0.000000
# 2 -0.005430 0.017344 -0.006949 0.000000 -0.001662 0.000000
# 3 -0.001824 -0.006949 0.013884 0.000000 -0.003305 0.000000
# 4 0.000000 0.000000 0.000000 0.028010 0.000000 0.001570
# 5 0.000609 -0.001662 -0.003305 0.000000 0.047271 0.000000
# 6 0.000000 0.000000 0.000000 0.001570 0.000000 0.031814
#
#
# Mechanical properties :
#
#
# Convention : Reuss Voigt Hill
#
# Bulk Modulus (GPa) = 64.44988 66.25196 65.35092
# Shear Modulus (GPa) = 27.08641 28.83508 27.96075
#
# Velocity S-wave (km/s) = 3.74432 3.86329 3.80427
# Velocity P-wave (km/s) = 7.21474 7.36152 7.28850
#
# Compressibility (1/GPa) = 0.01551593
#
# Stress axis : x y z
#
# Youngs Moduli (GPa) = 78.77405 57.65838 72.02792
#
# Poissons Ratio (x) = 0.31310 0.13136
# Poissons Ratio (y) = 0.42777 0.50050
# Poissons Ratio (z) = 0.14367 0.40065
#
# Static dielectric constant tensor:
#      x y z
#    x 3.746700 0.000000 0.042030 
#    y 0.000000 3.531550 0.000000 
#    z 0.042030 0.000000 3.410010 
# 
# 
# High freq. dielectric constant tensor:
#      x y z
#    x 1.762820 0.000000 0.005380 
#    y 0.000000 1.758790 0.000000 
#    z 0.005380 0.000000 1.745850 
# 
# From -- ./inp_files/42877.got.cif
#   From: 2010.06.25/outbox.cif.g09.slc.cpg/sg11_22_cif.got.tgz:42877.got - 2010.06.27 23:14:04.
