data_PCOD8072923
_publ_section_title
;
Structure prediction by ZEFSAII (Michael W. Deem and Ramdas Pophale) SiO2 
 PCOD8072923
Probable space group: P 21/M
;
_chemical_formula_sum "Si O2"
_cell_formula_units_Z 32
_cell_length_a 24.190094
_cell_length_b 9.662063
_cell_length_c 25.340117
_cell_angle_alpha 90.000000
_cell_angle_beta 162.672016
_cell_angle_gamma 90.000000
_cell_volume 1764.008793
_symmetry_space_group_name_H-M "P 21/M"
_symmetry_group_IT_number 11
_symmetry_cell_setting 'monoclinic'
loop_
_space_group_symop_operation_xyz
x,y,z
-x,1/2+y,-z
-x,-y,-z
x,1/2-y,z
loop_
_atom_site_type_symbol
_atom_site_label
_atom_site_fract_x
_atom_site_fract_y
_atom_site_fract_z
Si Si1 0.441511 0.914353 0.303792
Si Si2 0.166109 0.414353 0.303824
Si Si3 0.031120 0.096426 0.289826
Si Si4 0.344982 0.589888 0.703797
Si Si5 0.548532 0.903573 0.289821
Si Si6 0.445487 0.089590 0.000004
Si Si7 0.062630 0.410114 0.703818
Si Si8 0.944226 0.414748 0.000011
O O1 0.453132 0.750000 0.313661
O O2 0.625220 0.975500 0.499983
O O3 0.430846 0.961883 0.232572
O O4 0.261868 0.963598 0.171924
O O5 0.174222 0.250000 0.313691
O O6 0.034322 0.461886 0.232590
O O7 0.082029 0.463595 0.171965
O O8 0.941298 0.250000 0.210489
O O9 0.240544 0.104100 0.500002
O O10 0.914986 0.994788 0.221439
O O11 0.380821 0.750000 0.723955
O O12 0.472097 0.505210 0.778556
O O13 0.127068 0.551924 0.499989
O O14 0.412040 0.551814 0.823373
O O15 0.479685 0.750000 0.210487
O O16 0.462210 0.250000 0.999986
O O17 0.234728 0.051797 0.823402
O O18 0.500000 0.000000 0.000000
O O19 0.067122 0.250000 0.723986
O O20 0.955533 0.250000 0.000006
O O21 0.000000 0.500000 0.000000
#
# Coordination Sequence:
#
# PCOD8072923 Si02
#       8
#     4   4   4   4   4   4   4   4
#     4   8  15  29  48  69  94 122 151 188 233 276
#     4   8  15  29  48  69  94 122 151 188 233 276
#     4   8  14  27  49  75  97 118 151 190 226 275
#     4   9  18  33  51  71  98 127 150 183 236 284
#     4   8  14  27  49  75  97 118 151 190 226 275
#     4  10  22  37  50  68  94 125 163 198 227 268
#     4   9  18  33  51  71  98 127 150 183 236 284
#     4  10  20  33  48  66  90 123 161 196 231 272
#
# _framework density 18.140499999999999
#
# number of rings (size 3 to 8) (size 9 to 14) (size 15 to 20)
#    0.000    3.250    0.000    1.500    0.000    3.000 
#    0.000    2.500    0.000    1.500    0.000    0.000 
#    0.000    0.000    0.000    0.000    0.000    0.000 
#
# Total GULP energy -396622.843341 kJ/mol
# GULP energy per Si atom -12394.463854 kJ/mol
# Density = 1.809921 g / cm^3
# Si number density = 18.140500 Si / 1000 Ang^3
#
#
#
# Elastic Constant Matrix: (Units=GPa)
#
#
# Indices 1 2 3 4 5 6 
#
# 1 185.0939 73.9306 77.4320 0.0000 -5.5655 0.0000
# 2 73.9306 57.9959 36.9181 0.0000 -3.4280 0.0000
# 3 77.4320 36.9181 99.8578 0.0000 -2.2992 0.0000
# 4 0.0000 0.0000 0.0000 12.5062 0.0000 -2.3152
# 5 -5.5655 -3.4280 -2.2992 0.0000 24.0230 0.0000
# 6 0.0000 0.0000 0.0000 -2.3152 0.0000 37.3980
#
#
#
# Elastic Compliance Matrix: (Units=1/GPa)
#
#
# Indices 1 2 3 4 5 6 
#
# 1 0.012704 -0.012942 -0.005052 0.000000 0.000613 0.000000
# 2 -0.012942 0.035876 -0.003186 0.000000 0.001816 0.000000
# 3 -0.005052 -0.003186 0.015105 0.000000 -0.000179 0.000000
# 4 0.000000 0.000000 0.000000 0.080887 0.000000 0.005008
# 5 0.000613 0.001816 -0.000179 0.000000 0.042011 0.000000
# 6 0.000000 0.000000 0.000000 0.005008 0.000000 0.027049
#
#
# Mechanical properties :
#
#
# Convention : Reuss Voigt Hill
#
# Bulk Modulus (GPa) = 46.89340 79.94541 63.41941
# Shear Modulus (GPa) = 19.00398 25.09657 22.05027
#
# Velocity S-wave (km/s) = 3.24018 3.72352 3.49022
# Velocity P-wave (km/s) = 6.31701 7.91530 7.16088
#
# Compressibility (1/GPa) = 0.02132496
#
# Stress axis : x y z
#
# Youngs Moduli (GPa) = 78.71543 27.87340 66.20121
#
# Poissons Ratio (x) = 0.36075 0.33445
# Poissons Ratio (y) = 1.01876 0.21093
# Poissons Ratio (z) = 0.39767 0.08881
#
# Static dielectric constant tensor:
#      x y z
#    x 3.426020 0.000000 0.029580 
#    y 0.000000 -0.789840 0.000000 
#    z 0.029580 0.000000 3.743890 
# 
# 
# High freq. dielectric constant tensor:
#      x y z
#    x 1.700780 0.000000 0.000500 
#    y 0.000000 1.667970 0.000000 
#    z 0.000500 0.000000 1.706130 
# 
# From -- ./inp_files/70002.got.cif
#   From: 2010.06.25/outbox.cif.g09.slc.cpg/sg11_36_cif.got.tgz:70002.got - 2010.06.27 23:14:04.
