data_PCOD8072494
_publ_section_title
;
Structure prediction by ZEFSAII (Michael W. Deem and Ramdas Pophale) SiO2 
 PCOD8072494
Probable space group: P 21/M
;
_chemical_formula_sum "Si O2"
_cell_formula_units_Z 32
_cell_length_a 16.297912
_cell_length_b 16.592475
_cell_length_c 11.053476
_cell_angle_alpha 90.000000
_cell_angle_beta 36.106525
_cell_angle_gamma 90.000000
_cell_volume 1761.448227
_symmetry_space_group_name_H-M "P 21/M"
_symmetry_group_IT_number 11
_symmetry_cell_setting 'monoclinic'
loop_
_space_group_symop_operation_xyz
x,y,z
-x,1/2+y,-z
-x,-y,-z
x,1/2-y,z
loop_
_atom_site_type_symbol
_atom_site_label
_atom_site_fract_x
_atom_site_fract_y
_atom_site_fract_z
Si Si1 0.327389 0.568019 0.895463
Si Si2 0.074116 0.661549 0.297739
Si Si3 0.385928 0.344515 0.453423
Si Si4 0.916945 0.449826 0.247575
Si Si5 0.220261 0.026276 0.803228
Si Si6 0.353364 0.518498 0.123179
Si Si7 0.193433 0.095925 0.478264
Si Si8 0.817263 0.156529 0.579995
O O1 0.450521 0.633727 0.738288
O O2 0.319307 0.512980 0.786340
O O3 0.175931 0.606017 0.098123
O O4 0.360233 0.511139 0.970579
O O5 0.136297 0.750000 0.206931
O O6 0.070905 0.640847 0.445438
O O7 0.916460 0.661221 0.437708
O O8 0.368576 0.250000 0.505480
O O9 0.305001 0.399164 0.646539
O O10 0.320239 0.362267 0.399102
O O11 0.819312 0.454479 0.244119
O O12 0.896906 0.536347 0.331946
O O13 0.871494 0.376464 0.387365
O O14 0.078274 0.436094 0.024995
O O15 0.245019 0.452975 0.300516
O O16 0.318630 0.608365 0.212894
O O17 0.500000 0.500000 0.000000
O O18 0.778909 0.250000 0.608566
#
# Coordination Sequence:
#
# PCOD8072494 Si02
#       8
#     4   4   4   4   4   4   4   4
#     4  11  21  37  61  82 112 150 187 230 277 329
#     4  10  20  34  56  88 116 141 182 231 283 337
#     4  11  23  38  56  81 116 152 185 231 281 324
#     4   9  19  36  58  82 109 140 192 235 273 324
#     4  10  21  37  59  83 106 149 198 231 267 326
#     4  10  20  36  59  86 110 143 186 225 277 346
#     4  10  19  36  59  85 109 143 185 230 275 338
#     4   9  20  35  56  83 115 146 178 229 290 336
#
# _framework density 18.166869999999999
#
# number of rings (size 3 to 8) (size 9 to 14) (size 15 to 20)
#    0.000    2.000    2.500    1.125    1.750    2.500 
#    0.000    1.250    0.000    0.000    0.000    0.000 
#    0.000    0.000    0.000    0.000    0.000    0.000 
#
# Total GULP energy -396673.566721 kJ/mol
# GULP energy per Si atom -12396.048960 kJ/mol
# Density = 1.812552 g / cm^3
# Si number density = 18.166870 Si / 1000 Ang^3
#
#
#
# Elastic Constant Matrix: (Units=GPa)
#
#
# Indices 1 2 3 4 5 6 
#
# 1 128.5983 57.3913 47.8657 0.0000 -0.7559 0.0000
# 2 57.3913 101.1882 34.8999 0.0000 3.1039 0.0000
# 3 47.8657 34.8999 74.7562 0.0000 -0.2567 0.0000
# 4 0.0000 0.0000 0.0000 17.5205 0.0000 0.6884
# 5 -0.7559 3.1039 -0.2567 0.0000 32.4019 0.0000
# 6 0.0000 0.0000 0.0000 0.6884 0.0000 25.3904
#
#
#
# Elastic Compliance Matrix: (Units=1/GPa)
#
#
# Indices 1 2 3 4 5 6 
#
# 1 0.011995 -0.004979 -0.005353 0.000000 0.000714 0.000000
# 2 -0.004979 0.013890 -0.003302 0.000000 -0.001473 0.000000
# 3 -0.005353 -0.003302 0.018347 0.000000 0.000337 0.000000
# 4 0.000000 0.000000 0.000000 0.057137 0.000000 -0.001549
# 5 0.000714 -0.001473 0.000337 0.000000 0.031023 0.000000
# 6 0.000000 0.000000 0.000000 -0.001549 0.000000 0.039427
#
#
# Mechanical properties :
#
#
# Convention : Reuss Voigt Hill
#
# Bulk Modulus (GPa) = 58.94734 64.98406 61.96570
# Shear Modulus (GPa) = 24.42094 26.02159 25.22127
#
# Velocity S-wave (km/s) = 3.67039 3.78877 3.73005
# Velocity P-wave (km/s) = 7.10496 7.41539 7.26183
#
# Compressibility (1/GPa) = 0.01696429
#
# Stress axis : x y z
#
# Youngs Moduli (GPa) = 83.36897 71.99225 54.50405
#
# Poissons Ratio (x) = 0.35843 0.29179
# Poissons Ratio (y) = 0.41507 0.17997
# Poissons Ratio (z) = 0.44631 0.23772
#
# Static dielectric constant tensor:
#      x y z
#    x 3.567960 0.000000 0.146120 
#    y 0.000000 3.678510 0.000000 
#    z 0.146120 0.000000 3.284920 
# 
# 
# High freq. dielectric constant tensor:
#      x y z
#    x 1.711440 0.000000 0.000830 
#    y 0.000000 1.688020 0.000000 
#    z 0.000830 0.000000 1.705830 
# 
# From -- ./inp_files/41826.got.cif
#   From: 2010.06.25/outbox.cif.g09.slc.cpg/sg11_21_cif.got.tgz:41826.got - 2010.06.27 23:14:04.
