data_PCOD8072334
_publ_section_title
;
Structure prediction by ZEFSAII (Michael W. Deem and Ramdas Pophale) SiO2 
 PCOD8072334
Probable space group: P 21/M
;
_chemical_formula_sum "Si O2"
_cell_formula_units_Z 28
_cell_length_a 16.351031
_cell_length_b 15.740054
_cell_length_c 8.619588
_cell_angle_alpha 90.000000
_cell_angle_beta 139.706511
_cell_angle_gamma 90.000000
_cell_volume 1434.639603
_symmetry_space_group_name_H-M "P 21/M"
_symmetry_group_IT_number 11
_symmetry_cell_setting 'monoclinic'
loop_
_space_group_symop_operation_xyz
x,y,z
-x,1/2+y,-z
-x,-y,-z
x,1/2-y,z
loop_
_atom_site_type_symbol
_atom_site_label
_atom_site_fract_x
_atom_site_fract_y
_atom_site_fract_z
Si Si1 0.669852 0.651662 0.987799
Si Si2 0.866713 0.843648 0.537930
Si Si3 0.560467 0.055637 0.220959
Si Si4 0.186660 0.494845 0.314586
Si Si5 0.786830 0.342302 0.475888
Si Si6 0.079181 0.892877 0.613306
Si Si7 0.142365 0.463600 0.899837
O O1 0.642528 0.750000 0.906884
O O2 0.741479 0.642329 0.254609
O O3 0.757073 0.612207 0.978113
O O4 0.541635 0.597122 0.811215
O O5 0.862409 0.750000 0.609739
O O6 0.870694 0.916051 0.672839
O O7 0.989750 0.844701 0.605450
O O8 0.638429 0.132776 0.254258
O O9 0.659045 0.996022 0.460807
O O10 0.500000 0.000000 0.000000
O O11 0.138831 0.584956 0.317940
O O12 0.132329 0.487592 0.064488
O O13 0.803467 0.250000 0.580620
O O14 0.835783 0.331802 0.369668
O O15 0.996771 0.942927 0.365444
O O16 0.178433 0.953784 0.848506
#
# Coordination Sequence:
#
# PCOD8072334 Si02
#       7
#     4   4   4   4   4   4   4
#     4  10  19  35  59  82 112 152 194 234 279 343
#     4  10  20  36  58  87 113 148 193 238 284 335
#     4  10  19  36  60  83 110 149 189 232 288 337
#     4  10  22  36  56  87 116 145 187 243 284 341
#     4  10  21  37  58  87 115 152 192 234 287 346
#     4  10  20  37  61  78 113 154 192 229 283 355
#     4  10  21  37  57  83 112 150 192 233 290 333
#
# _framework density 19.517095999999999
#
# number of rings (size 3 to 8) (size 9 to 14) (size 15 to 20)
#    0.857    1.143    1.429    4.286    0.000    4.000 
#    0.000    2.857    0.000    2.571    0.000    0.000 
#    0.000    0.000    0.000    0.000    0.000    0.000 
#
# Total GULP energy -346922.493671 kJ/mol
# GULP energy per Si atom -12390.089060 kJ/mol
# Density = 1.947267 g / cm^3
# Si number density = 19.517096 Si / 1000 Ang^3
#
#
#
# Elastic Constant Matrix: (Units=GPa)
#
#
# Indices 1 2 3 4 5 6 
#
# 1 103.1481 52.6292 33.1972 0.0000 -8.1588 0.0000
# 2 52.6292 146.6648 31.3115 0.0000 -16.8623 0.0000
# 3 33.1972 31.3115 59.9792 0.0000 -10.8258 0.0000
# 4 0.0000 0.0000 0.0000 5.5655 0.0000 1.5111
# 5 -8.1588 -16.8623 -10.8258 0.0000 28.8323 0.0000
# 6 0.0000 0.0000 0.0000 1.5111 0.0000 22.8145
#
#
#
# Elastic Compliance Matrix: (Units=1/GPa)
#
#
# Indices 1 2 3 4 5 6 
#
# 1 0.013301 -0.003641 -0.005541 0.000000 -0.000446 0.000000
# 2 -0.003641 0.008956 -0.002039 0.000000 0.003442 0.000000
# 3 -0.005541 -0.002039 0.021782 0.000000 0.005418 0.000000
# 4 0.000000 0.000000 0.000000 0.182968 0.000000 -0.012119
# 5 -0.000446 0.003442 0.005418 0.000000 0.038604 0.000000
# 6 0.000000 0.000000 0.000000 -0.012119 0.000000 0.044634
#
#
# Mechanical properties :
#
#
# Convention : Reuss Voigt Hill
#
# Bulk Modulus (GPa) = 46.30562 60.45198 53.37880
# Shear Modulus (GPa) = 14.71079 24.28607 19.49843
#
# Velocity S-wave (km/s) = 2.74841 3.53136 3.16419
# Velocity P-wave (km/s) = 5.81798 6.90423 6.38425
#
# Compressibility (1/GPa) = 0.02159565
#
# Stress axis : x y z
#
# Youngs Moduli (GPa) = 75.18374 111.65915 45.90998
#
# Poissons Ratio (x) = 0.40656 0.25441
# Poissons Ratio (y) = 0.27375 0.09360
# Poissons Ratio (z) = 0.41663 0.22765
#
# Static dielectric constant tensor:
#      x y z
#    x 3.447720 0.000000 0.155180 
#    y 0.000000 3.607870 0.000000 
#    z 0.155180 0.000000 3.271050 
# 
# 
# High freq. dielectric constant tensor:
#      x y z
#    x 1.755210 0.000000 0.013420 
#    y 0.000000 1.763640 0.000000 
#    z 0.013420 0.000000 1.730380 
# 
# From -- ./inp_files/22771.got.cif
#   From: 2010.06.25/outbox.cif.g09.slc.cpg/sg11_12_cif.got.tgz:22771.got - 2010.06.27 23:14:04.
