data_PCOD8072503
_publ_section_title
;
Structure prediction by ZEFSAII (Michael W. Deem and Ramdas Pophale) SiO2 
 PCOD8072503
Probable space group: P 21/M
;
_chemical_formula_sum "Si O2"
_cell_formula_units_Z 28
_cell_length_a 12.673318
_cell_length_b 8.712450
_cell_length_c 14.649534
_cell_angle_alpha 90.000000
_cell_angle_beta 59.564110
_cell_angle_gamma 90.000000
_cell_volume 1394.635473
_symmetry_space_group_name_H-M "P 21/M"
_symmetry_group_IT_number 11
_symmetry_cell_setting 'monoclinic'
loop_
_space_group_symop_operation_xyz
x,y,z
-x,1/2+y,-z
-x,-y,-z
x,1/2-y,z
loop_
_atom_site_type_symbol
_atom_site_label
_atom_site_fract_x
_atom_site_fract_y
_atom_site_fract_z
Si Si1 0.850749 0.931881 0.814721
Si Si2 0.411104 0.567438 0.114073
Si Si3 0.487343 0.569322 0.279184
Si Si4 0.281276 0.430078 0.713888
Si Si5 0.985018 0.932899 0.106013
Si Si6 0.694931 0.067734 0.486889
Si Si7 0.038986 0.930307 0.577141
O O1 0.833405 0.750000 0.830518
O O2 0.943010 0.981696 0.695115
O O3 0.723965 0.011487 0.848146
O O4 0.903673 0.997363 0.885422
O O5 0.416942 0.750000 0.108650
O O6 0.452877 0.502427 0.194905
O O7 0.500000 0.500000 0.000000
O O8 0.467383 0.750000 0.285054
O O9 0.627753 0.527511 0.242262
O O10 0.398465 0.501014 0.396600
O O11 0.279678 0.250000 0.697645
O O12 0.337646 0.506685 0.598992
O O13 0.145344 0.490456 0.796559
O O14 0.992332 0.750000 0.100991
O O15 0.000000 0.000000 0.000000
O O16 0.690431 0.250000 0.485785
O O17 0.828943 0.004462 0.453514
O O18 0.044397 0.750000 0.564099
O O19 0.000000 0.000000 0.500000
#
# Coordination Sequence:
#
# PCOD8072503 Si02
#       7
#     4   4   4   4   4   4   4
#     4  11  23  42  64  89 125 162 205 258 311 369
#     4  11  24  43  66  91 122 162 208 257 311 371
#     4   9  20  38  61  87 122 162 199 245 306 365
#     4  10  21  38  60  90 122 159 198 245 306 366
#     4  11  24  40  63  92 124 162 208 258 314 374
#     4  10  19  36  59  87 120 158 199 244 300 362
#     4  10  21  35  57  87 120 160 203 251 305 363
#
# _framework density 20.076931999999999
#
# number of rings (size 3 to 8) (size 9 to 14) (size 15 to 20)
#    0.000    1.714    1.429    2.571    2.000    3.429 
#    0.000    2.857    0.000    0.000    0.000    0.000 
#    0.000    0.000    0.000    0.000    0.000    0.000 
#
# Total GULP energy -347267.116697 kJ/mol
# GULP energy per Si atom -12402.397025 kJ/mol
# Density = 2.003124 g / cm^3
# Si number density = 20.076932 Si / 1000 Ang^3
#
#
#
# Elastic Constant Matrix: (Units=GPa)
#
#
# Indices 1 2 3 4 5 6 
#
# 1 156.1448 29.4963 58.0494 0.0000 15.1515 0.0000
# 2 29.4963 42.2128 30.6021 0.0000 3.8607 0.0000
# 3 58.0494 30.6021 125.0149 0.0000 20.6338 0.0000
# 4 0.0000 0.0000 0.0000 32.5179 0.0000 6.4505
# 5 15.1515 3.8607 20.6338 0.0000 41.8866 0.0000
# 6 0.0000 0.0000 0.0000 6.4505 0.0000 26.9476
#
#
#
# Elastic Compliance Matrix: (Units=1/GPa)
#
#
# Indices 1 2 3 4 5 6 
#
# 1 0.008231 -0.003668 -0.002709 0.000000 -0.001305 0.000000
# 2 -0.003668 0.030466 -0.005997 0.000000 0.001473 0.000000
# 3 -0.002709 -0.005997 0.011399 0.000000 -0.004083 0.000000
# 4 0.000000 0.000000 0.000000 0.032285 0.000000 -0.007728
# 5 -0.001305 0.001473 -0.004083 0.000000 0.026221 0.000000
# 6 0.000000 0.000000 0.000000 -0.007728 0.000000 0.038959
#
#
# Mechanical properties :
#
#
# Convention : Reuss Voigt Hill
#
# Bulk Modulus (GPa) = 39.45301 62.18534 50.81917
# Shear Modulus (GPa) = 27.66117 33.95206 30.80662
#
# Velocity S-wave (km/s) = 3.71584 4.11676 3.92143
# Velocity P-wave (km/s) = 6.17281 7.32378 6.77279
#
# Compressibility (1/GPa) = 0.02534661
#
# Stress axis : x y z
#
# Youngs Moduli (GPa) = 121.49394 32.82355 87.72955
#
# Poissons Ratio (x) = 0.12041 0.23762
# Poissons Ratio (y) = 0.44569 0.52615
# Poissons Ratio (z) = 0.32907 0.19686
#
# Static dielectric constant tensor:
#      x y z
#    x 3.930520 0.000000 -0.072940 
#    y 0.000000 3.020630 0.000000 
#    z -0.072940 0.000000 3.855590 
# 
# 
# High freq. dielectric constant tensor:
#      x y z
#    x 1.803410 0.000000 0.001290 
#    y 0.000000 1.765440 0.000000 
#    z 0.001290 0.000000 1.795260 
# 
# From -- ./inp_files/49116.got.cif
#   From: 2010.06.25/outbox.cif.g09.slc.cpg/sg11_25_cif.got.tgz:49116.got - 2010.06.27 23:14:04.
