data_PCOD8072991
_publ_section_title
;
Structure prediction by ZEFSAII (Michael W. Deem and Ramdas Pophale) SiO2 
 PCOD8072991
Probable space group: P 21/M
;
_chemical_formula_sum "Si O2"
_cell_formula_units_Z 32
_cell_length_a 11.590316
_cell_length_b 8.985175
_cell_length_c 17.451836
_cell_angle_alpha 90.000000
_cell_angle_beta 91.705598
_cell_angle_gamma 90.000000
_cell_volume 1816.646750
_symmetry_space_group_name_H-M "P 21/M"
_symmetry_group_IT_number 11
_symmetry_cell_setting 'monoclinic'
loop_
_space_group_symop_operation_xyz
x,y,z
-x,1/2+y,-z
-x,-y,-z
x,1/2-y,z
loop_
_atom_site_type_symbol
_atom_site_label
_atom_site_fract_x
_atom_site_fract_y
_atom_site_fract_z
Si Si1 0.120144 0.077323 0.515653
Si Si2 0.346953 0.413647 0.054773
Si Si3 0.231298 0.419134 0.681006
Si Si4 0.444357 0.080527 0.595492
Si Si5 0.230081 0.574548 0.832633
Si Si6 0.117004 0.427649 0.973767
Si Si7 0.550140 0.585394 0.110846
Si Si8 0.674961 0.419099 0.540875
O O1 0.102812 0.250000 0.503233
O O2 0.166631 0.037665 0.601114
O O3 0.211303 0.021288 0.452889
O O4 0.000000 0.000000 0.500000
O O5 0.342365 0.250000 0.092679
O O6 0.419069 0.521965 0.112231
O O7 0.216985 0.472527 0.036776
O O8 0.411943 0.401935 0.975748
O O9 0.201764 0.250000 0.704135
O O10 0.370408 0.438295 0.671977
O O11 0.187900 0.528817 0.746871
O O12 0.421717 0.250000 0.563660
O O13 0.583408 0.057764 0.609855
O O14 0.398933 0.957511 0.535757
O O15 0.220503 0.750000 0.844543
O O16 0.147561 0.492802 0.891346
O O17 0.362712 0.522867 0.843064
O O18 0.106361 0.250000 0.966752
O O19 0.000000 0.500000 0.000000
O O20 0.551973 0.750000 0.148641
O O21 0.718386 0.250000 0.537627
#
# Coordination Sequence:
#
# PCOD8072991 Si02
#       8
#     4   4   4   4   4   4   4   4
#     4  10  20  33  50  72  99 132 170 211 252 298
#     4   8  15  27  44  68  95 121 151 190 234 280
#     4   9  18  33  50  70  98 129 162 204 253 303
#     4   8  15  27  44  67  94 123 152 187 235 287
#     4  11  21  32  49  73 100 130 165 207 254 302
#     4  10  20  34  52  74 101 133 170 211 251 296
#     4   9  16  27  45  68  94 123 153 189 236 287
#     4   9  15  25  44  69  95 121 152 192 236 283
#
# _framework density 17.614871000000001
#
# number of rings (size 3 to 8) (size 9 to 14) (size 15 to 20)
#    0.000    2.750    0.000    4.125    0.000    6.500 
#    0.000    0.000    0.000    1.500    0.000    5.250 
#    0.000    0.000    0.000    0.000    0.000    0.000 
#
# Total GULP energy -396511.503388 kJ/mol
# GULP energy per Si atom -12390.984481 kJ/mol
# Density = 1.757478 g / cm^3
# Si number density = 17.614871 Si / 1000 Ang^3
#
#
#
# Elastic Constant Matrix: (Units=GPa)
#
#
# Indices 1 2 3 4 5 6 
#
# 1 145.1917 59.5590 35.8934 0.0000 -8.0593 0.0000
# 2 59.5590 106.5956 33.8732 0.0000 -2.4300 0.0000
# 3 35.8934 33.8732 49.5725 0.0000 -6.4046 0.0000
# 4 0.0000 0.0000 0.0000 21.8060 0.0000 -0.1214
# 5 -8.0593 -2.4300 -6.4046 0.0000 14.7855 0.0000
# 6 0.0000 0.0000 0.0000 -0.1214 0.0000 32.0842
#
#
#
# Elastic Compliance Matrix: (Units=1/GPa)
#
#
# Indices 1 2 3 4 5 6 
#
# 1 0.009690 -0.004137 -0.003808 0.000000 0.002952 0.000000
# 2 -0.004137 0.013788 -0.006806 0.000000 -0.002937 0.000000
# 3 -0.003808 -0.006806 0.028778 0.000000 0.009272 0.000000
# 4 0.000000 0.000000 0.000000 0.045860 0.000000 0.000174
# 5 0.002952 -0.002937 0.009272 0.000000 0.072777 0.000000
# 6 0.000000 0.000000 0.000000 0.000174 0.000000 0.031169
#
#
# Mechanical properties :
#
#
# Convention : Reuss Voigt Hill
#
# Bulk Modulus (GPa) = 43.94610 62.22344 53.08477
# Shear Modulus (GPa) = 20.90765 25.20408 23.05587
#
# Velocity S-wave (km/s) = 3.44893 3.78675 3.62178
# Velocity P-wave (km/s) = 6.39238 7.38379 6.90590
#
# Compressibility (1/GPa) = 0.02275515
#
# Stress axis : x y z
#
# Youngs Moduli (GPa) = 103.20411 72.52514 34.74886
#
# Poissons Ratio (x) = 0.30001 0.13232
# Poissons Ratio (y) = 0.42691 0.23650
# Poissons Ratio (z) = 0.39298 0.49360
#
# Static dielectric constant tensor:
#      x y z
#    x 3.459130 0.000000 -0.101220 
#    y 0.000000 3.441570 0.000000 
#    z -0.101220 0.000000 2.902220 
# 
# 
# High freq. dielectric constant tensor:
#      x y z
#    x 1.677940 0.000000 -0.006910 
#    y 0.000000 1.692350 0.000000 
#    z -0.006910 0.000000 1.629370 
# 
# From -- ./inp_files/58712.got.cif
#   From: 2010.06.25/outbox.cif.g09.slc.cpg/sg11_30_cif.got.tgz:58712.got - 2010.06.27 23:14:04.
