data_PCOD8072646
_publ_section_title
;
Structure prediction by ZEFSAII (Michael W. Deem and Ramdas Pophale) SiO2 
 PCOD8072646
Probable space group: P 21/M
;
_chemical_formula_sum "Si O2"
_cell_formula_units_Z 32
_cell_length_a 11.619429
_cell_length_b 13.330454
_cell_length_c 10.072993
_cell_angle_alpha 90.000000
_cell_angle_beta 88.857758
_cell_angle_gamma 90.000000
_cell_volume 1559.918651
_symmetry_space_group_name_H-M "P 21/M"
_symmetry_group_IT_number 11
_symmetry_cell_setting 'monoclinic'
loop_
_space_group_symop_operation_xyz
x,y,z
-x,1/2+y,-z
-x,-y,-z
x,1/2-y,z
loop_
_atom_site_type_symbol
_atom_site_label
_atom_site_fract_x
_atom_site_fract_y
_atom_site_fract_z
Si Si1 0.747382 0.996759 0.864049
Si Si2 0.526536 0.134287 0.527333
Si Si3 0.220154 0.638949 0.553590
Si Si4 0.841988 0.566521 0.359476
Si Si5 0.456482 0.865822 0.176831
Si Si6 0.093881 0.636928 0.283657
Si Si7 0.285335 0.135982 0.894782
Si Si8 0.698902 0.631450 0.607739
O O1 0.723495 0.918826 0.747237
O O2 0.639001 0.068836 0.896368
O O3 0.860008 0.064156 0.832598
O O4 0.775307 0.935047 0.996411
O O5 0.494267 0.250000 0.544807
O O6 0.643430 0.119157 0.442350
O O7 0.534890 0.089819 0.674702
O O8 0.420279 0.084458 0.449383
O O9 0.189062 0.750000 0.609653
O O10 0.157940 0.555136 0.643974
O O11 0.185060 0.630728 0.400808
O O12 0.757540 0.609776 0.250910
O O13 0.801438 0.605876 0.503809
O O14 0.970605 0.602681 0.336948
O O15 0.415709 0.750000 0.178354
O O16 0.577449 0.877683 0.099248
O O17 0.085504 0.750000 0.228497
O O18 0.250645 0.250000 0.926983
O O19 0.690234 0.750000 0.631814
#
# Coordination Sequence:
#
# PCOD8072646 Si02
#       8
#     4   4   4   4   4   4   4   4
#     4  12  24  39  61  89 124 165 206 250 313 360
#     4   9  17  33  59  92 124 156 195 247 301 359
#     4  10  21  38  62  96 131 155 195 258 311 359
#     4  12  23  41  66  90 119 166 212 246 308 364
#     4  10  19  37  62  87 117 159 205 245 304 375
#     4  11  23  41  65  92 122 159 210 258 302 363
#     4  11  25  43  61  88 126 161 202 258 309 362
#     4  11  22  36  61  94 125 158 208 255 300 367
#
# _framework density 20.513891999999998
#
# number of rings (size 3 to 8) (size 9 to 14) (size 15 to 20)
#    0.000    1.250    3.750    2.625    1.750    1.500 
#    0.000    1.875    0.000    0.000    0.000    0.000 
#    0.000    0.000    0.000    0.000    0.000    0.000 
#
# Total GULP energy -396910.683104 kJ/mol
# GULP energy per Si atom -12403.458847 kJ/mol
# Density = 2.046720 g / cm^3
# Si number density = 20.513892 Si / 1000 Ang^3
#
#
#
# Elastic Constant Matrix: (Units=GPa)
#
#
# Indices 1 2 3 4 5 6 
#
# 1 70.0419 32.6704 8.8687 0.0000 -11.5724 0.0000
# 2 32.6704 131.0597 30.7027 0.0000 -9.8301 0.0000
# 3 8.8687 30.7027 54.0144 0.0000 -8.5643 0.0000
# 4 0.0000 0.0000 0.0000 34.6161 0.0000 -5.5882
# 5 -11.5724 -9.8301 -8.5643 0.0000 14.9149 0.0000
# 6 0.0000 0.0000 0.0000 -5.5882 0.0000 31.6765
#
#
#
# Elastic Compliance Matrix: (Units=1/GPa)
#
#
# Indices 1 2 3 4 5 6 
#
# 1 0.017905 -0.003829 0.001143 0.000000 0.012026 0.000000
# 2 -0.003829 0.009764 -0.004810 0.000000 0.000702 0.000000
# 3 0.001143 -0.004810 0.022771 0.000000 0.010793 0.000000
# 4 0.000000 0.000000 0.000000 0.029735 0.000000 0.005246
# 5 0.012026 0.000702 0.010793 0.000000 0.083038 0.000000
# 6 0.000000 0.000000 0.000000 0.005246 0.000000 0.032495
#
#
# Mechanical properties :
#
#
# Convention : Reuss Voigt Hill
#
# Bulk Modulus (GPa) = 28.20958 44.39996 36.30477
# Shear Modulus (GPa) = 22.47026 28.43310 25.45168
#
# Velocity S-wave (km/s) = 3.31322 3.72700 3.52619
# Velocity P-wave (km/s) = 5.33085 6.34125 5.85788
#
# Compressibility (1/GPa) = 0.03544895
#
# Stress axis : x y z
#
# Youngs Moduli (GPa) = 55.84899 102.41512 43.91516
#
# Poissons Ratio (x) = 0.39218 -0.05022
# Poissons Ratio (y) = 0.21387 0.21123
# Poissons Ratio (z) = -0.06386 0.49262
#
# Static dielectric constant tensor:
#      x y z
#    x 3.674100 0.000000 0.026130 
#    y 0.000000 4.045200 0.000000 
#    z 0.026130 0.000000 3.344300 
# 
# 
# High freq. dielectric constant tensor:
#      x y z
#    x 1.801220 0.000000 -0.003230 
#    y 0.000000 1.827040 0.000000 
#    z -0.003230 0.000000 1.765310 
# 
# From -- ./inp_files/18086.got.cif
#   From: 2010.06.25/outbox.cif.g09.slc.cpg/sg11_10_cif.got.tgz:18086.got - 2010.06.27 23:14:04.
