data_PCOD8072133
_publ_section_title
;
Structure prediction by ZEFSAII (Michael W. Deem and Ramdas Pophale) SiO2 
 PCOD8072133
Probable space group: P 21/M
;
_chemical_formula_sum "Si O2"
_cell_formula_units_Z 24
_cell_length_a 11.552115
_cell_length_b 9.542440
_cell_length_c 11.696745
_cell_angle_alpha 90.000000
_cell_angle_beta 115.967954
_cell_angle_gamma 90.000000
_cell_volume 1159.216459
_symmetry_space_group_name_H-M "P 21/M"
_symmetry_group_IT_number 11
_symmetry_cell_setting 'monoclinic'
loop_
_space_group_symop_operation_xyz
x,y,z
-x,1/2+y,-z
-x,-y,-z
x,1/2-y,z
loop_
_atom_site_type_symbol
_atom_site_label
_atom_site_fract_x
_atom_site_fract_y
_atom_site_fract_z
Si Si1 0.820378 0.598526 0.949373
Si Si2 0.968916 0.996691 0.798338
Si Si3 0.086523 0.910063 0.623524
Si Si4 0.603753 0.089867 0.777833
Si Si5 0.311871 0.415308 0.644457
Si Si6 0.284243 0.906430 0.409315
O O1 0.755412 0.750000 0.928727
O O2 0.701970 0.491205 0.902238
O O3 0.904726 0.594802 0.870296
O O4 0.911749 0.581541 0.098227
O O5 0.022683 0.899078 0.720296
O O6 0.862004 0.101035 0.700683
O O7 0.105541 0.750000 0.586457
O O8 0.221890 0.993758 0.689589
O O9 0.000000 0.000000 0.500000
O O10 0.643379 0.250000 0.809415
O O11 0.457170 0.062457 0.751434
O O12 0.620900 0.046576 0.652331
O O13 0.274508 0.250000 0.627147
O O14 0.296769 0.475523 0.510489
O O15 0.319735 0.750000 0.469652
#
# Coordination Sequence:
#
# PCOD8072133 Si02
#       6
#     4   4   4   4   4   4
#     4  10  21  38  65  93 118 154 200 250 299 358
#     4  10  22  38  60  91 125 154 195 247 306 350
#     4  12  25  40  61  88 123 161 200 243 295 358
#     4   9  21  39  57  84 120 158 199 250 301 349
#     4  11  23  38  57  84 121 160 201 245 297 355
#     4  10  19  34  59  86 117 155 198 248 303 355
#
# _framework density 20.70364
#
# number of rings (size 3 to 8) (size 9 to 14) (size 15 to 20)
#    0.000    1.667    1.667    2.500    0.000   10.667 
#    0.000    0.833    0.000    0.000    0.000    0.000 
#    0.000    0.000    0.000    0.000    0.000    0.000 
#
# Total GULP energy -297533.593507 kJ/mol
# GULP energy per Si atom -12397.233063 kJ/mol
# Density = 2.065652 g / cm^3
# Si number density = 20.703640 Si / 1000 Ang^3
#
#
#
# Elastic Constant Matrix: (Units=GPa)
#
#
# Indices 1 2 3 4 5 6 
#
# 1 99.4137 40.0942 24.2777 0.0000 14.4062 0.0000
# 2 40.0942 128.8403 29.9342 0.0000 13.0406 0.0000
# 3 24.2777 29.9342 67.5570 0.0000 12.3718 0.0000
# 4 0.0000 0.0000 0.0000 18.9675 0.0000 2.9777
# 5 14.4062 13.0406 12.3718 0.0000 28.5609 0.0000
# 6 0.0000 0.0000 0.0000 2.9777 0.0000 26.8803
#
#
#
# Elastic Compliance Matrix: (Units=1/GPa)
#
#
# Indices 1 2 3 4 5 6 
#
# 1 0.012386 -0.002891 -0.002463 0.000000 -0.003860 0.000000
# 2 -0.002891 0.009493 -0.002868 0.000000 -0.001634 0.000000
# 3 -0.002463 -0.002868 0.017912 0.000000 -0.005207 0.000000
# 4 0.000000 0.000000 0.000000 0.053655 0.000000 -0.005944
# 5 -0.003860 -0.001634 -0.005207 0.000000 0.039962 0.000000
# 6 0.000000 0.000000 0.000000 -0.005944 0.000000 0.037860
#
#
# Mechanical properties :
#
#
# Convention : Reuss Voigt Hill
#
# Bulk Modulus (GPa) = 42.83407 53.82478 48.32943
# Shear Modulus (GPa) = 25.57615 28.31541 26.94578
#
# Velocity S-wave (km/s) = 3.51856 3.70219 3.61154
# Velocity P-wave (km/s) = 6.10255 6.65801 6.38632
#
# Compressibility (1/GPa) = 0.02334590
#
# Stress axis : x y z
#
# Youngs Moduli (GPa) = 80.73625 105.34014 55.82905
#
# Poissons Ratio (x) = 0.30459 0.13750
# Poissons Ratio (y) = 0.23345 0.16012
# Poissons Ratio (z) = 0.19885 0.30212
#
# Static dielectric constant tensor:
#      x y z
#    x 4.054710 0.000000 0.037180 
#    y 0.000000 3.651520 0.000000 
#    z 0.037180 0.000000 3.539210 
# 
# 
# High freq. dielectric constant tensor:
#      x y z
#    x 1.811170 0.000000 0.008850 
#    y 0.000000 1.811310 0.000000 
#    z 0.008850 0.000000 1.790000 
# 
# From -- ./inp_files/48829.got.cif
#   From: 2010.06.25/outbox.cif.g09.slc.cpg/sg11_25_cif.got.tgz:48829.got - 2010.06.27 23:14:04.
