data_PCOD8072191
_publ_section_title
;
Structure prediction by ZEFSAII (Michael W. Deem and Ramdas Pophale) SiO2 
 PCOD8072191
Probable space group: P 21/M
;
_chemical_formula_sum "Si O2"
_cell_formula_units_Z 32
_cell_length_a 24.984733
_cell_length_b 9.226730
_cell_length_c 19.904625
_cell_angle_alpha 90.000000
_cell_angle_beta 157.270356
_cell_angle_gamma 90.000000
_cell_volume 1772.943396
_symmetry_space_group_name_H-M "P 21/M"
_symmetry_group_IT_number 11
_symmetry_cell_setting 'monoclinic'
loop_
_space_group_symop_operation_xyz
x,y,z
-x,1/2+y,-z
-x,-y,-z
x,1/2-y,z
loop_
_atom_site_type_symbol
_atom_site_label
_atom_site_fract_x
_atom_site_fract_y
_atom_site_fract_z
Si Si1 0.907566 0.580435 0.274721
Si Si2 0.688931 0.413491 0.764481
Si Si3 0.325230 0.419233 0.894469
Si Si4 0.620754 0.080317 0.282263
Si Si5 0.427527 0.916307 0.621184
Si Si6 0.191314 0.420236 0.599910
Si Si7 0.366098 0.086482 0.424348
Si Si8 0.738371 0.584027 0.948439
O O1 0.938125 0.750000 0.323131
O O2 0.793619 0.517467 0.194575
O O3 0.043579 0.488040 0.445383
O O4 0.856461 0.554212 0.139730
O O5 0.742548 0.250000 0.817884
O O6 0.720174 0.500085 0.732049
O O7 0.526925 0.418171 0.592384
O O8 0.770761 0.486568 0.920938
O O9 0.332248 0.250000 0.918385
O O10 0.292159 0.454171 0.779079
O O11 0.475369 0.484554 0.086457
O O12 0.635709 0.250000 0.282413
O O13 0.633087 0.051805 0.375737
O O14 0.745680 0.993732 0.393083
O O15 0.405969 0.750000 0.575336
O O16 0.590447 0.954777 0.810220
O O17 0.343405 0.012947 0.470510
O O18 0.174093 0.250000 0.567991
O O19 0.309952 0.250000 0.362213
O O20 0.738975 0.750000 0.925135
#
# Coordination Sequence:
#
# PCOD8072191 Si02
#       8
#     4   4   4   4   4   4   4   4
#     4  10  19  35  56  75  98 134 175 212 255 309
#     4   9  16  25  39  63  97 132 163 199 244 294
#     4   9  18  35  57  77  98 129 172 217 260 306
#     4  10  19  35  56  75  98 134 175 212 255 309
#     4   9  16  28  48  71  94 125 166 210 252 296
#     4  11  23  35  49  75 108 135 166 213 261 306
#     4   9  16  25  39  63  97 132 163 199 244 294
#     4   9  16  28  48  71  94 125 166 210 252 296
#
# _framework density 18.049081000000001
#
# number of rings (size 3 to 8) (size 9 to 14) (size 15 to 20)
#    0.000    2.500    1.250    1.875    0.000    4.000 
#    0.000    1.875    0.000    0.000    0.000    0.875 
#    0.000    0.000    0.000    0.000    0.000    0.000 
#
# Total GULP energy -396830.109425 kJ/mol
# GULP energy per Si atom -12400.940920 kJ/mol
# Density = 1.800800 g / cm^3
# Si number density = 18.049081 Si / 1000 Ang^3
#
#
#
# Elastic Constant Matrix: (Units=GPa)
#
#
# Indices 1 2 3 4 5 6 
#
# 1 85.2613 44.7897 23.3200 0.0000 -9.1794 0.0000
# 2 44.7897 87.9597 19.2659 0.0000 -11.8802 0.0000
# 3 23.3200 19.2659 21.3861 0.0000 0.7151 0.0000
# 4 0.0000 0.0000 0.0000 23.2644 0.0000 -6.0347
# 5 -9.1794 -11.8802 0.7151 0.0000 25.8279 0.0000
# 6 0.0000 0.0000 0.0000 -6.0347 0.0000 24.9403
#
#
#
# Elastic Compliance Matrix: (Units=1/GPa)
#
#
# Indices 1 2 3 4 5 6 
#
# 1 0.019832 -0.005824 -0.016540 0.000000 0.004828 0.000000
# 2 -0.005824 0.017208 -0.009356 0.000000 0.006105 0.000000
# 3 -0.016540 -0.009356 0.073632 0.000000 -0.012221 0.000000
# 4 0.000000 0.000000 0.000000 0.045863 0.000000 0.011097
# 5 0.004828 0.006105 -0.012221 0.000000 0.043580 0.000000
# 6 0.000000 0.000000 0.000000 0.011097 0.000000 0.042781
#
#
# Mechanical properties :
#
#
# Convention : Reuss Voigt Hill
#
# Bulk Modulus (GPa) = 21.17187 41.03982 31.10585
# Shear Modulus (GPa) = 15.52415 21.95528 18.73972
#
# Velocity S-wave (km/s) = 2.93594 3.49151 3.22571
# Velocity P-wave (km/s) = 4.82168 6.24831 5.58077
#
# Compressibility (1/GPa) = 0.04723248
#
# Stress axis : x y z
#
# Youngs Moduli (GPa) = 50.42476 58.11253 13.58100
#
# Poissons Ratio (x) = 0.33842 0.22463
# Poissons Ratio (y) = 0.29365 0.12706
# Poissons Ratio (z) = 0.83403 0.54370
#
# Static dielectric constant tensor:
#      x y z
#    x 3.265460 0.000000 -0.232540 
#    y 0.000000 3.257330 0.000000 
#    z -0.232540 0.000000 3.089680 
# 
# 
# High freq. dielectric constant tensor:
#      x y z
#    x 1.695350 0.000000 -0.027230 
#    y 0.000000 1.688960 0.000000 
#    z -0.027230 0.000000 1.670380 
# 
# From -- ./inp_files/67253.got.cif
#   From: 2010.06.25/outbox.cif.g09.slc.cpg/sg11_34_cif.got.tgz:67253.got - 2010.06.27 23:14:04.
