data_PCOD8072341
_publ_section_title
;
Structure prediction by ZEFSAII (Michael W. Deem and Ramdas Pophale) SiO2 
 PCOD8072341
Probable space group: P 21/M
;
_chemical_formula_sum "Si O2"
_cell_formula_units_Z 32
_cell_length_a 13.761621
_cell_length_b 8.519319
_cell_length_c 13.942427
_cell_angle_alpha 90.000000
_cell_angle_beta 97.024510
_cell_angle_gamma 90.000000
_cell_volume 1622.335647
_symmetry_space_group_name_H-M "P 21/M"
_symmetry_group_IT_number 11
_symmetry_cell_setting 'monoclinic'
loop_
_space_group_symop_operation_xyz
x,y,z
-x,1/2+y,-z
-x,-y,-z
x,1/2-y,z
loop_
_atom_site_type_symbol
_atom_site_label
_atom_site_fract_x
_atom_site_fract_y
_atom_site_fract_z
Si Si1 0.357016 0.570803 0.351459
Si Si2 0.680585 0.430513 0.161277
Si Si3 0.198871 0.070772 0.205014
Si Si4 0.055839 0.933659 0.318274
Si Si5 0.219870 0.936218 0.491561
Si Si6 0.679077 0.929487 0.956791
Si Si7 0.834696 0.566688 0.315401
Si Si8 0.481691 0.564967 0.200837
O O1 0.378036 0.750000 0.375305
O O2 0.266529 0.553200 0.268128
O O3 0.319607 0.500798 0.449069
O O4 0.451073 0.501400 0.305003
O O5 0.655676 0.250000 0.175487
O O6 0.782094 0.474738 0.223556
O O7 0.595185 0.532971 0.198903
O O8 0.690144 0.461126 0.049795
O O9 0.222786 0.250000 0.238124
O O10 0.221813 0.050325 0.094680
O O11 0.088900 0.024520 0.224371
O O12 0.058855 0.750000 0.297339
O O13 0.125362 0.979921 0.415850
O O14 0.946979 0.990042 0.331348
O O15 0.223523 0.750000 0.510362
O O16 0.216016 0.027648 0.590126
O O17 0.666220 0.750000 0.988887
O O18 0.581849 0.975711 0.886564
O O19 0.825742 0.750000 0.293717
O O20 0.459842 0.750000 0.190540
#
# Coordination Sequence:
#
# PCOD8072341 Si02
#       8
#     4   4   4   4   4   4   4   4
#     4   8  16  31  53  80 110 139 170 211 262 312
#     4  12  25  39  54  75 105 143 182 223 267 314
#     4   9  17  29  52  83 110 134 169 216 262 308
#     4   9  19  35  56  80 109 141 175 216 263 314
#     4   9  17  33  56  83 110 137 171 214 262 315
#     4  10  20  36  57  83 111 139 174 218 263 314
#     4  11  23  38  54  76 106 143 182 221 265 314
#     4  10  19  35  59  84 109 140 176 217 263 315
#
# _framework density 19.724647000000001
#
# number of rings (size 3 to 8) (size 9 to 14) (size 15 to 20)
#    0.000    2.250    0.000    4.125    0.000    5.000 
#    0.000    1.250    0.000    0.000    0.000    0.000 
#    0.000    0.000    0.000    0.000    0.000    0.000 
#
# Total GULP energy -396565.585042 kJ/mol
# GULP energy per Si atom -12392.674533 kJ/mol
# Density = 1.967975 g / cm^3
# Si number density = 19.724647 Si / 1000 Ang^3
#
#
#
# Elastic Constant Matrix: (Units=GPa)
#
#
# Indices 1 2 3 4 5 6 
#
# 1 41.4463 13.5060 39.2574 0.0000 -14.3678 0.0000
# 2 13.5060 41.6083 16.6848 0.0000 -2.7275 0.0000
# 3 39.2574 16.6848 48.5819 0.0000 -17.7826 0.0000
# 4 0.0000 0.0000 0.0000 30.2622 0.0000 -1.7444
# 5 -14.3678 -2.7275 -17.7826 0.0000 31.4947 0.0000
# 6 0.0000 0.0000 0.0000 -1.7444 0.0000 24.6478
#
#
#
# Elastic Compliance Matrix: (Units=1/GPa)
#
#
# Indices 1 2 3 4 5 6 
#
# 1 0.102842 -0.000068 -0.083079 0.000000 0.000002 0.000000
# 2 -0.000068 0.028232 -0.011039 0.000000 -0.003819 0.000000
# 3 -0.083079 -0.011039 0.097419 0.000000 0.016148 0.000000
# 4 0.000000 0.000000 0.000000 0.033180 0.000000 0.002348
# 5 0.000002 -0.003819 0.016148 0.000000 0.040539 0.000000
# 6 0.000000 0.000000 0.000000 0.002348 0.000000 0.040738
#
#
# Mechanical properties :
#
#
# Convention : Reuss Voigt Hill
#
# Bulk Modulus (GPa) = 24.92422 30.05922 27.49172
# Shear Modulus (GPa) = 9.17946 21.42683 15.30314
#
# Velocity S-wave (km/s) = 2.15961 3.29948 2.78841
# Velocity P-wave (km/s) = 4.34535 5.45783 4.93305
#
# Compressibility (1/GPa) = 0.04012162
#
# Stress axis : x y z
#
# Youngs Moduli (GPa) = 9.72368 35.42094 10.26495
#
# Poissons Ratio (x) = 0.00241 0.85280
# Poissons Ratio (y) = 0.00066 0.11331
# Poissons Ratio (z) = 0.80783 0.39100
#
# Static dielectric constant tensor:
#      x y z
#    x 3.725440 0.000000 -0.476550 
#    y 0.000000 3.486940 0.000000 
#    z -0.476550 0.000000 3.618520 
# 
# 
# High freq. dielectric constant tensor:
#      x y z
#    x 1.757150 0.000000 -0.037520 
#    y 0.000000 1.765830 0.000000 
#    z -0.037520 0.000000 1.760030 
# 
# From -- ./inp_files/38263.got.cif
#   From: 2010.06.25/outbox.cif.g09.slc.cpg/sg11_20_cif.got.tgz:38263.got - 2010.06.27 23:14:04.
