data_PCOD8072513
_publ_section_title
;
Structure prediction by ZEFSAII (Michael W. Deem and Ramdas Pophale) SiO2 
 PCOD8072513
Probable space group: P 21/M
;
_chemical_formula_sum "Si O2"
_cell_formula_units_Z 32
_cell_length_a 12.812522
_cell_length_b 9.000174
_cell_length_c 31.710870
_cell_angle_alpha 90.000000
_cell_angle_beta 153.142372
_cell_angle_gamma 90.000000
_cell_volume 1652.022480
_symmetry_space_group_name_H-M "P 21/M"
_symmetry_group_IT_number 11
_symmetry_cell_setting 'monoclinic'
loop_
_space_group_symop_operation_xyz
x,y,z
-x,1/2+y,-z
-x,-y,-z
x,1/2-y,z
loop_
_atom_site_type_symbol
_atom_site_label
_atom_site_fract_x
_atom_site_fract_y
_atom_site_fract_z
Si Si1 0.235572 0.925558 0.098631
Si Si2 0.561516 0.915243 0.139992
Si Si3 0.022598 0.574071 0.417000
Si Si4 0.843124 0.925696 0.710067
Si Si5 0.361892 0.576012 0.913319
Si Si6 0.903668 0.415421 0.648934
Si Si7 0.558785 0.074338 0.374980
Si Si8 0.556897 0.427327 0.278239
O O1 0.205541 0.750000 0.094970
O O2 0.413943 0.965555 0.126387
O O3 0.330308 0.001698 0.175287
O O4 0.000000 0.000000 0.000000
O O5 0.490329 0.750000 0.099074
O O6 0.822981 0.918731 0.248516
O O7 0.513842 0.030496 0.085293
O O8 0.966900 0.750000 0.397563
O O9 0.144327 0.530537 0.416282
O O10 0.199575 0.524680 0.517247
O O11 0.787134 0.484813 0.338541
O O12 0.832723 0.750000 0.704045
O O13 0.656214 0.991006 0.675609
O O14 0.095704 0.979918 0.816600
O O15 0.786288 0.982123 0.642199
O O16 0.376255 0.750000 0.924779
O O17 0.500000 0.500000 0.000000
O O18 0.805468 0.250000 0.620293
O O19 0.538825 0.250000 0.368637
O O20 0.552607 0.015825 0.325016
O O21 0.546327 0.250000 0.271188
#
# Coordination Sequence:
#
# PCOD8072513 Si02
#       8
#     4   4   4   4   4   4   4   4
#     4  11  23  40  60  86 115 150 190 236 293 346
#     4   9  18  35  55  75 106 144 181 225 279 336
#     4  10  19  36  60  83 111 152 194 236 289 347
#     4   9  19  36  54  77 110 147 185 231 286 342
#     4  10  20  33  54  81 108 143 188 234 282 341
#     4   9  17  32  55  81 107 142 183 228 281 335
#     4   9  20  37  57  81 115 155 192 233 291 350
#     4  11  22  37  58  85 116 153 196 241 284 341
#
# _framework density 19.370196
#
# number of rings (size 3 to 8) (size 9 to 14) (size 15 to 20)
#    0.000    2.250    1.250    1.500    0.000    3.500 
#    0.000    5.000    0.000    0.000    0.000    0.000 
#    0.000    0.000    0.000    0.000    0.000    0.000 
#
# Total GULP energy -396776.955336 kJ/mol
# GULP energy per Si atom -12399.279854 kJ/mol
# Density = 1.932611 g / cm^3
# Si number density = 19.370196 Si / 1000 Ang^3
#
#
#
# Elastic Constant Matrix: (Units=GPa)
#
#
# Indices 1 2 3 4 5 6 
#
# 1 103.0827 34.4933 46.6782 0.0000 -12.5898 0.0000
# 2 34.4933 59.0313 39.0282 0.0000 -7.8823 0.0000
# 3 46.6782 39.0282 106.2813 0.0000 -24.3792 0.0000
# 4 0.0000 0.0000 0.0000 25.3301 0.0000 -4.9635
# 5 -12.5898 -7.8823 -24.3792 0.0000 32.8368 0.0000
# 6 0.0000 0.0000 0.0000 -4.9635 0.0000 32.0173
#
#
#
# Elastic Compliance Matrix: (Units=1/GPa)
#
#
# Indices 1 2 3 4 5 6 
#
# 1 0.013218 -0.005158 -0.003655 0.000000 0.001116 0.000000
# 2 -0.005158 0.024405 -0.006998 0.000000 -0.001315 0.000000
# 3 -0.003655 -0.006998 0.015521 0.000000 0.008442 0.000000
# 4 0.000000 0.000000 0.000000 0.040716 0.000000 0.006312
# 5 0.001116 -0.001315 0.008442 0.000000 0.036833 0.000000
# 6 0.000000 0.000000 0.000000 0.006312 0.000000 0.032212
#
#
# Mechanical properties :
#
#
# Convention : Reuss Voigt Hill
#
# Bulk Modulus (GPa) = 46.46609 56.53275 51.49942
# Shear Modulus (GPa) = 24.78898 27.91653 26.35275
#
# Velocity S-wave (km/s) = 3.58124 3.80045 3.69247
# Velocity P-wave (km/s) = 6.41412 6.96467 6.69506
#
# Compressibility (1/GPa) = 0.02152107
#
# Stress axis : x y z
#
# Youngs Moduli (GPa) = 75.65171 40.97441 64.43002
#
# Poissons Ratio (x) = 0.21135 0.23551
# Poissons Ratio (y) = 0.39022 0.45090
# Poissons Ratio (z) = 0.27653 0.28675
#
# Static dielectric constant tensor:
#      x y z
#    x 3.917010 0.000000 -0.042750 
#    y 0.000000 5.957610 0.000000 
#    z -0.042750 0.000000 3.838790 
# 
# 
# High freq. dielectric constant tensor:
#      x y z
#    x 1.761350 0.000000 -0.009080 
#    y 0.000000 1.738080 0.000000 
#    z -0.009080 0.000000 1.754640 
# 
# From -- ./inp_files/73137.got.cif
#   From: 2010.06.25/outbox.cif.g09.slc.cpg/sg11_37_cif.got.tgz:73137.got - 2010.06.27 23:14:04.
