data_PCOD8072483
_publ_section_title
;
Structure prediction by ZEFSAII (Michael W. Deem and Ramdas Pophale) SiO2 
 PCOD8072483
Probable space group: P 21/M
;
_chemical_formula_sum "Si O2"
_cell_formula_units_Z 28
_cell_length_a 9.277052
_cell_length_b 9.027880
_cell_length_c 27.144139
_cell_angle_alpha 90.000000
_cell_angle_beta 140.693256
_cell_angle_gamma 90.000000
_cell_volume 1440.121820
_symmetry_space_group_name_H-M "P 21/M"
_symmetry_group_IT_number 11
_symmetry_cell_setting 'monoclinic'
loop_
_space_group_symop_operation_xyz
x,y,z
-x,1/2+y,-z
-x,-y,-z
x,1/2-y,z
loop_
_atom_site_type_symbol
_atom_site_label
_atom_site_fract_x
_atom_site_fract_y
_atom_site_fract_z
Si Si1 0.231703 0.415398 0.059713
Si Si2 0.282547 0.416154 0.960469
Si Si3 0.308736 0.075196 0.344793
Si Si4 0.536985 0.076680 0.225877
Si Si5 0.954492 0.572476 0.627862
Si Si6 0.826310 0.426738 0.492368
Si Si7 0.850433 0.923986 0.801704
O O1 0.182337 0.250000 0.066163
O O2 0.416127 0.490519 0.145057
O O3 0.323738 0.414958 0.029352
O O4 0.000000 0.500000 0.000000
O O5 0.276129 0.250000 0.937672
O O6 0.051870 0.495044 0.883352
O O7 0.500000 0.500000 0.000000
O O8 0.293106 0.250000 0.341086
O O9 0.190242 0.016088 0.363257
O O10 0.571067 0.026943 0.409564
O O11 0.173158 0.017229 0.260628
O O12 0.568368 0.250000 0.226835
O O13 0.386994 0.038875 0.234069
O O14 0.788919 0.010908 0.298080
O O15 0.941847 0.750000 0.617516
O O16 0.856171 0.491497 0.554480
O O17 0.860502 0.250000 0.501189
O O18 0.000000 0.500000 0.500000
O O19 0.902996 0.750000 0.817362
#
# Coordination Sequence:
#
# PCOD8072483 Si02
#       7
#     4   4   4   4   4   4   4
#     4  10  20  36  58  84 111 148 192 239 287 341
#     4  11  24  38  56  83 116 152 194 240 289 342
#     4   9  20  36  60  88 116 152 192 232 281 347
#     4   9  18  33  57  84 112 148 191 232 283 347
#     4  10  20  37  61  88 116 149 189 235 285 339
#     4  11  22  39  61  88 118 153 195 234 281 338
#     4  10  19  36  59  82 112 151 193 235 281 341
#
# _framework density 19.442799999999998
#
# number of rings (size 3 to 8) (size 9 to 14) (size 15 to 20)
#    0.000    2.000    1.429    2.143    2.000    2.857 
#    0.000    5.714    0.000    0.000    0.000    0.000 
#    0.000    0.000    0.000    0.000    0.000    0.000 
#
# Total GULP energy -347133.178596 kJ/mol
# GULP energy per Si atom -12397.613521 kJ/mol
# Density = 1.939855 g / cm^3
# Si number density = 19.442800 Si / 1000 Ang^3
#
#
#
# Elastic Constant Matrix: (Units=GPa)
#
#
# Indices 1 2 3 4 5 6 
#
# 1 111.0523 36.1058 34.3567 0.0000 -4.8795 0.0000
# 2 36.1058 61.0059 27.6145 0.0000 0.8461 0.0000
# 3 34.3567 27.6145 101.5607 0.0000 -13.6866 0.0000
# 4 0.0000 0.0000 0.0000 29.3861 0.0000 -0.9281
# 5 -4.8795 0.8461 -13.6866 0.0000 41.8021 0.0000
# 6 0.0000 0.0000 0.0000 -0.9281 0.0000 24.4731
#
#
#
# Elastic Compliance Matrix: (Units=1/GPa)
#
#
# Indices 1 2 3 4 5 6 
#
# 1 0.011644 -0.005889 -0.002237 0.000000 0.000746 0.000000
# 2 -0.005889 0.021855 -0.004292 0.000000 -0.002535 0.000000
# 3 -0.002237 -0.004292 0.012289 0.000000 0.003849 0.000000
# 4 0.000000 0.000000 0.000000 0.034071 0.000000 0.001292
# 5 0.000746 -0.002535 0.003849 0.000000 0.025321 0.000000
# 6 0.000000 0.000000 0.000000 0.001292 0.000000 0.040910
#
#
# Mechanical properties :
#
#
# Convention : Reuss Voigt Hill
#
# Bulk Modulus (GPa) = 47.72886 52.19698 49.96292
# Shear Modulus (GPa) = 28.10394 30.83505 29.46950
#
# Velocity S-wave (km/s) = 3.80606 3.98670 3.89743
# Velocity P-wave (km/s) = 6.62694 6.93516 6.78280
#
# Compressibility (1/GPa) = 0.02095168
#
# Stress axis : x y z
#
# Youngs Moduli (GPa) = 85.87774 45.75566 81.37436
#
# Poissons Ratio (x) = 0.26947 0.18206
# Poissons Ratio (y) = 0.50576 0.34924
# Poissons Ratio (z) = 0.19214 0.19638
#
# Static dielectric constant tensor:
#      x y z
#    x 3.862510 0.000000 -0.224820 
#    y 0.000000 3.327830 0.000000 
#    z -0.224820 0.000000 3.967500 
# 
# 
# High freq. dielectric constant tensor:
#      x y z
#    x 1.770010 0.000000 -0.003840 
#    y 0.000000 1.723300 0.000000 
#    z -0.003840 0.000000 1.775560 
# 
# From -- ./inp_files/28576.got.cif
#   From: 2010.06.25/outbox.cif.g09.slc.cpg/sg11_15_cif.got.tgz:28576.got - 2010.06.27 23:14:04.
