data_PCOD8072012
_publ_section_title
;
Structure prediction by ZEFSAII (Michael W. Deem and Ramdas Pophale) SiO2 
 PCOD8072012
Probable space group: P 21/M
;
_chemical_formula_sum "Si O2"
_cell_formula_units_Z 32
_cell_length_a 11.242308
_cell_length_b 9.240892
_cell_length_c 21.257608
_cell_angle_alpha 90.000000
_cell_angle_beta 128.632022
_cell_angle_gamma 90.000000
_cell_volume 1725.163469
_symmetry_space_group_name_H-M "P 21/M"
_symmetry_group_IT_number 11
_symmetry_cell_setting 'monoclinic'
loop_
_space_group_symop_operation_xyz
x,y,z
-x,1/2+y,-z
-x,-y,-z
x,1/2-y,z
loop_
_atom_site_type_symbol
_atom_site_label
_atom_site_fract_x
_atom_site_fract_y
_atom_site_fract_z
Si Si1 0.322990 0.920227 0.738416
Si Si2 0.668793 0.411060 0.118677
Si Si3 0.588130 0.418944 0.618490
Si Si4 0.011834 0.919621 0.568883
Si Si5 0.159088 0.581058 0.051804
Si Si6 0.278067 0.081081 0.449029
Si Si7 0.401541 0.917220 0.235199
Si Si8 0.689989 0.911653 0.009477
O O1 0.355769 0.750000 0.749677
O O2 0.299785 0.975846 0.801937
O O3 0.172302 0.962591 0.651433
O O4 0.466432 0.994627 0.754473
O O5 0.739966 0.250000 0.135560
O O6 0.747690 0.515913 0.093607
O O7 0.490028 0.401031 0.048213
O O8 0.620225 0.250000 0.621994
O O9 0.705929 0.500545 0.612139
O O10 0.415734 0.458530 0.541708
O O11 0.616956 0.471813 0.699272
O O12 0.996882 0.750000 0.551438
O O13 0.877497 0.972558 0.570434
O O14 0.000000 0.000000 0.500000
O O15 0.134255 0.750000 0.029106
O O16 0.242527 0.558824 0.146337
O O17 0.263360 0.512399 0.032659
O O18 0.000000 0.500000 0.000000
O O19 0.274083 0.250000 0.432759
O O20 0.450763 0.750000 0.250604
O O21 0.761125 0.750000 0.026737
#
# Coordination Sequence:
#
# PCOD8072012 Si02
#       8
#     4   4   4   4   4   4   4   4
#     4  10  20  35  56  82 112 145 183 228 274 329
#     4   9  18  33  54  80 110 142 179 225 274 325
#     4   9  18  34  56  79 105 141 181 224 266 311
#     4  10  21  36  55  81 115 148 182 223 272 325
#     4  11  23  39  58  80 110 145 183 229 281 333
#     4   9  18  34  54  78 110 144 179 218 262 316
#     4  10  21  37  58  82 109 140 181 229 274 327
#     4  10  19  34  57  81 108 141 180 223 274 331
#
# _framework density 18.548967000000001
#
# number of rings (size 3 to 8) (size 9 to 14) (size 15 to 20)
#    0.000    2.250    1.250    1.500    0.000    4.000 
#    2.250    2.500    0.000    0.000    0.000    0.000 
#    0.000    0.000    0.000    0.000    0.000    0.000 
#
# Total GULP energy -396842.470662 kJ/mol
# GULP energy per Si atom -12401.327208 kJ/mol
# Density = 1.850675 g / cm^3
# Si number density = 18.548967 Si / 1000 Ang^3
#
#
#
# Elastic Constant Matrix: (Units=GPa)
#
#
# Indices 1 2 3 4 5 6 
#
# 1 68.3023 41.2634 47.9082 0.0000 -10.7454 0.0000
# 2 41.2634 75.2503 49.0068 0.0000 -11.5369 0.0000
# 3 47.9082 49.0068 125.7666 0.0000 -27.1980 0.0000
# 4 0.0000 0.0000 0.0000 26.2335 0.0000 -6.5434
# 5 -10.7454 -11.5369 -27.1980 0.0000 36.2471 0.0000
# 6 0.0000 0.0000 0.0000 -6.5434 0.0000 34.3117
#
#
#
# Elastic Compliance Matrix: (Units=1/GPa)
#
#
# Indices 1 2 3 4 5 6 
#
# 1 0.024414 -0.009823 -0.005471 0.000000 0.000006 0.000000
# 2 -0.009823 0.021770 -0.004622 0.000000 0.000549 0.000000
# 3 -0.005471 -0.004622 0.013331 0.000000 0.006910 0.000000
# 4 0.000000 0.000000 0.000000 0.040023 0.000000 0.007633
# 5 0.000006 0.000549 0.006910 0.000000 0.032949 0.000000
# 6 0.000000 0.000000 0.000000 0.007633 0.000000 0.030600
#
#
# Mechanical properties :
#
#
# Convention : Reuss Voigt Hill
#
# Bulk Modulus (GPa) = 50.81001 60.63067 55.72034
# Shear Modulus (GPa) = 23.86861 28.10119 25.98490
#
# Velocity S-wave (km/s) = 3.59108 3.89649 3.74690
# Velocity P-wave (km/s) = 6.68179 7.28020 6.98740
#
# Compressibility (1/GPa) = 0.01968116
#
# Stress axis : x y z
#
# Youngs Moduli (GPa) = 40.96085 45.93468 75.01516
#
# Poissons Ratio (x) = 0.45123 0.41039
# Poissons Ratio (y) = 0.40237 0.34675
# Poissons Ratio (z) = 0.22409 0.21233
#
# Static dielectric constant tensor:
#      x y z
#    x 5.424640 0.000000 0.161560 
#    y 0.000000 3.566950 0.000000 
#    z 0.161560 0.000000 3.695640 
# 
# 
# High freq. dielectric constant tensor:
#      x y z
#    x 1.713930 0.000000 -0.014220 
#    y 0.000000 1.719060 0.000000 
#    z -0.014220 0.000000 1.722590 
# 
# From -- ./inp_files/64416.got.cif
#   From: 2010.06.25/outbox.cif.g09.slc.cpg/sg11_33_cif.got.tgz:64416.got - 2010.06.27 23:14:04.
