data_PCOD8072184
_publ_section_title
;
Structure prediction by ZEFSAII (Michael W. Deem and Ramdas Pophale) SiO2 
 PCOD8072184
Probable space group: P 21/M
;
_chemical_formula_sum "Si O2"
_cell_formula_units_Z 32
_cell_length_a 20.130086
_cell_length_b 9.247359
_cell_length_c 25.957510
_cell_angle_alpha 90.000000
_cell_angle_beta 158.617102
_cell_angle_gamma 90.000000
_cell_volume 1761.739475
_symmetry_space_group_name_H-M "P 21/M"
_symmetry_group_IT_number 11
_symmetry_cell_setting 'monoclinic'
loop_
_space_group_symop_operation_xyz
x,y,z
-x,1/2+y,-z
-x,-y,-z
x,1/2-y,z
loop_
_atom_site_type_symbol
_atom_site_label
_atom_site_fract_x
_atom_site_fract_y
_atom_site_fract_z
Si Si1 0.274650 0.418213 0.202307
Si Si2 0.179191 0.417584 0.645849
Si Si3 0.466845 0.080049 0.765781
Si Si4 0.357338 0.578596 0.585073
Si Si5 0.835743 0.919507 0.057896
Si Si6 0.312878 0.421272 0.854151
Si Si7 0.970816 0.920960 0.265427
Si Si8 0.964957 0.084025 0.899679
O O1 0.264252 0.250000 0.206029
O O2 0.478096 0.465145 0.333972
O O3 0.212680 0.496375 0.210148
O O4 0.143137 0.464736 0.060449
O O5 0.128910 0.250000 0.609914
O O6 0.343924 0.452247 0.726547
O O7 0.239082 0.470057 0.745461
O O8 0.000000 0.500000 0.500000
O O9 0.489165 0.250000 0.771451
O O10 0.370623 0.005381 0.648075
O O11 0.662082 0.010872 0.916400
O O12 0.358435 0.750000 0.597527
O O13 0.173360 0.524716 0.424686
O O14 0.781840 0.750000 0.020717
O O15 0.909656 0.979371 0.165552
O O16 0.995922 0.945671 0.132039
O O17 0.343919 0.250000 0.879474
O O18 0.168658 0.477201 0.792191
O O19 0.500000 0.500000 0.000000
O O20 0.970764 0.750000 0.264194
O O21 0.921225 0.250000 0.878639
#
# Coordination Sequence:
#
# PCOD8072184 Si02
#       8
#     4   4   4   4   4   4   4   4
#     4   9  17  30  50  76 103 135 172 211 259 309
#     4  10  22  37  53  77 108 137 174 219 265 315
#     4  11  22  34  52  80 108 137 173 219 269 312
#     4  10  19  36  57  79 106 140 179 218 260 313
#     4  10  19  35  55  79 105 136 179 218 256 310
#     4  10  20  36  55  78 104 137 177 216 261 312
#     4   9  19  34  57  80 102 136 178 219 259 307
#     4   9  17  30  49  75 105 135 170 214 258 303
#
# _framework density 18.163865999999999
#
# number of rings (size 3 to 8) (size 9 to 14) (size 15 to 20)
#    0.000    2.250    1.250    1.875    0.000    3.500 
#    0.000    1.875    0.000    0.000    0.000    0.000 
#    0.000    0.000    0.000    0.000    0.000    0.000 
#
# Total GULP energy -396857.672083 kJ/mol
# GULP energy per Si atom -12401.802253 kJ/mol
# Density = 1.812252 g / cm^3
# Si number density = 18.163866 Si / 1000 Ang^3
#
#
#
# Elastic Constant Matrix: (Units=GPa)
#
#
# Indices 1 2 3 4 5 6 
#
# 1 123.1058 35.9682 49.5900 0.0000 4.0114 0.0000
# 2 35.9682 41.0978 28.8499 0.0000 1.0971 0.0000
# 3 49.5900 28.8499 103.7041 0.0000 0.2934 0.0000
# 4 0.0000 0.0000 0.0000 19.0827 0.0000 5.0706
# 5 4.0114 1.0971 0.2934 0.0000 32.6572 0.0000
# 6 0.0000 0.0000 0.0000 5.0706 0.0000 27.6594
#
#
#
# Elastic Compliance Matrix: (Units=1/GPa)
#
#
# Indices 1 2 3 4 5 6 
#
# 1 0.011874 -0.007925 -0.003470 0.000000 -0.001161 0.000000
# 2 -0.007925 0.035556 -0.006101 0.000000 -0.000166 0.000000
# 3 -0.003470 -0.006101 0.012998 0.000000 0.000514 0.000000
# 4 0.000000 0.000000 0.000000 0.055087 0.000000 -0.010099
# 5 -0.001161 -0.000166 0.000514 0.000000 0.030765 0.000000
# 6 0.000000 0.000000 0.000000 -0.010099 0.000000 0.038005
#
#
# Mechanical properties :
#
#
# Convention : Reuss Voigt Hill
#
# Bulk Modulus (GPa) = 39.31598 55.19153 47.25376
# Shear Modulus (GPa) = 21.95327 26.11316 24.03321
#
# Velocity S-wave (km/s) = 3.48030 3.79574 3.64144
# Velocity P-wave (km/s) = 6.15159 7.04709 6.61451
#
# Compressibility (1/GPa) = 0.02543495
#
# Stress axis : x y z
#
# Youngs Moduli (GPa) = 84.21523 28.12489 76.93482
#
# Poissons Ratio (x) = 0.22290 0.26697
# Poissons Ratio (y) = 0.66743 0.46939
# Poissons Ratio (z) = 0.29223 0.17159
#
# Static dielectric constant tensor:
#      x y z
#    x 3.628920 0.000000 -0.032930 
#    y 0.000000 3.199640 0.000000 
#    z -0.032930 0.000000 3.396560 
# 
# 
# High freq. dielectric constant tensor:
#      x y z
#    x 1.718920 0.000000 0.007240 
#    y 0.000000 1.685630 0.000000 
#    z 0.007240 0.000000 1.698320 
# 
# From -- ./inp_files/72139.got.cif
#   From: 2010.06.25/outbox.cif.g09.slc.cpg/sg11_37_cif.got.tgz:72139.got - 2010.06.27 23:14:04.
