data_PCOD8072185
_publ_section_title
;
Structure prediction by ZEFSAII (Michael W. Deem and Ramdas Pophale) SiO2 
 PCOD8072185
Probable space group: P 21/M
;
_chemical_formula_sum "Si O2"
_cell_formula_units_Z 32
_cell_length_a 12.203458
_cell_length_b 9.223963
_cell_length_c 28.849141
_cell_angle_alpha 90.000000
_cell_angle_beta 145.998532
_cell_angle_gamma 90.000000
_cell_volume 1815.981822
_symmetry_space_group_name_H-M "P 21/M"
_symmetry_group_IT_number 11
_symmetry_cell_setting 'monoclinic'
loop_
_space_group_symop_operation_xyz
x,y,z
-x,1/2+y,-z
-x,-y,-z
x,1/2-y,z
loop_
_atom_site_type_symbol
_atom_site_label
_atom_site_fract_x
_atom_site_fract_y
_atom_site_fract_z
Si Si1 0.597791 0.081443 0.224204
Si Si2 0.795689 0.581389 0.479390
Si Si3 0.824672 0.918486 0.962252
Si Si4 0.685676 0.922439 0.543298
Si Si5 0.712087 0.915699 0.121060
Si Si6 0.760912 0.083467 0.378649
Si Si7 0.321647 0.418780 0.993054
Si Si8 0.934891 0.919049 0.288636
O O1 0.645677 0.250000 0.229347
O O2 0.380534 0.036872 0.133009
O O3 0.612405 0.054148 0.284482
O O4 0.749800 0.977527 0.251933
O O5 0.777122 0.750000 0.463440
O O6 0.690932 0.539029 0.490626
O O7 0.689628 0.502722 0.399152
O O8 0.022768 0.532481 0.561859
O O9 0.863862 0.750000 0.969264
O O10 0.823177 0.963779 0.016090
O O11 0.000000 0.000000 0.000000
O O12 0.677200 0.750000 0.548357
O O13 0.500000 0.000000 0.500000
O O14 0.876858 0.985261 0.634889
O O15 0.641769 0.750000 0.096510
O O16 0.772391 0.962018 0.089651
O O17 0.894383 0.938230 0.219408
O O18 0.529963 0.007876 0.074774
O O19 0.765070 0.250000 0.394555
O O20 0.366355 0.250000 0.012403
O O21 0.969969 0.750000 0.313404
#
# Coordination Sequence:
#
# PCOD8072185 Si02
#       8
#     4   4   4   4   4   4   4   4
#     4  10  19  35  55  79 108 142 182 226 267 314
#     4   9  18  33  53  78 107 138 172 217 269 316
#     4  10  21  35  54  76 106 145 181 219 266 318
#     4  11  23  40  58  79 110 146 183 222 269 324
#     4   9  18  31  51  81 110 134 172 224 267 312
#     4   9  17  31  53  79 107 136 173 221 267 314
#     4   9  17  32  53  76 104 142 179 215 268 320
#     4  11  21  33  54  84 112 140 177 225 271 320
#
# _framework density 17.621320000000001
#
# number of rings (size 3 to 8) (size 9 to 14) (size 15 to 20)
#    0.000    2.250    2.500    0.750    0.000    3.000 
#    0.000    1.250    0.000    4.500    0.000    0.000 
#    0.000    0.000    0.000    0.000    0.000    0.000 
#
# Total GULP energy -396747.360358 kJ/mol
# GULP energy per Si atom -12398.355011 kJ/mol
# Density = 1.758121 g / cm^3
# Si number density = 17.621320 Si / 1000 Ang^3
#
#
#
# Elastic Constant Matrix: (Units=GPa)
#
#
# Indices 1 2 3 4 5 6 
#
# 1 145.6791 64.3467 71.8070 0.0000 -2.8597 0.0000
# 2 64.3467 67.1931 46.6979 0.0000 -0.9976 0.0000
# 3 71.8070 46.6979 94.2659 0.0000 -5.3354 0.0000
# 4 0.0000 0.0000 0.0000 28.2243 0.0000 1.7095
# 5 -2.8597 -0.9976 -5.3354 0.0000 28.1245 0.0000
# 6 0.0000 0.0000 0.0000 1.7095 0.0000 32.3239
#
#
#
# Elastic Compliance Matrix: (Units=1/GPa)
#
#
# Indices 1 2 3 4 5 6 
#
# 1 0.013853 -0.009045 -0.006075 0.000000 -0.000065 0.000000
# 2 -0.009045 0.028652 -0.007378 0.000000 -0.001303 0.000000
# 3 -0.006075 -0.007378 0.019046 0.000000 0.002734 0.000000
# 4 0.000000 0.000000 0.000000 0.035544 0.000000 -0.001880
# 5 -0.000065 -0.001303 0.002734 0.000000 0.036022 0.000000
# 6 0.000000 0.000000 0.000000 -0.001880 0.000000 0.031036
#
#
# Mechanical properties :
#
#
# Convention : Reuss Voigt Hill
#
# Bulk Modulus (GPa) = 60.40498 74.76015 67.58257
# Shear Modulus (GPa) = 23.29185 26.02032 24.65609
#
# Velocity S-wave (km/s) = 3.63960 3.84687 3.74467
# Velocity P-wave (km/s) = 7.21222 7.88982 7.55862
#
# Compressibility (1/GPa) = 0.01655493
#
# Stress axis : x y z
#
# Youngs Moduli (GPa) = 72.18738 34.90152 52.50485
#
# Poissons Ratio (x) = 0.31567 0.31899
# Poissons Ratio (y) = 0.65291 0.38737
# Poissons Ratio (z) = 0.43857 0.25750
#
# Static dielectric constant tensor:
#      x y z
#    x 3.482630 0.000000 -0.192350 
#    y 0.000000 3.310040 0.000000 
#    z -0.192350 0.000000 3.538680 
# 
# 
# High freq. dielectric constant tensor:
#      x y z
#    x 1.679200 0.000000 -0.026610 
#    y 0.000000 1.683770 0.000000 
#    z -0.026610 0.000000 1.668540 
# 
# From -- ./inp_files/67441.got.cif
#   From: 2010.06.25/outbox.cif.g09.slc.cpg/sg11_34_cif.got.tgz:67441.got - 2010.06.27 23:14:04.
