data_PCOD8072066
_publ_section_title
;
Structure prediction by ZEFSAII (Michael W. Deem and Ramdas Pophale) SiO2 
 PCOD8072066
Probable space group: P 21/M
;
_chemical_formula_sum "Si O2"
_cell_formula_units_Z 32
_cell_length_a 12.966167
_cell_length_b 8.504479
_cell_length_c 14.117163
_cell_angle_alpha 90.000000
_cell_angle_beta 86.100682
_cell_angle_gamma 90.000000
_cell_volume 1553.102913
_symmetry_space_group_name_H-M "P 21/M"
_symmetry_group_IT_number 11
_symmetry_cell_setting 'monoclinic'
loop_
_space_group_symop_operation_xyz
x,y,z
-x,1/2+y,-z
-x,-y,-z
x,1/2-y,z
loop_
_atom_site_type_symbol
_atom_site_label
_atom_site_fract_x
_atom_site_fract_y
_atom_site_fract_z
Si Si1 0.952710 0.934152 0.597505
Si Si2 0.398367 0.063857 0.772948
Si Si3 0.197456 0.932868 0.104211
Si Si4 0.804199 0.566824 0.100259
Si Si5 0.991269 0.066857 0.201229
Si Si6 0.726394 0.936140 0.603311
Si Si7 0.385518 0.064012 0.204684
Si Si8 0.597717 0.935538 0.440084
O O1 0.941715 0.750000 0.585657
O O2 0.838661 0.008574 0.617366
O O3 0.019268 0.975218 0.686490
O O4 0.000000 0.000000 0.500000
O O5 0.410116 0.250000 0.771535
O O6 0.294657 0.011710 0.833008
O O7 0.390783 0.994898 0.666289
O O8 0.496994 0.990776 0.820687
O O9 0.180589 0.750000 0.126267
O O10 0.309895 0.987164 0.132466
O O11 0.107648 0.031071 0.161016
O O12 0.191353 0.961909 0.993010
O O13 0.797119 0.750000 0.073773
O O14 0.908702 0.539520 0.152553
O O15 0.968573 0.250000 0.183798
O O16 0.728052 0.750000 0.611136
O O17 0.647107 0.997430 0.688554
O O18 0.694253 0.988547 0.499358
O O19 0.377941 0.250000 0.193912
O O20 0.589083 0.750000 0.434475
O O21 0.500000 0.000000 0.500000
#
# Coordination Sequence:
#
# PCOD8072066 Si02
#       8
#     4   4   4   4   4   4   4   4
#     4  10  22  39  60  89 126 163 203 249 305 365
#     4  10  23  40  60  91 128 164 209 259 308 367
#     4  12  25  43  68  95 122 157 207 263 318 379
#     4  11  25  44  65  91 125 166 209 259 319 375
#     4  11  23  43  67  94 128 165 209 259 311 372
#     4   9  18  35  58  84 119 161 200 245 302 360
#     4  11  21  39  66  92 124 165 208 255 312 371
#     4  10  19  34  57  86 118 157 200 244 293 354
#
# _framework density 20.603914
#
# number of rings (size 3 to 8) (size 9 to 14) (size 15 to 20)
#    0.000    1.500    2.500    2.625    1.750    2.500 
#    0.000    0.625    0.000    0.000    0.000    0.000 
#    0.000    0.000    0.000    0.000    0.000    0.000 
#
# Total GULP energy -396832.862405 kJ/mol
# GULP energy per Si atom -12401.026950 kJ/mol
# Density = 2.055702 g / cm^3
# Si number density = 20.603914 Si / 1000 Ang^3
#
#
#
# Elastic Constant Matrix: (Units=GPa)
#
#
# Indices 1 2 3 4 5 6 
#
# 1 107.3685 16.3405 39.2674 0.0000 12.9556 0.0000
# 2 16.3405 38.7336 23.9835 0.0000 2.5987 0.0000
# 3 39.2674 23.9835 120.3894 0.0000 4.9546 0.0000
# 4 0.0000 0.0000 0.0000 28.2565 0.0000 -1.0364
# 5 12.9556 2.5987 4.9546 0.0000 37.2833 0.0000
# 6 0.0000 0.0000 0.0000 -1.0364 0.0000 32.1903
#
#
#
# Elastic Compliance Matrix: (Units=1/GPa)
#
#
# Indices 1 2 3 4 5 6 
#
# 1 0.011212 -0.002655 -0.002992 0.000000 -0.003313 0.000000
# 2 -0.002655 0.030140 -0.005118 0.000000 -0.000498 0.000000
# 3 -0.002992 -0.005118 0.010301 0.000000 0.000027 0.000000
# 4 0.000000 0.000000 0.000000 0.035432 0.000000 0.001141
# 5 -0.003313 -0.000498 0.000027 0.000000 0.028004 0.000000
# 6 0.000000 0.000000 0.000000 0.001141 0.000000 0.031102
#
#
# Mechanical properties :
#
#
# Convention : Reuss Voigt Hill
#
# Bulk Modulus (GPa) = 33.19732 47.29714 40.24723
# Shear Modulus (GPa) = 28.12777 32.00602 30.06690
#
# Velocity S-wave (km/s) = 3.69882 3.94559 3.82420
# Velocity P-wave (km/s) = 5.86420 6.61530 6.25104
#
# Compressibility (1/GPa) = 0.03012292
#
# Stress axis : x y z
#
# Youngs Moduli (GPa) = 89.19228 33.17872 97.08196
#
# Poissons Ratio (x) = 0.08810 0.29043
# Poissons Ratio (y) = 0.23682 0.49685
# Poissons Ratio (z) = 0.26683 0.16980
#
# Static dielectric constant tensor:
#      x y z
#    x 3.821500 0.000000 0.100240 
#    y 0.000000 3.495580 0.000000 
#    z 0.100240 0.000000 3.930020 
# 
# 
# High freq. dielectric constant tensor:
#      x y z
#    x 1.813430 0.000000 0.009160 
#    y 0.000000 1.789740 0.000000 
#    z 0.009160 0.000000 1.815590 
# 
# From -- ./inp_files/49372.got.cif
#   From: 2010.06.25/outbox.cif.g09.slc.cpg/sg11_25_cif.got.tgz:49372.got - 2010.06.27 23:14:04.
