data_PCOD8072883
_publ_section_title
;
Structure prediction by ZEFSAII (Michael W. Deem and Ramdas Pophale) SiO2 
 PCOD8072883
Probable space group: P 21/M
;
_chemical_formula_sum "Si O2"
_cell_formula_units_Z 32
_cell_length_a 23.688899
_cell_length_b 9.436764
_cell_length_c 14.184820
_cell_angle_alpha 90.000000
_cell_angle_beta 31.182747
_cell_angle_gamma 90.000000
_cell_volume 1641.830027
_symmetry_space_group_name_H-M "P 21/M"
_symmetry_group_IT_number 11
_symmetry_cell_setting 'monoclinic'
loop_
_space_group_symop_operation_xyz
x,y,z
-x,1/2+y,-z
-x,-y,-z
x,1/2-y,z
loop_
_atom_site_type_symbol
_atom_site_label
_atom_site_fract_x
_atom_site_fract_y
_atom_site_fract_z
Si Si1 0.274157 0.086634 0.727165
Si Si2 0.046786 0.582391 0.343168
Si Si3 0.481623 0.585252 0.172035
Si Si4 0.102529 0.082263 0.815347
Si Si5 0.490426 0.586812 0.682775
Si Si6 0.891723 0.587536 0.403996
Si Si7 0.651909 0.910606 0.770065
Si Si8 0.256824 0.586530 0.933219
O O1 0.254799 0.250000 0.778703
O O2 0.209810 0.043918 0.723607
O O3 0.402726 0.054071 0.531900
O O4 0.225891 0.999682 0.883760
O O5 0.026819 0.750000 0.388140
O O6 0.000000 0.500000 0.500000
O O7 0.982535 0.521976 0.343098
O O8 0.174351 0.549658 0.137978
O O9 0.457461 0.750000 0.219486
O O10 0.510527 0.518136 0.229208
O O11 0.376088 0.512317 0.277208
O O12 0.584097 0.552506 0.959258
O O13 0.081587 0.250000 0.848436
O O14 0.116793 0.022503 0.688653
O O15 0.000000 0.000000 0.000000
O O16 0.490959 0.750000 0.716404
O O17 0.381181 0.551219 0.781688
O O18 0.922196 0.750000 0.346898
O O19 0.776595 0.565778 0.620553
O O20 0.630426 0.750000 0.766192
O O21 0.242221 0.750000 0.927477
#
# Coordination Sequence:
#
# PCOD8072883 Si02
#       8
#     4   4   4   4   4   4   4   4
#     4  10  21  37  59  86 114 150 192 231 282 343
#     4  10  22  39  59  84 113 149 191 233 282 334
#     4  10  20  32  51  82 111 141 185 232 280 330
#     4  10  20  35  57  83 110 144 184 227 279 336
#     4  10  21  37  57  80 113 153 190 229 281 340
#     4   9  18  35  58  78 104 145 186 218 266 339
#     4   9  18  34  54  75 105 145 185 226 276 334
#     4  10  22  39  59  84 114 150 191 237 289 334
#
# _framework density 19.490447
#
# number of rings (size 3 to 8) (size 9 to 14) (size 15 to 20)
#    0.000    2.250    0.000    2.250    1.750    5.500 
#    0.000    3.125    0.000    0.000    0.000    0.000 
#    0.000    0.000    0.000    0.000    0.000    0.000 
#
# Total GULP energy -396730.545370 kJ/mol
# GULP energy per Si atom -12397.829543 kJ/mol
# Density = 1.944609 g / cm^3
# Si number density = 19.490447 Si / 1000 Ang^3
#
#
#
# Elastic Constant Matrix: (Units=GPa)
#
#
# Indices 1 2 3 4 5 6 
#
# 1 106.6977 45.0158 56.3004 0.0000 8.7756 0.0000
# 2 45.0158 61.5598 34.5575 0.0000 10.1493 0.0000
# 3 56.3004 34.5575 112.9882 0.0000 -2.4998 0.0000
# 4 0.0000 0.0000 0.0000 25.4331 0.0000 7.5283
# 5 8.7756 10.1493 -2.4998 0.0000 33.6386 0.0000
# 6 0.0000 0.0000 0.0000 7.5283 0.0000 33.7641
#
#
#
# Elastic Compliance Matrix: (Units=1/GPa)
#
#
# Indices 1 2 3 4 5 6 
#
# 1 0.015883 -0.008215 -0.005447 0.000000 -0.002070 0.000000
# 2 -0.008215 0.025327 -0.003781 0.000000 -0.005779 0.000000
# 3 -0.005447 -0.003781 0.012799 0.000000 0.003513 0.000000
# 4 0.000000 0.000000 0.000000 0.042097 0.000000 -0.009386
# 5 -0.002070 -0.005779 0.003513 0.000000 0.032273 0.000000
# 6 0.000000 0.000000 0.000000 -0.009386 0.000000 0.031710
#
#
# Mechanical properties :
#
#
# Convention : Reuss Voigt Hill
#
# Bulk Modulus (GPa) = 52.29504 61.44366 56.86935
# Shear Modulus (GPa) = 24.83252 28.25862 26.54557
#
# Velocity S-wave (km/s) = 3.57331 3.81185 3.69450
# Velocity P-wave (km/s) = 6.62677 7.13912 6.88771
#
# Compressibility (1/GPa) = 0.01912227
#
# Stress axis : x y z
#
# Youngs Moduli (GPa) = 62.96098 39.48372 78.13205
#
# Poissons Ratio (x) = 0.32437 0.42561
# Poissons Ratio (y) = 0.51724 0.29539
# Poissons Ratio (z) = 0.34297 0.14927
#
# Static dielectric constant tensor:
#      x y z
#    x 3.714650 0.000000 -0.080460 
#    y 0.000000 3.413050 0.000000 
#    z -0.080460 0.000000 3.692460 
# 
# 
# High freq. dielectric constant tensor:
#      x y z
#    x 1.760830 0.000000 -0.004570 
#    y 0.000000 1.739710 0.000000 
#    z -0.004570 0.000000 1.769660 
# 
# From -- ./inp_files/55533.got.cif
#   From: 2010.06.25/outbox.cif.g09.slc.cpg/sg11_28_cif.got.tgz:55533.got - 2010.06.27 23:14:04.
