data_PCOD8072948
_publ_section_title
;
Structure prediction by ZEFSAII (Michael W. Deem and Ramdas Pophale) SiO2 
 PCOD8072948
Probable space group: P 21/M
;
_chemical_formula_sum "Si O2"
_cell_formula_units_Z 28
_cell_length_a 21.286560
_cell_length_b 9.036161
_cell_length_c 11.288987
_cell_angle_alpha 90.000000
_cell_angle_beta 130.089983
_cell_angle_gamma 90.000000
_cell_volume 1661.212360
_symmetry_space_group_name_H-M "P 21/M"
_symmetry_group_IT_number 11
_symmetry_cell_setting 'monoclinic'
loop_
_space_group_symop_operation_xyz
x,y,z
-x,1/2+y,-z
-x,-y,-z
x,1/2-y,z
loop_
_atom_site_type_symbol
_atom_site_label
_atom_site_fract_x
_atom_site_fract_y
_atom_site_fract_z
Si Si1 0.964728 0.920797 0.638923
Si Si2 0.112199 0.079935 0.699196
Si Si3 0.441493 0.413151 0.270586
Si Si4 0.407216 0.087546 0.506350
Si Si5 0.772945 0.926013 0.758446
Si Si6 0.070995 0.573908 0.162908
Si Si7 0.266321 0.076174 0.028602
O O1 0.970381 0.750000 0.686660
O O2 0.897757 0.941074 0.453353
O O3 0.937417 0.024992 0.711866
O O4 0.053125 0.970947 0.698895
O O5 0.093033 0.250000 0.712722
O O6 0.205586 0.036946 0.846910
O O7 0.451927 0.250000 0.229715
O O8 0.525402 0.496205 0.337547
O O9 0.431388 0.407641 0.398896
O O10 0.357965 0.491366 0.117553
O O11 0.409995 0.250000 0.565159
O O12 0.314276 0.026814 0.405824
O O13 0.789123 0.750000 0.765172
O O14 0.774031 0.977288 0.897074
O O15 0.841461 0.019596 0.775778
O O16 0.063939 0.750000 0.144777
O O17 0.000000 0.500000 0.000000
O O18 0.281617 0.250000 0.061654
#
# Coordination Sequence:
#
# PCOD8072948 Si02
#       7
#     4   4   4   4   4   4   4
#     4  10  20  33  49  70  94 121 155 191 231 276
#     4   9  17  31  51  71  93 122 155 192 231 272
#     4   8  13  22  38  60  87 118 150 181 215 262
#     4   8  14  24  38  59  89 122 150 178 218 266
#     4   9  17  30  47  67  94 125 154 185 225 273
#     4  12  24  36  50  68  92 121 154 191 231 274
#     4   8  14  26  45  68  92 120 151 184 226 270
#
# _framework density 16.855160000000001
#
# number of rings (size 3 to 8) (size 9 to 14) (size 15 to 20)
#    0.000    2.857    0.000    4.286    0.000    2.286 
#    0.000    2.857    0.000    0.000    0.000    1.000 
#    0.000    0.000    0.000    0.000    0.000    0.000 
#
# Total GULP energy -346987.209687 kJ/mol
# GULP energy per Si atom -12392.400346 kJ/mol
# Density = 1.681680 g / cm^3
# Si number density = 16.855160 Si / 1000 Ang^3
#
#
#
# Elastic Constant Matrix: (Units=GPa)
#
#
# Indices 1 2 3 4 5 6 
#
# 1 76.4929 42.9220 55.9464 0.0000 17.8279 0.0000
# 2 42.9220 81.9538 47.1495 0.0000 11.8310 0.0000
# 3 55.9464 47.1495 125.9494 0.0000 26.0088 0.0000
# 4 0.0000 0.0000 0.0000 22.4818 0.0000 3.9756
# 5 17.8279 11.8310 26.0088 0.0000 27.4183 0.0000
# 6 0.0000 0.0000 0.0000 3.9756 0.0000 25.3716
#
#
#
# Elastic Compliance Matrix: (Units=1/GPa)
#
#
# Indices 1 2 3 4 5 6 
#
# 1 0.023406 -0.007807 -0.006252 0.000000 -0.005920 0.000000
# 2 -0.007807 0.018204 -0.003448 0.000000 0.000493 0.000000
# 3 -0.006252 -0.003448 0.013507 0.000000 -0.007259 0.000000
# 4 0.000000 0.000000 0.000000 0.045748 0.000000 -0.007169
# 5 -0.005920 0.000493 -0.007259 0.000000 0.046995 0.000000
# 6 0.000000 0.000000 0.000000 -0.007169 0.000000 0.040537
#
#
# Mechanical properties :
#
#
# Convention : Reuss Voigt Hill
#
# Bulk Modulus (GPa) = 49.74693 64.04798 56.89745
# Shear Modulus (GPa) = 21.72848 24.27954 23.00401
#
# Velocity S-wave (km/s) = 3.59434 3.79948 3.69833
# Velocity P-wave (km/s) = 6.84136 7.57163 7.21574
#
# Compressibility (1/GPa) = 0.02010174
#
# Stress axis : x y z
#
# Youngs Moduli (GPa) = 42.72362 54.93386 74.03711
#
# Poissons Ratio (x) = 0.42888 0.46287
# Poissons Ratio (y) = 0.33355 0.25531
# Poissons Ratio (z) = 0.26710 0.18943
#
# Static dielectric constant tensor:
#      x y z
#    x 2.974870 0.000000 0.298390 
#    y 0.000000 3.180340 0.000000 
#    z 0.298390 0.000000 3.325380 
# 
# 
# High freq. dielectric constant tensor:
#      x y z
#    x 1.618670 0.000000 0.030860 
#    y 0.000000 1.637340 0.000000 
#    z 0.030860 0.000000 1.648300 
# 
# From -- ./inp_files/42135.got.cif
#   From: 2010.06.25/outbox.cif.g09.slc.cpg/sg11_22_cif.got.tgz:42135.got - 2010.06.27 23:14:04.
