data_PCOD8072001
_publ_section_title
;
Structure prediction by ZEFSAII (Michael W. Deem and Ramdas Pophale) SiO2 
 PCOD8072001
Probable space group: P 21/M
;
_chemical_formula_sum "Si O2"
_cell_formula_units_Z 32
_cell_length_a 20.461011
_cell_length_b 8.728659
_cell_length_c 14.125662
_cell_angle_alpha 90.000000
_cell_angle_beta 43.604886
_cell_angle_gamma 90.000000
_cell_volume 1739.930394
_symmetry_space_group_name_H-M "P 21/M"
_symmetry_group_IT_number 11
_symmetry_cell_setting 'monoclinic'
loop_
_space_group_symop_operation_xyz
x,y,z
-x,1/2+y,-z
-x,-y,-z
x,1/2-y,z
loop_
_atom_site_type_symbol
_atom_site_label
_atom_site_fract_x
_atom_site_fract_y
_atom_site_fract_z
Si Si1 0.135860 0.071505 0.082453
Si Si2 0.954845 0.926357 0.349618
Si Si3 0.101181 0.569290 0.918565
Si Si4 0.729147 0.428762 0.917541
Si Si5 0.480116 0.930642 0.918995
Si Si6 0.813445 0.426356 0.628965
Si Si7 0.797809 0.571577 0.357776
Si Si8 0.344459 0.570912 0.355947
O O1 0.134925 0.250000 0.058271
O O2 0.231966 0.027977 0.036211
O O3 0.047329 0.030085 0.242176
O O4 0.131369 0.973001 0.992272
O O5 0.986042 0.750000 0.322276
O O6 0.887145 0.958934 0.331726
O O7 0.901230 0.970676 0.502554
O O8 0.093727 0.750000 0.915853
O O9 0.181350 0.505011 0.764650
O O10 0.000000 0.500000 0.000000
O O11 0.733029 0.250000 0.939509
O O12 0.793983 0.463191 0.758227
O O13 0.622589 0.483322 0.009504
O O14 0.484799 0.750000 0.924827
O O15 0.555391 0.988124 0.762951
O O16 0.500000 0.000000 0.000000
O O17 0.840414 0.250000 0.583865
O O18 0.719481 0.467263 0.668262
O O19 0.778286 0.750000 0.364417
O O20 0.704057 0.494207 0.498697
O O21 0.361796 0.750000 0.350027
#
# Coordination Sequence:
#
# PCOD8072001 Si02
#       8
#     4   4   4   4   4   4   4   4
#     4  12  25  39  57  82 113 152 194 238 285 341
#     4  10  20  34  54  80 113 151 190 233 279 334
#     4  12  23  38  61  87 115 150 189 236 285 338
#     4  10  22  40  57  79 114 154 193 237 287 339
#     4  11  21  36  59  86 115 151 193 240 290 341
#     4   9  18  34  54  78 112 152 192 232 277 334
#     4  10  20  35  57  87 117 149 188 234 283 337
#     4  10  19  34  56  86 118 150 188 236 286 338
#
# _framework density 18.391539999999999
#
# number of rings (size 3 to 8) (size 9 to 14) (size 15 to 20)
#    0.000    1.500    2.500    3.750    0.000    3.500 
#    0.000    0.000    0.000    0.750    0.000    0.000 
#    0.000    0.000    0.000    0.000    0.000    0.000 
#
# Total GULP energy -396979.900215 kJ/mol
# GULP energy per Si atom -12405.621882 kJ/mol
# Density = 1.834968 g / cm^3
# Si number density = 18.391540 Si / 1000 Ang^3
#
#
#
# Elastic Constant Matrix: (Units=GPa)
#
#
# Indices 1 2 3 4 5 6 
#
# 1 84.7241 27.3268 42.9276 0.0000 -3.0924 0.0000
# 2 27.3268 60.1045 20.6081 0.0000 -9.4287 0.0000
# 3 42.9276 20.6081 99.5838 0.0000 -5.4535 0.0000
# 4 0.0000 0.0000 0.0000 37.1010 0.0000 1.1211
# 5 -3.0924 -9.4287 -5.4535 0.0000 22.9746 0.0000
# 6 0.0000 0.0000 0.0000 1.1211 0.0000 26.9516
#
#
#
# Elastic Compliance Matrix: (Units=1/GPa)
#
#
# Indices 1 2 3 4 5 6 
#
# 1 0.016683 -0.005742 -0.006089 0.000000 -0.001556 0.000000
# 2 -0.005742 0.020915 -0.001444 0.000000 0.007468 0.000000
# 3 -0.006089 -0.001444 0.013058 0.000000 0.001687 0.000000
# 4 0.000000 0.000000 0.000000 0.026987 0.000000 -0.001123
# 5 -0.001556 0.007468 0.001687 0.000000 0.046782 0.000000
# 6 0.000000 0.000000 0.000000 -0.001123 0.000000 0.037150
#
#
# Mechanical properties :
#
#
# Convention : Reuss Voigt Hill
#
# Bulk Modulus (GPa) = 41.48199 47.34859 44.41529
# Shear Modulus (GPa) = 25.48948 27.64211 26.56580
#
# Velocity S-wave (km/s) = 3.72685 3.88103 3.80473
# Velocity P-wave (km/s) = 6.41273 6.77376 6.59572
#
# Compressibility (1/GPa) = 0.02410685
#
# Stress axis : x y z
#
# Youngs Moduli (GPa) = 59.94120 47.81313 76.58327
#
# Poissons Ratio (x) = 0.27452 0.46629
# Poissons Ratio (y) = 0.34415 0.11060
# Poissons Ratio (z) = 0.36496 0.06905
#
# Static dielectric constant tensor:
#      x y z
#    x 3.215250 0.000000 -0.000530 
#    y 0.000000 3.451950 0.000000 
#    z -0.000530 0.000000 3.550870 
# 
# 
# High freq. dielectric constant tensor:
#      x y z
#    x 1.687820 0.000000 0.001930 
#    y 0.000000 1.724000 0.000000 
#    z 0.001930 0.000000 1.719020 
# 
# From -- ./inp_files/54285.got.cif
#   From: 2010.06.25/outbox.cif.g09.slc.cpg/sg11_28_cif.got.tgz:54285.got - 2010.06.27 23:14:04.
