data_PCOD8072949
_publ_section_title
;
Structure prediction by ZEFSAII (Michael W. Deem and Ramdas Pophale) SiO2 
 PCOD8072949
Probable space group: P 21/M
;
_chemical_formula_sum "Si O2"
_cell_formula_units_Z 32
_cell_length_a 12.093717
_cell_length_b 9.408870
_cell_length_c 20.840123
_cell_angle_alpha 90.000000
_cell_angle_beta 128.049991
_cell_angle_gamma 90.000000
_cell_volume 1867.382896
_symmetry_space_group_name_H-M "P 21/M"
_symmetry_group_IT_number 11
_symmetry_cell_setting 'monoclinic'
loop_
_space_group_symop_operation_xyz
x,y,z
-x,1/2+y,-z
-x,-y,-z
x,1/2-y,z
loop_
_atom_site_type_symbol
_atom_site_label
_atom_site_fract_x
_atom_site_fract_y
_atom_site_fract_z
Si Si1 0.761151 0.085615 0.051801
Si Si2 0.464851 0.583023 0.133801
Si Si3 0.268495 0.583141 0.810983
Si Si4 0.969105 0.086152 0.845616
Si Si5 0.001520 0.912484 0.292883
Si Si6 0.329651 0.582049 0.219080
Si Si7 0.298724 0.913831 0.450340
Si Si8 0.508493 0.083986 0.600307
O O1 0.798793 0.250000 0.056859
O O2 0.716583 0.049139 0.108296
O O3 0.632319 0.040911 0.960834
O O4 0.898301 0.999253 0.079545
O O5 0.501417 0.750000 0.146813
O O6 0.606105 0.492862 0.181312
O O7 0.385377 0.536327 0.169835
O O8 0.271354 0.750000 0.797533
O O9 0.123586 0.518129 0.732473
O O10 0.993346 0.250000 0.872093
O O11 0.952333 0.064355 0.763785
O O12 0.828471 0.023244 0.828199
O O13 0.952160 0.750000 0.285650
O O14 0.134108 0.949606 0.385043
O O15 0.320972 0.750000 0.224574
O O16 0.434449 0.523880 0.311512
O O17 0.322154 0.750000 0.475647
O O18 0.374164 0.952086 0.410572
O O19 0.363093 0.005386 0.531328
O O20 0.474972 0.250000 0.591792
#
# Coordination Sequence:
#
# PCOD8072949 Si02
#       8
#     4   4   4   4   4   4   4   4
#     4   9  19  33  48  70  97 122 154 202 247 280
#     4  10  20  34  51  68  91 128 167 196 232 283
#     4  10  20  33  49  70  96 121 156 206 248 277
#     4   9  16  29  49  71  95 126 159 190 231 281
#     4   9  16  29  50  72  96 125 157 192 232 282
#     4   9  17  31  50  70  96 130 163 192 225 280
#     4   9  16  27  46  73 100 124 154 189 228 277
#     4   9  16  28  46  70 100 128 154 187 228 276
#
# _framework density 17.136282999999999
#
# number of rings (size 3 to 8) (size 9 to 14) (size 15 to 20)
#    0.000    2.750    1.250    0.750    0.000    2.000 
#    0.000    1.875    0.000    0.750    0.000    0.000 
#    0.000    0.000    0.000    0.000    0.000    0.000 
#
# Total GULP energy -396814.846631 kJ/mol
# GULP energy per Si atom -12400.463957 kJ/mol
# Density = 1.709728 g / cm^3
# Si number density = 17.136283 Si / 1000 Ang^3
#
#
#
# Elastic Constant Matrix: (Units=GPa)
#
#
# Indices 1 2 3 4 5 6 
#
# 1 101.6540 45.6526 34.0274 0.0000 23.6597 0.0000
# 2 45.6526 56.8985 32.6429 0.0000 16.2659 0.0000
# 3 34.0274 32.6429 57.9277 0.0000 22.6258 0.0000
# 4 0.0000 0.0000 0.0000 28.0018 0.0000 8.8659
# 5 23.6597 16.2659 22.6258 0.0000 23.4631 0.0000
# 6 0.0000 0.0000 0.0000 8.8659 0.0000 23.5370
#
#
#
# Elastic Compliance Matrix: (Units=1/GPa)
#
#
# Indices 1 2 3 4 5 6 
#
# 1 0.016938 -0.010788 -0.000193 0.000000 -0.009415 0.000000
# 2 -0.010788 0.033425 -0.012347 0.000000 -0.000387 0.000000
# 3 -0.000193 -0.012347 0.033552 0.000000 -0.023600 0.000000
# 4 0.000000 0.000000 0.000000 0.040548 0.000000 -0.015274
# 5 -0.009415 -0.000387 -0.023600 0.000000 0.075140 0.000000
# 6 0.000000 0.000000 0.000000 -0.015274 0.000000 0.048239
#
#
# Mechanical properties :
#
#
# Convention : Reuss Voigt Hill
#
# Bulk Modulus (GPa) = 26.83943 49.01402 37.92673
# Shear Modulus (GPa) = 16.29091 21.94421 19.11756
#
# Velocity S-wave (km/s) = 3.08664 3.58239 3.34371
# Velocity P-wave (km/s) = 5.32911 6.76579 6.08996
#
# Compressibility (1/GPa) = 0.03725861
#
# Stress axis : x y z
#
# Youngs Moduli (GPa) = 59.03843 29.91744 29.80445
#
# Poissons Ratio (x) = 0.32275 0.00576
# Poissons Ratio (y) = 0.63691 0.36800
# Poissons Ratio (z) = 0.01140 0.36940
#
# Static dielectric constant tensor:
#      x y z
#    x 3.061270 0.000000 0.137270 
#    y 0.000000 3.064860 0.000000 
#    z 0.137270 0.000000 3.263730 
# 
# 
# High freq. dielectric constant tensor:
#      x y z
#    x 1.643430 0.000000 0.017510 
#    y 0.000000 1.646270 0.000000 
#    z 0.017510 0.000000 1.659270 
# 
# From -- ./inp_files/42796.got.cif
#   From: 2010.06.25/outbox.cif.g09.slc.cpg/sg11_22_cif.got.tgz:42796.got - 2010.06.27 23:14:04.
