data_PCOD8072989
_publ_section_title
;
Structure prediction by ZEFSAII (Michael W. Deem and Ramdas Pophale) SiO2 
 PCOD8072989
Probable space group: P 21/M
;
_chemical_formula_sum "Si O2"
_cell_formula_units_Z 24
_cell_length_a 15.516218
_cell_length_b 13.520352
_cell_length_c 20.360868
_cell_angle_alpha 90.000000
_cell_angle_beta 19.011120
_cell_angle_gamma 90.000000
_cell_volume 1391.415352
_symmetry_space_group_name_H-M "P 21/M"
_symmetry_group_IT_number 11
_symmetry_cell_setting 'monoclinic'
loop_
_space_group_symop_operation_xyz
x,y,z
-x,1/2+y,-z
-x,-y,-z
x,1/2-y,z
loop_
_atom_site_type_symbol
_atom_site_label
_atom_site_fract_x
_atom_site_fract_y
_atom_site_fract_z
Si Si1 0.096446 0.634561 0.378138
Si Si2 0.416473 0.474452 0.218087
Si Si3 0.878290 0.474448 0.987160
Si Si4 0.227090 0.136512 0.636369
Si Si5 0.773065 0.136518 0.863428
Si Si6 0.198108 0.865430 0.827309
O O1 0.127397 0.750000 0.370213
O O2 0.272200 0.576956 0.304837
O O3 0.197216 0.605819 0.233356
O O4 0.790247 0.604985 0.604929
O O5 0.631970 0.497338 0.118034
O O6 0.547932 0.430576 0.057910
O O7 0.124554 0.430540 0.769579
O O8 0.964079 0.576938 0.958893
O O9 0.790651 0.394984 0.104567
O O10 0.209280 0.250000 0.671998
O O11 0.525022 0.105766 0.405488
O O12 0.053562 0.118769 0.696408
O O13 0.684025 0.250000 0.934681
O O14 0.136915 0.750000 0.865462
#
# Coordination Sequence:
#
# PCOD8072989 Si02
#       6
#     4   4   4   4   4   4
#     4  10  20  33  50  72  98 128 162 200 241 285
#     4  10  20  33  50  72  98 128 162 200 241 285
#     4  10  20  33  50  72  98 128 162 200 241 285
#     4   9  17  30  50  74  97 123 158 198 237 281
#     4   9  17  30  50  74  97 123 158 198 237 281
#     4  10  20  33  50  72  98 128 162 200 241 285
#
# _framework density 17.248624
#
# number of rings (size 3 to 8) (size 9 to 14) (size 15 to 20)
#    0.000    2.333    0.000    3.000    0.000    4.000 
#    0.000    0.000    0.000    0.000    0.000    9.333 
#    0.000    0.000    0.000    0.000    0.000    0.000 
#
# Total GULP energy -297674.177256 kJ/mol
# GULP energy per Si atom -12403.090719 kJ/mol
# Density = 1.720937 g / cm^3
# Si number density = 17.248624 Si / 1000 Ang^3
#
#
#
# Elastic Constant Matrix: (Units=GPa)
#
#
# Indices 1 2 3 4 5 6 
#
# 1 96.2249 44.2610 45.9178 0.0000 6.1845 0.0000
# 2 44.2610 85.9538 46.9525 0.0000 3.3580 0.0000
# 3 45.9178 46.9525 103.8761 0.0000 3.3758 0.0000
# 4 0.0000 0.0000 0.0000 24.9385 0.0000 3.9360
# 5 6.1845 3.3580 3.3758 0.0000 24.0944 0.0000
# 6 0.0000 0.0000 0.0000 3.9360 0.0000 21.7787
#
#
#
# Elastic Compliance Matrix: (Units=1/GPa)
#
#
# Indices 1 2 3 4 5 6 
#
# 1 0.014989 -0.005372 -0.004116 0.000000 -0.002522 0.000000
# 2 -0.005372 0.017407 -0.005484 0.000000 -0.000279 0.000000
# 3 -0.004116 -0.005484 0.013930 0.000000 -0.000131 0.000000
# 4 0.000000 0.000000 0.000000 0.041276 0.000000 -0.007460
# 5 -0.002522 -0.000279 -0.000131 0.000000 0.042208 0.000000
# 6 0.000000 0.000000 0.000000 -0.007460 0.000000 0.047265
#
#
# Mechanical properties :
#
#
# Convention : Reuss Voigt Hill
#
# Bulk Modulus (GPa) = 61.04384 62.25750 61.65067
# Shear Modulus (GPa) = 23.53166 24.09054 23.81110
#
# Velocity S-wave (km/s) = 3.69760 3.74125 3.71949
# Velocity P-wave (km/s) = 7.32783 7.40508 7.36655
#
# Compressibility (1/GPa) = 0.01638167
#
# Stress axis : x y z
#
# Youngs Moduli (GPa) = 66.71387 57.44787 71.78986
#
# Poissons Ratio (x) = 0.30860 0.29548
# Poissons Ratio (y) = 0.35837 0.39373
# Poissons Ratio (z) = 0.27459 0.31507
#
# Static dielectric constant tensor:
#      x y z
#    x 3.148220 0.000000 0.124220 
#    y 0.000000 3.063260 0.000000 
#    z 0.124220 0.000000 3.246030 
# 
# 
# High freq. dielectric constant tensor:
#      x y z
#    x 1.667350 0.000000 0.009010 
#    y 0.000000 1.661200 0.000000 
#    z 0.009010 0.000000 1.674450 
# 
# From -- ./inp_files/6437.got.cif
#   From: 2010.06.25/outbox.cif.g09.slc.cpg/sg11_4_cif.got.tgz:6437.got - 2010.06.27 23:14:04.
