data_PCOD8072622
_publ_section_title
;
Structure prediction by ZEFSAII (Michael W. Deem and Ramdas Pophale) SiO2 
 PCOD8072622
Probable space group: P 21/M
;
_chemical_formula_sum "Si O2"
_cell_formula_units_Z 32
_cell_length_a 13.043027
_cell_length_b 8.964332
_cell_length_c 14.163029
_cell_angle_alpha 90.000000
_cell_angle_beta 93.656458
_cell_angle_gamma 90.000000
_cell_volume 1652.599081
_symmetry_space_group_name_H-M "P 21/M"
_symmetry_group_IT_number 11
_symmetry_cell_setting 'monoclinic'
loop_
_space_group_symop_operation_xyz
x,y,z
-x,1/2+y,-z
-x,-y,-z
x,1/2-y,z
loop_
_atom_site_type_symbol
_atom_site_label
_atom_site_fract_x
_atom_site_fract_y
_atom_site_fract_z
Si Si1 0.274543 0.076131 0.102525
Si Si2 0.009302 0.424316 0.297363
Si Si3 0.207281 0.927195 0.397126
Si Si4 0.390539 0.925525 0.737461
Si Si5 0.591647 0.924474 0.060718
Si Si6 0.193989 0.926834 0.610907
Si Si7 0.616899 0.925188 0.706664
Si Si8 0.049488 0.423281 0.091549
O O1 0.268238 0.250000 0.121373
O O2 0.352300 0.014398 0.186959
O O3 0.162591 0.005530 0.111303
O O4 0.309216 0.042320 0.998101
O O5 0.027260 0.250000 0.319441
O O6 0.111871 0.509959 0.332924
O O7 0.987551 0.451419 0.184899
O O8 0.910195 0.488273 0.346717
O O9 0.207009 0.750000 0.390321
O O10 0.196116 0.983435 0.503905
O O11 0.316227 0.987302 0.366318
O O12 0.382513 0.750000 0.756810
O O13 0.295162 0.986941 0.670589
O O14 0.495961 0.961800 0.687299
O O15 0.387650 0.006309 0.837063
O O16 0.568670 0.750000 0.069607
O O17 0.500000 0.000000 0.000000
O O18 0.194128 0.750000 0.616244
O O19 0.638109 0.750000 0.694905
O O20 0.056570 0.250000 0.067730
O O21 0.000000 0.500000 0.000000
#
# Coordination Sequence:
#
# PCOD8072622 Si02
#       8
#     4   4   4   4   4   4   4   4
#     4   9  18  35  54  77 111 149 185 223 273 332
#     4  10  20  39  63  83 112 156 194 227 281 355
#     4  11  22  37  59  88 115 143 190 250 293 333
#     4  10  21  39  60  83 115 155 193 235 288 347
#     4  11  21  35  56  83 114 151 190 232 277 332
#     4   9  21  39  59  85 117 149 188 241 297 342
#     4  10  19  37  61  82 111 154 194 228 285 353
#     4  10  21  36  55  81 113 146 184 226 275 332
#
# _framework density 19.363440000000001
#
# number of rings (size 3 to 8) (size 9 to 14) (size 15 to 20)
#    0.000    2.000    2.500    1.125    1.750    1.500 
#    0.000    3.125    0.000    0.000    0.000    0.000 
#    0.000    0.000    0.000    0.000    0.000    0.000 
#
# Total GULP energy -396747.949392 kJ/mol
# GULP energy per Si atom -12398.373418 kJ/mol
# Density = 1.931937 g / cm^3
# Si number density = 19.363440 Si / 1000 Ang^3
#
#
#
# Elastic Constant Matrix: (Units=GPa)
#
#
# Indices 1 2 3 4 5 6 
#
# 1 118.8525 32.1241 51.4083 0.0000 -11.9143 0.0000
# 2 32.1241 52.2737 41.2774 0.0000 -5.4735 0.0000
# 3 51.4083 41.2774 126.0159 0.0000 -6.9724 0.0000
# 4 0.0000 0.0000 0.0000 30.1573 0.0000 -2.5193
# 5 -11.9143 -5.4735 -6.9724 0.0000 35.7428 0.0000
# 6 0.0000 0.0000 0.0000 -2.5193 0.0000 23.0734
#
#
#
# Elastic Compliance Matrix: (Units=1/GPa)
#
#
# Indices 1 2 3 4 5 6 
#
# 1 0.011097 -0.004174 -0.003023 0.000000 0.002470 0.000000
# 2 -0.004174 0.027567 -0.007249 0.000000 0.001416 0.000000
# 3 -0.003023 -0.007249 0.011551 0.000000 0.000135 0.000000
# 4 0.000000 0.000000 0.000000 0.033465 0.000000 0.003654
# 5 0.002470 0.001416 0.000135 0.000000 0.029044 0.000000
# 6 0.000000 0.000000 0.000000 0.003654 0.000000 0.043739
#
#
# Mechanical properties :
#
#
# Convention : Reuss Voigt Hill
#
# Bulk Modulus (GPa) = 46.89652 60.75131 53.82391
# Shear Modulus (GPa) = 25.97907 29.28350 27.63128
#
# Velocity S-wave (km/s) = 3.66684 3.89306 3.78164
# Velocity P-wave (km/s) = 6.49610 7.18681 6.85016
#
# Compressibility (1/GPa) = 0.02132355
#
# Stress axis : x y z
#
# Youngs Moduli (GPa) = 90.11278 36.27505 86.57431
#
# Poissons Ratio (x) = 0.15140 0.26174
# Poissons Ratio (y) = 0.37610 0.62756
# Poissons Ratio (z) = 0.27244 0.26295
#
# Static dielectric constant tensor:
#      x y z
#    x 3.770670 0.000000 -0.216940 
#    y 0.000000 3.265740 0.000000 
#    z -0.216940 0.000000 3.934390 
# 
# 
# High freq. dielectric constant tensor:
#      x y z
#    x 1.765410 0.000000 -0.008060 
#    y 0.000000 1.723950 0.000000 
#    z -0.008060 0.000000 1.761380 
# 
# From -- ./inp_files/49392.got.cif
#   From: 2010.06.25/outbox.cif.g09.slc.cpg/sg11_25_cif.got.tgz:49392.got - 2010.06.27 23:14:04.
