data_PCOD8072181
_publ_section_title
;
Structure prediction by ZEFSAII (Michael W. Deem and Ramdas Pophale) SiO2 
 PCOD8072181
Probable space group: P 21/M
;
_chemical_formula_sum "Si O2"
_cell_formula_units_Z 28
_cell_length_a 19.145371
_cell_length_b 8.879040
_cell_length_c 14.282934
_cell_angle_alpha 90.000000
_cell_angle_beta 41.262097
_cell_angle_gamma 90.000000
_cell_volume 1601.271658
_symmetry_space_group_name_H-M "P 21/M"
_symmetry_group_IT_number 11
_symmetry_cell_setting 'monoclinic'
loop_
_space_group_symop_operation_xyz
x,y,z
-x,1/2+y,-z
-x,-y,-z
x,1/2-y,z
loop_
_atom_site_type_symbol
_atom_site_label
_atom_site_fract_x
_atom_site_fract_y
_atom_site_fract_z
Si Si1 0.982691 0.428334 0.117778
Si Si2 0.878409 0.573267 0.527542
Si Si3 0.615203 0.424299 0.287056
Si Si4 0.118663 0.575801 0.290647
Si Si5 0.172785 0.574619 0.032013
Si Si6 0.399312 0.575562 0.482374
Si Si7 0.792328 0.928113 0.417326
O O1 0.977855 0.250000 0.112786
O O2 0.077079 0.474908 0.091115
O O3 0.871528 0.486259 0.268786
O O4 0.000000 0.500000 0.000000
O O5 0.873194 0.750000 0.541490
O O6 0.828620 0.505987 0.673133
O O7 0.812583 0.519365 0.503632
O O8 0.999151 0.516195 0.393900
O O9 0.587507 0.250000 0.297340
O O10 0.519917 0.525246 0.344242
O O11 0.634907 0.455820 0.376413
O O12 0.719797 0.474669 0.126755
O O13 0.116556 0.750000 0.317359
O O14 0.186484 0.543225 0.128955
O O15 0.145870 0.750000 0.040547
O O16 0.387522 0.750000 0.467862
O O17 0.326418 0.475557 0.488624
O O18 0.808737 0.750000 0.388998
#
# Coordination Sequence:
#
# PCOD8072181 Si02
#       7
#     4   4   4   4   4   4   4
#     4  12  24  35  50  75 108 143 175 210 260 314
#     4   9  18  32  50  74 104 137 172 212 259 311
#     4   9  19  35  55  75 101 139 176 214 260 309
#     4   9  17  31  51  75 104 136 171 214 260 308
#     4  10  19  35  55  77 106 138 176 217 261 314
#     4  10  20  34  53  79 106 135 177 220 259 310
#     4  11  21  36  55  76 106 140 176 217 263 313
#
# _framework density 17.486101999999999
#
# number of rings (size 3 to 8) (size 9 to 14) (size 15 to 20)
#    0.000    2.000    1.429    3.000    0.000    4.000 
#    0.000    0.000    0.000    0.857    0.000    0.000 
#    0.000    0.000    0.000    0.000    0.000    0.000 
#
# Total GULP energy -347270.250929 kJ/mol
# GULP energy per Si atom -12402.508962 kJ/mol
# Density = 1.744630 g / cm^3
# Si number density = 17.486102 Si / 1000 Ang^3
#
#
#
# Elastic Constant Matrix: (Units=GPa)
#
#
# Indices 1 2 3 4 5 6 
#
# 1 104.7213 37.8152 26.4456 0.0000 4.3305 0.0000
# 2 37.8152 67.1050 13.8824 0.0000 -0.8763 0.0000
# 3 26.4456 13.8824 46.5447 0.0000 -3.1847 0.0000
# 4 0.0000 0.0000 0.0000 26.5591 0.0000 1.1410
# 5 4.3305 -0.8763 -3.1847 0.0000 23.1077 0.0000
# 6 0.0000 0.0000 0.0000 1.1410 0.0000 30.4996
#
#
#
# Elastic Compliance Matrix: (Units=1/GPa)
#
#
# Indices 1 2 3 4 5 6 
#
# 1 0.013542 -0.006433 -0.006023 0.000000 -0.003612 0.000000
# 2 -0.006433 0.018937 -0.001880 0.000000 0.001665 0.000000
# 3 -0.006023 -0.001880 0.025783 0.000000 0.004611 0.000000
# 4 0.000000 0.000000 0.000000 0.037712 0.000000 -0.001411
# 5 -0.003612 0.001665 0.004611 0.000000 0.044651 0.000000
# 6 0.000000 0.000000 0.000000 -0.001411 0.000000 0.032840
#
#
# Mechanical properties :
#
#
# Convention : Reuss Voigt Hill
#
# Bulk Modulus (GPa) = 33.79236 41.62859 37.71047
# Shear Modulus (GPa) = 23.58480 25.38179 24.48330
#
# Velocity S-wave (km/s) = 3.67655 3.81404 3.74593
# Velocity P-wave (km/s) = 6.11473 6.57680 6.34997
#
# Compressibility (1/GPa) = 0.02959249
#
# Stress axis : x y z
#
# Youngs Moduli (GPa) = 73.84246 52.80532 38.78537
#
# Poissons Ratio (x) = 0.33967 0.23360
# Poissons Ratio (y) = 0.47500 0.07290
# Poissons Ratio (z) = 0.44475 0.09925
#
# Static dielectric constant tensor:
#      x y z
#    x 3.300090 0.000000 0.134660 
#    y 0.000000 3.258830 0.000000 
#    z 0.134660 0.000000 3.209150 
# 
# 
# High freq. dielectric constant tensor:
#      x y z
#    x 1.671840 0.000000 0.010940 
#    y 0.000000 1.678190 0.000000 
#    z 0.010940 0.000000 1.661200 
# 
# From -- ./inp_files/53197.got.cif
#   From: 2010.06.25/outbox.cif.g09.slc.cpg/sg11_27_cif.got.tgz:53197.got - 2010.06.27 23:14:04.
