data_PCOD8072385
_publ_section_title
;
Structure prediction by ZEFSAII (Michael W. Deem and Ramdas Pophale) SiO2 
 PCOD8072385
Probable space group: P 21/M
;
_chemical_formula_sum "Si O2"
_cell_formula_units_Z 24
_cell_length_a 12.744915
_cell_length_b 13.705219
_cell_length_c 16.610294
_cell_angle_alpha 90.000000
_cell_angle_beta 156.102208
_cell_angle_gamma 90.000000
_cell_volume 1175.355645
_symmetry_space_group_name_H-M "P 21/M"
_symmetry_group_IT_number 11
_symmetry_cell_setting 'monoclinic'
loop_
_space_group_symop_operation_xyz
x,y,z
-x,1/2+y,-z
-x,-y,-z
x,1/2-y,z
loop_
_atom_site_type_symbol
_atom_site_label
_atom_site_fract_x
_atom_site_fract_y
_atom_site_fract_z
Si Si1 0.033655 0.360392 0.785838
Si Si2 0.488906 0.639673 0.481300
Si Si3 0.988904 0.139673 0.481299
Si Si4 0.787684 0.517349 0.232787
Si Si5 0.287684 0.017350 0.232787
Si Si6 0.466341 0.360392 0.214158
O O1 0.093546 0.250000 0.798244
O O2 0.038906 0.431290 0.713317
O O3 0.757623 0.365398 0.633561
O O4 0.249998 0.395818 0.999998
O O5 0.570400 0.750000 0.518006
O O6 0.719464 0.585006 0.691437
O O7 0.423019 0.585381 0.351218
O O8 0.070399 0.250000 0.518006
O O9 0.742373 0.134603 0.366436
O O10 0.219461 0.085006 0.691435
O O11 0.923018 0.085382 0.351217
O O12 0.500000 0.500000 0.000000
O O13 0.461091 0.068711 0.286681
O O14 0.000000 0.000000 0.000000
O O15 0.406447 0.250000 0.201749
#
# Coordination Sequence:
#
# PCOD8072385 Si02
#       6
#     4   4   4   4   4   4
#     4  10  19  35  60  87 113 144 186 233 279 329
#     4  10  22  38  58  85 114 148 188 231 280 332
#     4  10  22  38  58  85 114 148 188 231 280 332
#     4  11  21  34  57  87 115 146 184 235 281 330
#     4  11  21  34  57  87 115 146 184 235 281 330
#     4  10  19  35  60  87 113 144 186 233 279 329
#
# _framework density 20.419352
#
# number of rings (size 3 to 8) (size 9 to 14) (size 15 to 20)
#    0.000    1.667    3.333    2.000    0.000    4.000 
#    0.000    0.000    0.000   19.000    0.000    0.000 
#    0.000    0.000    0.000    0.000    0.000    0.000 
#
# Total GULP energy -297598.219056 kJ/mol
# GULP energy per Si atom -12399.925794 kJ/mol
# Density = 2.037288 g / cm^3
# Si number density = 20.419352 Si / 1000 Ang^3
#
#
#
# Elastic Constant Matrix: (Units=GPa)
#
#
# Indices 1 2 3 4 5 6 
#
# 1 57.2285 33.4731 12.2123 0.0000 -17.7706 0.0000
# 2 33.4731 160.0767 49.6196 0.0000 -28.2213 0.0000
# 3 12.2123 49.6196 137.6273 0.0000 -27.4875 0.0000
# 4 0.0000 0.0000 0.0000 25.7615 0.0000 -8.7134
# 5 -17.7706 -28.2213 -27.4875 0.0000 30.1448 0.0000
# 6 0.0000 0.0000 0.0000 -8.7134 0.0000 34.1869
#
#
#
# Elastic Compliance Matrix: (Units=1/GPa)
#
#
# Indices 1 2 3 4 5 6 
#
# 1 0.022635 -0.003113 0.001463 0.000000 0.011764 0.000000
# 2 -0.003113 0.008205 -0.001851 0.000000 0.004158 0.000000
# 3 0.001463 -0.001851 0.009329 0.000000 0.007636 0.000000
# 4 0.000000 0.000000 0.000000 0.042480 0.000000 0.010827
# 5 0.011764 0.004158 0.007636 0.000000 0.050963 0.000000
# 6 0.000000 0.000000 0.000000 0.010827 0.000000 0.032011
#
#
# Mechanical properties :
#
#
# Convention : Reuss Voigt Hill
#
# Bulk Modulus (GPa) = 30.15077 60.61582 45.38330
# Shear Modulus (GPa) = 27.22129 35.32714 31.27422
#
# Velocity S-wave (km/s) = 3.65514 4.16394 3.91781
# Velocity P-wave (km/s) = 5.71063 7.27102 6.53755
#
# Compressibility (1/GPa) = 0.03316665
#
# Stress axis : x y z
#
# Youngs Moduli (GPa) = 44.17917 121.87861 107.19601
#
# Poissons Ratio (x) = 0.37938 -0.15686
# Poissons Ratio (y) = 0.13752 0.19847
# Poissons Ratio (z) = -0.06465 0.22566
#
# Static dielectric constant tensor:
#      x y z
#    x 3.401770 0.000000 -0.286580 
#    y 0.000000 4.075810 0.000000 
#    z -0.286580 0.000000 3.942680 
# 
# 
# High freq. dielectric constant tensor:
#      x y z
#    x 1.761740 0.000000 -0.025020 
#    y 0.000000 1.802770 0.000000 
#    z -0.025020 0.000000 1.816950 
# 
# From -- ./inp_files/50428.got.cif
#   From: 2010.06.25/outbox.cif.g09.slc.cpg/sg11_26_cif.got.tgz:50428.got - 2010.06.27 23:14:04.
