data_PCOD8072640
_publ_section_title
;
Structure prediction by ZEFSAII (Michael W. Deem and Ramdas Pophale) SiO2 
 PCOD8072640
Probable space group: P 21/M
;
_chemical_formula_sum "Si O2"
_cell_formula_units_Z 28
_cell_length_a 15.337442
_cell_length_b 9.403277
_cell_length_c 17.371644
_cell_angle_alpha 90.000000
_cell_angle_beta 143.505353
_cell_angle_gamma 90.000000
_cell_volume 1490.067155
_symmetry_space_group_name_H-M "P 21/M"
_symmetry_group_IT_number 11
_symmetry_cell_setting 'monoclinic'
loop_
_space_group_symop_operation_xyz
x,y,z
-x,1/2+y,-z
-x,-y,-z
x,1/2-y,z
loop_
_atom_site_type_symbol
_atom_site_label
_atom_site_fract_x
_atom_site_fract_y
_atom_site_fract_z
Si Si1 0.152953 0.420361 0.090871
Si Si2 0.369644 0.914333 0.944651
Si Si3 0.804321 0.080836 0.031762
Si Si4 0.817189 0.096617 0.326284
Si Si5 0.853036 0.905399 0.480779
Si Si6 0.647847 0.584486 0.621754
Si Si7 0.895833 0.917481 0.678954
O O1 0.125449 0.250000 0.064606
O O2 0.273608 0.453360 0.241975
O O3 0.222479 0.487311 0.063186
O O4 0.000000 0.500000 0.000000
O O5 0.412312 0.750000 0.972147
O O6 0.327149 0.955122 0.002017
O O7 0.230267 0.952327 0.792445
O O8 0.500000 0.000000 0.000000
O O9 0.810872 0.250000 0.017251
O O10 0.956273 0.025747 0.176852
O O11 0.746690 0.250000 0.294234
O O12 0.990846 0.109715 0.448945
O O13 0.756777 0.996332 0.352187
O O14 0.778775 0.750000 0.436784
O O15 0.866825 0.982909 0.573492
O O16 0.500000 0.500000 0.500000
O O17 0.609053 0.750000 0.590796
O O18 0.759381 0.540083 0.634156
O O19 0.916023 0.750000 0.682441
#
# Coordination Sequence:
#
# PCOD8072640 Si02
#       7
#     4   4   4   4   4   4   4
#     4  11  22  38  63  93 122 154 195 246 297 353
#     4  10  21  37  57  78 110 153 191 237 292 345
#     4  10  19  37  62  85 111 149 199 246 291 346
#     4   9  17  31  50  74 104 137 172 218 277 325
#     4   9  16  29  53  78 100 131 177 224 266 320
#     4  10  22  40  60  83 116 153 188 235 294 351
#     4   9  16  33  59  81 105 142 187 232 280 340
#
# _framework density 18.7911
#
# number of rings (size 3 to 8) (size 9 to 14) (size 15 to 20)
#    0.000    2.286    2.857    0.429    0.000    2.286 
#    2.571    1.429    0.000    0.000    0.000    0.000 
#    0.000    0.000    0.000    0.000    0.000    0.000 
#
# Total GULP energy -346970.646414 kJ/mol
# GULP energy per Si atom -12391.808801 kJ/mol
# Density = 1.874833 g / cm^3
# Si number density = 18.791100 Si / 1000 Ang^3
#
#
#
# Elastic Constant Matrix: (Units=GPa)
#
#
# Indices 1 2 3 4 5 6 
#
# 1 132.2490 62.1651 61.7708 0.0000 -20.5857 0.0000
# 2 62.1651 76.8201 53.8500 0.0000 -11.6727 0.0000
# 3 61.7708 53.8500 84.3831 0.0000 -14.0425 0.0000
# 4 0.0000 0.0000 0.0000 31.1881 0.0000 -2.8542
# 5 -20.5857 -11.6727 -14.0425 0.0000 41.0724 0.0000
# 6 0.0000 0.0000 0.0000 -2.8542 0.0000 31.8001
#
#
#
# Elastic Compliance Matrix: (Units=1/GPa)
#
#
# Indices 1 2 3 4 5 6 
#
# 1 0.013734 -0.007157 -0.004962 0.000000 0.003153 0.000000
# 2 -0.007157 0.027389 -0.012238 0.000000 0.000013 0.000000
# 3 -0.004962 -0.012238 0.023645 0.000000 0.002119 0.000000
# 4 0.000000 0.000000 0.000000 0.032329 0.000000 0.002902
# 5 0.003153 0.000013 0.002119 0.000000 0.026656 0.000000
# 6 0.000000 0.000000 0.000000 0.002902 0.000000 0.031707
#
#
# Mechanical properties :
#
#
# Convention : Reuss Voigt Hill
#
# Bulk Modulus (GPa) = 62.28168 72.11378 67.19773
# Shear Modulus (GPa) = 23.86354 28.52321 26.19337
#
# Velocity S-wave (km/s) = 3.56749 3.90026 3.73758
# Velocity P-wave (km/s) = 7.08417 7.66437 7.37998
#
# Compressibility (1/GPa) = 0.01605608
#
# Stress axis : x y z
#
# Youngs Moduli (GPa) = 72.81247 36.51070 42.29179
#
# Poissons Ratio (x) = 0.26129 0.20984
# Poissons Ratio (y) = 0.52109 0.51756
# Poissons Ratio (z) = 0.36128 0.44681
#
# Static dielectric constant tensor:
#      x y z
#    x 3.499680 0.000000 -0.147790 
#    y 0.000000 3.567420 0.000000 
#    z -0.147790 0.000000 5.995110 
# 
# 
# High freq. dielectric constant tensor:
#      x y z
#    x 1.730430 0.000000 -0.021640 
#    y 0.000000 1.709920 0.000000 
#    z -0.021640 0.000000 1.723140 
# 
# From -- ./inp_files/60145.got.cif
#   From: 2010.06.25/outbox.cif.g09.slc.cpg/sg11_31_cif.got.tgz:60145.got - 2010.06.27 23:14:04.
