data_PCOD8072107
_publ_section_title
;
Structure prediction by ZEFSAII (Michael W. Deem and Ramdas Pophale) SiO2 
 PCOD8072107
Probable space group: P 21/M
;
_chemical_formula_sum "Si O2"
_cell_formula_units_Z 28
_cell_length_a 11.587645
_cell_length_b 9.316593
_cell_length_c 14.988409
_cell_angle_alpha 90.000000
_cell_angle_beta 116.848958
_cell_angle_gamma 90.000000
_cell_volume 1443.677442
_symmetry_space_group_name_H-M "P 21/M"
_symmetry_group_IT_number 11
_symmetry_cell_setting 'monoclinic'
loop_
_space_group_symop_operation_xyz
x,y,z
-x,1/2+y,-z
-x,-y,-z
x,1/2-y,z
loop_
_atom_site_type_symbol
_atom_site_label
_atom_site_fract_x
_atom_site_fract_y
_atom_site_fract_z
Si Si1 0.550089 0.413907 0.600595
Si Si2 0.363530 0.083133 0.693193
Si Si3 0.161706 0.913231 0.334965
Si Si4 0.953015 0.585161 0.851156
Si Si5 0.132794 0.580502 0.529296
Si Si6 0.528596 0.082950 0.920303
Si Si7 0.804735 0.415168 0.947026
O O1 0.500000 0.500000 0.500000
O O2 0.521369 0.250000 0.567538
O O3 0.478227 0.460711 0.665670
O O4 0.702275 0.439781 0.667034
O O5 0.325109 0.250000 0.668065
O O6 0.414136 0.052197 0.810264
O O7 0.239407 0.984081 0.633187
O O8 0.114172 0.750000 0.308613
O O9 0.176563 0.953306 0.443779
O O10 0.056086 0.013579 0.249909
O O11 0.912747 0.750000 0.829964
O O12 0.852376 0.509515 0.881754
O O13 0.099382 0.566177 0.935637
O O14 0.118071 0.750000 0.542135
O O15 0.000000 0.500000 0.500000
O O16 0.538819 0.250000 0.946829
O O17 0.664495 0.029235 0.927395
O O18 0.500000 0.000000 0.000000
O O19 0.800030 0.250000 0.913010
#
# Coordination Sequence:
#
# PCOD8072107 Si02
#       7
#     4   4   4   4   4   4   4
#     4  10  19  34  58  86 116 148 187 234 286 344
#     4  10  21  38  61  87 117 152 190 241 299 349
#     4  10  21  37  56  82 117 155 187 227 289 346
#     4  10  20  33  57  89 115 146 189 236 283 339
#     4  11  24  41  60  82 114 154 195 236 282 343
#     4  10  22  40  61  84 114 154 198 244 292 344
#     4   9  19  38  58  80 116 153 186 233 294 344
#
# _framework density 19.394914
#
# number of rings (size 3 to 8) (size 9 to 14) (size 15 to 20)
#    0.000    2.000    1.429    1.714    0.000    6.857 
#    0.000    4.286    0.000    0.000    0.000    0.000 
#    0.000    0.000    0.000    0.000    0.000    0.000 
#
# Total GULP energy -347289.325813 kJ/mol
# GULP energy per Si atom -12403.190208 kJ/mol
# Density = 1.935077 g / cm^3
# Si number density = 19.394914 Si / 1000 Ang^3
#
#
#
# Elastic Constant Matrix: (Units=GPa)
#
#
# Indices 1 2 3 4 5 6 
#
# 1 100.0371 46.7745 38.0281 0.0000 12.2536 0.0000
# 2 46.7745 91.9524 63.5522 0.0000 5.7258 0.0000
# 3 38.0281 63.5522 120.5772 0.0000 4.1390 0.0000
# 4 0.0000 0.0000 0.0000 41.3725 0.0000 -1.1524
# 5 12.2536 5.7258 4.1390 0.0000 25.3058 0.0000
# 6 0.0000 0.0000 0.0000 -1.1524 0.0000 30.9887
#
#
#
# Elastic Compliance Matrix: (Units=1/GPa)
#
#
# Indices 1 2 3 4 5 6 
#
# 1 0.013825 -0.006009 -0.001016 0.000000 -0.005169 0.000000
# 2 -0.006009 0.019866 -0.008569 0.000000 -0.000184 0.000000
# 3 -0.001016 -0.008569 0.013121 0.000000 0.000285 0.000000
# 4 0.000000 0.000000 0.000000 0.024196 0.000000 0.000900
# 5 -0.005169 -0.000184 0.000285 0.000000 0.042014 0.000000
# 6 0.000000 0.000000 0.000000 0.000900 0.000000 0.032303
#
#
# Mechanical properties :
#
#
# Convention : Reuss Voigt Hill
#
# Bulk Modulus (GPa) = 64.00415 67.69737 65.85076
# Shear Modulus (GPa) = 27.51490 30.48088 28.99789
#
# Velocity S-wave (km/s) = 3.77060 3.96863 3.87088
# Velocity P-wave (km/s) = 7.21309 7.48201 7.34878
#
# Compressibility (1/GPa) = 0.01562399
#
# Stress axis : x y z
#
# Youngs Moduli (GPa) = 72.33266 50.33816 76.21619
#
# Poissons Ratio (x) = 0.30246 0.07742
# Poissons Ratio (y) = 0.43462 0.65311
# Poissons Ratio (z) = 0.07348 0.43136
#
# Static dielectric constant tensor:
#      x y z
#    x 3.567220 0.000000 0.209430 
#    y 0.000000 3.527880 0.000000 
#    z 0.209430 0.000000 3.667820 
# 
# 
# High freq. dielectric constant tensor:
#      x y z
#    x 1.748630 0.000000 0.005440 
#    y 0.000000 1.752400 0.000000 
#    z 0.005440 0.000000 1.765010 
# 
# From -- ./inp_files/37493.got.cif
#   From: 2010.06.25/outbox.cif.g09.slc.cpg/sg11_19_cif.got.tgz:37493.got - 2010.06.27 23:14:04.
