data_PCOD8072305
_publ_section_title
;
Structure prediction by ZEFSAII (Michael W. Deem and Ramdas Pophale) SiO2 
 PCOD8072305
Probable space group: P 21/M
;
_chemical_formula_sum "Si O2"
_cell_formula_units_Z 28
_cell_length_a 25.573127
_cell_length_b 8.486440
_cell_length_c 9.336461
_cell_angle_alpha 90.000000
_cell_angle_beta 44.332905
_cell_angle_gamma 90.000000
_cell_volume 1415.992139
_symmetry_space_group_name_H-M "P 21/M"
_symmetry_group_IT_number 11
_symmetry_cell_setting 'monoclinic'
loop_
_space_group_symop_operation_xyz
x,y,z
-x,1/2+y,-z
-x,-y,-z
x,1/2-y,z
loop_
_atom_site_type_symbol
_atom_site_label
_atom_site_fract_x
_atom_site_fract_y
_atom_site_fract_z
Si Si1 0.998185 0.934908 0.161873
Si Si2 0.153499 0.564812 0.513207
Si Si3 0.412776 0.932296 0.038602
Si Si4 0.709684 0.567979 0.920500
Si Si5 0.838784 0.434969 0.176461
Si Si6 0.293831 0.565753 0.761273
Si Si7 0.582357 0.932038 0.670231
O O1 0.981734 0.750000 0.195568
O O2 0.930959 0.024023 0.376217
O O3 0.081712 0.972697 0.058532
O O4 0.000000 0.000000 0.000000
O O5 0.167756 0.750000 0.472693
O O6 0.209878 0.474387 0.300306
O O7 0.164433 0.499494 0.654249
O O8 0.409921 0.750000 0.088244
O O9 0.495452 0.978534 0.822672
O O10 0.354754 0.965114 0.026608
O O11 0.390352 0.032489 0.221962
O O12 0.691927 0.750000 0.929367
O O13 0.709609 0.532198 0.087690
O O14 0.828286 0.250000 0.211724
O O15 0.771676 0.503965 0.212690
O O16 0.282680 0.750000 0.816003
O O17 0.373026 0.538608 0.529533
O O18 0.597070 0.750000 0.606579
#
# Coordination Sequence:
#
# PCOD8072305 Si02
#       7
#     4   4   4   4   4   4   4
#     4   9  16  30  52  81 112 142 181 229 278 327
#     4  10  19  35  58  84 111 142 183 230 283 340
#     4  10  21  39  62  86 113 147 185 226 276 332
#     4  12  25  39  55  80 113 148 188 234 282 333
#     4   8  17  33  56  82 108 140 181 227 272 325
#     4  11  22  38  58  80 111 152 191 229 279 335
#     4  10  21  38  61  89 116 143 182 231 277 325
#
# _framework density 19.774118999999999
#
# number of rings (size 3 to 8) (size 9 to 14) (size 15 to 20)
#    0.000    2.000    0.000    5.143    0.000    3.429 
#    0.000    8.571    0.000    0.000    0.000    0.000 
#    0.000    0.000    0.000    0.000    0.000    0.000 
#
# Total GULP energy -347188.233435 kJ/mol
# GULP energy per Si atom -12399.579766 kJ/mol
# Density = 1.972911 g / cm^3
# Si number density = 19.774119 Si / 1000 Ang^3
#
#
#
# Elastic Constant Matrix: (Units=GPa)
#
#
# Indices 1 2 3 4 5 6 
#
# 1 56.3420 10.3830 66.4654 0.0000 -8.2218 0.0000
# 2 10.3830 49.9667 17.5446 0.0000 -5.9879 0.0000
# 3 66.4654 17.5446 121.5302 0.0000 -12.8623 0.0000
# 4 0.0000 0.0000 0.0000 33.7353 0.0000 -1.7990
# 5 -8.2218 -5.9879 -12.8623 0.0000 24.5716 0.0000
# 6 0.0000 0.0000 0.0000 -1.7990 0.0000 27.1687
#
#
#
# Elastic Compliance Matrix: (Units=1/GPa)
#
#
# Indices 1 2 3 4 5 6 
#
# 1 0.050191 -0.000620 -0.027100 0.000000 0.002457 0.000000
# 2 -0.000620 0.021422 -0.002353 0.000000 0.003781 0.000000
# 3 -0.027100 -0.002353 0.023681 0.000000 0.002755 0.000000
# 4 0.000000 0.000000 0.000000 0.029748 0.000000 0.001970
# 5 0.002457 0.003781 0.002755 0.000000 0.043883 0.000000
# 6 0.000000 0.000000 0.000000 0.001970 0.000000 0.036937
#
#
# Mechanical properties :
#
#
# Convention : Reuss Voigt Hill
#
# Bulk Modulus (GPa) = 28.45196 46.29166 37.37181
# Shear Modulus (GPa) = 18.00356 25.99153 21.99755
#
# Velocity S-wave (km/s) = 3.02066 3.62943 3.33895
# Velocity P-wave (km/s) = 5.15612 6.40505 5.81422
#
# Compressibility (1/GPa) = 0.03514697
#
# Stress axis : x y z
#
# Youngs Moduli (GPa) = 19.92399 46.68196 42.22830
#
# Poissons Ratio (x) = 0.02892 1.14439
# Poissons Ratio (y) = 0.01234 0.09938
# Poissons Ratio (z) = 0.53994 0.10986
#
# Static dielectric constant tensor:
#      x y z
#    x 3.765940 0.000000 -0.360290 
#    y 0.000000 3.551740 0.000000 
#    z -0.360290 0.000000 3.711540 
# 
# 
# High freq. dielectric constant tensor:
#      x y z
#    x 1.760510 0.000000 -0.024360 
#    y 0.000000 1.767870 0.000000 
#    z -0.024360 0.000000 1.771650 
# 
# From -- ./inp_files/28330.got.cif
#   From: 2010.06.25/outbox.cif.g09.slc.cpg/sg11_15_cif.got.tgz:28330.got - 2010.06.27 23:14:04.
