data_PCOD8072524
_publ_section_title
;
Structure prediction by ZEFSAII (Michael W. Deem and Ramdas Pophale) SiO2 
 PCOD8072524
Probable space group: P 21/M
;
_chemical_formula_sum "Si O2"
_cell_formula_units_Z 24
_cell_length_a 11.131440
_cell_length_b 13.970845
_cell_length_c 8.153018
_cell_angle_alpha 90.000000
_cell_angle_beta 100.554253
_cell_angle_gamma 90.000000
_cell_volume 1246.470858
_symmetry_space_group_name_H-M "P 21/M"
_symmetry_group_IT_number 11
_symmetry_cell_setting 'monoclinic'
loop_
_space_group_symop_operation_xyz
x,y,z
-x,1/2+y,-z
-x,-y,-z
x,1/2-y,z
loop_
_atom_site_type_symbol
_atom_site_label
_atom_site_fract_x
_atom_site_fract_y
_atom_site_fract_z
Si Si1 0.901928 0.023453 0.841331
Si Si2 0.104802 0.138703 0.757448
Si Si3 0.530513 0.464977 0.243190
Si Si4 0.819284 0.858558 0.586549
Si Si5 0.701899 0.988145 0.013895
Si Si6 0.536775 0.641072 0.466315
O O1 0.881622 0.928257 0.730654
O O2 0.775425 0.055292 0.900887
O O3 0.963051 0.107151 0.748062
O O4 0.000000 0.000000 0.000000
O O5 0.115759 0.250000 0.791409
O O6 0.140199 0.109283 0.583339
O O7 0.201815 0.091970 0.906023
O O8 0.650484 0.453346 0.158038
O O9 0.516671 0.575120 0.301576
O O10 0.547420 0.395099 0.403251
O O11 0.411904 0.437767 0.106123
O O12 0.861555 0.750000 0.634696
O O13 0.674265 0.867932 0.564116
O O14 0.502597 0.750000 0.410751
#
# Coordination Sequence:
#
# PCOD8072524 Si02
#       6
#     4   4   4   4   4   4
#     4  10  21  36  55  84 116 150 184 237 288 328
#     4  10  21  37  60  86 112 149 197 237 278 336
#     4  10  20  36  59  86 119 150 186 235 285 337
#     4  10  19  36  60  86 111 145 195 237 274 335
#     4  10  20  35  56  85 118 152 185 230 289 337
#     4  10  20  36  59  86 114 151 194 233 277 336
#
# _framework density 19.254359999999998
#
# number of rings (size 3 to 8) (size 9 to 14) (size 15 to 20)
#    0.000    2.000    3.333    0.500    0.000    3.333 
#    0.000    4.167    0.000    2.000    0.000    0.000 
#    0.000    0.000    0.000    0.000    0.000    0.000 
#
# Total GULP energy -297471.784765 kJ/mol
# GULP energy per Si atom -12394.657699 kJ/mol
# Density = 1.921054 g / cm^3
# Si number density = 19.254360 Si / 1000 Ang^3
#
#
#
# Elastic Constant Matrix: (Units=GPa)
#
#
# Indices 1 2 3 4 5 6 
#
# 1 112.0057 41.9175 28.7538 0.0000 -22.4615 0.0000
# 2 41.9175 80.2890 44.1083 0.0000 -6.4465 0.0000
# 3 28.7538 44.1083 81.3597 0.0000 -5.6114 0.0000
# 4 0.0000 0.0000 0.0000 23.4936 0.0000 4.3564
# 5 -22.4615 -6.4465 -5.6114 0.0000 36.0556 0.0000
# 6 0.0000 0.0000 0.0000 4.3564 0.0000 23.2522
#
#
#
# Elastic Compliance Matrix: (Units=1/GPa)
#
#
# Indices 1 2 3 4 5 6 
#
# 1 0.012581 -0.005471 -0.001018 0.000000 0.006701 0.000000
# 2 -0.005471 0.020220 -0.009112 0.000000 -0.001211 0.000000
# 3 -0.001018 -0.009112 0.017624 0.000000 0.000479 0.000000
# 4 0.000000 0.000000 0.000000 0.044097 0.000000 -0.008262
# 5 0.006701 -0.001211 0.000479 0.000000 0.031767 0.000000
# 6 0.000000 0.000000 0.000000 -0.008262 0.000000 0.044555
#
#
# Mechanical properties :
#
#
# Convention : Reuss Voigt Hill
#
# Bulk Modulus (GPa) = 52.02221 55.91264 53.96742
# Shear Modulus (GPa) = 23.98626 27.15193 25.56909
#
# Velocity S-wave (km/s) = 3.53336 3.75930 3.64808
# Velocity P-wave (km/s) = 6.61235 6.92424 6.77009
#
# Compressibility (1/GPa) = 0.01922256
#
# Stress axis : x y z
#
# Youngs Moduli (GPa) = 79.48697 49.45624 56.74088
#
# Poissons Ratio (x) = 0.27057 0.05777
# Poissons Ratio (y) = 0.43486 0.51703
# Poissons Ratio (z) = 0.08093 0.45065
#
# Static dielectric constant tensor:
#      x y z
#    x 4.239500 0.000000 -0.437250 
#    y 0.000000 3.368270 0.000000 
#    z -0.437250 0.000000 3.669550 
# 
# 
# High freq. dielectric constant tensor:
#      x y z
#    x 1.757900 0.000000 -0.020700 
#    y 0.000000 1.714360 0.000000 
#    z -0.020700 0.000000 1.760450 
# 
# From -- ./inp_files/17547.got.cif
#   From: 2010.06.25/outbox.cif.g09.slc.cpg/sg11_9_cif.got.tgz:17547.got - 2010.06.27 23:14:04.
