data_PCOD8072632
_publ_section_title
;
Structure prediction by ZEFSAII (Michael W. Deem and Ramdas Pophale) SiO2 
 PCOD8072632
Probable space group: P 21/M
;
_chemical_formula_sum "Si O2"
_cell_formula_units_Z 32
_cell_length_a 11.908516
_cell_length_b 13.938311
_cell_length_c 18.104062
_cell_angle_alpha 90.000000
_cell_angle_beta 31.717033
_cell_angle_gamma 90.000000
_cell_volume 1579.799923
_symmetry_space_group_name_H-M "P 21/M"
_symmetry_group_IT_number 11
_symmetry_cell_setting 'monoclinic'
loop_
_space_group_symop_operation_xyz
x,y,z
-x,1/2+y,-z
-x,-y,-z
x,1/2-y,z
loop_
_atom_site_type_symbol
_atom_site_label
_atom_site_fract_x
_atom_site_fract_y
_atom_site_fract_z
Si Si1 0.321097 0.455454 0.883257
Si Si2 0.996182 0.017150 0.829181
Si Si3 0.654792 0.637808 0.282935
Si Si4 0.549272 0.641528 0.764373
Si Si5 0.134875 0.360362 0.537968
Si Si6 0.358325 0.638598 0.187200
Si Si7 0.605939 0.140808 0.994756
Si Si8 0.677398 0.017130 0.461862
O O1 0.284797 0.387852 0.834358
O O2 0.371859 0.566474 0.832707
O O3 0.524303 0.421632 0.816385
O O4 0.100198 0.449188 0.053018
O O5 0.173581 0.089809 0.759887
O O6 0.809292 0.078035 0.898663
O O7 0.106096 0.952789 0.703161
O O8 0.662046 0.750000 0.291233
O O9 0.412800 0.600773 0.434604
O O10 0.464012 0.750000 0.797133
O O11 0.773304 0.625864 0.596869
O O12 0.573670 0.626220 0.840418
O O13 0.155093 0.250000 0.552080
O O14 0.275345 0.422205 0.516260
O O15 0.889157 0.393304 0.675435
O O16 0.380015 0.750000 0.195306
O O17 0.472349 0.614002 0.044323
O O18 0.686216 0.250000 0.947291
O O19 0.500000 0.000000 0.500000
#
# Coordination Sequence:
#
# PCOD8072632 Si02
#       8
#     4   4   4   4   4   4   4   4
#     4  11  22  39  61  88 124 159 198 247 300 361
#     4  10  21  37  62  88 116 152 204 252 299 346
#     4  11  23  41  62  86 122 162 200 244 303 363
#     4   9  19  34  55  84 116 150 196 250 293 340
#     4  10  19  37  61  88 120 157 203 247 294 350
#     4  10  21  36  59  88 120 161 200 239 295 363
#     4   9  17  33  56  86 118 150 195 242 294 350
#     4  10  21  38  60  90 119 153 203 252 297 350
#
# _framework density 20.255728999999999
#
# number of rings (size 3 to 8) (size 9 to 14) (size 15 to 20)
#    0.000    2.000    2.500    1.125    0.000    5.000 
#    0.000    1.250    0.000    0.750    0.000    0.000 
#    0.000    0.000    0.000    0.000    0.000    0.000 
#
# Total GULP energy -396585.231821 kJ/mol
# GULP energy per Si atom -12393.288494 kJ/mol
# Density = 2.020963 g / cm^3
# Si number density = 20.255729 Si / 1000 Ang^3
#
#
#
# Elastic Constant Matrix: (Units=GPa)
#
#
# Indices 1 2 3 4 5 6 
#
# 1 42.3260 28.8532 10.2745 0.0000 7.3437 0.0000
# 2 28.8532 61.0366 32.2897 0.0000 -6.1358 0.0000
# 3 10.2745 32.2897 123.7137 0.0000 22.1995 0.0000
# 4 0.0000 0.0000 0.0000 20.4973 0.0000 0.6984
# 5 7.3437 -6.1358 22.1995 0.0000 25.6402 0.0000
# 6 0.0000 0.0000 0.0000 0.6984 0.0000 20.4532
#
#
#
# Elastic Compliance Matrix: (Units=1/GPa)
#
#
# Indices 1 2 3 4 5 6 
#
# 1 0.046396 -0.029429 0.008851 0.000000 -0.027995 0.000000
# 2 -0.029429 0.040389 -0.013431 0.000000 0.029723 0.000000
# 3 0.008851 -0.013431 0.014071 0.000000 -0.017932 0.000000
# 4 0.000000 0.000000 0.000000 0.048844 0.000000 -0.001668
# 5 -0.027995 0.029723 -0.017932 0.000000 0.069658 0.000000
# 6 0.000000 0.000000 0.000000 -0.001668 0.000000 0.048949
#
#
# Mechanical properties :
#
#
# Convention : Reuss Voigt Hill
#
# Bulk Modulus (GPa) = 30.45200 41.10121 35.77660
# Shear Modulus (GPa) = 14.39800 23.69541 19.04671
#
# Velocity S-wave (km/s) = 2.66900 3.42396 3.06978
# Velocity P-wave (km/s) = 4.95626 5.99721 5.50141
#
# Compressibility (1/GPa) = 0.03283857
#
# Stress axis : x y z
#
# Youngs Moduli (GPa) = 21.55355 24.75952 71.06593
#
# Poissons Ratio (x) = 0.72865 -0.62902
# Poissons Ratio (y) = 0.63430 0.95448
# Poissons Ratio (z) = -0.19078 0.33254
#
# Static dielectric constant tensor:
#      x y z
#    x 3.517870 0.000000 0.423910 
#    y 0.000000 3.681930 0.000000 
#    z 0.423910 0.000000 4.419260 
# 
# 
# High freq. dielectric constant tensor:
#      x y z
#    x 1.773860 0.000000 0.027050 
#    y 0.000000 1.780310 0.000000 
#    z 0.027050 0.000000 1.806750 
# 
# From -- ./inp_files/59453.got.cif
#   From: 2010.06.25/outbox.cif.g09.slc.cpg/sg11_30_cif.got.tgz:59453.got - 2010.06.27 23:14:04.
