data_PCOD8072381
_publ_section_title
;
Structure prediction by ZEFSAII (Michael W. Deem and Ramdas Pophale) SiO2 
 PCOD8072381
Probable space group: P 21/M
;
_chemical_formula_sum "Si O2"
_cell_formula_units_Z 32
_cell_length_a 11.335759
_cell_length_b 8.873242
_cell_length_c 16.156875
_cell_angle_alpha 90.000000
_cell_angle_beta 92.621809
_cell_angle_gamma 90.000000
_cell_volume 1623.437042
_symmetry_space_group_name_H-M "P 21/M"
_symmetry_group_IT_number 11
_symmetry_cell_setting 'monoclinic'
loop_
_space_group_symop_operation_xyz
x,y,z
-x,1/2+y,-z
-x,-y,-z
x,1/2-y,z
loop_
_atom_site_type_symbol
_atom_site_label
_atom_site_fract_x
_atom_site_fract_y
_atom_site_fract_z
Si Si1 0.489247 0.425637 0.910700
Si Si2 0.325532 0.074152 0.459314
Si Si3 0.314576 0.427641 0.766063
Si Si4 0.571587 0.425670 0.381918
Si Si5 0.270797 0.573952 0.162641
Si Si6 0.062426 0.573809 0.752542
Si Si7 0.057587 0.075461 0.079631
Si Si8 0.156645 0.572134 0.330258
O O1 0.495603 0.250000 0.927508
O O2 0.368702 0.468531 0.858321
O O3 0.596306 0.475288 0.854072
O O4 0.500000 0.500000 0.000000
O O5 0.310863 0.250000 0.478549
O O6 0.437645 0.042880 0.404562
O O7 0.338887 0.984633 0.545230
O O8 0.208704 0.011504 0.411619
O O9 0.292552 0.250000 0.757900
O O10 0.408486 0.479608 0.700515
O O11 0.194692 0.516503 0.746169
O O12 0.595927 0.250000 0.367044
O O13 0.248750 0.750000 0.149990
O O14 0.188319 0.488554 0.094991
O O15 0.238079 0.525278 0.254758
O O16 0.055671 0.750000 0.731663
O O17 0.023113 0.537981 0.844292
O O18 0.976942 0.485179 0.686966
O O19 0.068624 0.250000 0.062456
O O20 0.000000 0.000000 0.000000
O O21 0.156179 0.750000 0.345254
#
# Coordination Sequence:
#
# PCOD8072381 Si02
#       8
#     4   4   4   4   4   4   4   4
#     4  10  23  39  56  81 112 148 189 234 284 340
#     4  10  20  35  59  90 123 153 190 238 284 337
#     4  11  23  40  60  83 116 154 193 237 290 347
#     4  10  21  37  59  89 120 156 195 233 284 341
#     4   9  19  36  55  78 109 143 184 231 281 334
#     4  10  22  39  57  81 112 151 194 237 288 347
#     4  10  21  35  55  80 107 140 184 236 286 336
#     4  10  19  35  60  86 114 149 190 239 289 340
#
# _framework density 19.711265999999998
#
# number of rings (size 3 to 8) (size 9 to 14) (size 15 to 20)
#    0.000    2.000    0.000    3.000    1.750    6.000 
#    0.000    0.625    0.000    0.000    0.000    0.000 
#    0.000    0.000    0.000    0.000    0.000    0.000 
#
# Total GULP energy -396908.808507 kJ/mol
# GULP energy per Si atom -12403.400266 kJ/mol
# Density = 1.966640 g / cm^3
# Si number density = 19.711266 Si / 1000 Ang^3
#
#
#
# Elastic Constant Matrix: (Units=GPa)
#
#
# Indices 1 2 3 4 5 6 
#
# 1 80.7355 19.5769 23.8438 0.0000 14.2600 0.0000
# 2 19.5769 44.6692 18.5548 0.0000 7.0055 0.0000
# 3 23.8438 18.5548 76.7612 0.0000 19.6296 0.0000
# 4 0.0000 0.0000 0.0000 36.2967 0.0000 2.9036
# 5 14.2600 7.0055 19.6296 0.0000 32.4286 0.0000
# 6 0.0000 0.0000 0.0000 2.9036 0.0000 34.7463
#
#
#
# Elastic Compliance Matrix: (Units=1/GPa)
#
#
# Indices 1 2 3 4 5 6 
#
# 1 0.015019 -0.004934 -0.002433 0.000000 -0.004066 0.000000
# 2 -0.004934 0.026622 -0.004717 0.000000 -0.000726 0.000000
# 3 -0.002433 -0.004717 0.017024 0.000000 -0.008216 0.000000
# 4 0.000000 0.000000 0.000000 0.027736 0.000000 -0.002318
# 5 -0.004066 -0.000726 -0.008216 0.000000 0.037755 0.000000
# 6 0.000000 0.000000 0.000000 -0.002318 0.000000 0.028974
#
#
# Mechanical properties :
#
#
# Convention : Reuss Voigt Hill
#
# Bulk Modulus (GPa) = 28.98691 36.23524 32.61107
# Shear Modulus (GPa) = 26.48328 30.04035 28.26181
#
# Velocity S-wave (km/s) = 3.66944 3.90810 3.79065
# Velocity P-wave (km/s) = 5.71758 6.22794 5.97821
#
# Compressibility (1/GPa) = 0.03449833
#
# Stress axis : x y z
#
# Youngs Moduli (GPa) = 66.58130 37.56232 58.73928
#
# Poissons Ratio (x) = 0.18534 0.14291
# Poissons Ratio (y) = 0.32852 0.27706
# Poissons Ratio (z) = 0.16198 0.17717
#
# Static dielectric constant tensor:
#      x y z
#    x 4.138640 0.000000 0.256710 
#    y 0.000000 3.545430 0.000000 
#    z 0.256710 0.000000 3.599970 
# 
# 
# High freq. dielectric constant tensor:
#      x y z
#    x 1.767230 0.000000 0.013900 
#    y 0.000000 1.776600 0.000000 
#    z 0.013900 0.000000 1.765370 
# 
# From -- ./inp_files/38129.got.cif
#   From: 2010.06.25/outbox.cif.g09.slc.cpg/sg11_20_cif.got.tgz:38129.got - 2010.06.27 23:14:04.
