data_PCOD8072526
_publ_section_title
;
Structure prediction by ZEFSAII (Michael W. Deem and Ramdas Pophale) SiO2 
 PCOD8072526
Probable space group: P 21/M
;
_chemical_formula_sum "Si O2"
_cell_formula_units_Z 28
_cell_length_a 31.474842
_cell_length_b 8.551921
_cell_length_c 31.474844
_cell_angle_alpha 90.000000
_cell_angle_beta 9.458804
_cell_angle_gamma 90.000000
_cell_volume 1392.290717
_symmetry_space_group_name_H-M "P 21/M"
_symmetry_group_IT_number 11
_symmetry_cell_setting 'monoclinic'
loop_
_space_group_symop_operation_xyz
x,y,z
-x,1/2+y,-z
-x,-y,-z
x,1/2-y,z
loop_
_atom_site_type_symbol
_atom_site_label
_atom_site_fract_x
_atom_site_fract_y
_atom_site_fract_z
Si Si1 0.023665 0.935613 0.023665
Si Si2 0.546812 0.436428 0.546813
Si Si3 0.738652 0.065145 0.738652
Si Si4 0.689937 0.065140 0.689930
Si Si5 0.595098 0.065026 0.595102
Si Si6 0.879652 0.936112 0.879646
Si Si7 0.167309 0.933798 0.167304
O O1 0.023232 0.750000 0.023231
O O2 0.785909 0.997613 0.285185
O O3 0.285185 0.997613 0.785909
O O4 0.000000 0.000000 0.000000
O O5 0.545516 0.250000 0.545516
O O6 0.571055 0.498894 0.571057
O O7 0.740196 0.250000 0.740197
O O8 0.714292 0.007922 0.714289
O O9 0.000000 0.000000 0.500000
O O10 0.500000 0.000000 0.000000
O O11 0.688314 0.250000 0.688300
O O12 0.928850 0.002091 0.428034
O O13 0.428040 0.002094 0.928844
O O14 0.594439 0.250000 0.594438
O O15 0.859257 0.004660 0.355477
O O16 0.355469 0.004662 0.859264
O O17 0.876257 0.750000 0.876251
O O18 0.857215 0.020454 0.857215
O O19 0.169880 0.750000 0.169873
#
# Coordination Sequence:
#
# PCOD8072526 Si02
#       7
#     4   4   4   4   4   4   4
#     4  12  25  42  62  90 124 162 203 248 303 361
#     4  11  22  41  66  93 122 157 202 253 300 355
#     4  11  24  41  64  92 123 158 201 248 301 359
#     4  11  24  43  64  88 120 164 207 244 293 366
#     4   9  19  35  60  88 115 153 202 243 288 354
#     4  10  19  36  60  86 117 159 202 241 289 359
#     4  12  25  40  61  93 125 157 200 257 310 350
#
# _framework density 20.110741999999998
#
# number of rings (size 3 to 8) (size 9 to 14) (size 15 to 20)
#    0.000    1.143    0.000    6.857    0.000    9.143 
#    0.000    4.286    0.000    0.000    0.000    0.000 
#    0.000    0.000    0.000    0.000    0.000    0.000 
#
# Total GULP energy -347338.611850 kJ/mol
# GULP energy per Si atom -12404.950423 kJ/mol
# Density = 2.006497 g / cm^3
# Si number density = 20.110742 Si / 1000 Ang^3
#
#
#
# Elastic Constant Matrix: (Units=GPa)
#
#
# Indices 1 2 3 4 5 6 
#
# 1 213.4040 55.4476 117.6102 0.0000 -0.4100 0.0000
# 2 55.4476 90.2025 49.4562 0.0000 0.5286 0.0000
# 3 117.6102 49.4562 226.9680 0.0000 -0.7878 0.0000
# 4 0.0000 0.0000 0.0000 35.1035 0.0000 -0.2320
# 5 -0.4100 0.5286 -0.7878 0.0000 50.2497 0.0000
# 6 0.0000 0.0000 0.0000 -0.2320 0.0000 32.4721
#
#
#
# Elastic Compliance Matrix: (Units=1/GPa)
#
#
# Indices 1 2 3 4 5 6 
#
# 1 0.007079 -0.002658 -0.003089 0.000000 0.000037 0.000000
# 2 -0.002658 0.013590 -0.001585 0.000000 -0.000189 0.000000
# 3 -0.003089 -0.001585 0.006352 0.000000 0.000091 0.000000
# 4 0.000000 0.000000 0.000000 0.028489 0.000000 0.000204
# 5 0.000037 -0.000189 0.000091 0.000000 0.019904 0.000000
# 6 0.000000 0.000000 0.000000 0.000204 0.000000 0.030797
#
#
# Mechanical properties :
#
#
# Convention : Reuss Voigt Hill
#
# Bulk Modulus (GPa) = 80.91895 108.40029 94.65962
# Shear Modulus (GPa) = 40.00211 44.10242 42.05226
#
# Velocity S-wave (km/s) = 4.46476 4.68800 4.57774
# Velocity P-wave (km/s) = 8.17941 9.12808 8.66674
#
# Compressibility (1/GPa) = 0.01235805
#
# Stress axis : x y z
#
# Youngs Moduli (GPa) = 141.26334 73.58358 157.42897
#
# Poissons Ratio (x) = 0.19559 0.48627
# Poissons Ratio (y) = 0.37549 0.24945
# Poissons Ratio (z) = 0.43634 0.11660
#
# Static dielectric constant tensor:
#      x y z
#    x 4.012040 0.000000 -0.000140 
#    y 0.000000 3.679420 0.000000 
#    z -0.000140 0.000000 4.013660 
# 
# 
# High freq. dielectric constant tensor:
#      x y z
#    x 1.809990 0.000000 -0.000080 
#    y 0.000000 1.780890 0.000000 
#    z -0.000080 0.000000 1.810900 
# 
# From -- ./inp_files/73864.got.cif
#   From: 2010.06.25/outbox.cif.g09.slc.cpg/sg11_37_cif.got.tgz:73864.got - 2010.06.27 23:14:04.
