data_PCOD8072667
_publ_section_title
;
Structure prediction by ZEFSAII (Michael W. Deem and Ramdas Pophale) SiO2 
 PCOD8072667
Probable space group: P 21/M
;
_chemical_formula_sum "Si O2"
_cell_formula_units_Z 28
_cell_length_a 19.376973
_cell_length_b 8.930303
_cell_length_c 15.499388
_cell_angle_alpha 90.000000
_cell_angle_beta 149.792131
_cell_angle_gamma 90.000000
_cell_volume 1349.442399
_symmetry_space_group_name_H-M "P 21/M"
_symmetry_group_IT_number 11
_symmetry_cell_setting 'monoclinic'
loop_
_space_group_symop_operation_xyz
x,y,z
-x,1/2+y,-z
-x,-y,-z
x,1/2-y,z
loop_
_atom_site_type_symbol
_atom_site_label
_atom_site_fract_x
_atom_site_fract_y
_atom_site_fract_z
Si Si1 0.383768 0.075801 0.621719
Si Si2 0.547713 0.087572 0.467580
Si Si3 0.319098 0.925217 0.996222
Si Si4 0.254809 0.086913 0.089258
Si Si5 0.088113 0.422852 0.360538
Si Si6 0.072377 0.427223 0.659248
Si Si7 0.054568 0.575926 0.974272
O O1 0.399742 0.250000 0.618098
O O2 0.251780 0.042369 0.538555
O O3 0.358440 0.002196 0.499436
O O4 0.521390 0.023333 0.822581
O O5 0.614395 0.250000 0.563698
O O6 0.413272 0.119280 0.267565
O O7 0.500000 0.000000 0.500000
O O8 0.307180 0.750000 0.965191
O O9 0.231798 0.014831 0.829802
O O10 0.232238 0.967948 0.988144
O O11 0.183050 0.250000 0.994126
O O12 0.200147 0.006139 0.116578
O O13 0.060421 0.250000 0.354914
O O14 0.012461 0.528026 0.346872
O O15 0.037787 0.458318 0.209167
O O16 0.073765 0.250000 0.651421
O O17 0.000000 0.500000 0.500000
O O18 0.074854 0.750000 0.013347
O O19 0.000000 0.500000 0.000000
#
# Coordination Sequence:
#
# PCOD8072667 Si02
#       7
#     4   4   4   4   4   4   4
#     4   9  20  38  61  86 118 159 198 245 306 362
#     4  10  21  34  51  77 112 153 202 255 298 353
#     4  10  19  37  63  90 120 155 196 241 296 359
#     4  10  20  35  54  78 111 152 200 247 298 352
#     4  10  22  42  64  90 125 162 203 256 311 364
#     4  12  25  42  68  97 125 159 201 249 302 366
#     4  11  23  36  55  82 120 161 204 253 304 360
#
# _framework density 20.749310999999999
#
# number of rings (size 3 to 8) (size 9 to 14) (size 15 to 20)
#    0.000    1.714    1.429    3.000    2.000    3.429 
#    0.000    0.714    0.000    0.000    0.000    0.000 
#    0.000    0.000    0.000    0.000    0.000    0.000 
#
# Total GULP energy -346938.068472 kJ/mol
# GULP energy per Si atom -12390.645303 kJ/mol
# Density = 2.070209 g / cm^3
# Si number density = 20.749311 Si / 1000 Ang^3
#
#
#
# Elastic Constant Matrix: (Units=GPa)
#
#
# Indices 1 2 3 4 5 6 
#
# 1 60.3933 29.8241 30.9663 0.0000 7.7778 0.0000
# 2 29.8241 131.8905 38.3199 0.0000 -0.8067 0.0000
# 3 30.9663 38.3199 70.1609 0.0000 -5.0181 0.0000
# 4 0.0000 0.0000 0.0000 29.9085 0.0000 -4.4253
# 5 7.7778 -0.8067 -5.0181 0.0000 25.8015 0.0000
# 6 0.0000 0.0000 0.0000 -4.4253 0.0000 33.8315
#
#
#
# Elastic Compliance Matrix: (Units=1/GPa)
#
#
# Indices 1 2 3 4 5 6 
#
# 1 0.024114 -0.002644 -0.009862 0.000000 -0.009270 0.000000
# 2 -0.002644 0.009314 -0.003896 0.000000 0.000331 0.000000
# 3 -0.009862 -0.003896 0.021233 0.000000 0.006981 0.000000
# 4 0.000000 0.000000 0.000000 0.034095 0.000000 0.004460
# 5 -0.009270 0.000331 0.006981 0.000000 0.042920 0.000000
# 6 0.000000 0.000000 0.000000 0.004460 0.000000 0.030142
#
#
# Mechanical properties :
#
#
# Convention : Reuss Voigt Hill
#
# Bulk Modulus (GPa) = 45.75339 51.18503 48.46921
# Shear Modulus (GPa) = 24.76365 28.79726 26.78045
#
# Velocity S-wave (km/s) = 3.45841 3.72945 3.59648
# Velocity P-wave (km/s) = 6.16813 6.57776 6.37624
#
# Compressibility (1/GPa) = 0.02185630
#
# Stress axis : x y z
#
# Youngs Moduli (GPa) = 41.46884 107.36435 47.09657
#
# Poissons Ratio (x) = 0.28391 0.46446
# Poissons Ratio (y) = 0.10966 0.18350
# Poissons Ratio (z) = 0.40896 0.41833
#
# Static dielectric constant tensor:
#      x y z
#    x 3.691470 0.000000 0.119210 
#    y 0.000000 3.989450 0.000000 
#    z 0.119210 0.000000 4.117210 
# 
# 
# High freq. dielectric constant tensor:
#      x y z
#    x 1.788970 0.000000 0.013160 
#    y 0.000000 1.821770 0.000000 
#    z 0.013160 0.000000 1.814360 
# 
# From -- ./inp_files/54627.got.cif
#   From: 2010.06.25/outbox.cif.g09.slc.cpg/sg11_28_cif.got.tgz:54627.got - 2010.06.27 23:14:04.
