data_PCOD8072500
_publ_section_title
;
Structure prediction by ZEFSAII (Michael W. Deem and Ramdas Pophale) SiO2 
 PCOD8072500
Probable space group: P 21/M
;
_chemical_formula_sum "Si O2"
_cell_formula_units_Z 32
_cell_length_a 10.013702
_cell_length_b 18.418513
_cell_length_c 12.398061
_cell_angle_alpha 90.000000
_cell_angle_beta 45.026975
_cell_angle_gamma 90.000000
_cell_volume 1617.679082
_symmetry_space_group_name_H-M "P 21/M"
_symmetry_group_IT_number 11
_symmetry_cell_setting 'monoclinic'
loop_
_space_group_symop_operation_xyz
x,y,z
-x,1/2+y,-z
-x,-y,-z
x,1/2-y,z
loop_
_atom_site_type_symbol
_atom_site_label
_atom_site_fract_x
_atom_site_fract_y
_atom_site_fract_z
Si Si1 0.335695 0.101467 0.428909
Si Si2 0.364938 0.064733 0.954883
Si Si3 0.377712 0.332827 0.628894
Si Si4 0.039182 0.918399 0.445680
Si Si5 0.364387 0.563593 0.400751
Si Si6 0.293778 0.913628 0.094230
Si Si7 0.296525 0.834226 0.880182
Si Si8 0.103985 0.166643 0.980577
O O1 0.305872 0.150710 0.550567
O O2 0.532342 0.116819 0.258863
O O3 0.163766 0.121902 0.444524
O O4 0.317381 0.016492 0.473487
O O5 0.488687 0.050328 0.779035
O O6 0.497634 0.096574 0.973755
O O7 0.194450 0.119802 0.025398
O O8 0.272021 0.990246 0.046321
O O9 0.448244 0.250000 0.596252
O O10 0.553984 0.385652 0.552248
O O11 0.209397 0.347928 0.807746
O O12 0.182691 0.891819 0.457286
O O13 0.132965 0.909435 0.275382
O O14 0.000000 0.000000 0.500000
O O15 0.260038 0.849977 0.027020
O O16 0.346147 0.750000 0.837880
O O17 0.113700 0.854905 0.913211
O O18 0.124215 0.250000 0.003750
#
# Coordination Sequence:
#
# PCOD8072500 Si02
#       8
#     4   4   4   4   4   4   4   4
#     4  11  20  37  56  82 115 151 190 234 285 333
#     4   9  18  34  60  84 110 142 189 234 282 329
#     4  10  20  36  57  80 111 147 185 234 286 338
#     4   9  20  36  60  86 114 144 188 237 286 335
#     4   9  18  37  57  85 110 145 190 237 279 341
#     4  10  19  36  59  87 111 147 189 237 282 342
#     4  11  23  38  55  82 119 153 190 235 281 338
#     4   9  20  38  56  79 112 148 187 229 278 337
#
# _framework density 19.781426
#
# number of rings (size 3 to 8) (size 9 to 14) (size 15 to 20)
#    0.000    2.250    1.250    1.500    1.750    1.000 
#    6.750    3.750    0.000    0.000    0.000    0.000 
#    0.000    0.000    0.000    0.000    0.000    0.000 
#
# Total GULP energy -396707.190969 kJ/mol
# GULP energy per Si atom -12397.099718 kJ/mol
# Density = 1.973640 g / cm^3
# Si number density = 19.781426 Si / 1000 Ang^3
#
#
#
# Elastic Constant Matrix: (Units=GPa)
#
#
# Indices 1 2 3 4 5 6 
#
# 1 127.6631 49.0171 39.6629 0.0000 -18.3644 0.0000
# 2 49.0171 70.3029 23.9817 0.0000 -7.1567 0.0000
# 3 39.6629 23.9817 55.6309 0.0000 -12.2578 0.0000
# 4 0.0000 0.0000 0.0000 24.0118 0.0000 2.9074
# 5 -18.3644 -7.1567 -12.2578 0.0000 31.8161 0.0000
# 6 0.0000 0.0000 0.0000 2.9074 0.0000 30.9624
#
#
#
# Elastic Compliance Matrix: (Units=1/GPa)
#
#
# Indices 1 2 3 4 5 6 
#
# 1 0.012526 -0.006552 -0.005287 0.000000 0.003720 0.000000
# 2 -0.006552 0.020137 -0.004201 0.000000 -0.000871 0.000000
# 3 -0.005287 -0.004201 0.024779 0.000000 0.005550 0.000000
# 4 0.000000 0.000000 0.000000 0.042125 0.000000 -0.003956
# 5 0.003720 -0.000871 0.005550 0.000000 0.035520 0.000000
# 6 0.000000 0.000000 0.000000 -0.003956 0.000000 0.032669
#
#
# Mechanical properties :
#
#
# Convention : Reuss Voigt Hill
#
# Bulk Modulus (GPa) = 39.42887 53.21338 46.32113
# Shear Modulus (GPa) = 24.00504 26.75375 25.37940
#
# Velocity S-wave (km/s) = 3.48733 3.68158 3.58577
# Velocity P-wave (km/s) = 6.01588 6.71052 6.37268
#
# Compressibility (1/GPa) = 0.02536213
#
# Stress axis : x y z
#
# Youngs Moduli (GPa) = 79.83240 49.66078 40.35653
#
# Poissons Ratio (x) = 0.32535 0.21336
# Poissons Ratio (y) = 0.52302 0.16956
# Poissons Ratio (z) = 0.42207 0.20865
#
# Static dielectric constant tensor:
#      x y z
#    x 8.291810 0.000000 -3.154970 
#    y 0.000000 3.433930 0.000000 
#    z -3.154970 0.000000 5.561890 
# 
# 
# High freq. dielectric constant tensor:
#      x y z
#    x 1.785590 0.000000 -0.006550 
#    y 0.000000 1.752480 0.000000 
#    z -0.006550 0.000000 1.759680 
# 
# From -- ./inp_files/32830.got.cif
#   From: 2010.06.25/outbox.cif.g09.slc.cpg/sg11_17_cif.got.tgz:32830.got - 2010.06.27 23:14:04.
