data_PCOD8072197
_publ_section_title
;
Structure prediction by ZEFSAII (Michael W. Deem and Ramdas Pophale) SiO2 
 PCOD8072197
Probable space group: P 21/M
;
_chemical_formula_sum "Si O2"
_cell_formula_units_Z 32
_cell_length_a 19.707051
_cell_length_b 8.840098
_cell_length_c 19.707040
_cell_angle_alpha 90.000000
_cell_angle_beta 29.707402
_cell_angle_gamma 90.000000
_cell_volume 1701.397926
_symmetry_space_group_name_H-M "P 21/M"
_symmetry_group_IT_number 11
_symmetry_cell_setting 'monoclinic'
loop_
_space_group_symop_operation_xyz
x,y,z
-x,1/2+y,-z
-x,-y,-z
x,1/2-y,z
loop_
_atom_site_type_symbol
_atom_site_label
_atom_site_fract_x
_atom_site_fract_y
_atom_site_fract_z
Si Si1 0.053414 0.929687 0.256370
Si Si2 0.396369 0.070165 0.448032
Si Si3 0.297733 0.571319 0.797682
Si Si4 0.756380 0.929687 0.553408
Si Si5 0.052014 0.570170 0.103586
Si Si6 0.613809 0.571246 0.812802
Si Si7 0.687194 0.428754 0.886199
Si Si8 0.781634 0.429807 0.281559
O O1 0.059896 0.750000 0.249887
O O2 0.185151 0.994214 0.181800
O O3 0.913965 0.985796 0.413954
O O4 0.055790 0.989736 0.177368
O O5 0.381337 0.250000 0.468426
O O6 0.553043 0.015487 0.308920
O O7 0.322631 0.010262 0.444205
O O8 0.330196 0.992658 0.570129
O O9 0.295742 0.750000 0.795612
O O10 0.258161 0.507611 0.758207
O O11 0.191170 0.515543 0.946902
O O12 0.749903 0.750000 0.559886
O O13 0.681815 0.994213 0.685142
O O14 0.031578 0.750000 0.118649
O O15 0.929973 0.492623 0.169680
O O16 0.630288 0.750000 0.802885
O O17 0.694878 0.499999 0.805124
O O18 0.453720 0.524393 0.953713
O O19 0.697113 0.250000 0.869719
O O20 0.783312 0.250000 0.283275
#
# Coordination Sequence:
#
# PCOD8072197 Si02
#       8
#     4   4   4   4   4   4   4   4
#     4   9  17  30  51  77  99 125 168 214 248 287
#     4  10  19  35  56  78 102 136 178 220 260 305
#     4   9  20  33  53  81 104 131 177 224 262 307
#     4   9  17  30  51  77  99 125 168 214 248 287
#     4  10  19  35  56  78 102 136 178 220 260 305
#     4   9  18  32  51  75 102 130 160 200 248 298
#     4   9  18  32  51  75 102 130 160 200 248 298
#     4  11  21  35  51  75 110 141 170 214 265 317
#
# _framework density 18.808064999999999
#
# number of rings (size 3 to 8) (size 9 to 14) (size 15 to 20)
#    0.000    2.500    1.250    1.125    1.750    0.500 
#    0.000    3.125    0.000    0.000    0.000    0.000 
#    0.000    0.000    0.000    0.000    0.000    0.000 
#
# Total GULP energy -396791.308565 kJ/mol
# GULP energy per Si atom -12399.728393 kJ/mol
# Density = 1.876526 g / cm^3
# Si number density = 18.808065 Si / 1000 Ang^3
#
#
#
# Elastic Constant Matrix: (Units=GPa)
#
#
# Indices 1 2 3 4 5 6 
#
# 1 154.8140 15.3978 87.3060 0.0000 -7.3802 0.0000
# 2 15.3978 20.3006 17.6466 0.0000 -0.6500 0.0000
# 3 87.3060 17.6466 170.4964 0.0000 2.8232 0.0000
# 4 0.0000 0.0000 0.0000 18.8069 0.0000 1.6883
# 5 -7.3802 -0.6500 2.8232 0.0000 43.5794 0.0000
# 6 0.0000 0.0000 0.0000 1.6883 0.0000 24.6841
#
#
#
# Elastic Compliance Matrix: (Units=1/GPa)
#
#
# Indices 1 2 3 4 5 6 
#
# 1 0.009411 -0.003147 -0.004524 0.000000 0.001840 0.000000
# 2 -0.003147 0.055242 -0.004115 0.000000 0.000558 0.000000
# 3 -0.004524 -0.004115 0.008631 0.000000 -0.001387 0.000000
# 4 0.000000 0.000000 0.000000 0.053501 0.000000 -0.003659
# 5 0.001840 0.000558 -0.001387 0.000000 0.023356 0.000000
# 6 0.000000 0.000000 0.000000 -0.003659 0.000000 0.040762
#
#
# Mechanical properties :
#
#
# Convention : Reuss Voigt Hill
#
# Bulk Modulus (GPa) = 20.11617 65.14573 42.63095
# Shear Modulus (GPa) = 21.64070 32.43144 27.03607
#
# Velocity S-wave (km/s) = 3.39574 4.15702 3.79551
# Velocity P-wave (km/s) = 5.10818 7.59957 6.47483
#
# Compressibility (1/GPa) = 0.04971126
#
# Stress axis : x y z
#
# Youngs Moduli (GPa) = 106.25463 18.10223 115.86475
#
# Poissons Ratio (x) = 0.05697 0.52417
# Poissons Ratio (y) = 0.33437 0.47683
# Poissons Ratio (z) = 0.48070 0.07450
#
# Static dielectric constant tensor:
#      x y z
#    x 3.697720 0.000000 -0.091800 
#    y 0.000000 3.001660 0.000000 
#    z -0.091800 0.000000 4.012860 
# 
# 
# High freq. dielectric constant tensor:
#      x y z
#    x 1.741340 0.000000 -0.001450 
#    y 0.000000 1.683220 0.000000 
#    z -0.001450 0.000000 1.746350 
# 
# From -- ./inp_files/60967.got.cif
#   From: 2010.06.25/outbox.cif.g09.slc.cpg/sg11_31_cif.got.tgz:60967.got - 2010.06.27 23:14:04.
