data_PCOD8072459
_publ_section_title
;
Structure prediction by ZEFSAII (Michael W. Deem and Ramdas Pophale) SiO2 
 PCOD8072459
Probable space group: P 21/M
;
_chemical_formula_sum "Si O2"
_cell_formula_units_Z 28
_cell_length_a 9.549988
_cell_length_b 8.418286
_cell_length_c 16.840644
_cell_angle_alpha 90.000000
_cell_angle_beta 94.113296
_cell_angle_gamma 90.000000
_cell_volume 1350.408251
_symmetry_space_group_name_H-M "P 21/M"
_symmetry_group_IT_number 11
_symmetry_cell_setting 'monoclinic'
loop_
_space_group_symop_operation_xyz
x,y,z
-x,1/2+y,-z
-x,-y,-z
x,1/2-y,z
loop_
_atom_site_type_symbol
_atom_site_label
_atom_site_fract_x
_atom_site_fract_y
_atom_site_fract_z
Si Si1 0.860938 0.566770 0.167674
Si Si2 0.566691 0.062503 0.755004
Si Si3 0.578632 0.934960 0.926107
Si Si4 0.873937 0.063055 0.727398
Si Si5 0.153664 0.933178 0.995788
Si Si6 0.051262 0.438699 0.585806
Si Si7 0.707820 0.064708 0.309483
O O1 0.851437 0.750000 0.140798
O O2 0.803625 0.457120 0.094398
O O3 0.764803 0.540648 0.239607
O O4 0.021866 0.519850 0.195619
O O5 0.561718 0.250000 0.743169
O O6 0.720016 0.990975 0.738421
O O7 0.525726 0.020271 0.844003
O O8 0.456511 0.980278 0.689928
O O9 0.548458 0.750000 0.916376
O O10 0.500000 0.000000 0.000000
O O11 0.743637 0.970027 0.942516
O O12 0.860103 0.250000 0.719680
O O13 0.940605 0.998817 0.647737
O O14 0.162610 0.750000 0.020403
O O15 0.000000 0.000000 0.000000
O O16 0.064135 0.250000 0.587328
O O17 0.205174 0.513867 0.608796
O O18 0.000000 0.500000 0.500000
O O19 0.727532 0.250000 0.293613
#
# Coordination Sequence:
#
# PCOD8072459 Si02
#       7
#     4   4   4   4   4   4   4
#     4  10  19  36  58  81 108 145 191 241 290 344
#     4  11  21  38  60  84 114 151 191 239 291 344
#     4  12  25  41  58  81 113 154 199 248 299 352
#     4   8  18  35  59  85 113 146 185 230 284 340
#     4  12  24  38  55  80 111 148 193 245 298 349
#     4  10  20  39  64  92 119 149 186 230 281 340
#     4  11  22  37  57  85 116 151 189 229 275 337
#
# _framework density 20.734470000000002
#
# number of rings (size 3 to 8) (size 9 to 14) (size 15 to 20)
#    0.000    1.429    0.000    7.714    0.000    1.143 
#    0.000    8.571    0.000    0.000    0.000    0.000 
#    0.000    0.000    0.000    0.000    0.000    0.000 
#
# Total GULP energy -347263.423088 kJ/mol
# GULP energy per Si atom -12402.265110 kJ/mol
# Density = 2.068728 g / cm^3
# Si number density = 20.734470 Si / 1000 Ang^3
#
#
#
# Elastic Constant Matrix: (Units=GPa)
#
#
# Indices 1 2 3 4 5 6 
#
# 1 104.3702 27.4746 21.6774 0.0000 23.3003 0.0000
# 2 27.4746 80.4419 24.2102 0.0000 6.9879 0.0000
# 3 21.6774 24.2102 89.2580 0.0000 22.1237 0.0000
# 4 0.0000 0.0000 0.0000 33.5051 0.0000 5.9409
# 5 23.3003 6.9879 22.1237 0.0000 32.2437 0.0000
# 6 0.0000 0.0000 0.0000 5.9409 0.0000 27.8880
#
#
#
# Elastic Compliance Matrix: (Units=1/GPa)
#
#
# Indices 1 2 3 4 5 6 
#
# 1 0.012321 -0.003493 -0.000031 0.000000 -0.008125 0.000000
# 2 -0.003493 0.014533 -0.003541 0.000000 0.001804 0.000000
# 3 -0.000031 -0.003541 0.014430 0.000000 -0.009111 0.000000
# 4 0.000000 0.000000 0.000000 0.031018 0.000000 -0.006608
# 5 -0.008125 0.001804 -0.009111 0.000000 0.042746 0.000000
# 6 0.000000 0.000000 0.000000 -0.006608 0.000000 0.037265
#
#
# Mechanical properties :
#
#
# Convention : Reuss Voigt Hill
#
# Bulk Modulus (GPa) = 36.82615 46.75495 41.79055
# Shear Modulus (GPa) = 28.49091 32.10788 30.29939
#
# Velocity S-wave (km/s) = 3.71089 3.93940 3.82685
# Velocity P-wave (km/s) = 6.01334 6.57953 6.30280
#
# Compressibility (1/GPa) = 0.02715462
#
# Stress axis : x y z
#
# Youngs Moduli (GPa) = 81.16082 68.80739 69.30155
#
# Poissons Ratio (x) = 0.24035 0.00214
# Poissons Ratio (y) = 0.28350 0.24538
# Poissons Ratio (z) = 0.00251 0.24363
#
# Static dielectric constant tensor:
#      x y z
#    x 4.737890 0.000000 -0.219800 
#    y 0.000000 3.780640 0.000000 
#    z -0.219800 0.000000 4.098090 
# 
# 
# High freq. dielectric constant tensor:
#      x y z
#    x 1.822360 0.000000 0.016780 
#    y 0.000000 1.806470 0.000000 
#    z 0.016780 0.000000 1.795010 
# 
# From -- ./inp_files/57546.got.cif
#   From: 2010.06.25/outbox.cif.g09.slc.cpg/sg11_29_cif.got.tgz:57546.got - 2010.06.27 23:14:04.
