data_PCOD8072539
_publ_section_title
;
Structure prediction by ZEFSAII (Michael W. Deem and Ramdas Pophale) SiO2 
 PCOD8072539
Probable space group: P 21/M
;
_chemical_formula_sum "Si O2"
_cell_formula_units_Z 28
_cell_length_a 16.097790
_cell_length_b 8.736906
_cell_length_c 20.328743
_cell_angle_alpha 90.000000
_cell_angle_beta 149.976011
_cell_angle_gamma 90.000000
_cell_volume 1430.603368
_symmetry_space_group_name_H-M "P 21/M"
_symmetry_group_IT_number 11
_symmetry_cell_setting 'monoclinic'
loop_
_space_group_symop_operation_xyz
x,y,z
-x,1/2+y,-z
-x,-y,-z
x,1/2-y,z
loop_
_atom_site_type_symbol
_atom_site_label
_atom_site_fract_x
_atom_site_fract_y
_atom_site_fract_z
Si Si1 0.370119 0.569780 0.360989
Si Si2 0.162622 0.929928 0.436439
Si Si3 0.911254 0.571744 0.377510
Si Si4 0.946994 0.069096 0.781182
Si Si5 0.542989 0.568156 0.099421
Si Si6 0.317324 0.068382 0.057106
Si Si7 0.488824 0.930645 0.300062
O O1 0.500000 0.500000 0.500000
O O2 0.388039 0.750000 0.379134
O O3 0.184600 0.515796 0.253593
O O4 0.407649 0.514812 0.312997
O O5 0.206197 0.750000 0.465595
O O6 0.113433 0.993273 0.330918
O O7 0.008237 0.967769 0.377334
O O8 0.319179 0.023462 0.570471
O O9 0.906403 0.750000 0.386937
O O10 0.725094 0.507266 0.244225
O O11 0.000000 0.500000 0.500000
O O12 0.955936 0.250000 0.782523
O O13 0.128178 0.006559 0.924342
O O14 0.538390 0.750000 0.092047
O O15 0.413594 0.510346 0.064012
O O16 0.500000 0.500000 0.000000
O O17 0.328318 0.250000 0.056288
O O18 0.391848 0.020228 0.177539
O O19 0.471839 0.750000 0.276906
#
# Coordination Sequence:
#
# PCOD8072539 Si02
#       7
#     4   4   4   4   4   4   4
#     4  10  20  37  61  87 117 151 192 241 294 348
#     4  10  19  36  61  83 107 148 197 237 285 350
#     4  10  22  37  56  83 113 149 193 240 287 342
#     4   9  19  37  61  85 112 149 196 244 288 345
#     4  11  23  41  63  88 120 156 196 243 294 349
#     4  11  23  40  61  86 117 158 201 239 289 349
#     4  11  23  37  56  88 124 153 188 242 297 348
#
# _framework density 19.572161000000001
#
# number of rings (size 3 to 8) (size 9 to 14) (size 15 to 20)
#    0.000    1.714    1.429    3.000    0.000    7.429 
#    0.000    4.286    0.000    0.000    0.000    0.000 
#    0.000    0.000    0.000    0.000    0.000    0.000 
#
# Total GULP energy -347282.814284 kJ/mol
# GULP energy per Si atom -12402.957653 kJ/mol
# Density = 1.952761 g / cm^3
# Si number density = 19.572161 Si / 1000 Ang^3
#
#
#
# Elastic Constant Matrix: (Units=GPa)
#
#
# Indices 1 2 3 4 5 6 
#
# 1 133.3586 33.1505 67.6603 0.0000 5.5787 0.0000
# 2 33.1505 41.3732 32.8204 0.0000 1.8953 0.0000
# 3 67.6603 32.8204 172.4841 0.0000 6.9508 0.0000
# 4 0.0000 0.0000 0.0000 18.3353 0.0000 0.0724
# 5 5.5787 1.8953 6.9508 0.0000 42.3140 0.0000
# 6 0.0000 0.0000 0.0000 0.0724 0.0000 29.8188
#
#
#
# Elastic Compliance Matrix: (Units=1/GPa)
#
#
# Indices 1 2 3 4 5 6 
#
# 1 0.010530 -0.006068 -0.002951 0.000000 -0.000632 0.000000
# 2 -0.006068 0.031970 -0.003702 0.000000 -0.000024 0.000000
# 3 -0.002951 -0.003702 0.007688 0.000000 -0.000708 0.000000
# 4 0.000000 0.000000 0.000000 0.054540 0.000000 -0.000132
# 5 -0.000632 -0.000024 -0.000708 0.000000 0.023834 0.000000
# 6 0.000000 0.000000 0.000000 -0.000132 0.000000 0.033536
#
#
# Mechanical properties :
#
#
# Convention : Reuss Voigt Hill
#
# Bulk Modulus (GPa) = 40.40865 68.27536 54.34201
# Shear Modulus (GPa) = 25.53774 32.33262 28.93518
#
# Velocity S-wave (km/s) = 3.61612 4.06885 3.84915
# Velocity P-wave (km/s) = 6.17462 7.55207 6.89781
#
# Compressibility (1/GPa) = 0.02474718
#
# Stress axis : x y z
#
# Youngs Moduli (GPa) = 94.96278 31.27933 130.07171
#
# Poissons Ratio (x) = 0.18980 0.38380
# Poissons Ratio (y) = 0.57623 0.48153
# Poissons Ratio (z) = 0.28021 0.11580
#
# Static dielectric constant tensor:
#      x y z
#    x 4.051630 0.000000 0.672270 
#    y 0.000000 3.396790 0.000000 
#    z 0.672270 0.000000 4.544100 
# 
# 
# High freq. dielectric constant tensor:
#      x y z
#    x 1.780870 0.000000 0.003970 
#    y 0.000000 1.747500 0.000000 
#    z 0.003970 0.000000 1.775170 
# 
# From -- ./inp_files/65443.got.cif
#   From: 2010.06.25/outbox.cif.g09.slc.cpg/sg11_33_cif.got.tgz:65443.got - 2010.06.27 23:14:04.
