data_PCOD8072461
_publ_section_title
;
Structure prediction by ZEFSAII (Michael W. Deem and Ramdas Pophale) SiO2 
 PCOD8072461
Probable space group: P 21/M
;
_chemical_formula_sum "Si O2"
_cell_formula_units_Z 32
_cell_length_a 22.250764
_cell_length_b 15.235550
_cell_length_c 5.210895
_cell_angle_alpha 90.000000
_cell_angle_beta 71.290730
_cell_angle_gamma 90.000000
_cell_volume 1673.162022
_symmetry_space_group_name_H-M "P 21/M"
_symmetry_group_IT_number 11
_symmetry_cell_setting 'monoclinic'
loop_
_space_group_symop_operation_xyz
x,y,z
-x,1/2+y,-z
-x,-y,-z
x,1/2-y,z
loop_
_atom_site_type_symbol
_atom_site_label
_atom_site_fract_x
_atom_site_fract_y
_atom_site_fract_z
Si Si1 0.486643 0.649719 0.056617
Si Si2 0.846354 0.847306 0.489635
Si Si3 0.630362 0.646465 0.857484
Si Si4 0.556759 0.067028 0.389313
Si Si5 0.813595 0.942649 0.049919
Si Si6 0.055238 0.501851 0.126369
Si Si7 0.980113 0.851612 0.470138
Si Si8 0.326183 0.446719 0.706524
O O1 0.491591 0.750000 0.974724
O O2 0.453298 0.640472 0.378448
O O3 0.557996 0.610204 0.961877
O O4 0.444775 0.604362 0.895226
O O5 0.826857 0.750000 0.605178
O O6 0.814435 0.864770 0.258430
O O7 0.923091 0.852426 0.339650
O O8 0.822066 0.912478 0.744457
O O9 0.632836 0.750000 0.813792
O O10 0.667217 0.600604 0.575587
O O11 0.662858 0.623890 0.083104
O O12 0.500000 0.000000 0.500000
O O13 0.625593 0.026550 0.335732
O O14 0.744550 0.987452 0.169172
O O15 0.870724 0.009919 0.057957
O O16 0.051340 0.404484 0.252748
O O17 0.041577 0.589797 0.312095
O O18 0.000000 0.500000 0.000000
O O19 0.999619 0.750000 0.510292
#
# Coordination Sequence:
#
# PCOD8072461 Si02
#       8
#     4   4   4   4   4   4   4   4
#     4  11  22  38  61  86 111 143 188 239 284 328
#     4  10  20  35  55  80 114 151 187 223 271 345
#     4  11  22  37  55  83 118 151 185 224 281 344
#     4  12  21  38  60  83 112 146 188 233 276 330
#     4  11  23  36  53  82 114 151 189 226 284 335
#     4  10  19  36  58  81 114 149 189 242 283 340
#     4   9  19  34  57  86 112 146 191 238 289 339
#     4  12  24  36  55  83 113 154 189 229 278 338
#
# _framework density 19.125463
#
# number of rings (size 3 to 8) (size 9 to 14) (size 15 to 20)
#    0.000    1.250    3.750    3.000    0.000    6.000 
#    0.000    0.000    0.000    1.500    0.000    0.000 
#    0.000    0.000    0.000    0.000    0.000    0.000 
#
# Total GULP energy -396540.639773 kJ/mol
# GULP energy per Si atom -12391.894993 kJ/mol
# Density = 1.908193 g / cm^3
# Si number density = 19.125463 Si / 1000 Ang^3
#
#
#
# Elastic Constant Matrix: (Units=GPa)
#
#
# Indices 1 2 3 4 5 6 
#
# 1 118.0021 34.0950 37.8428 0.0000 -29.0971 0.0000
# 2 34.0950 73.9207 17.4492 0.0000 -10.6673 0.0000
# 3 37.8428 17.4492 82.9133 0.0000 -0.2786 0.0000
# 4 0.0000 0.0000 0.0000 23.6469 0.0000 4.8022
# 5 -29.0971 -10.6673 -0.2786 0.0000 39.1870 0.0000
# 6 0.0000 0.0000 0.0000 4.8022 0.0000 21.2167
#
#
#
# Elastic Compliance Matrix: (Units=1/GPa)
#
#
# Indices 1 2 3 4 5 6 
#
# 1 0.013450 -0.003651 -0.005340 0.000000 0.008955 0.000000
# 2 -0.003651 0.015833 -0.001660 0.000000 0.001587 0.000000
# 3 -0.005340 -0.001660 0.014833 0.000000 -0.004312 0.000000
# 4 0.000000 0.000000 0.000000 0.044326 0.000000 -0.010033
# 5 0.008955 0.001587 -0.004312 0.000000 0.032570 0.000000
# 6 0.000000 0.000000 0.000000 -0.010033 0.000000 0.049403
#
#
# Mechanical properties :
#
#
# Convention : Reuss Voigt Hill
#
# Bulk Modulus (GPa) = 43.83486 50.40114 47.11800
# Shear Modulus (GPa) = 25.08490 29.17340 27.12915
#
# Velocity S-wave (km/s) = 3.62553 3.90983 3.77036
# Velocity P-wave (km/s) = 6.36359 6.84051 6.60635
#
# Compressibility (1/GPa) = 0.02281289
#
# Stress axis : x y z
#
# Youngs Moduli (GPa) = 74.34890 63.15958 67.41638
#
# Poissons Ratio (x) = 0.23058 0.36003
# Poissons Ratio (y) = 0.27143 0.11194
# Poissons Ratio (z) = 0.39705 0.10487
#
# Static dielectric constant tensor:
#      x y z
#    x 4.140550 0.000000 -0.138890 
#    y 0.000000 3.750350 0.000000 
#    z -0.138890 0.000000 3.677450 
# 
# 
# High freq. dielectric constant tensor:
#      x y z
#    x 1.743880 0.000000 0.007930 
#    y 0.000000 1.713540 0.000000 
#    z 0.007930 0.000000 1.751970 
# 
# From -- ./inp_files/9019.got.cif
#   From: 2010.06.25/outbox.cif.g09.slc.cpg/sg11_5_cif.got.tgz:9019.got - 2010.06.27 23:14:04.
