data_PCOD8072932
_publ_section_title
;
Structure prediction by ZEFSAII (Michael W. Deem and Ramdas Pophale) SiO2 
 PCOD8072932
Probable space group: P 21/M
;
_chemical_formula_sum "Si O2"
_cell_formula_units_Z 28
_cell_length_a 21.518518
_cell_length_b 8.941804
_cell_length_c 11.390589
_cell_angle_alpha 90.000000
_cell_angle_beta 130.357051
_cell_angle_gamma 90.000000
_cell_volume 1670.137751
_symmetry_space_group_name_H-M "P 21/M"
_symmetry_group_IT_number 11
_symmetry_cell_setting 'monoclinic'
loop_
_space_group_symop_operation_xyz
x,y,z
-x,1/2+y,-z
-x,-y,-z
x,1/2-y,z
loop_
_atom_site_type_symbol
_atom_site_label
_atom_site_fract_x
_atom_site_fract_y
_atom_site_fract_z
Si Si1 0.930628 0.077819 0.290000
Si Si2 0.894960 0.579044 0.484137
Si Si3 0.547140 0.578283 0.385261
Si Si4 0.757409 0.422887 0.024677
Si Si5 0.736929 0.073601 0.263214
Si Si6 0.379039 0.577213 0.310730
Si Si7 0.432378 0.572760 0.836165
O O1 0.926874 0.250000 0.332702
O O2 0.853264 0.053092 0.107881
O O3 0.019823 0.050213 0.338605
O O4 0.918515 0.962304 0.380357
O O5 0.868205 0.750000 0.459220
O O6 0.816941 0.484540 0.432238
O O7 0.566782 0.750000 0.379360
O O8 0.455631 0.558731 0.318775
O O9 0.610771 0.520526 0.560143
O O10 0.556217 0.477479 0.282483
O O11 0.732962 0.250000 0.999675
O O12 0.739290 0.489831 0.132421
O O13 0.699189 0.492530 0.853554
O O14 0.741561 0.250000 0.269286
O O15 0.655746 0.016066 0.227277
O O16 0.367383 0.750000 0.333578
O O17 0.440135 0.750000 0.855026
O O18 0.500000 0.500000 0.000000
#
# Coordination Sequence:
#
# PCOD8072932 Si02
#       7
#     4   4   4   4   4   4   4
#     4   8  14  24  38  59  89 121 149 182 227 272
#     4   9  15  23  38  61  88 118 152 186 221 266
#     4  10  20  33  48  68  94 121 152 190 229 268
#     4   8  13  25  45  65  87 117 151 183 218 266
#     4   9  18  31  45  63  91 125 154 182 223 273
#     4   9  17  31  50  68  88 119 156 189 225 271
#     4  11  22  35  51  70  93 122 155 189 227 272
#
# _framework density 16.765084000000002
#
# number of rings (size 3 to 8) (size 9 to 14) (size 15 to 20)
#    0.000    2.857    0.000    3.000    0.000    4.571 
#    0.000    2.857    0.000    0.000    0.000    1.000 
#    0.000    0.000    0.000    0.000    0.000    0.000 
#
# Total GULP energy -346922.663716 kJ/mol
# GULP energy per Si atom -12390.095133 kJ/mol
# Density = 1.672693 g / cm^3
# Si number density = 16.765084 Si / 1000 Ang^3
#
#
#
# Elastic Constant Matrix: (Units=GPa)
#
#
# Indices 1 2 3 4 5 6 
#
# 1 75.9155 28.2863 54.9747 0.0000 17.9140 0.0000
# 2 28.2863 41.6405 29.5909 0.0000 8.6908 0.0000
# 3 54.9747 29.5909 125.8806 0.0000 23.5963 0.0000
# 4 0.0000 0.0000 0.0000 24.2363 0.0000 2.6274
# 5 17.9140 8.6908 23.5963 0.0000 27.9718 0.0000
# 6 0.0000 0.0000 0.0000 2.6274 0.0000 22.8050
#
#
#
# Elastic Compliance Matrix: (Units=1/GPa)
#
#
# Indices 1 2 3 4 5 6 
#
# 1 0.023020 -0.009639 -0.006634 0.000000 -0.006151 0.000000
# 2 -0.009639 0.033221 -0.003352 0.000000 -0.001321 0.000000
# 3 -0.006634 -0.003352 0.012636 0.000000 -0.005369 0.000000
# 4 0.000000 0.000000 0.000000 0.041782 0.000000 -0.004814
# 5 -0.006151 -0.001321 -0.005369 0.000000 0.044629 0.000000
# 6 0.000000 0.000000 0.000000 -0.004814 0.000000 0.044405
#
#
# Mechanical properties :
#
#
# Convention : Reuss Voigt Hill
#
# Bulk Modulus (GPa) = 33.75488 52.12672 42.94080
# Shear Modulus (GPa) = 20.09497 23.70826 21.90161
#
# Velocity S-wave (km/s) = 3.46587 3.76459 3.61831
# Velocity P-wave (km/s) = 6.01615 7.07504 6.56697
#
# Compressibility (1/GPa) = 0.02962535
#
# Stress axis : x y z
#
# Youngs Moduli (GPa) = 43.44061 30.10182 79.14033
#
# Poissons Ratio (x) = 0.29015 0.52505
# Poissons Ratio (y) = 0.41872 0.26528
# Poissons Ratio (z) = 0.28820 0.10090
#
# Static dielectric constant tensor:
#      x y z
#    x 3.134550 0.000000 0.419090 
#    y 0.000000 3.083170 0.000000 
#    z 0.419090 0.000000 3.417370 
# 
# 
# High freq. dielectric constant tensor:
#      x y z
#    x 1.616180 0.000000 0.038630 
#    y 0.000000 1.638670 0.000000 
#    z 0.038630 0.000000 1.641840 
# 
# From -- ./inp_files/42611.got.cif
#   From: 2010.06.25/outbox.cif.g09.slc.cpg/sg11_22_cif.got.tgz:42611.got - 2010.06.27 23:14:04.
