data_PCOD8072458
_publ_section_title
;
Structure prediction by ZEFSAII (Michael W. Deem and Ramdas Pophale) SiO2 
 PCOD8072458
Probable space group: P 21/M
;
_chemical_formula_sum "Si O2"
_cell_formula_units_Z 28
_cell_length_a 26.717415
_cell_length_b 8.435833
_cell_length_c 9.650517
_cell_angle_alpha 90.000000
_cell_angle_beta 39.533332
_cell_angle_gamma 90.000000
_cell_volume 1384.490007
_symmetry_space_group_name_H-M "P 21/M"
_symmetry_group_IT_number 11
_symmetry_cell_setting 'monoclinic'
loop_
_space_group_symop_operation_xyz
x,y,z
-x,1/2+y,-z
-x,-y,-z
x,1/2-y,z
loop_
_atom_site_type_symbol
_atom_site_label
_atom_site_fract_x
_atom_site_fract_y
_atom_site_fract_z
Si Si1 0.330232 0.071529 0.720941
Si Si2 0.775223 0.435778 0.823889
Si Si3 0.570456 0.065211 0.942936
Si Si4 0.490598 0.566607 0.368341
Si Si5 0.184162 0.071419 0.835358
Si Si6 0.086867 0.439147 0.292435
Si Si7 0.259504 0.061812 0.401982
O O1 0.362260 0.250000 0.672201
O O2 0.265772 0.063456 0.741173
O O3 0.400062 0.959053 0.518461
O O4 0.296186 0.016402 0.941318
O O5 0.771036 0.250000 0.857883
O O6 0.859115 0.499409 0.697766
O O7 0.765705 0.473162 0.682870
O O8 0.581257 0.250000 0.891557
O O9 0.549101 0.033599 0.147936
O O10 0.500000 0.000000 0.000000
O O11 0.652320 0.978045 0.736721
O O12 0.500000 0.500000 0.500000
O O13 0.513273 0.750000 0.308511
O O14 0.156958 0.250000 0.868841
O O15 0.199244 0.997281 0.650866
O O16 0.118230 0.991750 0.076338
O O17 0.090994 0.250000 0.283852
O O18 0.000000 0.500000 0.500000
O O19 0.252335 0.250000 0.398120
#
# Coordination Sequence:
#
# PCOD8072458 Si02
#       7
#     4   4   4   4   4   4   4
#     4  10  19  36  58  81 108 144 189 240 290 344
#     4  11  22  37  57  86 119 155 193 235 283 342
#     4  12  25  41  58  82 115 155 199 248 300 353
#     4  12  24  38  55  79 109 147 193 245 297 348
#     4   8  18  35  59  84 110 142 181 225 277 335
#     4  10  20  39  64  92 119 149 186 231 283 342
#     4  11  21  38  60  84 114 152 193 240 291 344
#
# _framework density 20.224055
#
# number of rings (size 3 to 8) (size 9 to 14) (size 15 to 20)
#    0.000    1.429    0.000    7.714    0.000    1.143 
#    0.000    8.571    0.000    0.000    0.000    0.000 
#    0.000    0.000    0.000    0.000    0.000    0.000 
#
# Total GULP energy -347155.831409 kJ/mol
# GULP energy per Si atom -12398.422550 kJ/mol
# Density = 2.017802 g / cm^3
# Si number density = 20.224055 Si / 1000 Ang^3
#
#
#
# Elastic Constant Matrix: (Units=GPa)
#
#
# Indices 1 2 3 4 5 6 
#
# 1 56.0709 8.4073 31.0421 0.0000 7.0125 0.0000
# 2 8.4073 71.0758 3.2680 0.0000 3.6465 0.0000
# 3 31.0421 3.2680 112.6414 0.0000 5.4427 0.0000
# 4 0.0000 0.0000 0.0000 28.0993 0.0000 -3.8115
# 5 7.0125 3.6465 5.4427 0.0000 38.5732 0.0000
# 6 0.0000 0.0000 0.0000 -3.8115 0.0000 31.2879
#
#
#
# Elastic Compliance Matrix: (Units=1/GPa)
#
#
# Indices 1 2 3 4 5 6 
#
# 1 0.021726 -0.002154 -0.005783 0.000000 -0.002930 0.000000
# 2 -0.002154 0.014365 0.000225 0.000000 -0.000998 0.000000
# 3 -0.005783 0.000225 0.010487 0.000000 -0.000450 0.000000
# 4 0.000000 0.000000 0.000000 0.036186 0.000000 0.004408
# 5 -0.002930 -0.000998 -0.000450 0.000000 0.026615 0.000000
# 6 0.000000 0.000000 0.000000 0.004408 0.000000 0.032498
#
#
# Mechanical properties :
#
#
# Convention : Reuss Voigt Hill
#
# Bulk Modulus (GPa) = 32.09885 36.13588 34.11736
# Shear Modulus (GPa) = 29.81781 32.73013 31.27397
#
# Velocity S-wave (km/s) = 3.84392 4.02727 3.93666
# Velocity P-wave (km/s) = 5.96717 6.28743 6.12939
#
# Compressibility (1/GPa) = 0.03115376
#
# Stress axis : x y z
#
# Youngs Moduli (GPa) = 46.02866 69.61317 95.35920
#
# Poissons Ratio (x) = 0.14992 0.55148
# Poissons Ratio (y) = 0.09913 -0.02145
# Poissons Ratio (z) = 0.26619 -0.01566
#
# Static dielectric constant tensor:
#      x y z
#    x 3.603350 0.000000 0.152260 
#    y 0.000000 3.799840 0.000000 
#    z 0.152260 0.000000 4.037740 
# 
# 
# High freq. dielectric constant tensor:
#      x y z
#    x 1.780240 0.000000 0.013170 
#    y 0.000000 1.787610 0.000000 
#    z 0.013170 0.000000 1.800580 
# 
# From -- ./inp_files/28279.got.cif
#   From: 2010.06.25/outbox.cif.g09.slc.cpg/sg11_15_cif.got.tgz:28279.got - 2010.06.27 23:14:04.
