data_PCOD8072971
_publ_section_title
;
Structure prediction by ZEFSAII (Michael W. Deem and Ramdas Pophale) SiO2 
 PCOD8072971
Probable space group: P 21/M
;
_chemical_formula_sum "Si O2"
_cell_formula_units_Z 28
_cell_length_a 12.717082
_cell_length_b 9.034018
_cell_length_c 13.755638
_cell_angle_alpha 90.000000
_cell_angle_beta 74.768331
_cell_angle_gamma 90.000000
_cell_volume 1524.820097
_symmetry_space_group_name_H-M "P 21/M"
_symmetry_group_IT_number 11
_symmetry_cell_setting 'monoclinic'
loop_
_space_group_symop_operation_xyz
x,y,z
-x,1/2+y,-z
-x,-y,-z
x,1/2-y,z
loop_
_atom_site_type_symbol
_atom_site_label
_atom_site_fract_x
_atom_site_fract_y
_atom_site_fract_z
Si Si1 0.311188 0.421399 0.005378
Si Si2 0.886753 0.419695 0.035796
Si Si3 0.237459 0.581903 0.736773
Si Si4 0.675539 0.918125 0.772434
Si Si5 0.874020 0.423297 0.628423
Si Si6 0.094655 0.575137 0.599935
Si Si7 0.433382 0.576057 0.810402
O O1 0.299309 0.250000 0.980545
O O2 0.196633 0.501719 0.016489
O O3 0.405977 0.492953 0.917184
O O4 0.342727 0.443928 0.109327
O O5 0.898563 0.250000 0.000653
O O6 0.848258 0.433515 0.155705
O O7 0.000000 0.500000 0.000000
O O8 0.259964 0.750000 0.702740
O O9 0.183845 0.507340 0.653919
O O10 0.354051 0.514034 0.743273
O O11 0.712840 0.750000 0.742280
O O12 0.558640 0.951449 0.750450
O O13 0.763888 0.028405 0.707818
O O14 0.889954 0.250000 0.638420
O O15 0.864893 0.467072 0.517326
O O16 0.977593 0.503234 0.651244
O O17 0.080306 0.750000 0.617722
O O18 0.409086 0.750000 0.834075
#
# Coordination Sequence:
#
# PCOD8072971 Si02
#       7
#     4   4   4   4   4   4   4
#     4  10  20  33  50  74 104 141 175 208 257 307
#     4  10  20  33  49  74 106 137 172 213 252 304
#     4   8  16  32  55  74  95 133 170 204 256 311
#     4  10  21  35  53  75 105 141 175 211 257 313
#     4  10  21  34  52  79 104 130 170 218 261 305
#     4   9  18  36  57  75 101 134 168 210 264 320
#     4   9  18  35  55  77 102 135 177 215 254 306
#
# _framework density 18.362822000000001
#
# number of rings (size 3 to 8) (size 9 to 14) (size 15 to 20)
#    0.000    2.571    0.000    2.571    2.000    2.286 
#    0.000    3.571    0.000    0.000    0.000    0.000 
#    0.000    0.000    0.000    0.000    0.000    0.000 
#
# Total GULP energy -347143.939032 kJ/mol
# GULP energy per Si atom -12397.997823 kJ/mol
# Density = 1.832103 g / cm^3
# Si number density = 18.362822 Si / 1000 Ang^3
#
#
#
# Elastic Constant Matrix: (Units=GPa)
#
#
# Indices 1 2 3 4 5 6 
#
# 1 122.4368 37.9197 50.0900 0.0000 7.2259 0.0000
# 2 37.9197 68.3161 26.5169 0.0000 -1.0869 0.0000
# 3 50.0900 26.5169 56.8248 0.0000 6.1261 0.0000
# 4 0.0000 0.0000 0.0000 25.2184 0.0000 -2.0237
# 5 7.2259 -1.0869 6.1261 0.0000 30.4798 0.0000
# 6 0.0000 0.0000 0.0000 -2.0237 0.0000 21.9287
#
#
#
# Elastic Compliance Matrix: (Units=1/GPa)
#
#
# Indices 1 2 3 4 5 6 
#
# 1 0.013472 -0.003595 -0.010058 0.000000 -0.001301 0.000000
# 2 -0.003595 0.019003 -0.005994 0.000000 0.002735 0.000000
# 3 -0.010058 -0.005994 0.029670 0.000000 -0.003793 0.000000
# 4 0.000000 0.000000 0.000000 0.039949 0.000000 0.003687
# 5 -0.001301 0.002735 -0.003793 0.000000 0.033977 0.000000
# 6 0.000000 0.000000 0.000000 0.003687 0.000000 0.045943
#
#
# Mechanical properties :
#
#
# Convention : Reuss Voigt Hill
#
# Bulk Modulus (GPa) = 43.75947 52.95899 48.35923
# Shear Modulus (GPa) = 21.84127 24.39544 23.11836
#
# Velocity S-wave (km/s) = 3.45255 3.64885 3.55205
# Velocity P-wave (km/s) = 6.30680 6.83045 6.57384
#
# Compressibility (1/GPa) = 0.02285220
#
# Stress axis : x y z
#
# Youngs Moduli (GPa) = 74.22602 52.62290 33.70438
#
# Poissons Ratio (x) = 0.18916 0.33900
# Poissons Ratio (y) = 0.26682 0.20202
# Poissons Ratio (z) = 0.74657 0.31541
#
# Static dielectric constant tensor:
#      x y z
#    x 3.437380 0.000000 0.371690 
#    y 0.000000 3.322400 0.000000 
#    z 0.371690 0.000000 3.119110 
# 
# 
# High freq. dielectric constant tensor:
#      x y z
#    x 1.727050 0.000000 0.006820 
#    y 0.000000 1.701180 0.000000 
#    z 0.006820 0.000000 1.691830 
# 
# From -- ./inp_files/38486.got.cif
#   From: 2010.06.25/outbox.cif.g09.slc.cpg/sg11_20_cif.got.tgz:38486.got - 2010.06.27 23:14:04.
