data_PCOD8072938
_publ_section_title
;
Structure prediction by ZEFSAII (Michael W. Deem and Ramdas Pophale) SiO2 
 PCOD8072938
Probable space group: P 21/M
;
_chemical_formula_sum "Si O2"
_cell_formula_units_Z 28
_cell_length_a 26.214420
_cell_length_b 9.196957
_cell_length_c 9.562070
_cell_angle_alpha 90.000000
_cell_angle_beta 140.607796
_cell_angle_gamma 90.000000
_cell_volume 1463.031759
_symmetry_space_group_name_H-M "P 21/M"
_symmetry_group_IT_number 11
_symmetry_cell_setting 'monoclinic'
loop_
_space_group_symop_operation_xyz
x,y,z
-x,1/2+y,-z
-x,-y,-z
x,1/2-y,z
loop_
_atom_site_type_symbol
_atom_site_label
_atom_site_fract_x
_atom_site_fract_y
_atom_site_fract_z
Si Si1 0.228902 0.918407 0.835690
Si Si2 0.507521 0.913999 0.376885
Si Si3 0.752732 0.422129 0.444050
Si Si4 0.569573 0.079353 0.063391
Si Si5 0.313883 0.085286 0.241148
Si Si6 0.920078 0.077847 0.281403
Si Si7 0.825802 0.922690 0.850359
O O1 0.249542 0.750000 0.881711
O O2 0.226973 0.972082 0.671192
O O3 0.145374 0.953890 0.736658
O O4 0.301404 0.993667 0.073218
O O5 0.491013 0.750000 0.384079
O O6 0.597554 0.936387 0.508263
O O7 0.500000 0.000000 0.500000
O O8 0.443665 0.964780 0.126371
O O9 0.765979 0.250000 0.491138
O O10 0.661067 0.465514 0.292442
O O11 0.815365 0.509579 0.673925
O O12 0.556019 0.250000 0.057067
O O13 0.500000 0.000000 0.000000
O O14 0.295948 0.250000 0.159786
O O15 0.255302 0.035991 0.240198
O O16 0.932738 0.250000 0.286003
O O17 0.000000 0.000000 0.500000
O O18 0.897127 0.003410 0.084773
O O19 0.842611 0.750000 0.876444
#
# Coordination Sequence:
#
# PCOD8072938 Si02
#       7
#     4   4   4   4   4   4   4
#     4   9  19  35  56  79 105 138 175 214 260 311
#     4  10  20  33  48  70  99 133 174 222 270 314
#     4  10  20  35  53  76 106 140 178 221 265 312
#     4  10  21  35  51  72 103 141 181 224 270 315
#     4   9  18  32  50  72 100 133 174 220 264 311
#     4  10  20  37  61  87 112 138 169 208 254 310
#     4  10  20  35  56  80 105 137 174 213 257 309
#
# _framework density 19.138341
#
# number of rings (size 3 to 8) (size 9 to 14) (size 15 to 20)
#    0.000    2.286    0.000    2.571    0.000    5.714 
#    0.000    0.714    0.000    0.000    0.000    0.000 
#    0.000    0.000    0.000    0.000    0.000    0.000 
#
# Total GULP energy -347130.332747 kJ/mol
# GULP energy per Si atom -12397.511884 kJ/mol
# Density = 1.909478 g / cm^3
# Si number density = 19.138341 Si / 1000 Ang^3
#
#
#
# Elastic Constant Matrix: (Units=GPa)
#
#
# Indices 1 2 3 4 5 6 
#
# 1 46.6254 24.6737 24.7234 0.0000 -12.7777 0.0000
# 2 24.6737 69.2138 51.9367 0.0000 -7.8552 0.0000
# 3 24.7234 51.9367 128.0471 0.0000 -11.1244 0.0000
# 4 0.0000 0.0000 0.0000 36.4866 0.0000 -3.2817
# 5 -12.7777 -7.8552 -11.1244 0.0000 26.8578 0.0000
# 6 0.0000 0.0000 0.0000 -3.2817 0.0000 27.9493
#
#
#
# Elastic Compliance Matrix: (Units=1/GPa)
#
#
# Indices 1 2 3 4 5 6 
#
# 1 0.029590 -0.008231 -0.001412 0.000000 0.011085 0.000000
# 2 -0.008231 0.023247 -0.007873 0.000000 -0.000378 0.000000
# 3 -0.001412 -0.007873 0.011428 0.000000 0.001759 0.000000
# 4 0.000000 0.000000 0.000000 0.027700 0.000000 0.003252
# 5 0.011085 -0.000378 0.001759 0.000000 0.043125 0.000000
# 6 0.000000 0.000000 0.000000 0.003252 0.000000 0.036161
#
#
# Mechanical properties :
#
#
# Convention : Reuss Voigt Hill
#
# Bulk Modulus (GPa) = 34.20625 49.61709 41.91167
# Shear Modulus (GPa) = 23.14535 27.76224 25.45380
#
# Velocity S-wave (km/s) = 3.48137 3.81282 3.65086
# Velocity P-wave (km/s) = 5.83711 6.73537 6.30227
#
# Compressibility (1/GPa) = 0.02923442
#
# Stress axis : x y z
#
# Youngs Moduli (GPa) = 33.79546 43.01664 87.50273
#
# Poissons Ratio (x) = 0.35407 0.12352
# Poissons Ratio (y) = 0.27817 0.68888
# Poissons Ratio (z) = 0.04771 0.33865
#
# Static dielectric constant tensor:
#      x y z
#    x 2.813790 0.000000 -0.337660 
#    y 0.000000 3.448490 0.000000 
#    z -0.337660 0.000000 3.475920 
# 
# 
# High freq. dielectric constant tensor:
#      x y z
#    x 1.731710 0.000000 -0.006050 
#    y 0.000000 1.741780 0.000000 
#    z -0.006050 0.000000 1.751020 
# 
# From -- ./inp_files/28157.got.cif
#   From: 2010.06.25/outbox.cif.g09.slc.cpg/sg11_15_cif.got.tgz:28157.got - 2010.06.27 23:14:04.
