data_PCOD8072453
_publ_section_title
;
Structure prediction by ZEFSAII (Michael W. Deem and Ramdas Pophale) SiO2 
 PCOD8072453
Probable space group: P 21/M
;
_chemical_formula_sum "Si O2"
_cell_formula_units_Z 32
_cell_length_a 24.116650
_cell_length_b 9.171629
_cell_length_c 16.209547
_cell_angle_alpha 90.000000
_cell_angle_beta 151.172380
_cell_angle_gamma 90.000000
_cell_volume 1728.780968
_symmetry_space_group_name_H-M "P 21/M"
_symmetry_group_IT_number 11
_symmetry_cell_setting 'monoclinic'
loop_
_space_group_symop_operation_xyz
x,y,z
-x,1/2+y,-z
-x,-y,-z
x,1/2-y,z
loop_
_atom_site_type_symbol
_atom_site_label
_atom_site_fract_x
_atom_site_fract_y
_atom_site_fract_z
Si Si1 0.573112 0.420343 0.483782
Si Si2 0.347519 0.577750 0.591774
Si Si3 0.670863 0.580025 0.767090
Si Si4 0.251027 0.591777 0.741630
Si Si5 0.466504 0.079166 0.038273
Si Si6 0.104101 0.924207 0.873521
Si Si7 0.080288 0.594149 0.659706
Si Si8 0.870266 0.078231 0.586467
O O1 0.601155 0.250000 0.536838
O O2 0.628299 0.475927 0.469618
O O3 0.631914 0.521344 0.627930
O O4 0.434257 0.443413 0.304880
O O5 0.351381 0.750000 0.598525
O O6 0.225391 0.526283 0.471084
O O7 0.451559 0.517182 0.783137
O O8 0.702256 0.750000 0.800888
O O9 0.783899 0.491328 0.938547
O O10 0.306632 0.750000 0.787559
O O11 0.335595 0.464777 0.880567
O O12 0.190643 0.620354 0.748859
O O13 0.171776 0.539366 0.561530
O O14 0.478906 0.250000 0.045585
O O15 0.500000 0.000000 0.000000
O O16 0.106441 0.750000 0.888081
O O17 0.110669 0.977071 0.786960
O O18 0.986503 0.989540 0.758676
O O19 0.019974 0.750000 0.599381
O O20 0.000000 0.500000 0.500000
O O21 0.895767 0.250000 0.627404
#
# Coordination Sequence:
#
# PCOD8072453 Si02
#       8
#     4   4   4   4   4   4   4   4
#     4   9  19  39  64  86 111 140 177 227 279 333
#     4   9  19  36  57  82 110 146 186 227 278 330
#     4  10  21  38  62  88 113 142 177 221 282 341
#     4  10  20  35  51  74 110 150 188 233 281 321
#     4  11  21  34  53  79 112 150 191 228 271 327
#     4  11  23  37  55  83 115 148 190 231 274 327
#     4  10  21  35  52  76 110 149 190 232 274 322
#     4  10  19  36  58  77 110 152 190 229 275 326
#
# _framework density 18.510152999999999
#
# number of rings (size 3 to 8) (size 9 to 14) (size 15 to 20)
#    0.000    2.000    2.500    1.125    1.750    2.000 
#    0.000    2.500    0.000    0.000    0.000    0.000 
#    0.000    0.000    0.000    0.000    0.000    0.000 
#
# Total GULP energy -396521.877138 kJ/mol
# GULP energy per Si atom -12391.308661 kJ/mol
# Density = 1.846802 g / cm^3
# Si number density = 18.510153 Si / 1000 Ang^3
#
#
#
# Elastic Constant Matrix: (Units=GPa)
#
#
# Indices 1 2 3 4 5 6 
#
# 1 117.4092 36.1194 52.2414 0.0000 1.3968 0.0000
# 2 36.1194 79.3305 54.4004 0.0000 7.5383 0.0000
# 3 52.2414 54.4004 124.4902 0.0000 14.2130 0.0000
# 4 0.0000 0.0000 0.0000 34.4326 0.0000 2.5976
# 5 1.3968 7.5383 14.2130 0.0000 25.9052 0.0000
# 6 0.0000 0.0000 0.0000 2.5976 0.0000 23.3956
#
#
#
# Elastic Compliance Matrix: (Units=1/GPa)
#
#
# Indices 1 2 3 4 5 6 
#
# 1 0.010950 -0.002672 -0.003679 0.000000 0.002206 0.000000
# 2 -0.002672 0.018675 -0.006865 0.000000 -0.001524 0.000000
# 3 -0.003679 -0.006865 0.013150 0.000000 -0.005018 0.000000
# 4 0.000000 0.000000 0.000000 0.029288 0.000000 -0.003252
# 5 0.002206 -0.001524 -0.005018 0.000000 0.041680 0.000000
# 6 0.000000 0.000000 0.000000 -0.003252 0.000000 0.043104
#
#
# Mechanical properties :
#
#
# Convention : Reuss Voigt Hill
#
# Bulk Modulus (GPa) = 61.19535 67.41692 64.30614
# Shear Modulus (GPa) = 26.49328 28.64457 27.56893
#
# Velocity S-wave (km/s) = 3.78734 3.93810 3.86345
# Velocity P-wave (km/s) = 7.22893 7.56167 7.39717
#
# Compressibility (1/GPa) = 0.01634111
#
# Stress axis : x y z
#
# Youngs Moduli (GPa) = 91.32298 53.54828 76.04722
#
# Poissons Ratio (x) = 0.14309 0.27980
# Poissons Ratio (y) = 0.24403 0.52209
# Poissons Ratio (z) = 0.33600 0.36762
#
# Static dielectric constant tensor:
#      x y z
#    x 3.010500 0.000000 -0.090760 
#    y 0.000000 3.085170 0.000000 
#    z -0.090760 0.000000 3.110170 
# 
# 
# High freq. dielectric constant tensor:
#      x y z
#    x 1.722140 0.000000 0.005900 
#    y 0.000000 1.712540 0.000000 
#    z 0.005900 0.000000 1.709490 
# 
# From -- ./inp_files/55692.got.cif
#   From: 2010.06.25/outbox.cif.g09.slc.cpg/sg11_28_cif.got.tgz:55692.got - 2010.06.27 23:14:04.
