data_PCOD8072187
_publ_section_title
;
Structure prediction by ZEFSAII (Michael W. Deem and Ramdas Pophale) SiO2 
 PCOD8072187
Probable space group: P 21/M
;
_chemical_formula_sum "Si O2"
_cell_formula_units_Z 26
_cell_length_a 14.666948
_cell_length_b 17.345635
_cell_length_c 11.172535
_cell_angle_alpha 90.000000
_cell_angle_beta 150.091456
_cell_angle_gamma 90.000000
_cell_volume 1417.257509
_symmetry_space_group_name_H-M "P 21/M"
_symmetry_group_IT_number 11
_symmetry_cell_setting 'monoclinic'
loop_
_space_group_symop_operation_xyz
x,y,z
-x,1/2+y,-z
-x,-y,-z
x,1/2-y,z
loop_
_atom_site_type_symbol
_atom_site_label
_atom_site_fract_x
_atom_site_fract_y
_atom_site_fract_z
Si Si1 0.960475 0.097425 0.857203
Si Si2 0.180392 0.915009 0.801252
Si Si3 0.994941 0.250000 0.037062
Si Si4 0.098038 0.750000 0.806800
Si Si5 0.588173 0.918029 0.297216
Si Si6 0.286734 0.250000 0.558073
Si Si7 0.126231 0.525186 0.480906
Si Si8 0.698302 0.979961 0.672157
O O1 0.881313 0.088173 0.633387
O O2 0.822965 0.054318 0.790851
O O3 0.953664 0.182334 0.899054
O O4 0.173585 0.071083 0.095931
O O5 0.178675 0.825842 0.837010
O O6 0.127037 0.924723 0.601927
O O7 0.381595 0.947226 0.055380
O O8 0.046008 0.967382 0.727251
O O9 0.202957 0.250000 0.326778
O O10 0.860696 0.250000 0.001882
O O11 0.880096 0.750000 0.537202
O O12 0.595143 0.826217 0.280456
O O13 0.675373 0.931951 0.525203
O O14 0.697764 0.969249 0.325349
O O15 0.500000 0.000000 0.500000
#
# Coordination Sequence:
#
# PCOD8072187 Si02
#       8
#     4   4   2   2   4   2   4   4
#     4  10  21  37  55  80 117 149 181 230 283 336
#     4  11  22  37  61  84 113 150 191 231 276 337
#     4  10  20  37  58  81 117 151 183 233 291 336
#     4  10  21  36  57  85 111 143 191 232 282 326
#     4  11  20  36  57  85 114 144 189 234 282 329
#     4  10  19  35  55  82 114 140 178 239 281 328
#     4  10  22  39  57  84 114 150 191 229 277 336
#     4  10  20  32  57  84 111 145 185 232 280 331
#
# _framework density 18.345289999999999
#
# number of rings (size 3 to 8) (size 9 to 14) (size 15 to 20)
#    0.462    1.231    3.077    1.846    6.462    0.615 
#    0.000    0.769    0.000    0.000    0.000    0.000 
#    0.000    0.000    0.000    0.000    0.000    0.000 
#
# Total GULP energy -322224.568333 kJ/mol
# GULP energy per Si atom -12393.252628 kJ/mol
# Density = 1.830354 g / cm^3
# Si number density = 18.345290 Si / 1000 Ang^3
#
#
#
# Elastic Constant Matrix: (Units=GPa)
#
#
# Indices 1 2 3 4 5 6 
#
# 1 76.2765 52.0267 22.9021 0.0000 9.3237 0.0000
# 2 52.0267 120.8664 36.1461 0.0000 -3.9821 0.0000
# 3 22.9021 36.1461 83.7773 0.0000 21.8882 0.0000
# 4 0.0000 0.0000 0.0000 10.0300 0.0000 -4.0265
# 5 9.3237 -3.9821 21.8882 0.0000 42.1208 0.0000
# 6 0.0000 0.0000 0.0000 -4.0265 0.0000 16.5563
#
#
#
# Elastic Compliance Matrix: (Units=1/GPa)
#
#
# Indices 1 2 3 4 5 6 
#
# 1 0.019626 -0.008486 -0.000416 0.000000 -0.004931 0.000000
# 2 -0.008486 0.013637 -0.005082 0.000000 0.005808 0.000000
# 3 -0.000416 -0.005082 0.016597 0.000000 -0.009013 0.000000
# 4 0.000000 0.000000 0.000000 0.110488 0.000000 0.026871
# 5 -0.004931 0.005808 -0.009013 0.000000 0.030066 0.000000
# 6 0.000000 0.000000 0.000000 0.026871 0.000000 0.066935
#
#
# Mechanical properties :
#
#
# Convention : Reuss Voigt Hill
#
# Bulk Modulus (GPa) = 45.67426 55.89667 50.78546
# Shear Modulus (GPa) = 17.08734 25.06442 21.07588
#
# Velocity S-wave (km/s) = 3.05524 3.70030 3.39314
# Velocity P-wave (km/s) = 6.11531 6.98511 6.56463
#
# Compressibility (1/GPa) = 0.02189417
#
# Stress axis : x y z
#
# Youngs Moduli (GPa) = 50.95319 73.32723 60.25037
#
# Poissons Ratio (x) = 0.62226 0.02504
# Poissons Ratio (y) = 0.43239 0.30617
# Poissons Ratio (z) = 0.02117 0.37263
#
# Static dielectric constant tensor:
#      x y z
#    x 3.336240 0.000000 0.129650 
#    y 0.000000 3.231180 0.000000 
#    z 0.129650 0.000000 3.335880 
# 
# 
# High freq. dielectric constant tensor:
#      x y z
#    x 1.705040 0.000000 0.009430 
#    y 0.000000 1.706230 0.000000 
#    z 0.009430 0.000000 1.710400 
# 
# From -- ./inp_files/39874.got.cif
#   From: 2010.06.25/outbox.cif.g09.slc.cpg/sg11_20_cif.got.tgz:39874.got - 2010.06.27 23:14:04.
