data_PCOD8072815
_publ_section_title
;
Structure prediction by ZEFSAII (Michael W. Deem and Ramdas Pophale) SiO2 
 PCOD8072815
Probable space group: P 21/M
;
_chemical_formula_sum "Si O2"
_cell_formula_units_Z 32
_cell_length_a 21.221761
_cell_length_b 9.369915
_cell_length_c 9.242506
_cell_angle_alpha 90.000000
_cell_angle_beta 89.103038
_cell_angle_gamma 90.000000
_cell_volume 1837.611041
_symmetry_space_group_name_H-M "P 21/M"
_symmetry_group_IT_number 11
_symmetry_cell_setting 'monoclinic'
loop_
_space_group_symop_operation_xyz
x,y,z
-x,1/2+y,-z
-x,-y,-z
x,1/2-y,z
loop_
_atom_site_type_symbol
_atom_site_label
_atom_site_fract_x
_atom_site_fract_y
_atom_site_fract_z
Si Si1 0.509213 0.085915 0.646356
Si Si2 0.862248 0.913204 0.951265
Si Si3 0.375647 0.915781 0.155283
Si Si4 0.442653 0.417045 0.931463
Si Si5 0.900984 0.911295 0.270331
Si Si6 0.041848 0.915250 0.233606
Si Si7 0.857982 0.411436 0.528812
Si Si8 0.233369 0.915190 0.218779
O O1 0.515305 0.250000 0.601155
O O2 0.572995 0.036681 0.726742
O O3 0.449164 0.063467 0.756982
O O4 0.500000 0.000000 0.500000
O O5 0.862760 0.750000 0.896443
O O6 0.924105 0.992037 0.889795
O O7 0.798041 0.989548 0.904461
O O8 0.863174 0.921270 0.123263
O O9 0.385394 0.750000 0.114241
O O10 0.307394 0.945714 0.225108
O O11 0.381399 0.008837 0.006351
O O12 0.444633 0.250000 0.971661
O O13 0.500000 0.500000 0.000000
O O14 0.907726 0.750000 0.324721
O O15 0.971316 0.976018 0.253648
O O16 0.858878 0.993368 0.387154
O O17 0.041562 0.750000 0.183192
O O18 0.078022 0.933867 0.383354
O O19 0.851173 0.250000 0.476646
O O20 0.797600 0.456673 0.626700
O O21 0.218453 0.750000 0.183565
#
# Coordination Sequence:
#
# PCOD8072815 Si02
#       8
#     4   4   4   4   4   4   4   4
#     4   9  18  31  49  76 107 133 157 193 238 281
#     4  10  20  32  48  72  98 124 158 201 246 292
#     4   9  18  34  55  75  96 128 169 206 239 281
#     4   9  17  30  49  75 104 131 162 198 234 275
#     4  10  20  32  47  70  99 126 155 199 251 298
#     4   9  18  33  50  69  94 125 161 199 244 297
#     4   9  18  31  49  71  94 124 162 202 242 289
#     4   9  19  37  55  70  93 127 167 206 242 285
#
# _framework density 17.413914999999999
#
# number of rings (size 3 to 8) (size 9 to 14) (size 15 to 20)
#    0.000    2.750    0.000    3.000    0.000    6.500 
#    0.000    1.250    0.000    4.500    0.000    0.000 
#    0.000    0.000    0.000    0.000    0.000    0.000 
#
# Total GULP energy -396713.761158 kJ/mol
# GULP energy per Si atom -12397.305036 kJ/mol
# Density = 1.737428 g / cm^3
# Si number density = 17.413915 Si / 1000 Ang^3
#
#
#
# Elastic Constant Matrix: (Units=GPa)
#
#
# Indices 1 2 3 4 5 6 
#
# 1 102.4910 41.9159 50.8617 0.0000 -13.2551 0.0000
# 2 41.9159 85.7126 61.7705 0.0000 -8.1174 0.0000
# 3 50.8617 61.7705 108.4948 0.0000 -11.6087 0.0000
# 4 0.0000 0.0000 0.0000 35.2247 0.0000 -2.4310
# 5 -13.2551 -8.1174 -11.6087 0.0000 15.2155 0.0000
# 6 0.0000 0.0000 0.0000 -2.4310 0.0000 23.2481
#
#
#
# Elastic Compliance Matrix: (Units=1/GPa)
#
#
# Indices 1 2 3 4 5 6 
#
# 1 0.014012 -0.003370 -0.003851 0.000000 0.007471 0.000000
# 2 -0.003370 0.020659 -0.010145 0.000000 0.000346 0.000000
# 3 -0.003851 -0.010145 0.017270 0.000000 0.004409 0.000000
# 4 0.000000 0.000000 0.000000 0.028596 0.000000 0.002990
# 5 0.007471 0.000346 0.004409 0.000000 0.075779 0.000000
# 6 0.000000 0.000000 0.000000 0.002990 0.000000 0.043327
#
#
# Mechanical properties :
#
#
# Convention : Reuss Voigt Hill
#
# Bulk Modulus (GPa) = 58.10707 67.31050 62.70878
# Shear Modulus (GPa) = 20.82364 24.21435 22.51899
#
# Velocity S-wave (km/s) = 3.46179 3.73301 3.59996
# Velocity P-wave (km/s) = 7.02989 7.57084 7.30537
#
# Compressibility (1/GPa) = 0.01720961
#
# Stress axis : x y z
#
# Youngs Moduli (GPa) = 71.36553 48.40543 57.90283
#
# Poissons Ratio (x) = 0.16310 0.22299
# Poissons Ratio (y) = 0.24047 0.58744
# Poissons Ratio (z) = 0.27484 0.49109
#
# Static dielectric constant tensor:
#      x y z
#    x 3.287410 0.000000 -0.257530 
#    y 0.000000 3.410420 0.000000 
#    z -0.257530 0.000000 3.210520 
# 
# 
# High freq. dielectric constant tensor:
#      x y z
#    x 1.656430 0.000000 -0.014390 
#    y 0.000000 1.676180 0.000000 
#    z -0.014390 0.000000 1.664140 
# 
# From -- ./inp_files/27292.got.cif
#   From: 2010.06.25/outbox.cif.g09.slc.cpg/sg11_14_cif.got.tgz:27292.got - 2010.06.27 23:14:04.
