data_PCOD8072597
_publ_section_title
;
Structure prediction by ZEFSAII (Michael W. Deem and Ramdas Pophale) SiO2 
 PCOD8072597
Probable space group: P 21/M
;
_chemical_formula_sum "Si O2"
_cell_formula_units_Z 28
_cell_length_a 8.677437
_cell_length_b 12.885974
_cell_length_c 13.061640
_cell_angle_alpha 90.000000
_cell_angle_beta 68.961428
_cell_angle_gamma 90.000000
_cell_volume 1363.156830
_symmetry_space_group_name_H-M "P 21/M"
_symmetry_group_IT_number 11
_symmetry_cell_setting 'monoclinic'
loop_
_space_group_symop_operation_xyz
x,y,z
-x,1/2+y,-z
-x,-y,-z
x,1/2-y,z
loop_
_atom_site_type_symbol
_atom_site_label
_atom_site_fract_x
_atom_site_fract_y
_atom_site_fract_z
Si Si1 0.850616 0.042993 0.471772
Si Si2 0.592374 0.130409 0.686167
Si Si3 0.383938 0.044942 0.156147
Si Si4 0.731418 0.632877 0.360559
Si Si5 0.949958 0.940809 0.139615
Si Si6 0.730666 0.033589 0.028804
Si Si7 0.952432 0.633517 0.755820
O O1 0.738084 0.112417 0.570954
O O2 0.920193 0.116745 0.366818
O O3 0.747545 0.945689 0.451110
O O4 0.000000 0.000000 0.500000
O O5 0.590538 0.250000 0.720628
O O6 0.617992 0.063814 0.782379
O O7 0.423731 0.098604 0.670113
O O8 0.571494 0.093258 0.117406
O O9 0.238375 0.116863 0.237310
O O10 0.342547 0.031785 0.047096
O O11 0.713413 0.750000 0.407370
O O12 0.894327 0.628097 0.249140
O O13 0.802805 0.950687 0.093143
O O14 0.000160 0.056668 0.163746
O O15 0.117181 0.893293 0.047017
O O16 0.972750 0.750000 0.791782
#
# Coordination Sequence:
#
# PCOD8072597 Si02
#       7
#     4   4   4   4   4   4   4
#     4  11  22  40  61  87 118 151 189 242 295 342
#     4  11  22  39  61  89 120 156 196 238 289 352
#     4  10  19  37  58  86 118 153 196 235 293 338
#     4  10  22  39  63  91 118 153 196 237 289 355
#     4   9  18  37  59  85 118 152 193 237 294 340
#     4   9  18  35  60  82 117 159 185 243 293 336
#     4  10  21  38  57  80 114 154 192 238 289 346
#
# _framework density 20.540557
#
# number of rings (size 3 to 8) (size 9 to 14) (size 15 to 20)
#    0.000    2.000    2.857    0.857    0.000    1.143 
#    0.000   15.000    0.000    0.000    0.000    0.000 
#    0.000    0.000    0.000    0.000    0.000    0.000 
#
# Total GULP energy -346964.875746 kJ/mol
# GULP energy per Si atom -12391.602705 kJ/mol
# Density = 2.049381 g / cm^3
# Si number density = 20.540557 Si / 1000 Ang^3
#
#
#
# Elastic Constant Matrix: (Units=GPa)
#
#
# Indices 1 2 3 4 5 6 
#
# 1 112.8894 32.8922 34.6271 0.0000 -10.5216 0.0000
# 2 32.8922 85.9809 17.2716 0.0000 10.3277 0.0000
# 3 34.6271 17.2716 76.4368 0.0000 -8.4312 0.0000
# 4 0.0000 0.0000 0.0000 14.9661 0.0000 1.8476
# 5 -10.5216 10.3277 -8.4312 0.0000 43.0035 0.0000
# 6 0.0000 0.0000 0.0000 1.8476 0.0000 22.1642
#
#
#
# Elastic Compliance Matrix: (Units=1/GPa)
#
#
# Indices 1 2 3 4 5 6 
#
# 1 0.011515 -0.003962 -0.003992 0.000000 0.002986 0.000000
# 2 -0.003962 0.014099 -0.001913 0.000000 -0.004730 0.000000
# 3 -0.003992 -0.001913 0.015604 0.000000 0.002542 0.000000
# 4 0.000000 0.000000 0.000000 0.067513 0.000000 -0.005628
# 5 0.002986 -0.004730 0.002542 0.000000 0.025619 0.000000
# 6 0.000000 0.000000 0.000000 -0.005628 0.000000 0.045587
#
#
# Mechanical properties :
#
#
# Convention : Reuss Voigt Hill
#
# Bulk Modulus (GPa) = 46.54545 49.43209 47.98877
# Shear Modulus (GPa) = 24.17433 28.72783 26.45108
#
# Velocity S-wave (km/s) = 3.43433 3.74383 3.59241
# Velocity P-wave (km/s) = 6.19965 6.54264 6.37345
#
# Compressibility (1/GPa) = 0.02148438
#
# Stress axis : x y z
#
# Youngs Moduli (GPa) = 86.83979 70.92927 64.08740
#
# Poissons Ratio (x) = 0.28103 0.25584
# Poissons Ratio (y) = 0.34406 0.12257
# Poissons Ratio (z) = 0.34667 0.13566
#
# Static dielectric constant tensor:
#      x y z
#    x 4.554300 0.000000 -0.997540 
#    y 0.000000 3.185090 0.000000 
#    z -0.997540 0.000000 5.108580 
# 
# 
# High freq. dielectric constant tensor:
#      x y z
#    x 1.824710 0.000000 -0.014870 
#    y 0.000000 1.752630 0.000000 
#    z -0.014870 0.000000 1.815420 
# 
# From -- ./inp_files/46936.got.cif
#   From: 2010.06.25/outbox.cif.g09.slc.cpg/sg11_24_cif.got.tgz:46936.got - 2010.06.27 23:14:04.
