data_PCOD8072981
_publ_section_title
;
Structure prediction by ZEFSAII (Michael W. Deem and Ramdas Pophale) SiO2 
 PCOD8072981
Probable space group: P 21/M
;
_chemical_formula_sum "Si O2"
_cell_formula_units_Z 28
_cell_length_a 16.287623
_cell_length_b 9.516735
_cell_length_c 10.149199
_cell_angle_alpha 90.000000
_cell_angle_beta 75.968620
_cell_angle_gamma 90.000000
_cell_volume 1526.237773
_symmetry_space_group_name_H-M "P 21/M"
_symmetry_group_IT_number 11
_symmetry_cell_setting 'monoclinic'
loop_
_space_group_symop_operation_xyz
x,y,z
-x,1/2+y,-z
-x,-y,-z
x,1/2-y,z
loop_
_atom_site_type_symbol
_atom_site_label
_atom_site_fract_x
_atom_site_fract_y
_atom_site_fract_z
Si Si1 0.886435 0.914524 0.140350
Si Si2 0.430991 0.085930 0.859421
Si Si3 0.034108 0.407380 0.162344
Si Si4 0.295108 0.416478 0.704662
Si Si5 0.080916 0.090160 0.430673
Si Si6 0.597115 0.586376 0.832180
Si Si7 0.264608 0.416534 0.426135
O O1 0.891899 0.750000 0.168723
O O2 0.793974 0.975087 0.207596
O O3 0.953787 0.990201 0.209313
O O4 0.906523 0.953589 0.981710
O O5 0.451612 0.250000 0.831780
O O6 0.369852 0.025741 0.768653
O O7 0.516921 0.000112 0.813495
O O8 0.386759 0.060675 0.018813
O O9 0.999394 0.250000 0.151787
O O10 0.091768 0.414379 0.268895
O O11 0.294821 0.250000 0.716505
O O12 0.306756 0.464940 0.548189
O O13 0.066647 0.250000 0.485503
O O14 0.168274 0.025122 0.454404
O O15 0.000000 0.000000 0.500000
O O16 0.579755 0.750000 0.809783
O O17 0.677767 0.530497 0.717778
O O18 0.257323 0.250000 0.422159
#
# Coordination Sequence:
#
# PCOD8072981 Si02
#       7
#     4   4   4   4   4   4   4
#     4   9  17  30  49  70  96 126 162 201 242 288
#     4   9  18  32  52  74  97 124 157 200 244 286
#     4   9  18  30  46  70  96 126 162 203 244 286
#     4   9  17  29  48  73  96 124 161 199 235 282
#     4  10  20  33  50  71  99 132 167 204 244 287
#     4   9  18  33  52  73  97 125 159 197 241 291
#     4   9  18  31  49  73  99 128 164 201 236 284
#
# _framework density 18.345766000000001
#
# number of rings (size 3 to 8) (size 9 to 14) (size 15 to 20)
#    0.000    2.857    0.000    0.857    2.000    2.286 
#    0.000    1.429    0.000    1.714    0.000    0.000 
#    0.000    0.000    0.000    0.000    0.000    0.000 
#
# Total GULP energy -347114.905462 kJ/mol
# GULP energy per Si atom -12396.960909 kJ/mol
# Density = 1.830401 g / cm^3
# Si number density = 18.345766 Si / 1000 Ang^3
#
#
#
# Elastic Constant Matrix: (Units=GPa)
#
#
# Indices 1 2 3 4 5 6 
#
# 1 134.0166 32.9610 72.0022 0.0000 2.9440 0.0000
# 2 32.9610 34.4461 23.5799 0.0000 -3.4000 0.0000
# 3 72.0022 23.5799 103.1700 0.0000 -3.2603 0.0000
# 4 0.0000 0.0000 0.0000 17.3304 0.0000 -1.3854
# 5 2.9440 -3.4000 -3.2603 0.0000 36.0557 0.0000
# 6 0.0000 0.0000 0.0000 -1.3854 0.0000 26.1313
#
#
#
# Elastic Compliance Matrix: (Units=1/GPa)
#
#
# Indices 1 2 3 4 5 6 
#
# 1 0.013675 -0.008003 -0.007796 0.000000 -0.002576 0.000000
# 2 -0.008003 0.039333 -0.003276 0.000000 0.004066 0.000000
# 3 -0.007796 -0.003276 0.015938 0.000000 0.001769 0.000000
# 4 0.000000 0.000000 0.000000 0.057948 0.000000 0.003072
# 5 -0.002576 0.004066 0.001769 0.000000 0.028489 0.000000
# 6 0.000000 0.000000 0.000000 0.003072 0.000000 0.038431
#
#
# Mechanical properties :
#
#
# Convention : Reuss Voigt Hill
#
# Bulk Modulus (GPa) = 32.47168 58.74653 45.60910
# Shear Modulus (GPa) = 20.64158 25.44280 23.04219
#
# Velocity S-wave (km/s) = 3.35795 3.72808 3.54785
# Velocity P-wave (km/s) = 5.72474 7.11497 6.45738
#
# Compressibility (1/GPa) = 0.03079607
#
# Stress axis : x y z
#
# Youngs Moduli (GPa) = 73.12428 25.42409 62.74183
#
# Poissons Ratio (x) = 0.20347 0.48915
# Poissons Ratio (y) = 0.58522 0.20553
# Poissons Ratio (z) = 0.57010 0.08328
#
# Static dielectric constant tensor:
#      x y z
#    x 3.462470 0.000000 0.096040 
#    y 0.000000 3.083580 0.000000 
#    z 0.096040 0.000000 3.582550 
# 
# 
# High freq. dielectric constant tensor:
#      x y z
#    x 1.708430 0.000000 0.005840 
#    y 0.000000 1.670570 0.000000 
#    z 0.005840 0.000000 1.724350 
# 
# From -- ./inp_files/21155.got.cif
#   From: 2010.06.25/outbox.cif.g09.slc.cpg/sg11_11_cif.got.tgz:21155.got - 2010.06.27 23:14:04.
