data_PCOD8072161
_publ_section_title
;
Structure prediction by ZEFSAII (Michael W. Deem and Ramdas Pophale) SiO2 
 PCOD8072161
Probable space group: P 21/M
;
_chemical_formula_sum "Si O2"
_cell_formula_units_Z 28
_cell_length_a 9.339227
_cell_length_b 20.497059
_cell_length_c 14.642007
_cell_angle_alpha 90.000000
_cell_angle_beta 30.521898
_cell_angle_gamma 90.000000
_cell_volume 1423.487406
_symmetry_space_group_name_H-M "P 21/M"
_symmetry_group_IT_number 11
_symmetry_cell_setting 'monoclinic'
loop_
_space_group_symop_operation_xyz
x,y,z
-x,1/2+y,-z
-x,-y,-z
x,1/2-y,z
loop_
_atom_site_type_symbol
_atom_site_label
_atom_site_fract_x
_atom_site_fract_y
_atom_site_fract_z
Si Si1 0.692774 0.819709 0.365609
Si Si2 0.898712 0.117648 0.733490
Si Si3 0.569542 0.568147 0.661927
Si Si4 0.302497 0.534560 0.984666
Si Si5 0.731276 0.940875 0.213341
Si Si6 0.648268 0.608908 0.060565
Si Si7 0.786079 0.322068 0.234753
O O1 0.743859 0.750000 0.285041
O O2 0.691145 0.885473 0.310397
O O3 0.388640 0.816741 0.577187
O O4 0.932079 0.823228 0.313195
O O5 0.762555 0.075712 0.890533
O O6 0.640859 0.144061 0.813223
O O7 0.113190 0.078796 0.548855
O O8 0.467915 0.503570 0.662882
O O9 0.360128 0.628708 0.756070
O O10 0.565433 0.558471 0.775528
O O11 0.053066 0.534700 0.045183
O O12 0.342204 0.460547 0.997634
O O13 0.647523 0.904587 0.167801
O O14 0.910979 0.654684 0.894993
O O15 0.812535 0.250000 0.174125
#
# Coordination Sequence:
#
# PCOD8072161 Si02
#       7
#     4   4   4   4   4   4   4
#     4   9  21  39  56  81 110 147 195 233 281 349
#     4  10  23  34  57  85 115 154 178 230 297 334
#     4  10  19  38  58  83 117 146 195 230 284 342
#     4  10  19  36  56  85 116 149 184 235 273 343
#     4  10  19  34  62  82 111 150 190 245 274 329
#     4  11  20  36  53  88 116 140 189 235 284 337
#     4  10  20  35  59  81 109 149 191 237 280 336
#
# _framework density 19.670000000000002
#
# number of rings (size 3 to 8) (size 9 to 14) (size 15 to 20)
#    0.000    2.000    2.857    1.286    2.000    5.143 
#    2.571    0.000    0.000    0.000    0.000    0.000 
#    0.000    0.000    0.000    0.000    0.000    0.000 
#
# Total GULP energy -346897.046826 kJ/mol
# GULP energy per Si atom -12389.180244 kJ/mol
# Density = 1.962523 g / cm^3
# Si number density = 19.670000 Si / 1000 Ang^3
#
#
#
# Elastic Constant Matrix: (Units=GPa)
#
#
# Indices 1 2 3 4 5 6 
#
# 1 77.4043 12.3462 44.0564 0.0000 -21.2002 0.0000
# 2 12.3462 98.2866 33.9963 0.0000 -4.9014 0.0000
# 3 44.0564 33.9963 98.2424 0.0000 -4.9611 0.0000
# 4 0.0000 0.0000 0.0000 12.1219 0.0000 0.2594
# 5 -21.2002 -4.9014 -4.9611 0.0000 31.4551 0.0000
# 6 0.0000 0.0000 0.0000 0.2594 0.0000 9.9489
#
#
#
# Elastic Compliance Matrix: (Units=1/GPa)
#
#
# Indices 1 2 3 4 5 6 
#
# 1 0.021816 0.001224 -0.009531 0.000000 0.013391 0.000000
# 2 0.001224 0.011670 -0.004489 0.000000 0.001935 0.000000
# 3 -0.009531 -0.004489 0.015772 0.000000 -0.004635 0.000000
# 4 0.000000 0.000000 0.000000 0.082542 0.000000 -0.002152
# 5 0.013391 0.001935 -0.004635 0.000000 0.040387 0.000000
# 6 0.000000 0.000000 0.000000 -0.002152 0.000000 0.100570
#
#
# Mechanical properties :
#
#
# Convention : Reuss Voigt Hill
#
# Bulk Modulus (GPa) = 42.25446 50.52569 46.39007
# Shear Modulus (GPa) = 16.32713 22.94079 19.63396
#
# Velocity S-wave (km/s) = 2.88419 3.41879 3.16281
# Velocity P-wave (km/s) = 5.71137 6.42858 6.08056
#
# Compressibility (1/GPa) = 0.02366614
#
# Stress axis : x y z
#
# Youngs Moduli (GPa) = 45.83719 85.69010 63.40187
#
# Poissons Ratio (x) = -0.10488 0.60427
# Poissons Ratio (y) = -0.05610 0.28464
# Poissons Ratio (z) = 0.43686 0.38470
#
# Static dielectric constant tensor:
#      x y z
#    x 3.485820 0.000000 -0.137050 
#    y 0.000000 3.984770 0.000000 
#    z -0.137050 0.000000 3.657130 
# 
# 
# High freq. dielectric constant tensor:
#      x y z
#    x 1.750810 0.000000 -0.001910 
#    y 0.000000 1.764300 0.000000 
#    z -0.001910 0.000000 1.767580 
# 
# From -- ./inp_files/23186.got.cif
#   From: 2010.06.25/outbox.cif.g09.slc.cpg/sg11_12_cif.got.tgz:23186.got - 2010.06.27 23:14:04.
