data_PCOD8072618
_publ_section_title
;
Structure prediction by ZEFSAII (Michael W. Deem and Ramdas Pophale) SiO2 
 PCOD8072618
Probable space group: P 21/M
;
_chemical_formula_sum "Si O2"
_cell_formula_units_Z 28
_cell_length_a 15.192027
_cell_length_b 17.500554
_cell_length_c 8.695343
_cell_angle_alpha 90.000000
_cell_angle_beta 38.583281
_cell_angle_gamma 90.000000
_cell_volume 1441.770797
_symmetry_space_group_name_H-M "P 21/M"
_symmetry_group_IT_number 11
_symmetry_cell_setting 'monoclinic'
loop_
_space_group_symop_operation_xyz
x,y,z
-x,1/2+y,-z
-x,-y,-z
x,1/2-y,z
loop_
_atom_site_type_symbol
_atom_site_label
_atom_site_fract_x
_atom_site_fract_y
_atom_site_fract_z
Si Si1 0.156573 0.415712 0.873698
Si Si2 0.357707 0.163792 0.828605
Si Si3 0.663964 0.488676 0.609641
Si Si4 0.329797 0.833783 0.542833
Si Si5 0.341900 0.480257 0.040978
Si Si6 0.039981 0.836497 0.097505
Si Si7 0.919484 0.025988 0.761179
O O1 0.269885 0.361271 0.800038
O O2 0.239482 0.472942 0.649705
O O3 0.050417 0.361989 0.926027
O O4 0.064545 0.465488 0.120242
O O5 0.315302 0.250000 0.933204
O O6 0.524161 0.157630 0.561539
O O7 0.325720 0.108724 0.016657
O O8 0.679634 0.397041 0.577701
O O9 0.715882 0.514186 0.706331
O O10 0.500513 0.512226 0.808768
O O11 0.322268 0.750000 0.473204
O O12 0.204812 0.843106 0.834505
O O13 0.246295 0.531299 0.057337
O O14 0.997739 0.750000 0.200844
O O15 0.017077 0.892464 0.273835
O O16 0.000000 0.000000 0.500000
#
# Coordination Sequence:
#
# PCOD8072618 Si02
#       7
#     4   4   4   4   4   4   4
#     4  11  22  36  62  84 113 154 195 241 279 344
#     4   9  19  37  57  84 116 151 191 234 288 340
#     4  10  19  37  60  88 115 149 198 237 281 337
#     4   9  19  34  59  84 114 148 185 234 287 340
#     4   9  21  35  59  87 117 152 193 237 283 340
#     4  11  23  39  58  87 117 150 192 240 292 343
#     4  11  23  38  59  85 119 156 193 236 288 346
#
# _framework density 19.420562
#
# number of rings (size 3 to 8) (size 9 to 14) (size 15 to 20)
#    0.000    2.000    1.429    1.714    4.000    1.714 
#    0.000    8.571    0.000    2.571    0.000    0.000 
#    0.000    0.000    0.000    0.000    0.000    0.000 
#
# Total GULP energy -347166.055019 kJ/mol
# GULP energy per Si atom -12398.787679 kJ/mol
# Density = 1.937636 g / cm^3
# Si number density = 19.420562 Si / 1000 Ang^3
#
#
#
# Elastic Constant Matrix: (Units=GPa)
#
#
# Indices 1 2 3 4 5 6 
#
# 1 114.9400 79.9057 33.9865 0.0000 7.8968 0.0000
# 2 79.9057 145.8666 51.1987 0.0000 6.9376 0.0000
# 3 33.9865 51.1987 88.9606 0.0000 15.1731 0.0000
# 4 0.0000 0.0000 0.0000 23.2034 0.0000 -1.2211
# 5 7.8968 6.9376 15.1731 0.0000 26.0310 0.0000
# 6 0.0000 0.0000 0.0000 -1.2211 0.0000 28.3262
#
#
#
# Elastic Compliance Matrix: (Units=1/GPa)
#
#
# Indices 1 2 3 4 5 6 
#
# 1 0.014229 -0.007405 -0.000860 0.000000 -0.001842 0.000000
# 2 -0.007405 0.012455 -0.004615 0.000000 0.001617 0.000000
# 3 -0.000860 -0.004615 0.015513 0.000000 -0.007552 0.000000
# 4 0.000000 0.000000 0.000000 0.043195 0.000000 0.001862
# 5 -0.001842 0.001617 -0.007552 0.000000 0.042945 0.000000
# 6 0.000000 0.000000 0.000000 0.001862 0.000000 0.035383
#
#
# Mechanical properties :
#
#
# Convention : Reuss Voigt Hill
#
# Bulk Modulus (GPa) = 60.83730 75.54990 68.19360
# Shear Modulus (GPa) = 25.64618 27.82387 26.73502
#
# Velocity S-wave (km/s) = 3.63791 3.78921 3.71433
# Velocity P-wave (km/s) = 7.00286 7.62434 7.32020
#
# Compressibility (1/GPa) = 0.01643728
#
# Stress axis : x y z
#
# Youngs Moduli (GPa) = 70.27848 80.28882 64.46002
#
# Poissons Ratio (x) = 0.59456 0.05544
# Poissons Ratio (y) = 0.52043 0.29747
# Poissons Ratio (z) = 0.06045 0.37052
#
# Static dielectric constant tensor:
#      x y z
#    x 3.732420 0.000000 -0.245960 
#    y 0.000000 3.726090 0.000000 
#    z -0.245960 0.000000 3.467950 
# 
# 
# High freq. dielectric constant tensor:
#      x y z
#    x 1.762250 0.000000 -0.021340 
#    y 0.000000 1.753970 0.000000 
#    z -0.021340 0.000000 1.748550 
# 
# From -- ./inp_files/22739.got.cif
#   From: 2010.06.25/outbox.cif.g09.slc.cpg/sg11_12_cif.got.tgz:22739.got - 2010.06.27 23:14:04.
