data_PCOD8072098
_publ_section_title
;
Structure prediction by ZEFSAII (Michael W. Deem and Ramdas Pophale) SiO2 
 PCOD8072098
Probable space group: P 21/M
;
_chemical_formula_sum "Si O2"
_cell_formula_units_Z 32
_cell_length_a 28.568353
_cell_length_b 8.926614
_cell_length_c 11.747402
_cell_angle_alpha 90.000000
_cell_angle_beta 148.332080
_cell_angle_gamma 90.000000
_cell_volume 1572.784140
_symmetry_space_group_name_H-M "P 21/M"
_symmetry_group_IT_number 11
_symmetry_cell_setting 'monoclinic'
loop_
_space_group_symop_operation_xyz
x,y,z
-x,1/2+y,-z
-x,-y,-z
x,1/2-y,z
loop_
_atom_site_type_symbol
_atom_site_label
_atom_site_fract_x
_atom_site_fract_y
_atom_site_fract_z
Si Si1 0.495469 0.427561 0.366602
Si Si2 0.827517 0.079621 0.071009
Si Si3 0.827695 0.077896 0.332898
Si Si4 0.329734 0.425885 0.871191
Si Si5 0.274656 0.572049 0.538401
Si Si6 0.668279 0.072073 0.591588
Si Si7 0.913433 0.923790 0.873980
Si Si8 0.973448 0.920881 0.248567
O O1 0.500000 0.500000 0.500000
O O2 0.499468 0.250000 0.390929
O O3 0.576260 0.487460 0.454932
O O4 0.405994 0.478625 0.116567
O O5 0.840633 0.250000 0.060708
O O6 0.748806 0.005232 0.833860
O O7 0.800305 0.064819 0.145147
O O8 0.921551 0.000306 0.243332
O O9 0.817630 0.250000 0.354834
O O10 0.927063 0.014518 0.559264
O O11 0.765358 0.968791 0.274467
O O12 0.335470 0.250000 0.860049
O O13 0.340172 0.511233 0.772449
O O14 0.266792 0.750000 0.527768
O O15 0.318650 0.517425 0.510964
O O16 0.176035 0.504580 0.353452
O O17 0.668984 0.250000 0.598852
O O18 0.911073 0.750000 0.833177
O O19 0.917635 0.942311 0.018274
O O20 0.000000 0.000000 0.000000
O O21 0.984330 0.750000 0.308247
#
# Coordination Sequence:
#
# PCOD8072098 Si02
#       8
#     4   4   4   4   4   4   4   4
#     4  10  22  42  66  93 124 156 196 245 300 364
#     4  10  19  34  58  85 114 153 199 242 290 354
#     4  10  21  37  58  84 117 159 201 241 294 362
#     4  11  24  40  60  89 122 154 195 250 304 355
#     4  11  22  39  62  85 116 159 206 251 302 363
#     4   9  19  37  61  87 117 157 200 245 300 361
#     4  11  22  36  56  83 119 162 207 256 302 353
#     4  10  21  35  52  81 117 152 194 244 298 352
#
# _framework density 20.346086
#
# number of rings (size 3 to 8) (size 9 to 14) (size 15 to 20)
#    0.000    1.750    1.250    3.000    0.000    5.000 
#    0.000    1.875    0.000    0.000    0.000    0.000 
#    0.000    0.000    0.000    0.000    0.000    0.000 
#
# Total GULP energy -396883.050801 kJ/mol
# GULP energy per Si atom -12402.595338 kJ/mol
# Density = 2.029978 g / cm^3
# Si number density = 20.346086 Si / 1000 Ang^3
#
#
#
# Elastic Constant Matrix: (Units=GPa)
#
#
# Indices 1 2 3 4 5 6 
#
# 1 116.9152 33.8601 51.0788 0.0000 5.6589 0.0000
# 2 33.8601 63.8139 34.1686 0.0000 -2.6515 0.0000
# 3 51.0788 34.1686 132.7558 0.0000 -5.2536 0.0000
# 4 0.0000 0.0000 0.0000 26.6389 0.0000 -3.2614
# 5 5.6589 -2.6515 -5.2536 0.0000 36.1732 0.0000
# 6 0.0000 0.0000 0.0000 -3.2614 0.0000 26.4201
#
#
#
# Elastic Compliance Matrix: (Units=1/GPa)
#
#
# Indices 1 2 3 4 5 6 
#
# 1 0.011415 -0.004359 -0.003373 0.000000 -0.002595 0.000000
# 2 -0.004359 0.019855 -0.003368 0.000000 0.001648 0.000000
# 3 -0.003373 -0.003368 0.009764 0.000000 0.001699 0.000000
# 4 0.000000 0.000000 0.000000 0.038115 0.000000 0.004705
# 5 -0.002595 0.001648 0.001699 0.000000 0.028418 0.000000
# 6 0.000000 0.000000 0.000000 0.004705 0.000000 0.038431
#
#
# Mechanical properties :
#
#
# Convention : Reuss Voigt Hill
#
# Bulk Modulus (GPa) = 53.09166 61.30001 57.19583
# Shear Modulus (GPa) = 28.65728 30.80493 29.73111
#
# Velocity S-wave (km/s) = 3.75706 3.89530 3.82680
# Velocity P-wave (km/s) = 6.70609 7.10107 6.90640
#
# Compressibility (1/GPa) = 0.01883535
#
# Stress axis : x y z
#
# Youngs Moduli (GPa) = 87.60688 50.36473 102.41258
#
# Poissons Ratio (x) = 0.21952 0.34541
# Poissons Ratio (y) = 0.38184 0.34493
# Poissons Ratio (z) = 0.29548 0.16963
#
# Static dielectric constant tensor:
#      x y z
#    x 3.729160 0.000000 -0.059300 
#    y 0.000000 3.470060 0.000000 
#    z -0.059300 0.000000 3.908640 
# 
# 
# High freq. dielectric constant tensor:
#      x y z
#    x 1.802760 0.000000 -0.006520 
#    y 0.000000 1.774840 0.000000 
#    z -0.006520 0.000000 1.805550 
# 
# From -- ./inp_files/45269.got.cif
#   From: 2010.06.25/outbox.cif.g09.slc.cpg/sg11_23_cif.got.tgz:45269.got - 2010.06.27 23:14:04.
