data_PCOD8072888
_publ_section_title
;
Structure prediction by ZEFSAII (Michael W. Deem and Ramdas Pophale) SiO2 
 PCOD8072888
Probable space group: P 21/M
;
_chemical_formula_sum "Si O2"
_cell_formula_units_Z 28
_cell_length_a 14.676416
_cell_length_b 17.953140
_cell_length_c 5.350744
_cell_angle_alpha 90.000000
_cell_angle_beta 111.905441
_cell_angle_gamma 90.000000
_cell_volume 1308.065106
_symmetry_space_group_name_H-M "P 21/M"
_symmetry_group_IT_number 11
_symmetry_cell_setting 'monoclinic'
loop_
_space_group_symop_operation_xyz
x,y,z
-x,1/2+y,-z
-x,-y,-z
x,1/2-y,z
loop_
_atom_site_type_symbol
_atom_site_label
_atom_site_fract_x
_atom_site_fract_y
_atom_site_fract_z
Si Si1 0.248941 0.662582 0.271502
Si Si2 0.564282 0.163780 0.261638
Si Si3 0.926478 0.661779 0.466904
Si Si4 0.607672 0.912402 0.681745
Si Si5 0.148414 0.660905 0.671901
Si Si6 0.449462 0.554475 0.139244
Si Si7 0.816391 0.661391 0.854734
O O1 0.229395 0.750000 0.246470
O O2 0.366474 0.645440 0.424428
O O3 0.193889 0.629864 0.460204
O O4 0.206827 0.627615 0.972742
O O5 0.571118 0.250000 0.200207
O O6 0.451571 0.137761 0.175661
O O7 0.610031 0.118999 0.070847
O O8 0.928424 0.750000 0.464602
O O9 0.875224 0.634099 0.669756
O O10 0.037138 0.631049 0.575249
O O11 0.869964 0.633190 0.161558
O O12 0.538319 0.905740 0.372517
O O13 0.711345 0.876863 0.732340
O O14 0.620179 0.000359 0.764642
O O15 0.153162 0.750000 0.680697
O O16 0.500000 0.500000 0.000000
O O17 0.803221 0.750000 0.841715
#
# Coordination Sequence:
#
# PCOD8072888 Si02
#       7
#     4   4   4   4   4   4   4
#     4   9  18  29  48  77 108 144 183 219 281 342
#     4  10  21  34  54  85 116 145 181 232 284 334
#     4   9  18  31  49  77 112 145 186 231 283 338
#     4  10  21  37  55  77 113 150 190 231 274 338
#     4   9  16  30  48  71 109 148 178 226 279 334
#     4   9  21  39  56  75 108 149 198 225 271 334
#     4  10  20  32  52  84 113 146 187 233 286 336
#
# _framework density 21.405664000000002
#
# number of rings (size 3 to 8) (size 9 to 14) (size 15 to 20)
#    0.000    2.571    0.000    1.286    6.000    4.571 
#    0.000    0.000    0.000    0.000    0.000    6.000 
#    0.000    0.000    0.000    0.000    0.000    0.000 
#
# Total GULP energy -346991.506674 kJ/mol
# GULP energy per Si atom -12392.553810 kJ/mol
# Density = 2.135694 g / cm^3
# Si number density = 21.405664 Si / 1000 Ang^3
#
#
#
# Elastic Constant Matrix: (Units=GPa)
#
#
# Indices 1 2 3 4 5 6 
#
# 1 112.6833 8.0397 33.8436 0.0000 3.6409 0.0000
# 2 8.0397 50.1929 19.0267 0.0000 7.2448 0.0000
# 3 33.8436 19.0267 124.7542 0.0000 -10.0992 0.0000
# 4 0.0000 0.0000 0.0000 23.9538 0.0000 1.3134
# 5 3.6409 7.2448 -10.0992 0.0000 32.3337 0.0000
# 6 0.0000 0.0000 0.0000 1.3134 0.0000 3.4297
#
#
#
# Elastic Compliance Matrix: (Units=1/GPa)
#
#
# Indices 1 2 3 4 5 6 
#
# 1 0.009786 -0.000240 -0.002773 0.000000 -0.001914 0.000000
# 2 -0.000240 0.022306 -0.003836 0.000000 -0.006169 0.000000
# 3 -0.002773 -0.003836 0.009693 0.000000 0.004199 0.000000
# 4 0.000000 0.000000 0.000000 0.042642 0.000000 -0.016330
# 5 -0.001914 -0.006169 0.004199 0.000000 0.033837 0.000000
# 6 0.000000 0.000000 0.000000 -0.016330 0.000000 0.297827
#
#
# Mechanical properties :
#
#
# Convention : Reuss Voigt Hill
#
# Bulk Modulus (GPa) = 35.60406 45.49449 40.54927
# Shear Modulus (GPa) = 11.38554 27.05814 19.22184
#
# Velocity S-wave (km/s) = 2.30878 3.55923 2.99988
# Velocity P-wave (km/s) = 4.87611 6.17984 5.56627
#
# Compressibility (1/GPa) = 0.02808669
#
# Stress axis : x y z
#
# Youngs Moduli (GPa) = 102.18336 44.83047 103.16572
#
# Poissons Ratio (x) = 0.01076 0.28610
# Poissons Ratio (y) = 0.02452 0.39578
# Poissons Ratio (z) = 0.28338 0.17198
#
# Static dielectric constant tensor:
#      x y z
#    x 3.469240 0.000000 0.017420 
#    y 0.000000 3.686970 0.000000 
#    z 0.017420 0.000000 4.240490 
# 
# 
# High freq. dielectric constant tensor:
#      x y z
#    x 1.839450 0.000000 -0.010060 
#    y 0.000000 1.794650 0.000000 
#    z -0.010060 0.000000 1.857700 
# 
# From -- ./inp_files/4881.got.cif
#   From: 2010.06.25/outbox.cif.g09.slc.cpg/sg11_3_cif.got.tgz:4881.got - 2010.06.27 23:14:04.
