data_PCOD8072431
_publ_section_title
;
Structure prediction by ZEFSAII (Michael W. Deem and Ramdas Pophale) SiO2 
 PCOD8072431
Probable space group: P 21/M
;
_chemical_formula_sum "Si O2"
_cell_formula_units_Z 24
_cell_length_a 14.907997
_cell_length_b 9.149913
_cell_length_c 15.072671
_cell_angle_alpha 90.000000
_cell_angle_beta 139.894366
_cell_angle_gamma 90.000000
_cell_volume 1324.483100
_symmetry_space_group_name_H-M "P 21/M"
_symmetry_group_IT_number 11
_symmetry_cell_setting 'monoclinic'
loop_
_space_group_symop_operation_xyz
x,y,z
-x,1/2+y,-z
-x,-y,-z
x,1/2-y,z
loop_
_atom_site_type_symbol
_atom_site_label
_atom_site_fract_x
_atom_site_fract_y
_atom_site_fract_z
Si Si1 0.104931 0.076468 0.407678
Si Si2 0.581607 0.421262 0.871085
Si Si3 0.695786 0.579494 0.597437
Si Si4 0.295340 0.575985 0.691409
Si Si5 0.209873 0.922475 0.821786
Si Si6 0.607901 0.082019 0.692356
O O1 0.117852 0.250000 0.434442
O O2 0.179331 0.030576 0.372352
O O3 0.946542 0.020644 0.281507
O O4 0.172780 0.992328 0.540774
O O5 0.546010 0.250000 0.857849
O O6 0.441794 0.513368 0.771331
O O7 0.649390 0.447173 0.825626
O O8 0.690037 0.483415 0.025224
O O9 0.700616 0.750000 0.618031
O O10 0.551471 0.530188 0.442379
O O11 0.711782 0.504420 0.705719
O O12 0.294130 0.750000 0.680333
O O13 0.268892 0.525282 0.772251
O O14 0.208582 0.750000 0.826927
O O15 0.623184 0.250000 0.678586
#
# Coordination Sequence:
#
# PCOD8072431 Si02
#       6
#     4   4   4   4   4   4
#     4  10  19  36  56  76 103 139 176 209 253 310
#     4  10  19  36  56  76 103 139 176 209 253 310
#     4   9  17  30  50  75  99 129 168 209 255 301
#     4  11  21  33  52  81 106 134 175 217 258 295
#     4   9  20  35  54  77 105 138 174 213 254 305
#     4   9  17  30  50  75  99 129 168 209 255 301
#
# _framework density 18.120276
#
# number of rings (size 3 to 8) (size 9 to 14) (size 15 to 20)
#    0.000    2.333    1.667    1.500    0.000    1.333 
#    0.000    3.333    0.000    0.000    0.000    0.000 
#    0.000    0.000    0.000    0.000    0.000    0.000 
#
# Total GULP energy -297610.536275 kJ/mol
# GULP energy per Si atom -12400.439011 kJ/mol
# Density = 1.807903 g / cm^3
# Si number density = 18.120276 Si / 1000 Ang^3
#
#
#
# Elastic Constant Matrix: (Units=GPa)
#
#
# Indices 1 2 3 4 5 6 
#
# 1 80.3946 24.8510 31.4981 0.0000 -24.1975 0.0000
# 2 24.8510 35.5623 20.0777 0.0000 -7.2695 0.0000
# 3 31.4981 20.0777 82.3271 0.0000 -6.6776 0.0000
# 4 0.0000 0.0000 0.0000 15.5469 0.0000 -9.0350
# 5 -24.1975 -7.2695 -6.6776 0.0000 26.3593 0.0000
# 6 0.0000 0.0000 0.0000 -9.0350 0.0000 25.0179
#
#
#
# Elastic Compliance Matrix: (Units=1/GPa)
#
#
# Indices 1 2 3 4 5 6 
#
# 1 0.022251 -0.009405 -0.004873 0.000000 0.016598 0.000000
# 2 -0.009405 0.037950 -0.005624 0.000000 0.000408 0.000000
# 3 -0.004873 -0.005624 0.015206 0.000000 -0.002172 0.000000
# 4 0.000000 0.000000 0.000000 0.081407 0.000000 0.029399
# 5 0.016598 0.000408 -0.002172 0.000000 0.052736 0.000000
# 6 0.000000 0.000000 0.000000 0.029399 0.000000 0.050589
#
#
# Mechanical properties :
#
#
# Convention : Reuss Voigt Hill
#
# Bulk Modulus (GPa) = 28.08686 39.01527 33.55106
# Shear Modulus (GPa) = 16.03541 21.50864 18.77203
#
# Velocity S-wave (km/s) = 2.97803 3.44901 3.22214
# Velocity P-wave (km/s) = 5.23056 6.11874 5.69200
#
# Compressibility (1/GPa) = 0.03560383
#
# Stress axis : x y z
#
# Youngs Moduli (GPa) = 44.94255 26.35035 65.76143
#
# Poissons Ratio (x) = 0.24782 0.32047
# Poissons Ratio (y) = 0.42267 0.36983
# Poissons Ratio (z) = 0.21901 0.14819
#
# Static dielectric constant tensor:
#      x y z
#    x 3.504790 0.000000 -0.119460 
#    y 0.000000 3.146070 0.000000 
#    z -0.119460 0.000000 3.486750 
# 
# 
# High freq. dielectric constant tensor:
#      x y z
#    x 1.712640 0.000000 -0.012320 
#    y 0.000000 1.681690 0.000000 
#    z -0.012320 0.000000 1.691610 
# 
# From -- ./inp_files/17042.got.cif
#   From: 2010.06.25/outbox.cif.g09.slc.cpg/sg11_9_cif.got.tgz:17042.got - 2010.06.27 23:14:04.
