data_PCOD8072725
_publ_section_title
;
Structure prediction by ZEFSAII (Michael W. Deem and Ramdas Pophale) SiO2 
 PCOD8072725
Probable space group: P 21/M
;
_chemical_formula_sum "Si O2"
_cell_formula_units_Z 20
_cell_length_a 10.419949
_cell_length_b 21.649669
_cell_length_c 6.959790
_cell_angle_alpha 90.000000
_cell_angle_beta 40.877641
_cell_angle_gamma 90.000000
_cell_volume 1027.511463
_symmetry_space_group_name_H-M "P 21/M"
_symmetry_group_IT_number 11
_symmetry_cell_setting 'monoclinic'
loop_
_space_group_symop_operation_xyz
x,y,z
-x,1/2+y,-z
-x,-y,-z
x,1/2-y,z
loop_
_atom_site_type_symbol
_atom_site_label
_atom_site_fract_x
_atom_site_fract_y
_atom_site_fract_z
Si Si1 0.683450 0.320403 0.305702
Si Si2 0.004522 0.359621 0.663276
Si Si3 0.245467 0.889318 0.379686
Si Si4 0.586642 0.616024 0.693095
Si Si5 0.885785 0.983160 0.319014
O O1 0.630954 0.250000 0.413277
O O2 0.699887 0.357711 0.483480
O O3 0.509909 0.349201 0.375770
O O4 0.887434 0.322795 0.959536
O O5 0.234497 0.341960 0.421853
O O6 0.976581 0.434035 0.724279
O O7 0.912807 0.346440 0.556140
O O8 0.150393 0.955978 0.517719
O O9 0.438263 0.896946 0.033022
O O10 0.677056 0.551191 0.512642
O O11 0.000000 0.000000 0.000000
#
# Coordination Sequence:
#
# PCOD8072725 Si02
#       5
#     4   4   4   4   4
#     4  11  24  42  60  84 119 163 210 248 290 352
#     4   9  22  41  60  90 121 159 191 249 302 359
#     4  11  20  38  63  93 121 155 200 245 306 356
#     4   9  23  39  60  91 123 156 193 249 302 359
#     4  10  19  39  64  91 128 156 190 243 313 372
#
# _framework density 19.464502
#
# number of rings (size 3 to 8) (size 9 to 14) (size 15 to 20)
#    1.200    0.800    2.000    1.200    0.000    8.000 
#    0.000    0.000    0.000    0.000    0.000    0.000 
#    0.000    0.000    0.000    0.000    0.000    0.000 
#
# Total GULP energy -247830.383208 kJ/mol
# GULP energy per Si atom -12391.519160 kJ/mol
# Density = 1.942020 g / cm^3
# Si number density = 19.464502 Si / 1000 Ang^3
#
#
#
# Elastic Constant Matrix: (Units=GPa)
#
#
# Indices 1 2 3 4 5 6 
#
# 1 115.8809 6.5811 54.8484 0.0000 3.8886 0.0000
# 2 6.5811 62.5252 12.6651 0.0000 14.1360 0.0000
# 3 54.8484 12.6651 83.1888 0.0000 -0.2692 0.0000
# 4 0.0000 0.0000 0.0000 4.2837 0.0000 -5.4987
# 5 3.8886 14.1360 -0.2692 0.0000 24.0715 0.0000
# 6 0.0000 0.0000 0.0000 -5.4987 0.0000 9.9750
#
#
#
# Elastic Compliance Matrix: (Units=1/GPa)
#
#
# Indices 1 2 3 4 5 6 
#
# 1 0.012707 0.001013 -0.008541 0.000000 -0.002743 0.000000
# 2 0.001013 0.019221 -0.003631 0.000000 -0.011491 0.000000
# 3 -0.008541 -0.003631 0.018217 0.000000 0.003716 0.000000
# 4 0.000000 0.000000 0.000000 0.798326 0.000000 0.440075
# 5 -0.002743 -0.011491 0.003716 0.000000 0.048776 0.000000
# 6 0.000000 0.000000 0.000000 0.440075 0.000000 0.342841
#
#
# Mechanical properties :
#
#
# Convention : Reuss Voigt Hill
#
# Bulk Modulus (GPa) = 35.93822 45.53155 40.73489
# Shear Modulus (GPa) = 3.93180 20.16605 12.04893
#
# Velocity S-wave (km/s) = 1.42280 3.22225 2.49071
# Velocity P-wave (km/s) = 4.60464 6.10629 5.40784
#
# Compressibility (1/GPa) = 0.02782553
#
# Stress axis : x y z
#
# Youngs Moduli (GPa) = 78.69924 52.02775 54.89414
#
# Poissons Ratio (x) = -0.05269 0.46884
# Poissons Ratio (y) = -0.07970 0.19933
# Poissons Ratio (z) = 0.67216 0.18892
#
# Static dielectric constant tensor:
#      x y z
#    x 3.600270 0.000000 -0.075220 
#    y 0.000000 3.402500 0.000000 
#    z -0.075220 0.000000 3.516000 
# 
# 
# High freq. dielectric constant tensor:
#      x y z
#    x 1.762940 0.000000 -0.000590 
#    y 0.000000 1.741450 0.000000 
#    z -0.000590 0.000000 1.761100 
# 
# From -- ./inp_files/5516.got.cif
#   From: 2010.06.25/outbox.cif.g09.slc.cpg/sg11_3_cif.got.tgz:5516.got - 2010.06.27 23:14:04.
