data_PCOD8072878
_publ_section_title
;
Structure prediction by ZEFSAII (Michael W. Deem and Ramdas Pophale) SiO2 
 PCOD8072878
Probable space group: P 21/M
;
_chemical_formula_sum "Si O2"
_cell_formula_units_Z 28
_cell_length_a 13.668068
_cell_length_b 9.181622
_cell_length_c 14.056069
_cell_angle_alpha 90.000000
_cell_angle_beta 119.196303
_cell_angle_gamma 90.000000
_cell_volume 1539.861136
_symmetry_space_group_name_H-M "P 21/M"
_symmetry_group_IT_number 11
_symmetry_cell_setting 'monoclinic'
loop_
_space_group_symop_operation_xyz
x,y,z
-x,1/2+y,-z
-x,-y,-z
x,1/2-y,z
loop_
_atom_site_type_symbol
_atom_site_label
_atom_site_fract_x
_atom_site_fract_y
_atom_site_fract_z
Si Si1 0.673063 0.082496 0.590147
Si Si2 0.122360 0.086017 0.357230
Si Si3 0.885441 0.583035 0.434462
Si Si4 0.496742 0.917961 0.141151
Si Si5 0.527622 0.582437 0.372031
Si Si6 0.863624 0.077138 0.243993
Si Si7 0.326730 0.419098 0.938606
O O1 0.692377 0.250000 0.577049
O O2 0.598016 0.056677 0.648038
O O3 0.795152 0.011735 0.667400
O O4 0.614681 0.015074 0.470071
O O5 0.128818 0.250000 0.321864
O O6 0.171356 0.077795 0.488670
O O7 0.993444 0.032826 0.288433
O O8 0.903907 0.750000 0.411141
O O9 0.817894 0.498020 0.320054
O O10 0.000000 0.500000 0.500000
O O11 0.457871 0.750000 0.118490
O O12 0.531453 0.963285 0.263808
O O13 0.602395 0.945013 0.123464
O O14 0.393646 0.019124 0.060672
O O15 0.563457 0.750000 0.402759
O O16 0.848645 0.250000 0.244360
O O17 0.788810 0.010157 0.124107
O O18 0.299792 0.250000 0.942788
#
# Coordination Sequence:
#
# PCOD8072878 Si02
#       7
#     4   4   4   4   4   4   4
#     4  10  20  32  51  79 103 130 171 213 249 293
#     4   9  19  33  48  68 100 138 168 201 251 302
#     4   9  17  29  44  65  95 131 168 202 243 293
#     4   9  19  36  55  73  99 136 168 203 254 306
#     4   9  19  36  54  73 102 136 168 206 256 304
#     4  10  20  33  49  71 101 137 170 205 250 303
#     4  10  20  33  52  79 104 130 167 210 251 299
#
# _framework density 18.183458000000002
#
# number of rings (size 3 to 8) (size 9 to 14) (size 15 to 20)
#    0.000    2.571    0.000    2.571    2.000    5.143 
#    0.000    0.000    0.000    0.857    0.000    0.000 
#    0.000    0.000    0.000    0.000    0.000    0.000 
#
# Total GULP energy -347110.444589 kJ/mol
# GULP energy per Si atom -12396.801592 kJ/mol
# Density = 1.814207 g / cm^3
# Si number density = 18.183458 Si / 1000 Ang^3
#
#
#
# Elastic Constant Matrix: (Units=GPa)
#
#
# Indices 1 2 3 4 5 6 
#
# 1 64.2085 36.8066 17.6035 0.0000 9.8711 0.0000
# 2 36.8066 98.0140 27.0990 0.0000 11.9389 0.0000
# 3 17.6035 27.0990 53.8355 0.0000 3.6064 0.0000
# 4 0.0000 0.0000 0.0000 31.2165 0.0000 5.3148
# 5 9.8711 11.9389 3.6064 0.0000 25.8547 0.0000
# 6 0.0000 0.0000 0.0000 5.3148 0.0000 29.2422
#
#
#
# Elastic Compliance Matrix: (Units=1/GPa)
#
#
# Indices 1 2 3 4 5 6 
#
# 1 0.020821 -0.006350 -0.003307 0.000000 -0.004556 0.000000
# 2 -0.006350 0.014379 -0.004925 0.000000 -0.003528 0.000000
# 3 -0.003307 -0.004925 0.022105 0.000000 0.000453 0.000000
# 4 0.000000 0.000000 0.000000 0.033057 0.000000 -0.006008
# 5 -0.004556 -0.003528 0.000453 0.000000 0.041983 0.000000
# 6 0.000000 0.000000 0.000000 -0.006008 0.000000 0.035289
#
#
# Mechanical properties :
#
#
# Convention : Reuss Voigt Hill
#
# Bulk Modulus (GPa) = 35.53439 42.11958 38.82699
# Shear Modulus (GPa) = 24.25090 26.23261 25.24176
#
# Velocity S-wave (km/s) = 3.65592 3.80236 3.72986
# Velocity P-wave (km/s) = 6.11601 6.51853 6.32048
#
# Compressibility (1/GPa) = 0.02814175
#
# Stress axis : x y z
#
# Youngs Moduli (GPa) = 48.02820 69.54816 45.23839
#
# Poissons Ratio (x) = 0.44160 0.14960
# Poissons Ratio (y) = 0.30496 0.22280
# Poissons Ratio (z) = 0.15882 0.34253
#
# Static dielectric constant tensor:
#      x y z
#    x 3.269740 0.000000 -0.000800 
#    y 0.000000 3.506870 0.000000 
#    z -0.000800 0.000000 3.287130 
# 
# 
# High freq. dielectric constant tensor:
#      x y z
#    x 1.689920 0.000000 0.014550 
#    y 0.000000 1.714020 0.000000 
#    z 0.014550 0.000000 1.682340 
# 
# From -- ./inp_files/51441.got.cif
#   From: 2010.06.25/outbox.cif.g09.slc.cpg/sg11_26_cif.got.tgz:51441.got - 2010.06.27 23:14:04.
