data_PCOD8072072
_publ_section_title
;
Structure prediction by ZEFSAII (Michael W. Deem and Ramdas Pophale) SiO2 
 PCOD8072072
Probable space group: P 21/M
;
_chemical_formula_sum "Si O2"
_cell_formula_units_Z 32
_cell_length_a 15.494860
_cell_length_b 8.840778
_cell_length_c 11.974504
_cell_angle_alpha 90.000000
_cell_angle_beta 90.053046
_cell_angle_gamma 90.000000
_cell_volume 1640.346095
_symmetry_space_group_name_H-M "P 21/M"
_symmetry_group_IT_number 11
_symmetry_cell_setting 'monoclinic'
loop_
_space_group_symop_operation_xyz
x,y,z
-x,1/2+y,-z
-x,-y,-z
x,1/2-y,z
loop_
_atom_site_type_symbol
_atom_site_label
_atom_site_fract_x
_atom_site_fract_y
_atom_site_fract_z
Si Si1 0.656625 0.571870 0.242205
Si Si2 0.165349 0.927394 0.764228
Si Si3 0.497249 0.569816 0.621261
Si Si4 0.093330 0.927815 0.003097
Si Si5 0.845732 0.928156 0.774990
Si Si6 0.999458 0.428262 0.379314
Si Si7 0.407208 0.428003 0.997831
Si Si8 0.654896 0.927642 0.767693
O O1 0.645728 0.750000 0.261893
O O2 0.752030 0.520301 0.277978
O O3 0.588488 0.483909 0.317242
O O4 0.643499 0.523546 0.113443
O O5 0.183952 0.750000 0.752502
O O6 0.085999 0.978149 0.686350
O O7 0.144079 0.972354 0.891105
O O8 0.500000 0.500000 0.500000
O O9 0.497523 0.750000 0.613593
O O10 0.581507 0.504838 0.686526
O O11 0.081364 0.750000 0.012691
O O12 0.146934 0.989823 0.106853
O O13 0.000000 0.000000 0.000000
O O14 0.856590 0.750000 0.796566
O O15 0.917405 0.988228 0.688946
O O16 0.751128 0.968405 0.724984
O O17 0.004759 0.250000 0.392286
O O18 0.000000 0.500000 0.500000
O O19 0.419403 0.250000 0.001767
O O20 0.355736 0.489355 0.105850
O O21 0.500000 0.500000 0.000000
O O22 0.641324 0.750000 0.769688
#
# Coordination Sequence:
#
# PCOD8072072 Si02
#       8
#     4   4   4   4   4   4   4   4
#     4  11  23  38  61  92 119 153 201 247 296 354
#     4  10  22  40  59  86 123 159 193 239 300 354
#     4  11  23  41  62  86 120 160 202 249 297 351
#     4  11  21  36  60  90 123 157 192 235 295 358
#     4  10  20  39  62  86 118 153 194 244 292 349
#     4  10  22  40  60  84 116 155 198 245 295 346
#     4  10  19  34  57  87 118 150 188 233 291 355
#     4   9  19  36  61  87 116 155 192 234 296 352
#
# _framework density 19.508078000000001
#
# number of rings (size 3 to 8) (size 9 to 14) (size 15 to 20)
#    0.000    1.750    2.500    1.875    0.000    4.500 
#    0.000    3.125    0.000    0.000    0.000    0.000 
#    0.000    0.000    0.000    0.000    0.000    0.000 
#
# Total GULP energy -396850.256917 kJ/mol
# GULP energy per Si atom -12401.570529 kJ/mol
# Density = 1.946368 g / cm^3
# Si number density = 19.508078 Si / 1000 Ang^3
#
#
#
# Elastic Constant Matrix: (Units=GPa)
#
#
# Indices 1 2 3 4 5 6 
#
# 1 171.0709 39.5583 78.7055 0.0000 -1.5667 0.0000
# 2 39.5583 49.7157 41.5973 0.0000 -1.4604 0.0000
# 3 78.7055 41.5973 160.6648 0.0000 0.5771 0.0000
# 4 0.0000 0.0000 0.0000 33.4684 0.0000 0.4551
# 5 -1.5667 -1.4604 0.5771 0.0000 13.2371 0.0000
# 6 0.0000 0.0000 0.0000 0.4551 0.0000 26.8387
#
#
#
# Elastic Compliance Matrix: (Units=1/GPa)
#
#
# Indices 1 2 3 4 5 6 
#
# 1 0.008131 -0.003978 -0.002956 0.000000 0.000652 0.000000
# 2 -0.003978 0.027752 -0.005247 0.000000 0.002820 0.000000
# 3 -0.002956 -0.005247 0.009035 0.000000 -0.001323 0.000000
# 4 0.000000 0.000000 0.000000 0.029886 0.000000 -0.000507
# 5 0.000652 0.002820 -0.001323 0.000000 0.075991 0.000000
# 6 0.000000 0.000000 0.000000 -0.000507 0.000000 0.037268
#
#
# Mechanical properties :
#
#
# Convention : Reuss Voigt Hill
#
# Bulk Modulus (GPa) = 48.64237 77.90816 63.27527
# Shear Modulus (GPa) = 22.80220 29.48154 26.14187
#
# Velocity S-wave (km/s) = 3.42257 3.89169 3.66465
# Velocity P-wave (km/s) = 6.37238 7.75995 7.10014
#
# Compressibility (1/GPa) = 0.02055821
#
# Stress axis : x y z
#
# Youngs Moduli (GPa) = 122.98370 36.03315 110.67735
#
# Poissons Ratio (x) = 0.14333 0.32713
# Poissons Ratio (y) = 0.48919 0.58071
# Poissons Ratio (z) = 0.36351 0.18906
#
# Static dielectric constant tensor:
#      x y z
#    x 3.655670 0.000000 0.000280 
#    y 0.000000 3.424580 0.000000 
#    z 0.000280 0.000000 3.694010 
# 
# 
# High freq. dielectric constant tensor:
#      x y z
#    x 1.776600 0.000000 -0.000110 
#    y 0.000000 1.744270 0.000000 
#    z -0.000110 0.000000 1.761150 
# 
# From -- ./inp_files/38213.got.cif
#   From: 2010.06.25/outbox.cif.g09.slc.cpg/sg11_20_cif.got.tgz:38213.got - 2010.06.27 23:14:04.
