data_PCOD8072196
_publ_section_title
;
Structure prediction by ZEFSAII (Michael W. Deem and Ramdas Pophale) SiO2 
 PCOD8072196
Probable space group: P 21/M
;
_chemical_formula_sum "Si O2"
_cell_formula_units_Z 20
_cell_length_a 19.210298
_cell_length_b 9.014356
_cell_length_c 12.513407
_cell_angle_alpha 90.000000
_cell_angle_beta 28.894496
_cell_angle_gamma 90.000000
_cell_volume 1047.055635
_symmetry_space_group_name_H-M "P 21/M"
_symmetry_group_IT_number 11
_symmetry_cell_setting 'monoclinic'
loop_
_space_group_symop_operation_xyz
x,y,z
-x,1/2+y,-z
-x,-y,-z
x,1/2-y,z
loop_
_atom_site_type_symbol
_atom_site_label
_atom_site_fract_x
_atom_site_fract_y
_atom_site_fract_z
Si Si1 0.674871 0.925154 0.928922
Si Si2 0.639591 0.422162 0.572174
Si Si3 0.185656 0.922914 0.453877
Si Si4 0.137220 0.074093 0.127052
Si Si5 0.645103 0.926005 0.345725
O O1 0.684177 0.750000 0.903527
O O2 0.787011 0.984877 0.866982
O O3 0.709057 0.996934 0.769714
O O4 0.515693 0.974733 0.177158
O O5 0.633816 0.250000 0.546312
O O6 0.758782 0.452503 0.501646
O O7 0.685048 0.519870 0.410072
O O8 0.188297 0.750000 0.422627
O O9 0.024607 0.989766 0.661232
O O10 0.133407 0.250000 0.133270
O O11 0.226321 0.020358 0.904350
O O12 0.625697 0.750000 0.369417
O O13 0.500000 0.000000 0.500000
#
# Coordination Sequence:
#
# PCOD8072196 Si02
#       5
#     4   4   4   4   4
#     4  10  19  35  56  77 111 149 181 223 270 316
#     4  10  21  37  56  81 113 145 179 224 272 317
#     4  10  21  36  55  81 112 145 182 222 269 324
#     4   9  19  36  56  79 111 145 175 224 280 315
#     4  11  21  37  60  82 108 142 183 225 271 325
#
# _framework density 19.101181
#
# number of rings (size 3 to 8) (size 9 to 14) (size 15 to 20)
#    0.000    2.000    2.000    1.800    0.000    2.400 
#    0.000    2.000    0.000    0.000    0.000    0.000 
#    0.000    0.000    0.000    0.000    0.000    0.000 
#
# Total GULP energy -248066.944268 kJ/mol
# GULP energy per Si atom -12403.347213 kJ/mol
# Density = 1.905771 g / cm^3
# Si number density = 19.101181 Si / 1000 Ang^3
#
#
#
# Elastic Constant Matrix: (Units=GPa)
#
#
# Indices 1 2 3 4 5 6 
#
# 1 80.4166 23.6272 21.2782 0.0000 1.6117 0.0000
# 2 23.6272 39.2743 18.4396 0.0000 10.2602 0.0000
# 3 21.2782 18.4396 67.5412 0.0000 7.6937 0.0000
# 4 0.0000 0.0000 0.0000 22.5465 0.0000 10.7461
# 5 1.6117 10.2602 7.6937 0.0000 43.0157 0.0000
# 6 0.0000 0.0000 0.0000 10.7461 0.0000 27.1724
#
#
#
# Elastic Compliance Matrix: (Units=1/GPa)
#
#
# Indices 1 2 3 4 5 6 
#
# 1 0.015673 -0.008626 -0.002807 0.000000 0.001972 0.000000
# 2 -0.008626 0.035366 -0.006139 0.000000 -0.007014 0.000000
# 3 -0.002807 -0.006139 0.017545 0.000000 -0.001569 0.000000
# 4 0.000000 0.000000 0.000000 0.054655 0.000000 -0.021615
# 5 0.001972 -0.007014 -0.001569 0.000000 0.025127 0.000000
# 6 0.000000 0.000000 0.000000 -0.021615 0.000000 0.045350
#
#
# Mechanical properties :
#
#
# Convention : Reuss Voigt Hill
#
# Bulk Modulus (GPa) = 29.90466 34.88024 32.39245
# Shear Modulus (GPa) = 20.83277 26.80606 23.81941
#
# Velocity S-wave (km/s) = 3.30609 3.75022 3.53514
# Velocity P-wave (km/s) = 5.50123 6.08709 5.80156
#
# Compressibility (1/GPa) = 0.03343961
#
# Stress axis : x y z
#
# Youngs Moduli (GPa) = 63.80437 28.27580 56.99683
#
# Poissons Ratio (x) = 0.24391 0.16001
# Poissons Ratio (y) = 0.55037 0.34989
# Poissons Ratio (z) = 0.17912 0.17358
#
# Static dielectric constant tensor:
#      x y z
#    x 3.660750 0.000000 -0.062210 
#    y 0.000000 3.246770 0.000000 
#    z -0.062210 0.000000 3.693130 
# 
# 
# High freq. dielectric constant tensor:
#      x y z
#    x 1.756330 0.000000 0.000650 
#    y 0.000000 1.716700 0.000000 
#    z 0.000650 0.000000 1.751150 
# 
# From -- ./inp_files/16058.got.cif
#   From: 2010.06.25/outbox.cif.g09.slc.cpg/sg11_9_cif.got.tgz:16058.got - 2010.06.27 23:14:04.
