data_PCOD8072358
_publ_section_title
;
Structure prediction by ZEFSAII (Michael W. Deem and Ramdas Pophale) SiO2 
 PCOD8072358
Probable space group: P 21/M
;
_chemical_formula_sum "Si O2"
_cell_formula_units_Z 28
_cell_length_a 11.868107
_cell_length_b 9.206611
_cell_length_c 14.929327
_cell_angle_alpha 90.000000
_cell_angle_beta 118.155078
_cell_angle_gamma 90.000000
_cell_volume 1438.233343
_symmetry_space_group_name_H-M "P 21/M"
_symmetry_group_IT_number 11
_symmetry_cell_setting 'monoclinic'
loop_
_space_group_symop_operation_xyz
x,y,z
-x,1/2+y,-z
-x,-y,-z
x,1/2-y,z
loop_
_atom_site_type_symbol
_atom_site_label
_atom_site_fract_x
_atom_site_fract_y
_atom_site_fract_z
Si Si1 0.770134 0.916823 0.688703
Si Si2 0.880399 0.582187 0.998767
Si Si3 0.990950 0.585388 0.223131
Si Si4 0.090398 0.077834 0.607396
Si Si5 0.371472 0.081178 0.186894
Si Si6 0.383345 0.910443 0.492610
Si Si7 0.648539 0.086722 0.310938
O O1 0.781946 0.750000 0.666506
O O2 0.659567 0.944207 0.720014
O O3 0.744055 0.008652 0.588987
O O4 0.903359 0.975857 0.776332
O O5 0.889501 0.750000 0.970108
O O6 0.878921 0.572212 0.106886
O O7 0.744079 0.513103 0.915677
O O8 0.000000 0.500000 0.000000
O O9 0.043506 0.750000 0.245385
O O10 0.950651 0.537287 0.307351
O O11 0.085363 0.250000 0.587616
O O12 0.235940 0.023667 0.658722
O O13 0.000000 0.000000 0.500000
O O14 0.377177 0.250000 0.167687
O O15 0.515249 0.022195 0.218269
O O16 0.390054 0.750000 0.452851
O O17 0.381471 0.899284 0.596807
O O18 0.500000 0.000000 0.500000
O O19 0.681327 0.250000 0.286858
#
# Coordination Sequence:
#
# PCOD8072358 Si02
#       7
#     4   4   4   4   4   4   4
#     4  11  20  33  54  83 115 149 190 233 282 346
#     4  10  19  35  59  86 117 153 189 234 291 347
#     4  10  22  38  57  84 117 151 190 241 296 342
#     4  11  24  42  61  84 114 152 198 242 286 342
#     4   9  18  34  55  82 115 148 182 227 284 343
#     4  11  21  33  51  79 114 148 184 230 287 347
#     4  10  21  39  58  79 113 153 192 236 286 341
#
# _framework density 19.468329000000001
#
# number of rings (size 3 to 8) (size 9 to 14) (size 15 to 20)
#    0.000    1.714    2.857    2.143    0.000    5.714 
#    0.000    1.429    0.000    0.000    0.000    0.000 
#    0.000    0.000    0.000    0.000    0.000    0.000 
#
# Total GULP energy -346959.490059 kJ/mol
# GULP energy per Si atom -12391.410359 kJ/mol
# Density = 1.942402 g / cm^3
# Si number density = 19.468329 Si / 1000 Ang^3
#
#
#
# Elastic Constant Matrix: (Units=GPa)
#
#
# Indices 1 2 3 4 5 6 
#
# 1 101.1672 42.5633 42.6691 0.0000 25.8995 0.0000
# 2 42.5633 93.8999 37.8878 0.0000 8.3720 0.0000
# 3 42.6691 37.8878 114.0466 0.0000 20.9836 0.0000
# 4 0.0000 0.0000 0.0000 23.2027 0.0000 4.9693
# 5 25.8995 8.3720 20.9836 0.0000 36.6508 0.0000
# 6 0.0000 0.0000 0.0000 4.9693 0.0000 30.0256
#
#
#
# Elastic Compliance Matrix: (Units=1/GPa)
#
#
# Indices 1 2 3 4 5 6 
#
# 1 0.015179 -0.005159 -0.002468 0.000000 -0.008134 0.000000
# 2 -0.005159 0.014061 -0.003153 0.000000 0.002239 0.000000
# 3 -0.002468 -0.003153 0.011497 0.000000 -0.004118 0.000000
# 4 0.000000 0.000000 0.000000 0.044682 0.000000 -0.007395
# 5 -0.008134 0.002239 -0.004118 0.000000 0.034879 0.000000
# 6 0.000000 0.000000 0.000000 -0.007395 0.000000 0.034529
#
#
# Mechanical properties :
#
#
# Convention : Reuss Voigt Hill
#
# Bulk Modulus (GPa) = 52.14921 61.70601 56.92761
# Shear Modulus (GPa) = 27.35544 30.37536 28.86540
#
# Velocity S-wave (km/s) = 3.75257 3.95428 3.85474
# Velocity P-wave (km/s) = 6.75430 7.25347 7.00833
#
# Compressibility (1/GPa) = 0.01917575
#
# Stress axis : x y z
#
# Youngs Moduli (GPa) = 65.88176 71.12020 86.97965
#
# Poissons Ratio (x) = 0.36691 0.21470
# Poissons Ratio (y) = 0.33989 0.27424
# Poissons Ratio (z) = 0.16262 0.22424
#
# Static dielectric constant tensor:
#      x y z
#    x 3.359200 0.000000 -0.092540 
#    y 0.000000 3.654740 0.000000 
#    z -0.092540 0.000000 3.511780 
# 
# 
# High freq. dielectric constant tensor:
#      x y z
#    x 1.741630 0.000000 0.020570 
#    y 0.000000 1.747350 0.000000 
#    z 0.020570 0.000000 1.768110 
# 
# From -- ./inp_files/38489.got.cif
#   From: 2010.06.25/outbox.cif.g09.slc.cpg/sg11_20_cif.got.tgz:38489.got - 2010.06.27 23:14:04.
