data_PCOD8072352
_publ_section_title
;
Structure prediction by ZEFSAII (Michael W. Deem and Ramdas Pophale) SiO2 
 PCOD8072352
Probable space group: P 21/M
;
_chemical_formula_sum "Si O2"
_cell_formula_units_Z 32
_cell_length_a 20.046825
_cell_length_b 8.945463
_cell_length_c 25.839442
_cell_angle_alpha 90.000000
_cell_angle_beta 21.420195
_cell_angle_gamma 90.000000
_cell_volume 1692.264273
_symmetry_space_group_name_H-M "P 21/M"
_symmetry_group_IT_number 11
_symmetry_cell_setting 'monoclinic'
loop_
_space_group_symop_operation_xyz
x,y,z
-x,1/2+y,-z
-x,-y,-z
x,1/2-y,z
loop_
_atom_site_type_symbol
_atom_site_label
_atom_site_fract_x
_atom_site_fract_y
_atom_site_fract_z
Si Si1 0.804995 0.425852 0.647550
Si Si2 0.785961 0.572269 0.375166
Si Si3 0.921836 0.573045 0.167169
Si Si4 0.595625 0.927199 0.330226
Si Si5 0.315524 0.573861 0.151770
Si Si6 0.948000 0.927439 0.365272
Si Si7 0.303624 0.922566 0.848058
Si Si8 0.344715 0.078253 0.340391
O O1 0.830749 0.250000 0.625360
O O2 0.720829 0.473757 0.763105
O O3 0.667609 0.482228 0.702726
O O4 0.000000 0.500000 0.500000
O O5 0.761040 0.750000 0.395056
O O6 0.894175 0.518361 0.246056
O O7 0.587456 0.500354 0.516347
O O8 0.898279 0.513382 0.343921
O O9 0.927275 0.750000 0.162170
O O10 0.758868 0.513611 0.248765
O O11 0.113310 0.511797 0.007019
O O12 0.576468 0.750000 0.346136
O O13 0.634045 0.977112 0.244391
O O14 0.335222 0.750000 0.131838
O O15 0.147876 0.514364 0.237413
O O16 0.500000 0.500000 0.000000
O O17 0.942477 0.750000 0.369797
O O18 0.796962 0.986630 0.514882
O O19 0.287787 0.750000 0.841467
O O20 0.449964 0.937947 0.787956
O O21 0.296201 0.250000 0.362727
#
# Coordination Sequence:
#
# PCOD8072352 Si02
#       8
#     4   4   4   4   4   4   4   4
#     4  11  22  37  59  86 116 149 184 229 275 327
#     4  10  19  36  60  81 106 147 190 229 276 331
#     4   9  20  35  54  83 114 143 186 236 281 332
#     4  11  21  34  53  82 116 147 184 233 281 332
#     4  10  22  39  57  82 116 145 180 224 273 326
#     4   9  17  34  58  82 108 140 181 230 272 321
#     4  10  20  37  59  82 108 146 192 232 275 337
#     4  10  19  35  59  86 111 141 188 236 276 329
#
# _framework density 18.909576999999999
#
# number of rings (size 3 to 8) (size 9 to 14) (size 15 to 20)
#    0.000    2.000    2.500    1.500    0.000    2.500 
#    0.000    5.000    0.000    0.000    0.000    0.000 
#    0.000    0.000    0.000    0.000    0.000    0.000 
#
# Total GULP energy -396864.104929 kJ/mol
# GULP energy per Si atom -12402.003279 kJ/mol
# Density = 1.886654 g / cm^3
# Si number density = 18.909577 Si / 1000 Ang^3
#
#
#
# Elastic Constant Matrix: (Units=GPa)
#
#
# Indices 1 2 3 4 5 6 
#
# 1 95.8017 24.9108 21.7296 0.0000 -4.1736 0.0000
# 2 24.9108 36.0133 24.6402 0.0000 4.2687 0.0000
# 3 21.7296 24.6402 107.5535 0.0000 -2.9968 0.0000
# 4 0.0000 0.0000 0.0000 25.5555 0.0000 -3.4160
# 5 -4.1736 4.2687 -2.9968 0.0000 34.2502 0.0000
# 6 0.0000 0.0000 0.0000 -3.4160 0.0000 24.9210
#
#
#
# Elastic Compliance Matrix: (Units=1/GPa)
#
#
# Indices 1 2 3 4 5 6 
#
# 1 0.012998 -0.008965 -0.000498 0.000000 0.002658 0.000000
# 2 -0.008965 0.039911 -0.007520 0.000000 -0.006725 0.000000
# 3 -0.000498 -0.007520 0.011173 0.000000 0.001854 0.000000
# 4 0.000000 0.000000 0.000000 0.039861 0.000000 0.005464
# 5 0.002658 -0.006725 0.001854 0.000000 0.030521 0.000000
# 6 0.000000 0.000000 0.000000 0.005464 0.000000 0.040876
#
#
# Mechanical properties :
#
#
# Convention : Reuss Voigt Hill
#
# Bulk Modulus (GPa) = 33.20500 42.43662 37.82081
# Shear Modulus (GPa) = 22.79530 28.15121 25.47325
#
# Velocity S-wave (km/s) = 3.47578 3.86259 3.67428
# Velocity P-wave (km/s) = 5.80570 6.51025 6.16804
#
# Compressibility (1/GPa) = 0.03011594
#
# Stress axis : x y z
#
# Youngs Moduli (GPa) = 76.93399 25.05595 89.50391
#
# Poissons Ratio (x) = 0.22463 0.04459
# Poissons Ratio (y) = 0.68972 0.67303
# Poissons Ratio (z) = 0.03832 0.18841
#
# Static dielectric constant tensor:
#      x y z
#    x 3.930780 0.000000 -0.079250 
#    y 0.000000 3.225600 0.000000 
#    z -0.079250 0.000000 3.597370 
# 
# 
# High freq. dielectric constant tensor:
#      x y z
#    x 1.750770 0.000000 -0.002850 
#    y 0.000000 1.704160 0.000000 
#    z -0.002850 0.000000 1.740820 
# 
# From -- ./inp_files/72103.got.cif
#   From: 2010.06.25/outbox.cif.g09.slc.cpg/sg11_37_cif.got.tgz:72103.got - 2010.06.27 23:14:04.
