data_PCOD8072374
_publ_section_title
;
Structure prediction by ZEFSAII (Michael W. Deem and Ramdas Pophale) SiO2 
 PCOD8072374
Probable space group: P 21/M
;
_chemical_formula_sum "Si O2"
_cell_formula_units_Z 32
_cell_length_a 25.960592
_cell_length_b 8.903386
_cell_length_c 20.089691
_cell_angle_alpha 90.000000
_cell_angle_beta 21.204081
_cell_angle_gamma 90.000000
_cell_volume 1679.502769
_symmetry_space_group_name_H-M "P 21/M"
_symmetry_group_IT_number 11
_symmetry_cell_setting 'monoclinic'
loop_
_space_group_symop_operation_xyz
x,y,z
-x,1/2+y,-z
-x,-y,-z
x,1/2-y,z
loop_
_atom_site_type_symbol
_atom_site_label
_atom_site_fract_x
_atom_site_fract_y
_atom_site_fract_z
Si Si1 0.846935 0.072569 0.687139
Si Si2 0.410042 0.076104 0.752270
Si Si3 0.205488 0.427670 0.883467
Si Si4 0.333980 0.572637 0.363178
Si Si5 0.115069 0.929201 0.735988
Si Si6 0.705383 0.572327 0.369197
Si Si7 0.350426 0.573305 0.194820
Si Si8 0.357201 0.423470 0.966270
O O1 0.862769 0.250000 0.669991
O O2 0.763527 0.017772 0.721800
O O3 0.765442 0.018803 0.851037
O O4 0.000000 0.000000 0.500000
O O5 0.448365 0.250000 0.692485
O O6 0.301887 0.009635 0.827573
O O7 0.553985 0.981850 0.578122
O O8 0.336134 0.057592 0.912819
O O9 0.201527 0.250000 0.892807
O O10 0.274710 0.480893 0.730853
O O11 0.044708 0.488744 0.084219
O O12 0.337119 0.750000 0.367846
O O13 0.213000 0.507952 0.557836
O O14 0.296541 0.524164 0.332979
O O15 0.489286 0.510600 0.196635
O O16 0.120798 0.750000 0.734457
O O17 0.168844 0.997408 0.740283
O O18 0.716930 0.750000 0.362287
O O19 0.372789 0.750000 0.164176
O O20 0.500000 0.500000 0.000000
O O21 0.342119 0.250000 0.006027
#
# Coordination Sequence:
#
# PCOD8072374 Si02
#       8
#     4   4   4   4   4   4   4   4
#     4  11  24  39  58  86 117 152 184 222 276 331
#     4  10  20  37  59  83 108 147 193 228 272 334
#     4   9  20  35  55  82 112 143 186 236 280 328
#     4   9  17  32  57  85 107 135 182 231 271 321
#     4  10  19  36  58  80 106 144 187 230 277 330
#     4  11  21  34  53  82 114 147 184 231 281 329
#     4  10  20  35  57  83 109 140 181 224 272 321
#     4  10  19  35  60  85 110 143 184 231 276 326
#
# _framework density 19.053256999999999
#
# number of rings (size 3 to 8) (size 9 to 14) (size 15 to 20)
#    0.000    2.000    2.500    1.500    0.000    2.000 
#    0.000    6.250    0.000    1.500    0.000    0.000 
#    0.000    0.000    0.000    0.000    0.000    0.000 
#
# Total GULP energy -396866.574610 kJ/mol
# GULP energy per Si atom -12402.080457 kJ/mol
# Density = 1.900989 g / cm^3
# Si number density = 19.053257 Si / 1000 Ang^3
#
#
#
# Elastic Constant Matrix: (Units=GPa)
#
#
# Indices 1 2 3 4 5 6 
#
# 1 129.2834 28.6856 45.2561 0.0000 -2.6980 0.0000
# 2 28.6856 38.7976 29.6318 0.0000 -1.7794 0.0000
# 3 45.2561 29.6318 114.0910 0.0000 -4.5375 0.0000
# 4 0.0000 0.0000 0.0000 22.2304 0.0000 2.3958
# 5 -2.6980 -1.7794 -4.5375 0.0000 36.7972 0.0000
# 6 0.0000 0.0000 0.0000 2.3958 0.0000 22.6602
#
#
#
# Elastic Compliance Matrix: (Units=1/GPa)
#
#
# Indices 1 2 3 4 5 6 
#
# 1 0.009794 -0.005329 -0.002495 0.000000 0.000153 0.000000
# 2 -0.005329 0.035062 -0.006975 0.000000 0.000445 0.000000
# 3 -0.002495 -0.006975 0.011602 0.000000 0.000910 0.000000
# 4 0.000000 0.000000 0.000000 0.045502 0.000000 -0.004811
# 5 0.000153 0.000445 0.000910 0.000000 0.027321 0.000000
# 6 0.000000 0.000000 0.000000 -0.004811 0.000000 0.044639
#
#
# Mechanical properties :
#
#
# Convention : Reuss Voigt Hill
#
# Bulk Modulus (GPa) = 37.22836 54.36879 45.79857
# Shear Modulus (GPa) = 23.53264 28.24414 25.88839
#
# Velocity S-wave (km/s) = 3.51821 3.85434 3.69011
# Velocity P-wave (km/s) = 6.00710 6.95738 6.49963
#
# Compressibility (1/GPa) = 0.02686124
#
# Stress axis : x y z
#
# Youngs Moduli (GPa) = 102.10534 28.52071 86.18987
#
# Poissons Ratio (x) = 0.15198 0.21503
# Poissons Ratio (y) = 0.54410 0.60117
# Poissons Ratio (z) = 0.25473 0.19893
#
# Static dielectric constant tensor:
#      x y z
#    x 3.592850 0.000000 -0.088810 
#    y 0.000000 3.196340 0.000000 
#    z -0.088810 0.000000 3.513410 
# 
# 
# High freq. dielectric constant tensor:
#      x y z
#    x 1.755890 0.000000 0.004110 
#    y 0.000000 1.709590 0.000000 
#    z 0.004110 0.000000 1.746000 
# 
# From -- ./inp_files/67024.got.cif
#   From: 2010.06.25/outbox.cif.g09.slc.cpg/sg11_34_cif.got.tgz:67024.got - 2010.06.27 23:14:04.
