data_PCOD8072506
_publ_section_title
;
Structure prediction by ZEFSAII (Michael W. Deem and Ramdas Pophale) SiO2 
 PCOD8072506
Probable space group: P 21/M
;
_chemical_formula_sum "Si O2"
_cell_formula_units_Z 28
_cell_length_a 13.792610
_cell_length_b 16.755729
_cell_length_c 6.994321
_cell_angle_alpha 90.000000
_cell_angle_beta 61.375677
_cell_angle_gamma 90.000000
_cell_volume 1418.864324
_symmetry_space_group_name_H-M "P 21/M"
_symmetry_group_IT_number 11
_symmetry_cell_setting 'monoclinic'
loop_
_space_group_symop_operation_xyz
x,y,z
-x,1/2+y,-z
-x,-y,-z
x,1/2-y,z
loop_
_atom_site_type_symbol
_atom_site_label
_atom_site_fract_x
_atom_site_fract_y
_atom_site_fract_z
Si Si1 0.711361 0.844449 0.918461
Si Si2 0.138219 0.428333 0.512003
Si Si3 0.321709 0.839609 0.134759
Si Si4 0.421641 0.572547 0.712602
Si Si5 0.791468 0.530817 0.134074
Si Si6 0.892568 0.426294 0.728784
Si Si7 0.486875 0.919157 0.240232
O O1 0.719814 0.750000 0.936863
O O2 0.769256 0.870081 0.664476
O O3 0.775289 0.888260 0.028887
O O4 0.583384 0.871343 0.039578
O O5 0.161061 0.441489 0.711362
O O6 0.135892 0.514128 0.415871
O O7 0.015665 0.390250 0.603212
O O8 0.340985 0.750000 0.185882
O O9 0.192378 0.853894 0.220851
O O10 0.370750 0.898713 0.249180
O O11 0.382987 0.853164 0.874790
O O12 0.322892 0.515974 0.732118
O O13 0.497152 0.515453 0.777915
O O14 0.484380 0.606484 0.467450
O O15 0.876659 0.472240 0.945184
#
# Coordination Sequence:
#
# PCOD8072506 Si02
#       7
#     4   4   4   4   4   4   4
#     4  10  22  35  50  81 114 139 176 220 267 329
#     4  10  19  36  60  79 103 144 184 225 270 315
#     4  11  22  35  54  82 115 145 173 218 281 335
#     4   9  20  36  57  81 105 139 187 230 268 317
#     4   9  18  35  58  80 103 137 182 230 272 312
#     4   9  20  36  56  82 107 135 185 230 261 319
#     4  10  20  37  58  78 107 146 185 226 264 316
#
# _framework density 19.734093999999999
#
# number of rings (size 3 to 8) (size 9 to 14) (size 15 to 20)
#    0.000    2.286    0.000    3.000    0.000    5.714 
#    0.000    0.000    0.000    0.000    0.000    0.000 
#    0.000    0.000    0.000    0.000    0.000    0.000 
#
# Total GULP energy -347156.525974 kJ/mol
# GULP energy per Si atom -12398.447356 kJ/mol
# Density = 1.968918 g / cm^3
# Si number density = 19.734094 Si / 1000 Ang^3
#
#
#
# Elastic Constant Matrix: (Units=GPa)
#
#
# Indices 1 2 3 4 5 6 
#
# 1 85.4080 38.0261 46.8586 0.0000 -2.6787 0.0000
# 2 38.0261 74.2232 29.3903 0.0000 -1.5112 0.0000
# 3 46.8586 29.3903 95.9042 0.0000 -6.6968 0.0000
# 4 0.0000 0.0000 0.0000 11.7363 0.0000 1.2583
# 5 -2.6787 -1.5112 -6.6968 0.0000 31.5228 0.0000
# 6 0.0000 0.0000 0.0000 1.2583 0.0000 14.1227
#
#
#
# Elastic Compliance Matrix: (Units=1/GPa)
#
#
# Indices 1 2 3 4 5 6 
#
# 1 0.018546 -0.006728 -0.007016 0.000000 -0.000237 0.000000
# 2 -0.006728 0.017777 -0.002173 0.000000 -0.000181 0.000000
# 3 -0.007016 -0.002173 0.014690 0.000000 0.002420 0.000000
# 4 0.000000 0.000000 0.000000 0.086027 0.000000 -0.007665
# 5 -0.000237 -0.000181 0.002420 0.000000 0.032208 0.000000
# 6 0.000000 0.000000 0.000000 -0.007665 0.000000 0.071491
#
#
# Mechanical properties :
#
#
# Convention : Reuss Voigt Hill
#
# Bulk Modulus (GPa) = 52.14308 53.78725 52.96517
# Shear Modulus (GPa) = 17.92327 20.89374 19.40851
#
# Velocity S-wave (km/s) = 3.01697 3.25739 3.13948
# Velocity P-wave (km/s) = 6.21421 6.43915 6.32768
#
# Compressibility (1/GPa) = 0.01917800
#
# Stress axis : x y z
#
# Youngs Moduli (GPa) = 53.91984 56.25372 68.07287
#
# Poissons Ratio (x) = 0.37848 0.47762
# Poissons Ratio (y) = 0.36278 0.14792
# Poissons Ratio (z) = 0.37832 0.12224
#
# Static dielectric constant tensor:
#      x y z
#    x 3.597430 0.000000 -0.240540 
#    y 0.000000 3.203710 0.000000 
#    z -0.240540 0.000000 3.752290 
# 
# 
# High freq. dielectric constant tensor:
#      x y z
#    x 1.770220 0.000000 -0.007280 
#    y 0.000000 1.736330 0.000000 
#    z -0.007280 0.000000 1.781390 
# 
# From -- ./inp_files/6656.got.cif
#   From: 2010.06.25/outbox.cif.g09.slc.cpg/sg11_4_cif.got.tgz:6656.got - 2010.06.27 23:14:04.
