data_PCOD8072668
_publ_section_title
;
Structure prediction by ZEFSAII (Michael W. Deem and Ramdas Pophale) SiO2 
 PCOD8072668
Probable space group: P 21/M
;
_chemical_formula_sum "Si O2"
_cell_formula_units_Z 26
_cell_length_a 11.589068
_cell_length_b 16.563461
_cell_length_c 11.589060
_cell_angle_alpha 90.000000
_cell_angle_beta 38.579776
_cell_angle_gamma 90.000000
_cell_volume 1387.255628
_symmetry_space_group_name_H-M "P 21/M"
_symmetry_group_IT_number 11
_symmetry_cell_setting 'monoclinic'
loop_
_space_group_symop_operation_xyz
x,y,z
-x,1/2+y,-z
-x,-y,-z
x,1/2-y,z
loop_
_atom_site_type_symbol
_atom_site_label
_atom_site_fract_x
_atom_site_fract_y
_atom_site_fract_z
Si Si1 0.149790 0.403619 0.742853
Si Si2 0.931012 0.750000 0.338399
Si Si3 0.267156 0.250000 0.267156
Si Si4 0.742853 0.403619 0.149790
Si Si5 0.150015 0.339461 0.150015
Si Si6 0.661601 0.250000 0.068989
Si Si7 0.386843 0.078753 0.775676
Si Si8 0.775675 0.078753 0.386845
O O1 0.157173 0.327966 0.652511
O O2 0.276475 0.384080 0.753882
O O3 0.221738 0.481695 0.619089
O O4 0.946103 0.423426 0.946102
O O5 0.871661 0.750000 0.517012
O O6 0.153819 0.750000 0.153819
O O7 0.223810 0.329759 0.223810
O O8 0.482988 0.250000 0.128340
O O9 0.652510 0.327966 0.157173
O O10 0.619089 0.481695 0.221739
O O11 0.753883 0.384079 0.276475
O O12 0.119004 0.250000 0.119003
O O13 0.958618 0.387691 0.303996
O O14 0.303994 0.387691 0.958619
O O15 0.600483 0.105689 0.600484
#
# Coordination Sequence:
#
# PCOD8072668 Si02
#       8
#     4   2   2   4   4   2   4   4
#     4  10  19  37  63  92 134 151 188 249 308 360
#     4  10  24  39  63  87 117 164 204 241 300 358
#     4  10  26  44  62  78 122 162 208 258 288 340
#     4  10  19  37  63  92 134 151 188 249 308 360
#     4  10  24  43  61  81 125 158 199 253 303 341
#     4  10  24  39  63  87 117 164 204 241 300 358
#     4  11  21  36  62  98 123 154 194 246 306 366
#     4  11  21  36  62  98 123 154 194 246 306 366
#
# _framework density 18.742039999999999
#
# number of rings (size 3 to 8) (size 9 to 14) (size 15 to 20)
#    0.462    1.231    3.077    2.769    6.462    1.846 
#    0.000    1.538    0.000    0.000    0.000    0.000 
#    0.000    0.000    0.000    0.000    0.000    0.000 
#
# Total GULP energy -322419.068300 kJ/mol
# GULP energy per Si atom -12400.733396 kJ/mol
# Density = 1.869938 g / cm^3
# Si number density = 18.742040 Si / 1000 Ang^3
#
#
#
# Elastic Constant Matrix: (Units=GPa)
#
#
# Indices 1 2 3 4 5 6 
#
# 1 126.2741 59.7111 72.0161 0.0000 5.3916 0.0000
# 2 59.7111 71.8064 29.1844 0.0000 12.8075 0.0000
# 3 72.0161 29.1844 122.7198 0.0000 -3.9020 0.0000
# 4 0.0000 0.0000 0.0000 11.4367 0.0000 -4.1330
# 5 5.3916 12.8075 -3.9020 0.0000 24.6019 0.0000
# 6 0.0000 0.0000 0.0000 -4.1330 0.0000 1.5866
#
#
#
# Elastic Compliance Matrix: (Units=1/GPa)
#
#
# Indices 1 2 3 4 5 6 
#
# 1 0.017866 -0.011963 -0.007604 0.000000 0.001107 0.000000
# 2 -0.011963 0.025506 0.000619 0.000000 -0.010558 0.000000
# 3 -0.007604 0.000619 0.012570 0.000000 0.003338 0.000000
# 4 0.000000 0.000000 0.000000 1.492596 0.000000 3.888269
# 5 0.001107 -0.010558 0.003338 0.000000 0.046431 0.000000
# 6 0.000000 0.000000 0.000000 3.888269 0.000000 10.759386
#
#
# Mechanical properties :
#
#
# Convention : Reuss Voigt Hill
#
# Bulk Modulus (GPa) = 55.41640 71.40263 63.40952
# Shear Modulus (GPa) = 0.40328 18.18426 9.29377
#
# Velocity S-wave (km/s) = 0.46437 3.11825 2.22925
# Velocity P-wave (km/s) = 5.46989 7.15157 6.36650
#
# Compressibility (1/GPa) = 0.01804520
#
# Stress axis : x y z
#
# Youngs Moduli (GPa) = 55.97290 39.20642 79.55534
#
# Poissons Ratio (x) = 0.46904 0.60494
# Poissons Ratio (y) = 0.66962 -0.04925
# Poissons Ratio (z) = 0.42562 -0.02427
#
# Static dielectric constant tensor:
#      x y z
#    x 3.227860 0.000000 -0.106890 
#    y 0.000000 3.482300 0.000000 
#    z -0.106890 0.000000 3.482630 
# 
# 
# High freq. dielectric constant tensor:
#      x y z
#    x 1.706010 0.000000 -0.014290 
#    y 0.000000 1.728550 0.000000 
#    z -0.014290 0.000000 1.740070 
# 
# From -- ./inp_files/36000.got.cif
#   From: 2010.06.25/outbox.cif.g09.slc.cpg/sg11_18_cif.got.tgz:36000.got - 2010.06.27 23:14:04.
