data_PCOD8072744
_publ_section_title
;
Structure prediction by ZEFSAII (Michael W. Deem and Ramdas Pophale) SiO2 
 PCOD8072744
Probable space group: P 21/M
;
_chemical_formula_sum "Si O2"
_cell_formula_units_Z 24
_cell_length_a 11.099384
_cell_length_b 13.778510
_cell_length_c 9.947032
_cell_angle_alpha 90.000000
_cell_angle_beta 141.318259
_cell_angle_gamma 90.000000
_cell_volume 950.758985
_symmetry_space_group_name_H-M "P 21/M"
_symmetry_group_IT_number 11
_symmetry_cell_setting 'monoclinic'
loop_
_space_group_symop_operation_xyz
x,y,z
-x,1/2+y,-z
-x,-y,-z
x,1/2-y,z
loop_
_atom_site_type_symbol
_atom_site_label
_atom_site_fract_x
_atom_site_fract_y
_atom_site_fract_z
Si Si1 0.293357 0.462976 0.370465
Si Si2 0.466805 0.250000 0.262444
Si Si3 0.385286 0.053796 0.787879
Si Si4 0.161307 0.750000 0.589893
Si Si5 0.442510 0.750000 0.073110
Si Si6 0.951129 0.451650 0.612529
Si Si7 0.418648 0.250000 0.524827
Si Si8 0.698262 0.544794 0.909706
O O1 0.500000 0.500000 0.500000
O O2 0.187247 0.538753 0.376667
O O3 0.292812 0.350700 0.429195
O O4 0.187777 0.466977 0.131814
O O5 0.661489 0.250000 0.353511
O O6 0.518162 0.250000 0.465953
O O7 0.346521 0.157541 0.112369
O O8 0.412763 0.165119 0.842390
O O9 0.155618 0.026046 0.586466
O O10 0.499129 0.020564 0.748440
O O11 0.500000 0.000000 0.000000
O O12 0.040945 0.845682 0.448198
O O13 0.239795 0.750000 0.814631
O O14 0.415995 0.750000 0.213104
O O15 0.163882 0.484749 0.844632
#
# Coordination Sequence:
#
# PCOD8072744 Si02
#       8
#     4   2   4   2   2   4   2   4
#     4  11  20  40  64  95 130 169 210 265 332 388
#     4  10  19  41  64  98 130 169 214 270 321 390
#     4  12  24  44  66  91 128 175 216 264 327 387
#     4  12  23  41  68  94 126 173 224 264 321 388
#     4  12  22  41  65  94 127 170 218 265 319 391
#     4  12  23  40  67  96 128 169 218 269 326 383
#     4  10  20  33  65  90 123 172 212 257 325 391
#     4  11  23  40  67  98 132 165 218 271 325 384
#
# _framework density 25.242989999999999
#
# number of rings (size 3 to 8) (size 9 to 14) (size 15 to 20)
#    0.000    0.667    6.667    2.000    0.000    0.667 
#    0.000    1.667    0.000    0.000    0.000    0.000 
#    0.000    0.000    0.000    0.000    0.000    0.000 
#
# Total GULP energy -297328.388880 kJ/mol
# GULP energy per Si atom -12388.682870 kJ/mol
# Density = 2.518554 g / cm^3
# Si number density = 25.242990 Si / 1000 Ang^3
#
#
#
# Elastic Constant Matrix: (Units=GPa)
#
#
# Indices 1 2 3 4 5 6 
#
# 1 40.4206 16.7847 16.8630 0.0000 -9.4034 0.0000
# 2 16.7847 172.4278 36.4729 0.0000 1.2481 0.0000
# 3 16.8630 36.4729 151.1154 0.0000 -6.5942 0.0000
# 4 0.0000 0.0000 0.0000 36.8415 0.0000 -7.6202
# 5 -9.4034 1.2481 -6.5942 0.0000 51.9599 0.0000
# 6 0.0000 0.0000 0.0000 -7.6202 0.0000 29.8138
#
#
#
# Elastic Compliance Matrix: (Units=1/GPa)
#
#
# Indices 1 2 3 4 5 6 
#
# 1 0.027762 -0.002240 -0.002349 0.000000 0.004780 0.000000
# 2 -0.002240 0.006298 -0.001302 0.000000 -0.000722 0.000000
# 3 -0.002349 -0.001302 0.007216 0.000000 0.000522 0.000000
# 4 0.000000 0.000000 0.000000 0.028658 0.000000 0.007325
# 5 0.004780 -0.000722 0.000522 0.000000 0.020194 0.000000
# 6 0.000000 0.000000 0.000000 0.007325 0.000000 0.035414
#
#
# Mechanical properties :
#
#
# Convention : Reuss Voigt Hill
#
# Bulk Modulus (GPa) = 33.90346 56.02278 44.96312
# Shear Modulus (GPa) = 33.97756 43.31257 38.64506
#
# Velocity S-wave (km/s) = 3.67279 4.14675 3.91695
# Velocity P-wave (km/s) = 5.60766 6.72078 6.18930
#
# Compressibility (1/GPa) = 0.02949551
#
# Stress axis : x y z
#
# Youngs Moduli (GPa) = 36.02051 158.77668 138.57150
#
# Poissons Ratio (x) = 0.35570 0.32546
# Poissons Ratio (y) = 0.08069 0.18037
# Poissons Ratio (z) = 0.08460 0.20667
#
# Static dielectric constant tensor:
#      x y z
#    x 3.798760 0.000000 -0.737590 
#    y 0.000000 4.677620 0.000000 
#    z -0.737590 0.000000 5.141270 
# 
# 
# High freq. dielectric constant tensor:
#      x y z
#    x 2.016830 0.000000 -0.043620 
#    y 0.000000 2.007220 0.000000 
#    z -0.043620 0.000000 2.026640 
# 
# From -- ./inp_files/39767.got.cif
#   From: 2010.06.25/outbox.cif.g09.slc.cpg/sg11_20_cif.got.tgz:39767.got - 2010.06.27 23:14:04.
