data_PCOD8072623
_publ_section_title
;
Structure prediction by ZEFSAII (Michael W. Deem and Ramdas Pophale) SiO2 
 PCOD8072623
Probable space group: P 21/M
;
_chemical_formula_sum "Si O2"
_cell_formula_units_Z 24
_cell_length_a 7.970268
_cell_length_b 20.618566
_cell_length_c 8.713374
_cell_angle_alpha 90.000000
_cell_angle_beta 51.978872
_cell_angle_gamma 90.000000
_cell_volume 1128.040554
_symmetry_space_group_name_H-M "P 21/M"
_symmetry_group_IT_number 11
_symmetry_cell_setting 'monoclinic'
loop_
_space_group_symop_operation_xyz
x,y,z
-x,1/2+y,-z
-x,-y,-z
x,1/2-y,z
loop_
_atom_site_type_symbol
_atom_site_label
_atom_site_fract_x
_atom_site_fract_y
_atom_site_fract_z
Si Si1 0.041305 0.919764 0.521577
Si Si2 0.406060 0.585162 0.541233
Si Si3 0.950362 0.175863 0.226449
Si Si4 0.576872 0.969597 0.744229
Si Si5 0.353940 0.176584 0.806865
Si Si6 0.603254 0.402013 0.886661
O O1 0.837762 0.966826 0.617610
O O2 0.249105 0.949951 0.501607
O O3 0.141822 0.900942 0.297766
O O4 0.964308 0.857094 0.662446
O O5 0.500528 0.534247 0.609995
O O6 0.598244 0.624935 0.353721
O O7 0.263692 0.639561 0.707393
O O8 0.901959 0.250000 0.293056
O O9 0.111164 0.168292 0.995072
O O10 0.489836 0.035993 0.866579
O O11 0.457350 0.909855 0.900041
O O12 0.398775 0.250000 0.725937
O O13 0.502014 0.163018 0.872481
#
# Coordination Sequence:
#
# PCOD8072623 Si02
#       6
#     4   4   4   4   4   4
#     4   9  20  36  57  84 116 155 189 234 292 337
#     4   9  21  35  60  84 112 151 191 236 286 340
#     4   9  18  36  58  81 113 148 192 237 283 339
#     4  11  21  39  56  89 123 147 195 237 288 346
#     4  10  19  37  61  82 111 155 195 235 292 345
#     4  10  21  36  60  86 120 155 189 240 285 348
#
# _framework density 21.275831
#
# number of rings (size 3 to 8) (size 9 to 14) (size 15 to 20)
#    1.000    1.333    1.667    1.000    0.000    4.000 
#    0.000   10.833    0.000    2.000    0.000    0.000 
#    0.000    0.000    0.000    0.000    0.000    0.000 
#
# Total GULP energy -297328.296755 kJ/mol
# GULP energy per Si atom -12388.679031 kJ/mol
# Density = 2.122741 g / cm^3
# Si number density = 21.275831 Si / 1000 Ang^3
#
#
#
# Elastic Constant Matrix: (Units=GPa)
#
#
# Indices 1 2 3 4 5 6 
#
# 1 82.7781 32.4743 40.0491 0.0000 1.5440 0.0000
# 2 32.4743 54.5034 9.5940 0.0000 2.3893 0.0000
# 3 40.0491 9.5940 110.0772 0.0000 -6.1623 0.0000
# 4 0.0000 0.0000 0.0000 32.3321 0.0000 -3.4275
# 5 1.5440 2.3893 -6.1623 0.0000 31.2020 0.0000
# 6 0.0000 0.0000 0.0000 -3.4275 0.0000 17.9388
#
#
#
# Elastic Compliance Matrix: (Units=1/GPa)
#
#
# Indices 1 2 3 4 5 6 
#
# 1 0.019086 -0.010233 -0.006129 0.000000 -0.001371 0.000000
# 2 -0.010233 0.024216 0.001554 0.000000 -0.001041 0.000000
# 3 -0.006129 0.001554 0.011314 0.000000 0.002419 0.000000
# 4 0.000000 0.000000 0.000000 0.031568 0.000000 0.006032
# 5 -0.001371 -0.001041 0.002419 0.000000 0.032674 0.000000
# 6 0.000000 0.000000 0.000000 0.006032 0.000000 0.056898
#
#
# Mechanical properties :
#
#
# Convention : Reuss Voigt Hill
#
# Bulk Modulus (GPa) = 39.99769 45.73262 42.86515
# Shear Modulus (GPa) = 23.39669 27.31067 25.35368
#
# Velocity S-wave (km/s) = 3.31975 3.58669 3.45580
# Velocity P-wave (km/s) = 5.79091 6.22047 6.00953
#
# Compressibility (1/GPa) = 0.02500145
#
# Stress axis : x y z
#
# Youngs Moduli (GPa) = 52.39559 41.29432 88.38364
#
# Poissons Ratio (x) = 0.42255 0.54168
# Poissons Ratio (y) = 0.53615 -0.13735
# Poissons Ratio (z) = 0.32112 -0.06417
#
# Static dielectric constant tensor:
#      x y z
#    x 3.339050 0.000000 -0.119200 
#    y 0.000000 3.792820 0.000000 
#    z -0.119200 0.000000 4.165500 
# 
# 
# High freq. dielectric constant tensor:
#      x y z
#    x 1.784940 0.000000 -0.016730 
#    y 0.000000 1.837150 0.000000 
#    z -0.016730 0.000000 1.861370 
# 
# From -- ./inp_files/14240.got.cif
#   From: 2010.06.25/outbox.cif.g09.slc.cpg/sg11_8_cif.got.tgz:14240.got - 2010.06.27 23:14:04.
