data_PCOD8072959
_publ_section_title
;
Structure prediction by ZEFSAII (Michael W. Deem and Ramdas Pophale) SiO2 
 PCOD8072959
Probable space group: P 21/M
;
_chemical_formula_sum "Si O2"
_cell_formula_units_Z 32
_cell_length_a 11.586912
_cell_length_b 9.340562
_cell_length_c 32.622317
_cell_angle_alpha 90.000000
_cell_angle_beta 149.608172
_cell_angle_gamma 90.000000
_cell_volume 1786.197260
_symmetry_space_group_name_H-M "P 21/M"
_symmetry_group_IT_number 11
_symmetry_cell_setting 'monoclinic'
loop_
_space_group_symop_operation_xyz
x,y,z
-x,1/2+y,-z
-x,-y,-z
x,1/2-y,z
loop_
_atom_site_type_symbol
_atom_site_label
_atom_site_fract_x
_atom_site_fract_y
_atom_site_fract_z
Si Si1 0.832017 0.085013 0.349953
Si Si2 0.723162 0.585023 0.465534
Si Si3 0.536060 0.086231 0.336384
Si Si4 0.326739 0.084883 0.974944
Si Si5 0.371814 0.585888 0.426292
Si Si6 0.146964 0.419240 0.725467
Si Si7 0.312787 0.587704 0.850749
Si Si8 0.017329 0.082261 0.175346
O O1 0.862139 0.250000 0.345452
O O2 0.619964 0.066778 0.315628
O O3 0.063739 0.028977 0.442487
O O4 0.777069 0.988029 0.294047
O O5 0.763692 0.750000 0.466906
O O6 0.704979 0.500687 0.417572
O O7 0.489528 0.559176 0.418695
O O8 0.552319 0.250000 0.355399
O O9 0.277008 0.031241 0.260685
O O10 0.309780 0.250000 0.955719
O O11 0.429285 0.075201 0.052297
O O12 0.082561 0.007329 0.894098
O O13 0.500000 0.000000 0.000000
O O14 0.500000 0.500000 0.500000
O O15 0.387887 0.750000 0.444491
O O16 0.111714 0.535433 0.343460
O O17 0.181594 0.250000 0.733669
O O18 0.302587 0.481343 0.809347
O O19 0.265583 0.750000 0.821658
O O20 0.124242 0.544741 0.827076
O O21 0.001196 0.250000 0.159747
#
# Coordination Sequence:
#
# PCOD8072959 Si02
#       8
#     4   4   4   4   4   4   4   4
#     4  10  21  37  53  69  98 139 176 213 258 303
#     4  10  20  34  52  74 100 132 171 215 262 306
#     4  10  21  35  53  76 100 133 175 214 254 303
#     4   9  17  30  51  79 108 137 166 199 249 306
#     4  10  20  33  49  72 100 130 165 205 251 300
#     4  11  22  33  50  76 102 132 173 214 252 299
#     4   9  18  32  51  76 106 136 162 196 249 308
#     4   9  18  33  52  78 108 135 167 206 253 305
#
# _framework density 17.915154000000001
#
# number of rings (size 3 to 8) (size 9 to 14) (size 15 to 20)
#    0.000    2.250    1.250    2.625    0.000    5.000 
#    0.000    0.000    0.000    0.750    0.000    0.000 
#    0.000    0.000    0.000    0.000    0.000    0.000 
#
# Total GULP energy -396808.786257 kJ/mol
# GULP energy per Si atom -12400.274571 kJ/mol
# Density = 1.787438 g / cm^3
# Si number density = 17.915154 Si / 1000 Ang^3
#
#
#
# Elastic Constant Matrix: (Units=GPa)
#
#
# Indices 1 2 3 4 5 6 
#
# 1 58.8940 30.7463 34.9953 0.0000 -10.6232 0.0000
# 2 30.7463 80.5706 56.2969 0.0000 -16.2243 0.0000
# 3 34.9953 56.2969 107.2283 0.0000 -18.4642 0.0000
# 4 0.0000 0.0000 0.0000 35.7062 0.0000 -6.0223
# 5 -10.6232 -16.2243 -18.4642 0.0000 20.3121 0.0000
# 6 0.0000 0.0000 0.0000 -6.0223 0.0000 24.1144
#
#
#
# Elastic Compliance Matrix: (Units=1/GPa)
#
#
# Indices 1 2 3 4 5 6 
#
# 1 0.022771 -0.004984 -0.004090 0.000000 0.004210 0.000000
# 2 -0.004984 0.021699 -0.008572 0.000000 0.006933 0.000000
# 3 -0.004090 -0.008572 0.016140 0.000000 0.005686 0.000000
# 4 0.000000 0.000000 0.000000 0.029238 0.000000 0.007302
# 5 0.004210 0.006933 0.005686 0.000000 0.062141 0.000000
# 6 0.000000 0.000000 0.000000 0.007302 0.000000 0.043293
#
#
# Mechanical properties :
#
#
# Convention : Reuss Voigt Hill
#
# Bulk Modulus (GPa) = 39.49644 54.53000 47.01322
# Shear Modulus (GPa) = 20.91934 24.33682 22.62808
#
# Velocity S-wave (km/s) = 3.42085 3.68971 3.55782
# Velocity P-wave (km/s) = 6.13981 6.97538 6.57089
#
# Compressibility (1/GPa) = 0.02531874
#
# Stress axis : x y z
#
# Youngs Moduli (GPa) = 43.91473 46.08506 61.95703
#
# Poissons Ratio (x) = 0.22969 0.25340
# Poissons Ratio (y) = 0.21888 0.53109
# Poissons Ratio (z) = 0.17961 0.39504
#
# Static dielectric constant tensor:
#      x y z
#    x 3.228460 0.000000 0.240030 
#    y 0.000000 3.430570 0.000000 
#    z 0.240030 0.000000 3.797080 
# 
# 
# High freq. dielectric constant tensor:
#      x y z
#    x 1.667920 0.000000 -0.002020 
#    y 0.000000 1.695460 0.000000 
#    z -0.002020 0.000000 1.694040 
# 
# From -- ./inp_files/61741.got.cif
#   From: 2010.06.25/outbox.cif.g09.slc.cpg/sg11_31_cif.got.tgz:61741.got - 2010.06.27 23:14:04.
