data_PCOD8072126
_publ_section_title
;
Structure prediction by ZEFSAII (Michael W. Deem and Ramdas Pophale) SiO2 
 PCOD8072126
Probable space group: P 21/M
;
_chemical_formula_sum "Si O2"
_cell_formula_units_Z 32
_cell_length_a 15.257779
_cell_length_b 18.216176
_cell_length_c 12.219682
_cell_angle_alpha 90.000000
_cell_angle_beta 27.930066
_cell_angle_gamma 90.000000
_cell_volume 1590.813631
_symmetry_space_group_name_H-M "P 21/M"
_symmetry_group_IT_number 11
_symmetry_cell_setting 'monoclinic'
loop_
_space_group_symop_operation_xyz
x,y,z
-x,1/2+y,-z
-x,-y,-z
x,1/2-y,z
loop_
_atom_site_type_symbol
_atom_site_label
_atom_site_fract_x
_atom_site_fract_y
_atom_site_fract_z
Si Si1 0.118369 0.166807 0.279321
Si Si2 0.576620 0.083288 0.413392
Si Si3 0.062028 0.057039 0.522177
Si Si4 0.133502 0.668300 0.775648
Si Si5 0.582843 0.484096 0.793505
Si Si6 0.233296 0.109542 0.924980
Si Si7 0.285326 0.828996 0.371477
Si Si8 0.288111 0.545501 0.950959
O O1 0.167105 0.250000 0.252226
O O2 0.158936 0.123027 0.347406
O O3 0.901910 0.153879 0.489630
O O4 0.242419 0.143456 0.037422
O O5 0.772021 0.103808 0.256828
O O6 0.419615 0.130595 0.650102
O O7 0.619508 0.102556 0.238079
O O8 0.500000 0.000000 0.500000
O O9 0.209498 0.019322 0.442892
O O10 0.000000 0.000000 0.500000
O O11 0.879512 0.082046 0.793577
O O12 0.127301 0.750000 0.839144
O O13 0.247389 0.677076 0.540110
O O14 0.926365 0.642289 0.975139
O O15 0.573456 0.395858 0.798736
O O16 0.458055 0.517903 0.836998
O O17 0.500000 0.500000 0.000000
O O18 0.203867 0.022332 0.973970
O O19 0.369853 0.750000 0.238525
#
# Coordination Sequence:
#
# PCOD8072126 Si02
#       8
#     4   4   4   4   4   4   4   4
#     4  10  19  34  58  89 118 150 194 250 305 357
#     4  10  23  38  58  89 124 158 203 246 298 365
#     4  12  20  38  61  85 120 163 198 248 306 354
#     4  10  21  37  60  88 119 158 200 247 307 369
#     4  12  21  35  59  85 118 156 206 246 300 362
#     4  10  19  37  60  88 121 151 198 254 315 364
#     4   9  17  31  54  84 115 146 185 243 306 356
#     4  11  23  37  58  88 117 159 203 247 300 361
#
# _framework density 20.115493000000001
#
# number of rings (size 3 to 8) (size 9 to 14) (size 15 to 20)
#    0.000    1.500    3.750    3.375    0.000    4.000 
#    0.000    5.000    0.000    2.250    0.000    0.000 
#    0.000    0.000    0.000    0.000    0.000    0.000 
#
# Total GULP energy -396464.443356 kJ/mol
# GULP energy per Si atom -12389.513855 kJ/mol
# Density = 2.006971 g / cm^3
# Si number density = 20.115493 Si / 1000 Ang^3
#
#
#
# Elastic Constant Matrix: (Units=GPa)
#
#
# Indices 1 2 3 4 5 6 
#
# 1 92.7641 47.2476 48.2167 0.0000 -4.0143 0.0000
# 2 47.2476 88.9239 37.7618 0.0000 -2.3724 0.0000
# 3 48.2167 37.7618 139.5654 0.0000 16.5412 0.0000
# 4 0.0000 0.0000 0.0000 49.5899 0.0000 -44.6630
# 5 -4.0143 -2.3724 16.5412 0.0000 27.9885 0.0000
# 6 0.0000 0.0000 0.0000 -44.6630 0.0000 97.6321
#
#
#
# Elastic Compliance Matrix: (Units=1/GPa)
#
#
# Indices 1 2 3 4 5 6 
#
# 1 0.016821 -0.006921 -0.004468 0.000000 0.004466 0.000000
# 2 -0.006921 0.015851 -0.002085 0.000000 0.001583 0.000000
# 3 -0.004468 -0.002085 0.010076 0.000000 -0.006772 0.000000
# 4 0.000000 0.000000 0.000000 0.034296 0.000000 0.015689
# 5 0.004466 0.001583 -0.006772 0.000000 0.040506 0.000000
# 6 0.000000 0.000000 0.000000 0.015689 0.000000 0.017420
#
#
# Mechanical properties :
#
#
# Convention : Reuss Voigt Hill
#
# Bulk Modulus (GPa) = 63.29679 65.30063 64.29871
# Shear Modulus (GPa) = 29.90744 47.57725 38.74235
#
# Velocity S-wave (km/s) = 3.86007 4.86861 4.39338
# Velocity P-wave (km/s) = 7.16951 8.00861 7.60065
#
# Compressibility (1/GPa) = 0.01579859
#
# Stress axis : x y z
#
# Youngs Moduli (GPa) = 59.45084 63.08942 99.25015
#
# Poissons Ratio (x) = 0.43663 0.44345
# Poissons Ratio (y) = 0.41144 0.20697
# Poissons Ratio (z) = 0.26563 0.13156
#
# Static dielectric constant tensor:
#      x y z
#    x 4.117710 0.000000 -0.041380 
#    y 0.000000 3.180040 0.000000 
#    z -0.041380 0.000000 4.247830 
# 
# 
# High freq. dielectric constant tensor:
#      x y z
#    x 1.776870 0.000000 -0.007470 
#    y 0.000000 1.764940 0.000000 
#    z -0.007470 0.000000 1.788830 
# 
# From -- ./inp_files/39950.got.cif
#   From: 2010.06.25/outbox.cif.g09.slc.cpg/sg11_20_cif.got.tgz:39950.got - 2010.06.27 23:14:04.
