data_PCOD8072337
_publ_section_title
;
Structure prediction by ZEFSAII (Michael W. Deem and Ramdas Pophale) SiO2 
 PCOD8072337
Probable space group: P 21/M
;
_chemical_formula_sum "Si O2"
_cell_formula_units_Z 28
_cell_length_a 22.089466
_cell_length_b 8.591909
_cell_length_c 24.663568
_cell_angle_alpha 90.000000
_cell_angle_beta 162.422188
_cell_angle_gamma 90.000000
_cell_volume 1413.639917
_symmetry_space_group_name_H-M "P 21/M"
_symmetry_group_IT_number 11
_symmetry_cell_setting 'monoclinic'
loop_
_space_group_symop_operation_xyz
x,y,z
-x,1/2+y,-z
-x,-y,-z
x,1/2-y,z
loop_
_atom_site_type_symbol
_atom_site_label
_atom_site_fract_x
_atom_site_fract_y
_atom_site_fract_z
Si Si1 0.855011 0.434444 0.444002
Si Si2 0.238079 0.430243 0.055296
Si Si3 0.543635 0.431296 0.479084
Si Si4 0.305146 0.433788 0.801298
Si Si5 0.680864 0.064758 0.407797
Si Si6 0.169493 0.932342 0.106505
Si Si7 0.133311 0.570161 0.325485
O O1 0.835996 0.250000 0.422359
O O2 0.712860 0.507082 0.275980
O O3 0.768693 0.501099 0.426778
O O4 0.090268 0.484188 0.643882
O O5 0.244664 0.250000 0.079290
O O6 0.454770 0.494381 0.223891
O O7 0.131031 0.531983 0.010634
O O8 0.102009 0.452085 0.885614
O O9 0.500000 0.500000 0.500000
O O10 0.560494 0.250000 0.503017
O O11 0.369987 0.474067 0.289564
O O12 0.743385 0.499316 0.620695
O O13 0.330684 0.250000 0.823580
O O14 0.500000 0.500000 0.000000
O O15 0.689226 0.250000 0.412205
O O16 0.810513 0.995147 0.568577
O O17 0.191402 0.750000 0.136338
O O18 0.000000 0.000000 0.000000
O O19 0.196840 0.750000 0.383330
#
# Coordination Sequence:
#
# PCOD8072337 Si02
#       7
#     4   4   4   4   4   4   4
#     4   9  19  35  58  87 117 155 200 243 290 346
#     4  10  19  35  59  83 110 143 182 234 292 348
#     4  11  21  36  56  81 112 144 185 233 288 352
#     4  10  20  35  57  86 122 158 199 244 290 342
#     4   9  17  33  57  85 114 146 189 238 287 344
#     4  12  24  38  56  79 108 144 189 239 295 353
#     4   9  18  32  54  82 108 138 178 227 282 341
#
# _framework density 19.807023999999998
#
# number of rings (size 3 to 8) (size 9 to 14) (size 15 to 20)
#    0.000    2.000    1.429    3.000    0.000    2.857 
#    0.000    5.714    0.000    0.000    0.000    0.000 
#    0.000    0.000    0.000    0.000    0.000    0.000 
#
# Total GULP energy -347029.772541 kJ/mol
# GULP energy per Si atom -12393.920448 kJ/mol
# Density = 1.976194 g / cm^3
# Si number density = 19.807024 Si / 1000 Ang^3
#
#
#
# Elastic Constant Matrix: (Units=GPa)
#
#
# Indices 1 2 3 4 5 6 
#
# 1 176.1516 30.0066 70.9494 0.0000 -5.7685 0.0000
# 2 30.0066 31.6437 19.7234 0.0000 -1.5866 0.0000
# 3 70.9494 19.7234 142.5821 0.0000 -15.2207 0.0000
# 4 0.0000 0.0000 0.0000 23.5702 0.0000 -4.0364
# 5 -5.7685 -1.5866 -15.2207 0.0000 30.1403 0.0000
# 6 0.0000 0.0000 0.0000 -4.0364 0.0000 25.0831
#
#
#
# Elastic Compliance Matrix: (Units=1/GPa)
#
#
# Indices 1 2 3 4 5 6 
#
# 1 0.007894 -0.005506 -0.003209 0.000000 -0.000400 0.000000
# 2 -0.005506 0.038435 -0.002615 0.000000 -0.000351 0.000000
# 3 -0.003209 -0.002615 0.009399 0.000000 0.003994 0.000000
# 4 0.000000 0.000000 0.000000 0.043629 0.000000 0.007021
# 5 -0.000400 -0.000351 0.003994 0.000000 0.035100 0.000000
# 6 0.000000 0.000000 0.000000 0.007021 0.000000 0.040997
#
#
# Mechanical properties :
#
#
# Convention : Reuss Voigt Hill
#
# Bulk Modulus (GPa) = 30.24011 65.74848 47.99430
# Shear Modulus (GPa) = 23.90794 31.07193 27.48994
#
# Velocity S-wave (km/s) = 3.47802 3.96502 3.72948
# Velocity P-wave (km/s) = 5.60619 7.36400 6.54438
#
# Compressibility (1/GPa) = 0.03306866
#
# Stress axis : x y z
#
# Youngs Moduli (GPa) = 126.67324 26.01816 106.39958
#
# Poissons Ratio (x) = 0.14325 0.34147
# Poissons Ratio (y) = 0.69741 0.27819
# Poissons Ratio (z) = 0.40653 0.06803
#
# Static dielectric constant tensor:
#      x y z
#    x 3.883630 0.000000 -0.077750 
#    y 0.000000 3.262430 0.000000 
#    z -0.077750 0.000000 3.800690 
# 
# 
# High freq. dielectric constant tensor:
#      x y z
#    x 1.776350 0.000000 -0.005420 
#    y 0.000000 1.738520 0.000000 
#    z -0.005420 0.000000 1.783240 
# 
# From -- ./inp_files/69832.got.cif
#   From: 2010.06.25/outbox.cif.g09.slc.cpg/sg11_35_cif.got.tgz:69832.got - 2010.06.27 23:14:04.
