data_PCOD8072392
_publ_section_title
;
Structure prediction by ZEFSAII (Michael W. Deem and Ramdas Pophale) SiO2 
 PCOD8072392
Probable space group: P 21/M
;
_chemical_formula_sum "Si O2"
_cell_formula_units_Z 32
_cell_length_a 11.823581
_cell_length_b 8.807730
_cell_length_c 28.651417
_cell_angle_alpha 90.000000
_cell_angle_beta 32.088920
_cell_angle_gamma 90.000000
_cell_volume 1585.059635
_symmetry_space_group_name_H-M "P 21/M"
_symmetry_group_IT_number 11
_symmetry_cell_setting 'monoclinic'
loop_
_space_group_symop_operation_xyz
x,y,z
-x,1/2+y,-z
-x,-y,-z
x,1/2-y,z
loop_
_atom_site_type_symbol
_atom_site_label
_atom_site_fract_x
_atom_site_fract_y
_atom_site_fract_z
Si Si1 0.916086 0.926928 0.666065
Si Si2 0.696542 0.071943 0.905553
Si Si3 0.076895 0.424864 0.836678
Si Si4 0.908337 0.927974 0.985929
Si Si5 0.099998 0.429573 0.510973
Si Si6 0.307705 0.571579 0.595477
Si Si7 0.558675 0.926394 0.359403
Si Si8 0.580485 0.428585 0.844810
O O1 0.910483 0.750000 0.655631
O O2 0.091552 0.964676 0.643733
O O3 0.687212 0.980412 0.765051
O O4 0.962007 0.019331 0.603270
O O5 0.664962 0.250000 0.919509
O O6 0.700445 0.021579 0.850239
O O7 0.912683 0.017512 0.854610
O O8 0.500000 0.000000 0.000000
O O9 0.033057 0.250000 0.864367
O O10 0.314053 0.447259 0.733536
O O11 0.050984 0.521143 0.892393
O O12 0.926419 0.750000 0.984267
O O13 0.664537 0.979448 0.064684
O O14 0.000000 0.000000 0.000000
O O15 0.093604 0.250000 0.509089
O O16 0.341112 0.482733 0.432670
O O17 0.000000 0.500000 0.500000
O O18 0.500000 0.500000 0.500000
O O19 0.346107 0.750000 0.588133
O O20 0.295695 0.491657 0.649942
O O21 0.509464 0.750000 0.386566
O O22 0.600595 0.250000 0.827836
#
# Coordination Sequence:
#
# PCOD8072392 Si02
#       8
#     4   4   4   4   4   4   4   4
#     4  11  24  41  64  95 127 162 207 256 308 369
#     4  10  19  35  60  91 125 161 199 246 304 365
#     4  10  22  39  63  92 125 163 201 249 308 367
#     4  11  24  42  64  88 120 161 208 259 306 364
#     4  12  26  45  68  91 122 163 208 260 312 368
#     4  11  22  37  62  94 129 167 205 252 311 371
#     4  11  23  41  65  94 129 166 207 254 308 373
#     4  10  22  40  62  91 125 163 203 249 311 370
#
# _framework density 20.188514999999999
#
# number of rings (size 3 to 8) (size 9 to 14) (size 15 to 20)
#    0.000    1.250    2.500    3.375    0.000    6.000 
#    0.000    1.250    0.000    0.000    0.000    0.000 
#    0.000    0.000    0.000    0.000    0.000    0.000 
#
# Total GULP energy -396960.778634 kJ/mol
# GULP energy per Si atom -12405.024332 kJ/mol
# Density = 2.014256 g / cm^3
# Si number density = 20.188515 Si / 1000 Ang^3
#
#
#
# Elastic Constant Matrix: (Units=GPa)
#
#
# Indices 1 2 3 4 5 6 
#
# 1 120.2827 49.8854 29.9807 0.0000 27.4546 0.0000
# 2 49.8854 100.1008 41.8202 0.0000 17.4161 0.0000
# 3 29.9807 41.8202 103.5917 0.0000 30.1370 0.0000
# 4 0.0000 0.0000 0.0000 36.3602 0.0000 4.6064
# 5 27.4546 17.4161 30.1370 0.0000 21.0716 0.0000
# 6 0.0000 0.0000 0.0000 4.6064 0.0000 36.2491
#
#
#
# Elastic Compliance Matrix: (Units=1/GPa)
#
#
# Indices 1 2 3 4 5 6 
#
# 1 0.013864 -0.005100 0.003554 0.000000 -0.018932 0.000000
# 2 -0.005100 0.014225 -0.004760 0.000000 0.001696 0.000000
# 3 0.003554 -0.004760 0.018408 0.000000 -0.027024 0.000000
# 4 0.000000 0.000000 0.000000 0.027953 0.000000 -0.003552
# 5 -0.018932 0.001696 -0.027024 0.000000 0.109373 0.000000
# 6 0.000000 0.000000 0.000000 -0.003552 0.000000 0.028038
#
#
# Mechanical properties :
#
#
# Convention : Reuss Voigt Hill
#
# Bulk Modulus (GPa) = 29.51103 63.03865 46.27484
# Shear Modulus (GPa) = 21.20714 32.22210 26.71462
#
# Velocity S-wave (km/s) = 3.24459 3.99941 3.64161
# Velocity P-wave (km/s) = 5.35593 7.25395 6.37596
#
# Compressibility (1/GPa) = 0.03388564
#
# Stress axis : x y z
#
# Youngs Moduli (GPa) = 72.12732 70.29728 54.32354
#
# Poissons Ratio (x) = 0.35854 -0.19308
# Poissons Ratio (y) = 0.36787 0.25858
# Poissons Ratio (z) = -0.25635 0.33461
#
# Static dielectric constant tensor:
#      x y z
#    x 3.818010 0.000000 0.012000 
#    y 0.000000 3.788890 0.000000 
#    z 0.012000 0.000000 3.611350 
# 
# 
# High freq. dielectric constant tensor:
#      x y z
#    x 1.790740 0.000000 0.006060 
#    y 0.000000 1.792380 0.000000 
#    z 0.006060 0.000000 1.799150 
# 
# From -- ./inp_files/73042.got.cif
#   From: 2010.06.25/outbox.cif.g09.slc.cpg/sg11_37_cif.got.tgz:73042.got - 2010.06.27 23:14:04.
