data_PCOD8072717
_publ_section_title
;
Structure prediction by ZEFSAII (Michael W. Deem and Ramdas Pophale) SiO2 
 PCOD8072717
Probable space group: P 21/M
;
_chemical_formula_sum "Si O2"
_cell_formula_units_Z 32
_cell_length_a 16.116701
_cell_length_b 21.103028
_cell_length_c 9.304847
_cell_angle_alpha 90.000000
_cell_angle_beta 147.598279
_cell_angle_gamma 90.000000
_cell_volume 1695.801999
_symmetry_space_group_name_H-M "P 21/M"
_symmetry_group_IT_number 11
_symmetry_cell_setting 'monoclinic'
loop_
_space_group_symop_operation_xyz
x,y,z
-x,1/2+y,-z
-x,-y,-z
x,1/2-y,z
loop_
_atom_site_type_symbol
_atom_site_label
_atom_site_fract_x
_atom_site_fract_y
_atom_site_fract_z
Si Si1 0.206634 0.400949 0.486066
Si Si2 0.996134 0.178540 0.967282
Si Si3 0.322229 0.324789 0.922348
Si Si4 0.610767 0.948845 0.505215
Si Si5 0.651203 0.322542 0.526969
Si Si6 0.689464 0.068137 0.784897
Si Si7 0.167222 0.118995 0.972048
Si Si8 0.987150 0.490251 0.314836
O O1 0.071954 0.369459 0.192547
O O2 0.275834 0.350729 0.698820
O O3 0.345778 0.426035 0.590040
O O4 0.144278 0.463380 0.475956
O O5 0.022312 0.250000 0.061152
O O6 0.075904 0.172330 0.927976
O O7 0.812601 0.164644 0.679395
O O8 0.294449 0.250000 0.884467
O O9 0.209179 0.356479 0.875122
O O10 0.502737 0.341917 0.213425
O O11 0.425892 0.949772 0.253467
O O12 0.674186 0.019464 0.628362
O O13 0.674024 0.899335 0.716399
O O14 0.634546 0.250000 0.550211
O O15 0.655249 0.361435 0.680644
O O16 0.859459 0.063778 0.099352
O O17 0.056778 0.057631 0.816452
O O18 0.000000 0.500000 0.500000
#
# Coordination Sequence:
#
# PCOD8072717 Si02
#       8
#     4   4   4   4   4   4   4   4
#     4  11  22  38  58  90 118 150 193 239 300 339
#     4  10  21  38  60  86 113 151 200 240 281 347
#     4  11  22  39  59  83 121 155 189 239 292 347
#     4   9  21  35  62  86 112 147 197 239 284 348
#     4  10  21  37  60  85 113 155 197 236 284 345
#     4  10  19  39  59  85 116 153 192 244 287 342
#     4  10  20  36  60  85 112 151 198 234 289 342
#     4  11  22  37  58  86 121 151 190 246 291 352
#
# _framework density 18.870127
#
# number of rings (size 3 to 8) (size 9 to 14) (size 15 to 20)
#    0.000    1.750    3.750    0.750    1.750    1.500 
#    2.250    1.875    0.000    0.000    0.000    0.000 
#    0.000    0.000    0.000    0.000    0.000    0.000 
#
# Total GULP energy -396785.723182 kJ/mol
# GULP energy per Si atom -12399.553849 kJ/mol
# Density = 1.882718 g / cm^3
# Si number density = 18.870127 Si / 1000 Ang^3
#
#
#
# Elastic Constant Matrix: (Units=GPa)
#
#
# Indices 1 2 3 4 5 6 
#
# 1 115.6894 40.2061 33.8232 0.0000 -5.1234 0.0000
# 2 40.2061 77.7362 29.2778 0.0000 3.1840 0.0000
# 3 33.8232 29.2778 75.4029 0.0000 -0.8231 0.0000
# 4 0.0000 0.0000 0.0000 25.1868 0.0000 -2.2894
# 5 -5.1234 3.1840 -0.8231 0.0000 24.6972 0.0000
# 6 0.0000 0.0000 0.0000 -2.2894 0.0000 31.0855
#
#
#
# Elastic Compliance Matrix: (Units=1/GPa)
#
#
# Indices 1 2 3 4 5 6 
#
# 1 0.011375 -0.004792 -0.003211 0.000000 0.002870 0.000000
# 2 -0.004792 0.017200 -0.004566 0.000000 -0.003364 0.000000
# 3 -0.003211 -0.004566 0.016480 0.000000 0.000472 0.000000
# 4 0.000000 0.000000 0.000000 0.039971 0.000000 0.002944
# 5 0.002870 -0.003364 0.000472 0.000000 0.041535 0.000000
# 6 0.000000 0.000000 0.000000 0.002944 0.000000 0.032386
#
#
# Mechanical properties :
#
#
# Convention : Reuss Voigt Hill
#
# Bulk Modulus (GPa) = 50.20342 52.82694 51.51518
# Shear Modulus (GPa) = 26.21612 27.22867 26.72239
#
# Velocity S-wave (km/s) = 3.73136 3.80274 3.76722
# Velocity P-wave (km/s) = 6.72507 6.88018 6.80307
#
# Compressibility (1/GPa) = 0.01991896
#
# Stress axis : x y z
#
# Youngs Moduli (GPa) = 87.91340 58.14071 60.67893
#
# Poissons Ratio (x) = 0.27859 0.19481
# Poissons Ratio (y) = 0.42124 0.27704
# Poissons Ratio (z) = 0.28225 0.26546
#
# Static dielectric constant tensor:
#      x y z
#    x 3.346100 0.000000 0.156670 
#    y 0.000000 3.629360 0.000000 
#    z 0.156670 0.000000 3.533470 
# 
# 
# High freq. dielectric constant tensor:
#      x y z
#    x 1.728850 0.000000 0.014670 
#    y 0.000000 1.738630 0.000000 
#    z 0.014670 0.000000 1.725000 
# 
# From -- ./inp_files/23391.got.cif
#   From: 2010.06.25/outbox.cif.g09.slc.cpg/sg11_12_cif.got.tgz:23391.got - 2010.06.27 23:14:04.
