data_PCOD8072129
_publ_section_title
;
Structure prediction by ZEFSAII (Michael W. Deem and Ramdas Pophale) SiO2 
 PCOD8072129
Probable space group: P 21/M
;
_chemical_formula_sum "Si O2"
_cell_formula_units_Z 28
_cell_length_a 7.556274
_cell_length_b 21.243273
_cell_length_c 9.281204
_cell_angle_alpha 90.000000
_cell_angle_beta 76.573647
_cell_angle_gamma 90.000000
_cell_volume 1449.100823
_symmetry_space_group_name_H-M "P 21/M"
_symmetry_group_IT_number 11
_symmetry_cell_setting 'monoclinic'
loop_
_space_group_symop_operation_xyz
x,y,z
-x,1/2+y,-z
-x,-y,-z
x,1/2-y,z
loop_
_atom_site_type_symbol
_atom_site_label
_atom_site_fract_x
_atom_site_fract_y
_atom_site_fract_z
Si Si1 0.650225 0.932994 0.596474
Si Si2 0.586705 0.820769 0.449571
Si Si3 0.997158 0.577731 0.696761
Si Si4 0.819638 0.177425 0.534275
Si Si5 0.905519 0.931616 0.024009
Si Si6 0.673183 0.988920 0.286403
Si Si7 0.959805 0.677521 0.222380
O O1 0.622587 0.857741 0.594068
O O2 0.848320 0.952066 0.616373
O O3 0.617651 0.947536 0.433466
O O4 0.494980 0.965697 0.722449
O O5 0.579798 0.750000 0.505788
O O6 0.393908 0.839497 0.412746
O O7 0.748373 0.830121 0.304052
O O8 0.888558 0.594676 0.864799
O O9 0.089237 0.639202 0.613088
O O10 0.148116 0.526286 0.699894
O O11 0.853506 0.250000 0.491112
O O12 0.913292 0.159550 0.666915
O O13 0.712787 0.945166 0.139877
O O14 0.007727 0.875337 0.092724
O O15 0.000000 0.000000 0.000000
O O16 0.997830 0.750000 0.163573
#
# Coordination Sequence:
#
# PCOD8072129 Si02
#       7
#     4   4   4   4   4   4   4
#     4  11  20  34  59  81 104 145 190 233 279 323
#     4  10  19  34  59  86 109 136 184 243 286 332
#     4  11  21  34  55  80 112 148 182 226 280 335
#     4  10  20  35  60  87 109 139 189 241 289 334
#     4  10  22  39  54  82 122 155 189 229 284 348
#     4  10  21  37  52  78 115 145 188 231 275 329
#     4  10  20  39  62  82 109 149 191 239 286 339
#
# _framework density 19.322327000000001
#
# number of rings (size 3 to 8) (size 9 to 14) (size 15 to 20)
#    0.000    1.714    4.286    0.429    0.000    2.286 
#    0.000    2.857    0.000    0.000    0.000    0.000 
#    0.000    0.000    0.000    0.000    0.000    0.000 
#
# Total GULP energy -346948.324365 kJ/mol
# GULP energy per Si atom -12391.011584 kJ/mol
# Density = 1.927835 g / cm^3
# Si number density = 19.322327 Si / 1000 Ang^3
#
#
#
# Elastic Constant Matrix: (Units=GPa)
#
#
# Indices 1 2 3 4 5 6 
#
# 1 117.0743 24.4821 17.0133 0.0000 3.3688 0.0000
# 2 24.4821 89.4102 30.9878 0.0000 2.2859 0.0000
# 3 17.0133 30.9878 67.7367 0.0000 -5.3305 0.0000
# 4 0.0000 0.0000 0.0000 36.4122 0.0000 -5.6383
# 5 3.3688 2.2859 -5.3305 0.0000 17.3687 0.0000
# 6 0.0000 0.0000 0.0000 -5.6383 0.0000 27.0075
#
#
#
# Elastic Compliance Matrix: (Units=1/GPa)
#
#
# Indices 1 2 3 4 5 6 
#
# 1 0.009234 -0.001922 -0.001600 0.000000 -0.002029 0.000000
# 2 -0.001922 0.013929 -0.006153 0.000000 -0.003349 0.000000
# 3 -0.001600 -0.006153 0.018515 0.000000 0.006802 0.000000
# 4 0.000000 0.000000 0.000000 0.028381 0.000000 0.005925
# 5 -0.002029 -0.003349 0.006802 0.000000 0.060497 0.000000
# 6 0.000000 0.000000 0.000000 0.005925 0.000000 0.038264
#
#
# Mechanical properties :
#
#
# Convention : Reuss Voigt Hill
#
# Bulk Modulus (GPa) = 44.78550 46.57640 45.68095
# Shear Modulus (GPa) = 25.56087 29.60688 27.58388
#
# Velocity S-wave (km/s) = 3.64107 3.91866 3.78241
# Velocity P-wave (km/s) = 6.39570 6.68071 6.53975
#
# Compressibility (1/GPa) = 0.02232866
#
# Stress axis : x y z
#
# Youngs Moduli (GPa) = 108.29060 71.79378 54.01065
#
# Poissons Ratio (x) = 0.13801 0.08640
# Poissons Ratio (y) = 0.20816 0.33231
# Poissons Ratio (z) = 0.17323 0.44173
#
# Static dielectric constant tensor:
#      x y z
#    x 3.619750 0.000000 -0.164690 
#    y 0.000000 3.854180 0.000000 
#    z -0.164690 0.000000 3.666220 
# 
# 
# High freq. dielectric constant tensor:
#      x y z
#    x 1.750290 0.000000 -0.006350 
#    y 0.000000 1.768110 0.000000 
#    z -0.006350 0.000000 1.723750 
# 
# From -- ./inp_files/14026.got.cif
#   From: 2010.06.25/outbox.cif.g09.slc.cpg/sg11_8_cif.got.tgz:14026.got - 2010.06.27 23:14:04.
