data_PCOD8072103
_publ_section_title
;
Structure prediction by ZEFSAII (Michael W. Deem and Ramdas Pophale) SiO2 
 PCOD8072103
Probable space group: P 21/M
;
_chemical_formula_sum "Si O2"
_cell_formula_units_Z 32
_cell_length_a 16.398325
_cell_length_b 18.210188
_cell_length_c 12.509538
_cell_angle_alpha 90.000000
_cell_angle_beta 153.425127
_cell_angle_gamma 90.000000
_cell_volume 1671.163924
_symmetry_space_group_name_H-M "P 21/M"
_symmetry_group_IT_number 11
_symmetry_cell_setting 'monoclinic'
loop_
_space_group_symop_operation_xyz
x,y,z
-x,1/2+y,-z
-x,-y,-z
x,1/2-y,z
loop_
_atom_site_type_symbol
_atom_site_label
_atom_site_fract_x
_atom_site_fract_y
_atom_site_fract_z
Si Si1 0.261337 0.405996 0.046424
Si Si2 0.301351 0.165992 0.877994
Si Si3 0.811651 0.078480 0.005052
Si Si4 0.449590 0.081979 0.471051
Si Si5 0.950217 0.918651 0.913810
Si Si6 0.309202 0.834756 0.724793
Si Si7 0.088965 0.836185 0.667269
Si Si8 0.917866 0.335108 0.732385
O O1 0.331649 0.390851 0.010331
O O2 0.411408 0.380690 0.310855
O O3 0.205263 0.490944 0.998105
O O4 0.091544 0.352572 0.863159
O O5 0.295853 0.250000 0.914216
O O6 0.475382 0.153719 0.005248
O O7 0.123761 0.147737 0.601132
O O8 0.980342 0.098249 0.124382
O O9 0.847955 0.117873 0.158058
O O10 0.624306 0.114015 0.738076
O O11 0.268159 0.092000 0.331875
O O12 0.500000 0.000000 0.500000
O O13 0.068374 0.871477 0.135616
O O14 0.000000 0.000000 0.000000
O O15 0.251189 0.750000 0.656312
O O16 0.201443 0.869453 0.698563
O O17 0.249178 0.865679 0.537292
O O18 0.126835 0.750000 0.731267
O O19 0.898907 0.250000 0.733535
#
# Coordination Sequence:
#
# PCOD8072103 Si02
#       8
#     4   4   4   4   4   4   4   4
#     4  10  19  35  58  85 113 146 180 239 284 326
#     4  10  20  36  59  84 110 147 193 236 283 327
#     4  11  23  38  57  83 118 153 187 221 282 349
#     4   9  19  35  55  82 110 149 185 222 277 335
#     4  11  20  36  58  82 113 155 181 226 286 330
#     4   9  19  36  59  83 108 146 187 235 287 325
#     4  10  22  41  59  78 116 155 187 230 278 338
#     4  10  19  34  58  86 111 141 186 237 283 329
#
# _framework density 19.148332
#
# number of rings (size 3 to 8) (size 9 to 14) (size 15 to 20)
#    0.000    2.000    5.000    0.375    1.750    2.000 
#    0.000    3.750    0.000    0.000    0.000    0.000 
#    0.000    0.000    0.000    0.000    0.000    0.000 
#
# Total GULP energy -396541.910886 kJ/mol
# GULP energy per Si atom -12391.934715 kJ/mol
# Density = 1.910475 g / cm^3
# Si number density = 19.148332 Si / 1000 Ang^3
#
#
#
# Elastic Constant Matrix: (Units=GPa)
#
#
# Indices 1 2 3 4 5 6 
#
# 1 114.9528 35.3689 64.2766 0.0000 -8.7306 0.0000
# 2 35.3689 43.7715 34.0711 0.0000 -12.4719 0.0000
# 3 64.2766 34.0711 144.9506 0.0000 -3.8859 0.0000
# 4 0.0000 0.0000 0.0000 22.8681 0.0000 -6.8418
# 5 -8.7306 -12.4719 -3.8859 0.0000 29.9519 0.0000
# 6 0.0000 0.0000 0.0000 -6.8418 0.0000 28.7696
#
#
#
# Elastic Compliance Matrix: (Units=1/GPa)
#
#
# Indices 1 2 3 4 5 6 
#
# 1 0.013340 -0.007481 -0.004151 0.000000 0.000235 0.000000
# 2 -0.007481 0.036158 -0.004853 0.000000 0.012246 0.000000
# 3 -0.004151 -0.004853 0.009828 0.000000 -0.001956 0.000000
# 4 0.000000 0.000000 0.000000 0.047079 0.000000 0.011196
# 5 0.000235 0.012246 -0.001956 0.000000 0.038301 0.000000
# 6 0.000000 0.000000 0.000000 0.011196 0.000000 0.037422
#
#
# Mechanical properties :
#
#
# Convention : Reuss Voigt Hill
#
# Bulk Modulus (GPa) = 37.94315 63.45644 50.69980
# Shear Modulus (GPa) = 22.33319 27.64845 24.99082
#
# Velocity S-wave (km/s) = 3.41886 3.80400 3.61656
# Velocity P-wave (km/s) = 5.95342 7.24605 6.63131
#
# Compressibility (1/GPa) = 0.02635522
#
# Stress axis : x y z
#
# Youngs Moduli (GPa) = 74.96407 27.65632 101.75270
#
# Poissons Ratio (x) = 0.20691 0.42233
# Poissons Ratio (y) = 0.56084 0.49383
# Poissons Ratio (z) = 0.31114 0.13422
#
# Static dielectric constant tensor:
#      x y z
#    x 4.897350 0.000000 0.252790 
#    y 0.000000 3.186500 0.000000 
#    z 0.252790 0.000000 3.948510 
# 
# 
# High freq. dielectric constant tensor:
#      x y z
#    x 1.746100 0.000000 0.002850 
#    y 0.000000 1.712470 0.000000 
#    z 0.002850 0.000000 1.754550 
# 
# From -- ./inp_files/40012.got.cif
#   From: 2010.06.25/outbox.cif.g09.slc.cpg/sg11_21_cif.got.tgz:40012.got - 2010.06.27 23:14:04.
