data_PCOD8072416
_publ_section_title
;
Structure prediction by ZEFSAII (Michael W. Deem and Ramdas Pophale) SiO2 
 PCOD8072416
Probable space group: P 21/M
;
_chemical_formula_sum "Si O2"
_cell_formula_units_Z 14
_cell_length_a 21.932346
_cell_length_b 5.301291
_cell_length_c 27.249221
_cell_angle_alpha 90.000000
_cell_angle_beta 10.878232
_cell_angle_gamma 90.000000
_cell_volume 597.921519
_symmetry_space_group_name_H-M "P 21/M"
_symmetry_group_IT_number 11
_symmetry_cell_setting 'monoclinic'
loop_
_space_group_symop_operation_xyz
x,y,z
-x,1/2+y,-z
-x,-y,-z
x,1/2-y,z
loop_
_atom_site_type_symbol
_atom_site_label
_atom_site_fract_x
_atom_site_fract_y
_atom_site_fract_z
Si Si1 0.682462 0.250000 0.997787
Si Si2 0.650261 0.250000 0.358401
Si Si3 0.595121 0.750000 0.555744
Si Si4 0.996361 0.750000 0.416608
Si Si5 0.444846 0.750000 0.155104
Si Si6 0.850472 0.250000 0.503563
Si Si7 0.597590 0.750000 0.233891
O O1 0.393100 0.250000 0.266200
O O2 0.665443 0.499609 0.976646
O O3 0.022054 0.250000 0.757993
O O4 0.500000 0.500000 0.500000
O O5 0.602477 0.250000 0.338101
O O6 0.025068 0.250000 0.074488
O O7 0.503058 0.500077 0.657906
O O8 0.074463 0.501306 0.322102
O O9 0.172326 0.750000 0.329313
O O10 0.272679 0.750000 0.343399
O O11 0.562862 0.250000 0.692604
#
# Coordination Sequence:
#
# PCOD8072416 Si02
#       7
#     2   2   2   2   2   2   2
#     4  10  20  33  62  89 126 165 229 258 324 385
#     4  12  28  46  78 104 132 166 234 282 318 392
#     4  12  26  46  68  97 145 183 210 264 353 412
#     4  10  19  35  62  94 129 168 224 289 329 364
#     4  10  19  35  62  94 129 168 224 289 329 364
#     4  10  20  33  62  89 126 165 229 258 324 385
#     4  12  26  46  68  97 145 183 210 264 353 412
#
# _framework density 23.414445000000001
#
# number of rings (size 3 to 8) (size 9 to 14) (size 15 to 20)
#    0.000    1.143    0.000    8.571    8.000    0.000 
#    0.000    0.000    0.000   29.143    0.000    0.000 
#    0.000    0.000    0.000    0.000    0.000    0.000 
#
# Total GULP energy -173568.690277 kJ/mol
# GULP energy per Si atom -12397.763591 kJ/mol
# Density = 2.336115 g / cm^3
# Si number density = 23.414445 Si / 1000 Ang^3
#
#
#
# Elastic Constant Matrix: (Units=GPa)
#
#
# Indices 1 2 3 4 5 6 
#
# 1 111.3213 35.5808 12.2579 0.0000 -39.0772 0.0000
# 2 35.5808 257.0363 6.1157 0.0000 -15.0526 0.0000
# 3 12.2579 6.1157 31.3394 0.0000 -6.5694 0.0000
# 4 0.0000 0.0000 0.0000 25.0408 0.0000 -14.6308
# 5 -39.0772 -15.0526 -6.5694 0.0000 36.9325 0.0000
# 6 0.0000 0.0000 0.0000 -14.6308 0.0000 28.6812
#
#
#
# Elastic Compliance Matrix: (Units=1/GPa)
#
#
# Indices 1 2 3 4 5 6 
#
# 1 0.014794 -0.001125 -0.002474 0.000000 0.014755 0.000000
# 2 -0.001125 0.004077 -0.000267 0.000000 0.000424 0.000000
# 3 -0.002474 -0.000267 0.033610 0.000000 0.003252 0.000000
# 4 0.000000 0.000000 0.000000 0.056891 0.000000 0.029021
# 5 0.014755 0.000424 0.003252 0.000000 0.043440 0.000000
# 6 0.000000 0.000000 0.000000 0.029021 0.000000 0.049670
#
#
# Mechanical properties :
#
#
# Convention : Reuss Voigt Hill
#
# Bulk Modulus (GPa) = 22.34622 56.40065 39.37344
# Shear Modulus (GPa) = 22.20926 41.18042 31.69484
#
# Velocity S-wave (km/s) = 3.08316 4.19831 3.68318
# Velocity P-wave (km/s) = 4.71582 6.90227 5.91102
#
# Compressibility (1/GPa) = 0.04475029
#
# Stress axis : x y z
#
# Youngs Moduli (GPa) = 67.59285 245.25358 29.75291
#
# Poissons Ratio (x) = 0.27591 0.07361
# Poissons Ratio (y) = 0.07604 0.00794
# Poissons Ratio (z) = 0.16723 0.06543
#
# Static dielectric constant tensor:
#      x y z
#    x 4.073430 0.000000 -0.277360 
#    y 0.000000 6.536230 0.000000 
#    z -0.277360 0.000000 4.115890 
# 
# 
# High freq. dielectric constant tensor:
#      x y z
#    x 1.923560 0.000000 -0.015510 
#    y 0.000000 1.973490 0.000000 
#    z -0.015510 0.000000 1.916700 
# 
# From -- ./inp_files/71919.got.cif
#   From: 2010.06.25/outbox.cif.g09.slc.cpg/sg11_36_cif.got.tgz:71919.got - 2010.06.27 23:14:04.
