data_PCOD8072396
_publ_section_title
;
Structure prediction by ZEFSAII (Michael W. Deem and Ramdas Pophale) SiO2 
 PCOD8072396
Probable space group: P 21/M
;
_chemical_formula_sum "Si O2"
_cell_formula_units_Z 32
_cell_length_a 8.695775
_cell_length_b 28.222674
_cell_length_c 11.112626
_cell_angle_alpha 90.000000
_cell_angle_beta 33.204145
_cell_angle_gamma 90.000000
_cell_volume 1493.500705
_symmetry_space_group_name_H-M "P 21/M"
_symmetry_group_IT_number 11
_symmetry_cell_setting 'monoclinic'
loop_
_space_group_symop_operation_xyz
x,y,z
-x,1/2+y,-z
-x,-y,-z
x,1/2-y,z
loop_
_atom_site_type_symbol
_atom_site_label
_atom_site_fract_x
_atom_site_fract_y
_atom_site_fract_z
Si Si1 0.333063 0.119879 0.591680
Si Si2 0.094227 0.515588 0.667153
Si Si3 0.793149 0.609573 0.811997
Si Si4 0.730789 0.198451 0.275714
Si Si5 0.364253 0.965021 0.724073
Si Si6 0.700409 0.653425 0.125859
Si Si7 0.223872 0.573034 0.074064
Si Si8 0.142512 0.802184 0.527627
O O1 0.468122 0.163344 0.427491
O O2 0.498495 0.072790 0.454828
O O3 0.378868 0.123839 0.704578
O O4 0.009839 0.114328 0.764443
O O5 0.394858 0.504173 0.408095
O O6 0.113242 0.515595 0.802617
O O7 0.995475 0.564134 0.670032
O O8 0.869021 0.473389 0.788312
O O9 0.918713 0.654880 0.656662
O O10 0.758386 0.619306 0.975992
O O11 0.501005 0.596347 0.943929
O O12 0.645689 0.250000 0.280308
O O13 0.793967 0.201196 0.374302
O O14 0.018423 0.182350 0.023015
O O15 0.256196 0.940620 0.913984
O O16 0.435326 0.687109 0.266428
O O17 0.030601 0.750000 0.557171
#
# Coordination Sequence:
#
# PCOD8072396 Si02
#       8
#     4   4   4   4   4   4   4   4
#     4  10  20  36  56  81 111 148 190 233 282 340
#     4  10  21  37  57  85 112 148 195 236 284 335
#     4  11  23  37  57  87 118 151 188 232 283 339
#     4   9  17  31  55  86 112 137 183 243 293 338
#     4  10  21  38  59  81 111 152 196 239 283 335
#     4  10  19  35  61  84 111 144 186 237 289 338
#     4  11  23  37  56  81 119 157 189 230 281 339
#     4   9  19  35  57  85 114 146 186 232 283 339
#
# _framework density 21.426169999999999
#
# number of rings (size 3 to 8) (size 9 to 14) (size 15 to 20)
#    0.000    2.000    0.000    4.875    0.000    6.500 
#    0.000    0.625    0.000    3.750    0.000    0.000 
#    0.000    0.000    0.000    0.000    0.000    0.000 
#
# Total GULP energy -396653.510731 kJ/mol
# GULP energy per Si atom -12395.422210 kJ/mol
# Density = 2.137740 g / cm^3
# Si number density = 21.426170 Si / 1000 Ang^3
#
#
#
# Elastic Constant Matrix: (Units=GPa)
#
#
# Indices 1 2 3 4 5 6 
#
# 1 42.8351 39.8064 27.4287 0.0000 -25.1667 0.0000
# 2 39.8064 153.2919 63.1336 0.0000 -36.3923 0.0000
# 3 27.4287 63.1336 108.2619 0.0000 -26.6956 0.0000
# 4 0.0000 0.0000 0.0000 28.6981 0.0000 -15.7256
# 5 -25.1667 -36.3923 -26.6956 0.0000 34.8465 0.0000
# 6 0.0000 0.0000 0.0000 -15.7256 0.0000 14.6727
#
#
#
# Elastic Compliance Matrix: (Units=1/GPa)
#
#
# Indices 1 2 3 4 5 6 
#
# 1 0.043737 -0.004434 -0.002279 0.000000 0.025212 0.000000
# 2 -0.004434 0.010338 -0.003739 0.000000 0.004730 0.000000
# 3 -0.002279 -0.003739 0.013101 0.000000 0.004486 0.000000
# 4 0.000000 0.000000 0.000000 0.084430 0.000000 0.090489
# 5 0.025212 0.004730 0.004486 0.000000 0.055282 0.000000
# 6 0.000000 0.000000 0.000000 0.090489 0.000000 0.165136
#
#
# Mechanical properties :
#
#
# Convention : Reuss Voigt Hill
#
# Bulk Modulus (GPa) = 21.61092 62.79181 42.20136
# Shear Modulus (GPa) = 12.24441 27.24480 19.74461
#
# Velocity S-wave (km/s) = 2.39314 3.56977 3.03895
# Velocity P-wave (km/s) = 4.21239 6.80887 5.66149
#
# Compressibility (1/GPa) = 0.04627290
#
# Stress axis : x y z
#
# Youngs Moduli (GPa) = 22.86388 96.73480 76.33213
#
# Poissons Ratio (x) = 0.42889 0.17394
# Poissons Ratio (y) = 0.10137 0.28539
# Poissons Ratio (z) = 0.05210 0.36167
#
# Static dielectric constant tensor:
#      x y z
#    x 3.369340 0.000000 -0.232540 
#    y 0.000000 4.403330 0.000000 
#    z -0.232540 0.000000 4.333160 
# 
# 
# High freq. dielectric constant tensor:
#      x y z
#    x 1.788610 0.000000 -0.010010 
#    y 0.000000 1.851070 0.000000 
#    z -0.010010 0.000000 1.855600 
# 
# From -- ./inp_files/33189.got.cif
#   From: 2010.06.25/outbox.cif.g09.slc.cpg/sg11_17_cif.got.tgz:33189.got - 2010.06.27 23:14:04.
