data_PCOD8072115
_publ_section_title
;
Structure prediction by ZEFSAII (Michael W. Deem and Ramdas Pophale) SiO2 
 PCOD8072115
Probable space group: P 21/M
;
_chemical_formula_sum "Si O2"
_cell_formula_units_Z 28
_cell_length_a 9.595904
_cell_length_b 9.066975
_cell_length_c 27.454288
_cell_angle_alpha 90.000000
_cell_angle_beta 141.321397
_cell_angle_gamma 90.000000
_cell_volume 1492.810146
_symmetry_space_group_name_H-M "P 21/M"
_symmetry_group_IT_number 11
_symmetry_cell_setting 'monoclinic'
loop_
_space_group_symop_operation_xyz
x,y,z
-x,1/2+y,-z
-x,-y,-z
x,1/2-y,z
loop_
_atom_site_type_symbol
_atom_site_label
_atom_site_fract_x
_atom_site_fract_y
_atom_site_fract_z
Si Si1 0.727557 0.416077 0.054074
Si Si2 0.865479 0.424401 0.506886
Si Si3 0.653428 0.921282 0.637999
Si Si4 0.215116 0.585783 0.044102
Si Si5 0.687464 0.580358 0.206897
Si Si6 0.967513 0.923233 0.635399
Si Si7 0.009406 0.581813 0.205046
O O1 0.704900 0.250000 0.068305
O O2 0.935609 0.495290 0.136770
O O3 0.500000 0.500000 0.000000
O O4 0.773675 0.415727 0.010223
O O5 0.907407 0.250000 0.516770
O O6 0.605089 0.463082 0.431753
O O7 0.947683 0.487646 0.580354
O O8 0.000000 0.500000 0.500000
O O9 0.695381 0.750000 0.659908
O O10 0.761604 0.963530 0.615160
O O11 0.765309 0.012819 0.711861
O O12 0.189698 0.750000 0.057186
O O13 0.438042 0.519727 0.129835
O O14 0.000000 0.500000 0.000000
O O15 0.693358 0.750000 0.226811
O O16 0.810176 0.568804 0.188918
O O17 0.801141 0.473847 0.277159
O O18 0.976623 0.750000 0.626579
O O19 0.059902 0.750000 0.204676
#
# Coordination Sequence:
#
# PCOD8072115 Si02
#       7
#     4   4   4   4   4   4   4
#     4  11  21  36  58  84 115 150 191 238 285 335
#     4  11  23  40  60  84 118 154 187 229 281 336
#     4   9  20  38  60  87 116 147 187 234 281 333
#     4  10  22  39  56  80 114 151 192 236 283 337
#     4   9  18  36  57  81 115 148 186 234 280 330
#     4  10  20  36  61  90 113 143 189 233 282 340
#     4  10  19  34  58  88 116 146 187 235 286 335
#
# _framework density 18.756571999999998
#
# number of rings (size 3 to 8) (size 9 to 14) (size 15 to 20)
#    0.000    2.000    1.429    2.143    0.000    4.000 
#    2.571    0.000    0.000    0.000    0.000    0.000 
#    0.000    0.000    0.000    0.000    0.000    0.000 
#
# Total GULP energy -347232.226134 kJ/mol
# GULP energy per Si atom -12401.150933 kJ/mol
# Density = 1.871388 g / cm^3
# Si number density = 18.756572 Si / 1000 Ang^3
#
#
#
# Elastic Constant Matrix: (Units=GPa)
#
#
# Indices 1 2 3 4 5 6 
#
# 1 81.0282 48.6839 65.0810 0.0000 12.0509 0.0000
# 2 48.6839 106.2222 73.3279 0.0000 -1.9739 0.0000
# 3 65.0810 73.3279 152.7404 0.0000 5.9360 0.0000
# 4 0.0000 0.0000 0.0000 39.2479 0.0000 -0.8896
# 5 12.0509 -1.9739 5.9360 0.0000 24.7140 0.0000
# 6 0.0000 0.0000 0.0000 -0.8896 0.0000 30.6413
#
#
#
# Elastic Compliance Matrix: (Units=1/GPa)
#
#
# Indices 1 2 3 4 5 6 
#
# 1 0.022589 -0.006227 -0.006246 0.000000 -0.010012 0.000000
# 2 -0.006227 0.015988 -0.005239 0.000000 0.005572 0.000000
# 3 -0.006246 -0.005239 0.011731 0.000000 -0.000190 0.000000
# 4 0.000000 0.000000 0.000000 0.025496 0.000000 0.000740
# 5 -0.010012 0.005572 -0.000190 0.000000 0.045835 0.000000
# 6 0.000000 0.000000 0.000000 0.000740 0.000000 0.032657
#
#
# Mechanical properties :
#
#
# Convention : Reuss Voigt Hill
#
# Bulk Modulus (GPa) = 67.18801 79.35293 73.27047
# Shear Modulus (GPa) = 25.68293 29.11384 27.39838
#
# Velocity S-wave (km/s) = 3.70439 3.94406 3.82610
# Velocity P-wave (km/s) = 7.36176 7.94603 7.65947
#
# Compressibility (1/GPa) = 0.01488361
#
# Stress axis : x y z
#
# Youngs Moduli (GPa) = 44.27028 62.54569 85.24383
#
# Poissons Ratio (x) = 0.38947 0.53245
# Poissons Ratio (y) = 0.27567 0.44659
# Poissons Ratio (z) = 0.27652 0.32768
#
# Static dielectric constant tensor:
#      x y z
#    x 3.185280 0.000000 0.028070 
#    y 0.000000 3.647750 0.000000 
#    z 0.028070 0.000000 3.599860 
# 
# 
# High freq. dielectric constant tensor:
#      x y z
#    x 1.709280 0.000000 -0.000760 
#    y 0.000000 1.736900 0.000000 
#    z -0.000760 0.000000 1.743260 
# 
# From -- ./inp_files/28164.got.cif
#   From: 2010.06.25/outbox.cif.g09.slc.cpg/sg11_15_cif.got.tgz:28164.got - 2010.06.27 23:14:04.
