data_PCOD8072837
_publ_section_title
;
Structure prediction by ZEFSAII (Michael W. Deem and Ramdas Pophale) SiO2 
 PCOD8072837
Probable space group: P 21/M
;
_chemical_formula_sum "Si O2"
_cell_formula_units_Z 28
_cell_length_a 20.335156
_cell_length_b 9.215528
_cell_length_c 17.880592
_cell_angle_alpha 90.000000
_cell_angle_beta 153.280178
_cell_angle_gamma 90.000000
_cell_volume 1506.617521
_symmetry_space_group_name_H-M "P 21/M"
_symmetry_group_IT_number 11
_symmetry_cell_setting 'monoclinic'
loop_
_space_group_symop_operation_xyz
x,y,z
-x,1/2+y,-z
-x,-y,-z
x,1/2-y,z
loop_
_atom_site_type_symbol
_atom_site_label
_atom_site_fract_x
_atom_site_fract_y
_atom_site_fract_z
Si Si1 0.372600 0.084023 0.271978
Si Si2 0.143740 0.418332 0.620739
Si Si3 0.767049 0.914620 0.129928
Si Si4 0.255097 0.086550 0.469035
Si Si5 0.896998 0.419394 0.560789
Si Si6 0.657065 0.584686 0.597961
Si Si7 0.402325 0.917018 0.161121
O O1 0.374710 0.250000 0.247646
O O2 0.274868 0.064218 0.249033
O O3 0.534095 0.035624 0.460148
O O4 0.317351 0.990368 0.145242
O O5 0.109048 0.250000 0.569931
O O6 0.257358 0.433775 0.805213
O O7 0.197625 0.495013 0.598916
O O8 0.000000 0.500000 0.500000
O O9 0.734456 0.750000 0.072906
O O10 0.932341 0.955761 0.274719
O O11 0.653261 0.017829 0.973132
O O12 0.215546 0.250000 0.454215
O O13 0.224663 0.065727 0.348856
O O14 0.425427 0.054336 0.657981
O O15 0.154682 0.973195 0.410743
O O16 0.864878 0.250000 0.519291
O O17 0.591627 0.750000 0.524888
O O18 0.360972 0.750000 0.120474
#
# Coordination Sequence:
#
# PCOD8072837 Si02
#       7
#     4   4   4   4   4   4   4
#     4   9  15  25  44  67  93 125 158 196 239 279
#     4   9  17  31  51  73  96 123 158 199 238 280
#     4   9  19  34  51  72  96 122 157 198 237 281
#     4   9  18  32  48  70 100 128 157 196 239 283
#     4  10  20  33  51  75  98 124 161 199 237 285
#     4   8  15  27  43  66  94 124 160 198 235 279
#     4  10  20  32  48  72 100 128 160 197 239 287
#
# _framework density 18.584676000000002
#
# number of rings (size 3 to 8) (size 9 to 14) (size 15 to 20)
#    0.000    2.857    0.000    3.429    0.000    6.857 
#    0.000    0.714    0.000    0.857    0.000    0.000 
#    0.000    0.000    0.000    0.000    0.000    0.000 
#
# Total GULP energy -346934.198026 kJ/mol
# GULP energy per Si atom -12390.507072 kJ/mol
# Density = 1.854238 g / cm^3
# Si number density = 18.584676 Si / 1000 Ang^3
#
#
#
# Elastic Constant Matrix: (Units=GPa)
#
#
# Indices 1 2 3 4 5 6 
#
# 1 61.9962 14.5962 -13.0571 0.0000 -1.8358 0.0000
# 2 14.5962 81.3046 4.6764 0.0000 0.4293 0.0000
# 3 -13.0571 4.6764 13.2475 0.0000 -2.9996 0.0000
# 4 0.0000 0.0000 0.0000 25.6040 0.0000 -5.6226
# 5 -1.8358 0.4293 -2.9996 0.0000 13.6985 0.0000
# 6 0.0000 0.0000 0.0000 -5.6226 0.0000 33.3844
#
#
#
# Elastic Compliance Matrix: (Units=1/GPa)
#
#
# Indices 1 2 3 4 5 6 
#
# 1 0.023555 -0.005854 0.027398 0.000000 0.009339 0.000000
# 2 -0.005854 0.014036 -0.011576 0.000000 -0.003759 0.000000
# 3 0.027398 -0.011576 0.113097 0.000000 0.028799 0.000000
# 4 0.000000 0.000000 0.000000 0.040556 0.000000 0.006831
# 5 0.009339 -0.003759 0.028799 0.000000 0.080676 0.000000
# 6 0.000000 0.000000 0.000000 0.006831 0.000000 0.031105
#
#
# Mechanical properties :
#
#
# Convention : Reuss Voigt Hill
#
# Bulk Modulus (GPa) = 5.86083 18.77547 12.31815
# Shear Modulus (GPa) = 14.70746 24.55957 19.63352
#
# Velocity S-wave (km/s) = 2.81619 3.63918 3.25381
# Velocity P-wave (km/s) = 3.70608 5.27094 4.55619
#
# Compressibility (1/GPa) = 0.17062428
#
# Stress axis : x y z
#
# Youngs Moduli (GPa) = 42.45376 71.24548 8.84197
#
# Poissons Ratio (x) = 0.41706 -0.24225
# Poissons Ratio (y) = 0.24852 0.10235
# Poissons Ratio (z) = -1.16313 0.82471
#
# Static dielectric constant tensor:
#      x y z
#    x 3.910970 0.000000 -0.587000 
#    y 0.000000 3.533650 0.000000 
#    z -0.587000 0.000000 3.064360 
# 
# 
# High freq. dielectric constant tensor:
#      x y z
#    x 1.725340 0.000000 -0.042370 
#    y 0.000000 1.734130 0.000000 
#    z -0.042370 0.000000 1.666130 
# 
# From -- ./inp_files/42581.got.cif
#   From: 2010.06.25/outbox.cif.g09.slc.cpg/sg11_22_cif.got.tgz:42581.got - 2010.06.27 23:14:04.
