data_PCOD8072964
_publ_section_title
;
Structure prediction by ZEFSAII (Michael W. Deem and Ramdas Pophale) SiO2 
 PCOD8072964
Probable space group: P 21/M
;
_chemical_formula_sum "Si O2"
_cell_formula_units_Z 32
_cell_length_a 19.413773
_cell_length_b 9.087978
_cell_length_c 11.486985
_cell_angle_alpha 90.000000
_cell_angle_beta 64.304373
_cell_angle_gamma 90.000000
_cell_volume 1826.253805
_symmetry_space_group_name_H-M "P 21/M"
_symmetry_group_IT_number 11
_symmetry_cell_setting 'monoclinic'
loop_
_space_group_symop_operation_xyz
x,y,z
-x,1/2+y,-z
-x,-y,-z
x,1/2-y,z
loop_
_atom_site_type_symbol
_atom_site_label
_atom_site_fract_x
_atom_site_fract_y
_atom_site_fract_z
Si Si1 0.804803 0.912555 0.601769
Si Si2 0.219607 0.574310 0.910897
Si Si3 0.862553 0.086210 0.360186
Si Si4 0.638936 0.587955 0.610971
Si Si5 0.732382 0.922289 0.892127
Si Si6 0.426828 0.423545 0.106098
Si Si7 0.076889 0.073391 0.899940
Si Si8 0.696425 0.410719 0.371431
O O1 0.841792 0.750000 0.574182
O O2 0.724696 0.904806 0.594436
O O3 0.790316 0.963773 0.744879
O O4 0.862117 0.022413 0.492312
O O5 0.204434 0.750000 0.914533
O O6 0.143220 0.486530 0.935075
O O7 0.286784 0.527476 0.770590
O O8 0.246114 0.527617 0.018247
O O9 0.899149 0.250000 0.334719
O O10 0.776610 0.095941 0.378611
O O11 0.910680 0.978084 0.242236
O O12 0.608203 0.750000 0.605818
O O13 0.586911 0.516818 0.751600
O O14 0.635257 0.503298 0.490689
O O15 0.740013 0.750000 0.919032
O O16 0.645971 0.961112 0.920005
O O17 0.439613 0.250000 0.101243
O O18 0.500000 0.500000 0.000000
O O19 0.073215 0.250000 0.908136
O O20 0.000000 0.000000 0.000000
O O21 0.659703 0.250000 0.388554
#
# Coordination Sequence:
#
# PCOD8072964 Si02
#       8
#     4   4   4   4   4   4   4   4
#     4   8  14  26  44  66  92 122 157 196 237 280
#     4  10  20  33  49  73 101 127 160 199 240 288
#     4   9  16  27  44  69  97 122 155 197 238 280
#     4   8  14  25  42  64  89 117 152 194 235 277
#     4   9  18  32  49  71  99 130 164 200 240 288
#     4   9  18  31  47  70  98 126 159 198 240 287
#     4  11  21  34  52  73  99 130 162 197 239 284
#     4   8  15  26  41  64  92 118 149 193 236 276
#
# _framework density 17.522207999999999
#
# number of rings (size 3 to 8) (size 9 to 14) (size 15 to 20)
#    0.000    3.000    0.000    4.125    0.000    5.000 
#    0.000    2.500    0.000    1.500    0.000    0.000 
#    0.000    0.000    0.000    0.000    0.000    0.000 
#
# Total GULP energy -396533.599469 kJ/mol
# GULP energy per Si atom -12391.674983 kJ/mol
# Density = 1.748233 g / cm^3
# Si number density = 17.522208 Si / 1000 Ang^3
#
#
#
# Elastic Constant Matrix: (Units=GPa)
#
#
# Indices 1 2 3 4 5 6 
#
# 1 37.9677 35.5223 49.4084 0.0000 0.1758 0.0000
# 2 35.5223 106.7627 74.9360 0.0000 0.6181 0.0000
# 3 49.4084 74.9360 161.6565 0.0000 6.6515 0.0000
# 4 0.0000 0.0000 0.0000 36.3114 0.0000 -0.4279
# 5 0.1758 0.6181 6.6515 0.0000 24.0154 0.0000
# 6 0.0000 0.0000 0.0000 -0.4279 0.0000 21.0645
#
#
#
# Elastic Compliance Matrix: (Units=1/GPa)
#
#
# Indices 1 2 3 4 5 6 
#
# 1 0.048615 -0.008417 -0.011077 0.000000 0.002929 0.000000
# 2 -0.008417 0.015391 -0.004600 0.000000 0.000940 0.000000
# 3 -0.011077 -0.004600 0.011831 0.000000 -0.003077 0.000000
# 4 0.000000 0.000000 0.000000 0.027546 0.000000 0.000560
# 5 0.002929 0.000940 -0.003077 0.000000 0.042447 0.000000
# 6 0.000000 0.000000 0.000000 0.000560 0.000000 0.047485
#
#
# Mechanical properties :
#
#
# Convention : Reuss Voigt Hill
#
# Bulk Modulus (GPa) = 36.17083 69.56890 52.86986
# Shear Modulus (GPa) = 19.94265 26.04626 22.99445
#
# Velocity S-wave (km/s) = 3.37729 3.85966 3.62650
# Velocity P-wave (km/s) = 5.99131 7.72348 6.91187
#
# Compressibility (1/GPa) = 0.02764659
#
# Stress axis : x y z
#
# Youngs Moduli (GPa) = 20.56987 64.97435 84.52541
#
# Poissons Ratio (x) = 0.54689 0.93631
# Poissons Ratio (y) = 0.17314 0.38885
# Poissons Ratio (z) = 0.22786 0.29891
#
# Static dielectric constant tensor:
#      x y z
#    x 2.747010 0.000000 0.007890 
#    y 0.000000 3.465660 0.000000 
#    z 0.007890 0.000000 3.722820 
# 
# 
# High freq. dielectric constant tensor:
#      x y z
#    x 1.613340 0.000000 0.004080 
#    y 0.000000 1.679860 0.000000 
#    z 0.004080 0.000000 1.697410 
# 
# From -- ./inp_files/42420.got.cif
#   From: 2010.06.25/outbox.cif.g09.slc.cpg/sg11_22_cif.got.tgz:42420.got - 2010.06.27 23:14:04.
