data_PCOD8072299
_publ_section_title
;
Structure prediction by ZEFSAII (Michael W. Deem and Ramdas Pophale) SiO2 
 PCOD8072299
Probable space group: P 21/M
;
_chemical_formula_sum "Si O2"
_cell_formula_units_Z 32
_cell_length_a 12.675741
_cell_length_b 8.950401
_cell_length_c 31.867449
_cell_angle_alpha 90.000000
_cell_angle_beta 27.498019
_cell_angle_gamma 90.000000
_cell_volume 1669.321178
_symmetry_space_group_name_H-M "P 21/M"
_symmetry_group_IT_number 11
_symmetry_cell_setting 'monoclinic'
loop_
_space_group_symop_operation_xyz
x,y,z
-x,1/2+y,-z
-x,-y,-z
x,1/2-y,z
loop_
_atom_site_type_symbol
_atom_site_label
_atom_site_fract_x
_atom_site_fract_y
_atom_site_fract_z
Si Si1 0.204481 0.085907 0.506560
Si Si2 0.097636 0.573930 0.006710
Si Si3 0.724993 0.072040 0.698615
Si Si4 0.989291 0.422199 0.260206
Si Si5 0.613383 0.576123 0.824709
Si Si6 0.301950 0.073217 0.793963
Si Si7 0.731506 0.914823 0.419563
Si Si8 0.652563 0.926994 0.316002
O O1 0.241279 0.250000 0.472621
O O2 0.193836 0.107602 0.559773
O O3 0.945179 0.023506 0.591609
O O4 0.407756 0.977716 0.420698
O O5 0.084152 0.750000 0.005200
O O6 0.355641 0.518939 0.923455
O O7 0.000000 0.500000 0.000000
O O8 0.942353 0.523877 0.100992
O O9 0.719760 0.250000 0.704276
O O10 0.503947 0.008734 0.752007
O O11 0.726986 0.009399 0.745308
O O12 0.929340 0.250000 0.272678
O O13 0.897939 0.474443 0.337101
O O14 0.872975 0.515604 0.264047
O O15 0.259253 0.448615 0.174733
O O16 0.619827 0.750000 0.810514
O O17 0.325253 0.250000 0.783837
O O18 0.322925 0.008543 0.739569
O O19 0.716546 0.750000 0.403073
O O20 0.500000 0.000000 0.500000
O O21 0.657302 0.750000 0.315566
#
# Coordination Sequence:
#
# PCOD8072299 Si02
#       8
#     4   4   4   4   4   4   4   4
#     4  10  21  34  52  81 114 146 184 229 279 326
#     4  10  19  36  62  89 115 141 176 224 281 336
#     4  10  19  35  58  83 113 147 181 223 279 336
#     4  11  22  36  53  78 115 150 185 232 281 322
#     4  10  21  34  55  89 118 140 175 228 285 331
#     4   9  20  38  59  82 111 147 184 228 276 334
#     4  11  20  31  51  79 108 142 185 231 278 326
#     4  11  23  38  56  77 107 154 201 228 267 329
#
# _framework density 19.16947
#
# number of rings (size 3 to 8) (size 9 to 14) (size 15 to 20)
#    0.000    1.750    3.750    1.125    0.000    2.000 
#    0.000    3.125    0.000    0.000    0.000    0.000 
#    0.000    0.000    0.000    0.000    0.000    0.000 
#
# Total GULP energy -396475.629096 kJ/mol
# GULP energy per Si atom -12389.863409 kJ/mol
# Density = 1.912584 g / cm^3
# Si number density = 19.169470 Si / 1000 Ang^3
#
#
#
# Elastic Constant Matrix: (Units=GPa)
#
#
# Indices 1 2 3 4 5 6 
#
# 1 105.5326 27.4145 58.0484 0.0000 -6.6490 0.0000
# 2 27.4145 51.1261 27.6325 0.0000 -8.2307 0.0000
# 3 58.0484 27.6325 104.9484 0.0000 -16.6597 0.0000
# 4 0.0000 0.0000 0.0000 16.6780 0.0000 -0.9195
# 5 -6.6490 -8.2307 -16.6597 0.0000 34.8848 0.0000
# 6 0.0000 0.0000 0.0000 -0.9195 0.0000 22.4362
#
#
#
# Elastic Compliance Matrix: (Units=1/GPa)
#
#
# Indices 1 2 3 4 5 6 
#
# 1 0.014356 -0.004115 -0.007116 0.000000 -0.001633 0.000000
# 2 -0.004115 0.024225 -0.003592 0.000000 0.003216 0.000000
# 3 -0.007116 -0.003592 0.015214 0.000000 0.005062 0.000000
# 4 0.000000 0.000000 0.000000 0.060095 0.000000 0.002463
# 5 -0.001633 0.003216 0.005062 0.000000 0.031531 0.000000
# 6 0.000000 0.000000 0.000000 0.002463 0.000000 0.044672
#
#
# Mechanical properties :
#
#
# Convention : Reuss Voigt Hill
#
# Bulk Modulus (GPa) = 41.40961 54.19976 47.80469
# Shear Modulus (GPa) = 21.95022 24.70057 23.32539
#
# Velocity S-wave (km/s) = 3.38755 3.59351 3.49205
# Velocity P-wave (km/s) = 6.07860 6.74931 6.42272
#
# Compressibility (1/GPa) = 0.02414898
#
# Stress axis : x y z
#
# Youngs Moduli (GPa) = 69.65661 41.27983 65.72908
#
# Poissons Ratio (x) = 0.16985 0.46776
# Poissons Ratio (y) = 0.28661 0.23610
# Poissons Ratio (z) = 0.49571 0.14828
#
# Static dielectric constant tensor:
#      x y z
#    x 3.935690 0.000000 -0.142470 
#    y 0.000000 3.427050 0.000000 
#    z -0.142470 0.000000 3.816250 
# 
# 
# High freq. dielectric constant tensor:
#      x y z
#    x 1.744220 0.000000 -0.022440 
#    y 0.000000 1.733230 0.000000 
#    z -0.022440 0.000000 1.743690 
# 
# From -- ./inp_files/73045.got.cif
#   From: 2010.06.25/outbox.cif.g09.slc.cpg/sg11_37_cif.got.tgz:73045.got - 2010.06.27 23:14:04.
