data_PCOD8072412
_publ_section_title
;
Structure prediction by ZEFSAII (Michael W. Deem and Ramdas Pophale) SiO2 
 PCOD8072412
Probable space group: P 21/M
;
_chemical_formula_sum "Si O2"
_cell_formula_units_Z 32
_cell_length_a 18.139570
_cell_length_b 14.127439
_cell_length_c 11.608774
_cell_angle_alpha 90.000000
_cell_angle_beta 151.022510
_cell_angle_gamma 90.000000
_cell_volume 1441.252454
_symmetry_space_group_name_H-M "P 21/M"
_symmetry_group_IT_number 11
_symmetry_cell_setting 'monoclinic'
loop_
_space_group_symop_operation_xyz
x,y,z
-x,1/2+y,-z
-x,-y,-z
x,1/2-y,z
loop_
_atom_site_type_symbol
_atom_site_label
_atom_site_fract_x
_atom_site_fract_y
_atom_site_fract_z
Si Si1 0.332260 0.856242 0.708509
Si Si2 0.808846 0.971816 0.871569
Si Si3 0.301785 0.641979 0.402353
Si Si4 0.644343 0.860928 0.469859
Si Si5 0.850914 0.936383 0.290933
Si Si6 0.654189 0.861767 0.219526
Si Si7 0.584076 0.512544 0.766561
Si Si8 0.011364 0.643120 0.312951
O O1 0.368465 0.750000 0.794858
O O2 0.270591 0.864055 0.494957
O O3 0.185183 0.891114 0.581753
O O4 0.492788 0.908032 0.954144
O O5 0.787889 0.893759 0.742293
O O6 0.655670 0.982998 0.737591
O O7 0.825464 0.076473 0.836024
O O8 0.949099 0.936308 0.139082
O O9 0.291336 0.750000 0.342396
O O10 0.472607 0.602726 0.620972
O O11 0.615770 0.750000 0.441004
O O12 0.675876 0.892534 0.381414
O O13 0.498700 0.913373 0.323292
O O14 0.796561 0.901353 0.341567
O O15 0.905568 0.850982 0.281577
O O16 0.711125 0.987353 0.038585
O O17 0.000000 0.000000 0.500000
O O18 0.656921 0.750000 0.207649
O O19 0.014876 0.750000 0.264615
#
# Coordination Sequence:
#
# PCOD8072412 Si02
#       8
#     4   4   4   4   4   4   4   4
#     4   9  19  36  61  94 121 160 221 259 307 386
#     4  10  22  38  58  94 130 161 216 260 316 390
#     4  10  19  35  62  91 123 163 208 265 318 375
#     4  10  21  37  62  91 125 168 210 267 327 377
#     4  11  24  39  59  92 129 162 211 265 323 383
#     4  10  21  40  65  93 125 164 216 269 323 388
#     4  10  22  38  57  88 125 164 211 258 310 390
#     4  10  22  41  65  89 125 173 213 263 320 381
#
# _framework density 22.202911
#
# number of rings (size 3 to 8) (size 9 to 14) (size 15 to 20)
#    0.000    2.000    1.250    2.250    1.750    7.000 
#    0.000    1.875    0.000    4.500    0.000    0.000 
#    0.000    0.000    0.000    0.000    0.000    0.000 
#
# Total GULP energy -396502.186516 kJ/mol
# GULP energy per Si atom -12390.693329 kJ/mol
# Density = 2.215238 g / cm^3
# Si number density = 22.202911 Si / 1000 Ang^3
#
#
#
# Elastic Constant Matrix: (Units=GPa)
#
#
# Indices 1 2 3 4 5 6 
#
# 1 128.0386 37.2652 51.2356 0.0000 -2.3240 0.0000
# 2 37.2652 119.7501 39.7386 0.0000 -7.3720 0.0000
# 3 51.2356 39.7386 86.1095 0.0000 3.7204 0.0000
# 4 0.0000 0.0000 0.0000 25.7070 0.0000 0.3824
# 5 -2.3240 -7.3720 3.7204 0.0000 33.1892 0.0000
# 6 0.0000 0.0000 0.0000 0.3824 0.0000 31.2904
#
#
#
# Elastic Compliance Matrix: (Units=1/GPa)
#
#
# Indices 1 2 3 4 5 6 
#
# 1 0.010484 -0.001311 -0.005680 0.000000 0.001079 0.000000
# 2 -0.001311 0.010274 -0.004076 0.000000 0.002647 0.000000
# 3 -0.005680 -0.004076 0.017012 0.000000 -0.003210 0.000000
# 4 0.000000 0.000000 0.000000 0.038907 0.000000 -0.000476
# 5 0.001079 0.002647 -0.003210 0.000000 0.031154 0.000000
# 6 0.000000 0.000000 0.000000 -0.000476 0.000000 0.031965
#
#
# Mechanical properties :
#
#
# Convention : Reuss Voigt Hill
#
# Bulk Modulus (GPa) = 63.94929 65.59745 64.77337
# Shear Modulus (GPa) = 29.91486 31.74790 30.83138
#
# Velocity S-wave (km/s) = 3.67459 3.78550 3.73046
# Velocity P-wave (km/s) = 6.84604 6.97964 6.91316
#
# Compressibility (1/GPa) = 0.01563739
#
# Stress axis : x y z
#
# Youngs Moduli (GPa) = 95.38228 97.33093 58.78205
#
# Poissons Ratio (x) = 0.12764 0.33386
# Poissons Ratio (y) = 0.12508 0.23957
# Poissons Ratio (z) = 0.54173 0.39668
#
# Static dielectric constant tensor:
#      x y z
#    x 4.381870 0.000000 0.010010 
#    y 0.000000 3.981020 0.000000 
#    z 0.010010 0.000000 3.944940 
# 
# 
# High freq. dielectric constant tensor:
#      x y z
#    x 1.885470 0.000000 0.000600 
#    y 0.000000 1.868470 0.000000 
#    z 0.000600 0.000000 1.867840 
# 
# From -- ./inp_files/41735.got.cif
#   From: 2010.06.25/outbox.cif.g09.slc.cpg/sg11_21_cif.got.tgz:41735.got - 2010.06.27 23:14:04.
