data_PCOD8072024
_publ_section_title
;
Structure prediction by ZEFSAII (Michael W. Deem and Ramdas Pophale) SiO2 
 PCOD8072024
Probable space group: P 21/M
;
_chemical_formula_sum "Si O2"
_cell_formula_units_Z 28
_cell_length_a 9.902579
_cell_length_b 8.852674
_cell_length_c 28.005904
_cell_angle_alpha 90.000000
_cell_angle_beta 37.472251
_cell_angle_gamma 90.000000
_cell_volume 1493.637681
_symmetry_space_group_name_H-M "P 21/M"
_symmetry_group_IT_number 11
_symmetry_cell_setting 'monoclinic'
loop_
_space_group_symop_operation_xyz
x,y,z
-x,1/2+y,-z
-x,-y,-z
x,1/2-y,z
loop_
_atom_site_type_symbol
_atom_site_label
_atom_site_fract_x
_atom_site_fract_y
_atom_site_fract_z
Si Si1 0.063894 0.927803 0.630563
Si Si2 0.060367 0.578334 0.195238
Si Si3 0.850593 0.071519 0.500617
Si Si4 0.341759 0.073455 0.192135
Si Si5 0.646998 0.926265 0.371891
Si Si6 0.712377 0.424913 0.962932
Si Si7 0.778729 0.927718 0.043892
O O1 0.095877 0.750000 0.625987
O O2 0.828182 0.979332 0.718863
O O3 0.062941 0.980119 0.575829
O O4 0.267489 0.999162 0.603025
O O5 0.117475 0.750000 0.195091
O O6 0.237756 0.467784 0.170008
O O7 0.082409 0.562200 0.132011
O O8 0.811854 0.535648 0.281632
O O9 0.866181 0.250000 0.502420
O O10 0.595536 0.013984 0.575700
O O11 0.000000 0.000000 0.500000
O O12 0.389542 0.250000 0.180873
O O13 0.573413 0.987069 0.133303
O O14 0.631778 0.750000 0.387133
O O15 0.669477 0.250000 0.988894
O O16 0.500000 0.500000 0.000000
O O17 0.765846 0.524822 0.993015
O O18 0.788912 0.750000 0.046101
O O19 0.000000 0.000000 0.000000
#
# Coordination Sequence:
#
# PCOD8072024 Si02
#       7
#     4   4   4   4   4   4   4
#     4   9  19  35  57  84 111 142 181 229 277 327
#     4   9  18  33  55  83 113 142 182 231 275 323
#     4  10  21  37  55  79 115 149 181 223 273 331
#     4  10  19  34  57  82 112 144 184 231 280 332
#     4   9  18  34  57  83 110 142 184 228 268 321
#     4  11  21  35  58  85 115 150 188 230 277 328
#     4  12  25  41  58  80 112 150 192 235 283 336
#
# _framework density 18.746179000000001
#
# number of rings (size 3 to 8) (size 9 to 14) (size 15 to 20)
#    0.000    2.000    1.429    2.571    0.000    2.286 
#    2.571    0.000    0.000    0.000    0.000    0.000 
#    0.000    0.000    0.000    0.000    0.000    0.000 
#
# Total GULP energy -347164.864969 kJ/mol
# GULP energy per Si atom -12398.745177 kJ/mol
# Density = 1.870351 g / cm^3
# Si number density = 18.746179 Si / 1000 Ang^3
#
#
#
# Elastic Constant Matrix: (Units=GPa)
#
#
# Indices 1 2 3 4 5 6 
#
# 1 135.9306 43.0100 75.0328 0.0000 -16.1312 0.0000
# 2 43.0100 82.2901 42.1780 0.0000 -12.4068 0.0000
# 3 75.0328 42.1780 133.9608 0.0000 -13.4466 0.0000
# 4 0.0000 0.0000 0.0000 24.9072 0.0000 -1.4955
# 5 -16.1312 -12.4068 -13.4466 0.0000 30.6649 0.0000
# 6 0.0000 0.0000 0.0000 -1.4955 0.0000 34.9740
#
#
#
# Elastic Compliance Matrix: (Units=1/GPa)
#
#
# Indices 1 2 3 4 5 6 
#
# 1 0.011487 -0.002924 -0.005257 0.000000 0.002554 0.000000
# 2 -0.002924 0.015730 -0.002961 0.000000 0.003528 0.000000
# 3 -0.005257 -0.002961 0.011447 0.000000 0.001057 0.000000
# 4 0.000000 0.000000 0.000000 0.040252 0.000000 0.001721
# 5 0.002554 0.003528 0.001057 0.000000 0.035845 0.000000
# 6 0.000000 0.000000 0.000000 0.001721 0.000000 0.028666
#
#
# Mechanical properties :
#
#
# Convention : Reuss Voigt Hill
#
# Bulk Modulus (GPa) = 61.04674 74.73589 67.89131
# Shear Modulus (GPa) = 29.21052 30.90658 30.05855
#
# Velocity S-wave (km/s) = 3.95170 4.06481 4.00865
# Velocity P-wave (km/s) = 7.31142 7.87299 7.59740
#
# Compressibility (1/GPa) = 0.01638089
#
# Stress axis : x y z
#
# Youngs Moduli (GPa) = 87.05654 63.57340 87.35573
#
# Poissons Ratio (x) = 0.18590 0.45921
# Poissons Ratio (y) = 0.25457 0.25863
# Poissons Ratio (z) = 0.45764 0.18822
#
# Static dielectric constant tensor:
#      x y z
#    x 3.197590 0.000000 -0.053960 
#    y 0.000000 3.446150 0.000000 
#    z -0.053960 0.000000 3.827070 
# 
# 
# High freq. dielectric constant tensor:
#      x y z
#    x 1.705700 0.000000 0.000910 
#    y 0.000000 1.728840 0.000000 
#    z 0.000910 0.000000 1.748010 
# 
# From -- ./inp_files/70785.got.cif
#   From: 2010.06.25/outbox.cif.g09.slc.cpg/sg11_36_cif.got.tgz:70785.got - 2010.06.27 23:14:04.
