data_PCOD8072581
_publ_section_title
;
Structure prediction by ZEFSAII (Michael W. Deem and Ramdas Pophale) SiO2 
 PCOD8072581
Probable space group: P 21/M
;
_chemical_formula_sum "Si O2"
_cell_formula_units_Z 32
_cell_length_a 21.716122
_cell_length_b 8.679974
_cell_length_c 28.018363
_cell_angle_alpha 90.000000
_cell_angle_beta 161.305623
_cell_angle_gamma 90.000000
_cell_volume 1692.772634
_symmetry_space_group_name_H-M "P 21/M"
_symmetry_group_IT_number 11
_symmetry_cell_setting 'monoclinic'
loop_
_space_group_symop_operation_xyz
x,y,z
-x,1/2+y,-z
-x,-y,-z
x,1/2-y,z
loop_
_atom_site_type_symbol
_atom_site_label
_atom_site_fract_x
_atom_site_fract_y
_atom_site_fract_z
Si Si1 0.288346 0.067097 0.343999
Si Si2 0.001790 0.428042 0.798502
Si Si3 0.303135 0.567335 0.649636
Si Si4 0.104112 0.066982 0.686171
Si Si5 0.798894 0.431909 0.141000
Si Si6 0.389434 0.933001 0.818377
Si Si7 0.302414 0.072425 0.101807
Si Si8 0.008255 0.930520 0.953770
O O1 0.293791 0.250000 0.351364
O O2 0.500000 0.000000 0.500000
O O3 0.186270 0.999148 0.315573
O O4 0.172071 0.013099 0.211102
O O5 0.964303 0.250000 0.758779
O O6 0.036180 0.521830 0.775271
O O7 0.184861 0.448822 0.966862
O O8 0.315392 0.750000 0.658368
O O9 0.308208 0.509989 0.707925
O O10 0.484477 0.505558 0.752027
O O11 0.107319 0.505931 0.482812
O O12 0.115332 0.250000 0.693274
O O13 0.149547 0.005686 0.771192
O O14 0.257755 0.000695 0.762681
O O15 0.783164 0.250000 0.134538
O O16 0.601114 0.501839 0.978014
O O17 0.396458 0.750000 0.827951
O O18 0.306624 0.250000 0.120776
O O19 0.207935 0.977698 0.075456
O O20 0.003065 0.750000 0.955448
O O21 0.000000 0.000000 0.000000
#
# Coordination Sequence:
#
# PCOD8072581 Si02
#       8
#     4   4   4   4   4   4   4   4
#     4  10  21  38  60  89 121 153 194 237 283 339
#     4  10  19  36  63  88 114 151 192 237 288 340
#     4   9  19  37  61  86 114 148 189 234 287 345
#     4  11  23  39  57  84 118 153 189 236 293 344
#     4  12  24  39  58  84 116 153 195 239 285 340
#     4  11  21  39  63  86 112 147 192 239 288 347
#     4   9  17  35  61  86 112 148 189 233 281 339
#     4  10  21  37  58  87 118 152 191 236 281 335
#
# _framework density 18.903898999999999
#
# number of rings (size 3 to 8) (size 9 to 14) (size 15 to 20)
#    0.000    1.750    1.250    3.750    0.000    2.000 
#    2.250    3.125    0.000    0.000    0.000    0.000 
#    0.000    0.000    0.000    0.000    0.000    0.000 
#
# Total GULP energy -396875.398104 kJ/mol
# GULP energy per Si atom -12402.356191 kJ/mol
# Density = 1.886087 g / cm^3
# Si number density = 18.903899 Si / 1000 Ang^3
#
#
#
# Elastic Constant Matrix: (Units=GPa)
#
#
# Indices 1 2 3 4 5 6 
#
# 1 184.5237 42.4888 88.8791 0.0000 -12.6659 0.0000
# 2 42.4888 78.4804 31.6877 0.0000 -2.0852 0.0000
# 3 88.8791 31.6877 121.5921 0.0000 -10.3285 0.0000
# 4 0.0000 0.0000 0.0000 60.5229 0.0000 -31.8998
# 5 -12.6659 -2.0852 -10.3285 0.0000 41.6768 0.0000
# 6 0.0000 0.0000 0.0000 -31.8998 0.0000 72.1639
#
#
#
# Elastic Compliance Matrix: (Units=1/GPa)
#
#
# Indices 1 2 3 4 5 6 
#
# 1 0.008806 -0.002434 -0.005706 0.000000 0.001140 0.000000
# 2 -0.002434 0.014915 -0.002153 0.000000 -0.000527 0.000000
# 3 -0.005706 -0.002153 0.013075 0.000000 0.001398 0.000000
# 4 0.000000 0.000000 0.000000 0.021542 0.000000 0.009522
# 5 0.001140 -0.000527 0.001398 0.000000 0.024661 0.000000
# 6 0.000000 0.000000 0.000000 0.009522 0.000000 0.018067
#
#
# Mechanical properties :
#
#
# Convention : Reuss Voigt Hill
#
# Bulk Modulus (GPa) = 61.68539 78.96749 70.32644
# Shear Modulus (GPa) = 39.35331 49.64211 44.49771
#
# Velocity S-wave (km/s) = 4.56758 5.13003 4.85695
# Velocity P-wave (km/s) = 7.77939 8.77231 8.29073
#
# Compressibility (1/GPa) = 0.01621129
#
# Stress axis : x y z
#
# Youngs Moduli (GPa) = 113.55348 67.04764 76.48197
#
# Poissons Ratio (x) = 0.16316 0.43641
# Poissons Ratio (y) = 0.27633 0.16465
# Poissons Ratio (z) = 0.64795 0.14434
#
# Static dielectric constant tensor:
#      x y z
#    x 3.634770 0.000000 0.133680 
#    y 0.000000 3.478860 0.000000 
#    z 0.133680 0.000000 3.715390 
# 
# 
# High freq. dielectric constant tensor:
#      x y z
#    x 1.747010 0.000000 0.008300 
#    y 0.000000 1.734400 0.000000 
#    z 0.008300 0.000000 1.732570 
# 
# From -- ./inp_files/72169.got.cif
#   From: 2010.06.25/outbox.cif.g09.slc.cpg/sg11_37_cif.got.tgz:72169.got - 2010.06.27 23:14:04.
