data_PCOD8072796
_publ_section_title
;
Structure prediction by ZEFSAII (Michael W. Deem and Ramdas Pophale) SiO2 
 PCOD8072796
Probable space group: P 21/M
;
_chemical_formula_sum "Si O2"
_cell_formula_units_Z 28
_cell_length_a 26.765566
_cell_length_b 9.309363
_cell_length_c 9.456538
_cell_angle_alpha 90.000000
_cell_angle_beta 39.673409
_cell_angle_gamma 90.000000
_cell_volume 1504.280084
_symmetry_space_group_name_H-M "P 21/M"
_symmetry_group_IT_number 11
_symmetry_cell_setting 'monoclinic'
loop_
_space_group_symop_operation_xyz
x,y,z
-x,1/2+y,-z
-x,-y,-z
x,1/2-y,z
loop_
_atom_site_type_symbol
_atom_site_label
_atom_site_fract_x
_atom_site_fract_y
_atom_site_fract_z
Si Si1 0.307208 0.412009 0.674363
Si Si2 0.981859 0.086907 0.903226
Si Si3 0.418373 0.079639 0.186409
Si Si4 0.708753 0.418837 0.721003
Si Si5 0.242217 0.083364 0.106608
Si Si6 0.066598 0.413698 0.438422
Si Si7 0.811996 0.086081 0.234443
O O1 0.284527 0.250000 0.687327
O O2 0.386516 0.450315 0.415851
O O3 0.236765 0.505208 0.774517
O O4 0.309768 0.434657 0.838604
O O5 0.970194 0.250000 0.977014
O O6 0.049794 0.069307 0.641395
O O7 0.899721 0.029063 0.021659
O O8 0.000000 0.000000 0.000000
O O9 0.426767 0.250000 0.137887
O O10 0.363056 0.008303 0.188614
O O11 0.500000 0.000000 0.000000
O O12 0.686208 0.250000 0.784242
O O13 0.731516 0.481938 0.823267
O O14 0.783377 0.440585 0.457194
O O15 0.236949 0.250000 0.167971
O O16 0.157222 0.035312 0.227032
O O17 0.057696 0.250000 0.407130
O O18 0.000000 0.500000 0.500000
O O19 0.803533 0.250000 0.210531
#
# Coordination Sequence:
#
# PCOD8072796 Si02
#       7
#     4   4   4   4   4   4   4
#     4   9  19  34  54  77 101 132 169 205 249 304
#     4  10  20  32  46  69  98 131 172 218 262 303
#     4  10  20  37  60  84 108 134 165 206 253 307
#     4  10  20  34  54  80 106 138 176 213 256 307
#     4  10  20  35  52  75 107 140 175 217 260 306
#     4  10  21  34  50  73 103 139 180 222 265 309
#     4   9  18  32  49  70  99 132 172 217 257 300
#
# _framework density 18.613555999999999
#
# number of rings (size 3 to 8) (size 9 to 14) (size 15 to 20)
#    0.000    2.286    0.000    2.571    0.000    3.429 
#    0.000    0.714    0.000    0.000    0.000    0.000 
#    0.000    0.000    0.000    0.000    0.000    0.000 
#
# Total GULP energy -347026.875784 kJ/mol
# GULP energy per Si atom -12393.816992 kJ/mol
# Density = 1.857119 g / cm^3
# Si number density = 18.613556 Si / 1000 Ang^3
#
#
#
# Elastic Constant Matrix: (Units=GPa)
#
#
# Indices 1 2 3 4 5 6 
#
# 1 70.9164 43.3290 38.6864 0.0000 -0.9766 0.0000
# 2 43.3290 79.1943 40.4995 0.0000 -1.7438 0.0000
# 3 38.6864 40.4995 100.4804 0.0000 -7.8509 0.0000
# 4 0.0000 0.0000 0.0000 24.6311 0.0000 0.4234
# 5 -0.9766 -1.7438 -7.8509 0.0000 27.0344 0.0000
# 6 0.0000 0.0000 0.0000 0.4234 0.0000 40.7825
#
#
#
# Elastic Compliance Matrix: (Units=1/GPa)
#
#
# Indices 1 2 3 4 5 6 
#
# 1 0.022879 -0.010065 -0.004848 0.000000 -0.001231 0.000000
# 2 -0.010065 0.020353 -0.004353 0.000000 -0.000315 0.000000
# 3 -0.004848 -0.004353 0.013852 0.000000 0.003567 0.000000
# 4 0.000000 0.000000 0.000000 0.040606 0.000000 -0.000422
# 5 -0.001231 -0.000315 0.003567 0.000000 0.037961 0.000000
# 6 0.000000 0.000000 0.000000 -0.000422 0.000000 0.024525
#
#
# Mechanical properties :
#
#
# Convention : Reuss Voigt Hill
#
# Bulk Modulus (GPa) = 53.90369 55.06900 54.48635
# Shear Modulus (GPa) = 24.40319 27.02802 25.71560
#
# Velocity S-wave (km/s) = 3.62476 3.81473 3.72096
# Velocity P-wave (km/s) = 6.82208 7.00375 6.91351
#
# Compressibility (1/GPa) = 0.01855161
#
# Stress axis : x y z
#
# Youngs Moduli (GPa) = 43.70915 49.13228 72.19277
#
# Poissons Ratio (x) = 0.49453 0.34998
# Poissons Ratio (y) = 0.43995 0.31425
# Poissons Ratio (z) = 0.21189 0.21387
#
# Static dielectric constant tensor:
#      x y z
#    x 3.449240 0.000000 -0.477840 
#    y 0.000000 -4.543080 0.000000 
#    z -0.477840 0.000000 4.465190 
# 
# 
# High freq. dielectric constant tensor:
#      x y z
#    x 1.703540 0.000000 0.005320 
#    y 0.000000 1.726470 0.000000 
#    z 0.005320 0.000000 1.732040 
# 
# From -- ./inp_files/28346.got.cif
#   From: 2010.06.25/outbox.cif.g09.slc.cpg/sg11_15_cif.got.tgz:28346.got - 2010.06.27 23:14:04.
