data_PCOD8072853
_publ_section_title
;
Structure prediction by ZEFSAII (Michael W. Deem and Ramdas Pophale) SiO2 
 PCOD8072853
Probable space group: P 21/M
;
_chemical_formula_sum "Si O2"
_cell_formula_units_Z 32
_cell_length_a 13.586491
_cell_length_b 21.720661
_cell_length_c 16.135776
_cell_angle_alpha 90.000000
_cell_angle_beta 157.997236
_cell_angle_gamma 90.000000
_cell_volume 1784.010753
_symmetry_space_group_name_H-M "P 21/M"
_symmetry_group_IT_number 11
_symmetry_cell_setting 'monoclinic'
loop_
_space_group_symop_operation_xyz
x,y,z
-x,1/2+y,-z
-x,-y,-z
x,1/2-y,z
loop_
_atom_site_type_symbol
_atom_site_label
_atom_site_fract_x
_atom_site_fract_y
_atom_site_fract_z
Si Si1 0.702454 0.022662 0.772546
Si Si2 0.269611 0.099068 0.019448
Si Si3 0.320182 0.581689 0.412728
Si Si4 0.090100 0.981025 0.661701
Si Si5 0.843829 0.820740 0.221449
Si Si6 0.425359 0.821272 0.620154
Si Si7 0.454227 0.414134 0.923342
Si Si8 0.527191 0.973055 0.238505
O O1 0.637205 0.074817 0.653011
O O2 0.656844 0.049691 0.829393
O O3 0.503709 0.965743 0.605686
O O4 0.000000 0.000000 0.000000
O O5 0.294231 0.144370 0.961725
O O6 0.984574 0.068146 0.807081
O O7 0.340748 0.141218 0.154266
O O8 0.469120 0.042703 0.164678
O O9 0.384459 0.650519 0.495743
O O10 0.824753 0.972394 0.506958
O O11 0.268761 0.038091 0.830688
O O12 0.263136 0.918584 0.809149
O O13 0.000000 0.000000 0.500000
O O14 0.766325 0.750000 0.154880
O O15 0.697453 0.848760 0.188389
O O16 0.158816 0.829369 0.466485
O O17 0.502245 0.750000 0.670070
O O18 0.498415 0.428268 0.860573
#
# Coordination Sequence:
#
# PCOD8072853 Si02
#       8
#     4   4   4   4   4   4   4   4
#     4  11  21  36  54  82 111 145 178 228 289 333
#     4  11  19  33  53  79 111 141 174 226 274 333
#     4  10  21  34  54  79 113 140 178 226 275 337
#     4   9  18  31  47  75 103 138 174 217 268 323
#     4  10  21  34  51  75 106 146 186 221 265 321
#     4  10  20  35  55  79 109 147 182 221 272 330
#     4  10  20  32  49  73 108 143 179 221 265 323
#     4  11  21  31  54  78 109 141 176 220 281 329
#
# _framework density 17.937111999999999
#
# number of rings (size 3 to 8) (size 9 to 14) (size 15 to 20)
#    0.000    1.750    2.500    3.375    3.500    1.500 
#    0.000    0.000    0.000    0.750    0.000    3.500 
#    0.000    0.000    0.000    0.000    0.000    0.000 
#
# Total GULP energy -396541.938508 kJ/mol
# GULP energy per Si atom -12391.935578 kJ/mol
# Density = 1.789629 g / cm^3
# Si number density = 17.937112 Si / 1000 Ang^3
#
#
#
# Elastic Constant Matrix: (Units=GPa)
#
#
# Indices 1 2 3 4 5 6 
#
# 1 117.0283 43.3222 33.7719 0.0000 0.4771 0.0000
# 2 43.3222 91.8872 36.4062 0.0000 1.7395 0.0000
# 3 33.7719 36.4062 115.8296 0.0000 10.0244 0.0000
# 4 0.0000 0.0000 0.0000 22.2990 0.0000 0.8038
# 5 0.4771 1.7395 10.0244 0.0000 27.2304 0.0000
# 6 0.0000 0.0000 0.0000 0.8038 0.0000 27.6311
#
#
#
# Elastic Compliance Matrix: (Units=1/GPa)
#
#
# Indices 1 2 3 4 5 6 
#
# 1 0.010667 -0.004324 -0.001817 0.000000 0.000758 0.000000
# 2 -0.004324 0.014195 -0.003232 0.000000 0.000359 0.000000
# 3 -0.001817 -0.003232 0.010493 0.000000 -0.003624 0.000000
# 4 0.000000 0.000000 0.000000 0.044892 0.000000 -0.001306
# 5 0.000758 0.000359 -0.003624 0.000000 0.038022 0.000000
# 6 0.000000 0.000000 0.000000 -0.001306 0.000000 0.036229
#
#
# Mechanical properties :
#
#
# Convention : Reuss Voigt Hill
#
# Bulk Modulus (GPa) = 60.20601 61.30506 60.75554
# Shear Modulus (GPa) = 27.96756 29.51509 28.74132
#
# Velocity S-wave (km/s) = 3.95296 4.06085 4.00726
# Velocity P-wave (km/s) = 7.38054 7.49929 7.44015
#
# Compressibility (1/GPa) = 0.01660964
#
# Stress axis : x y z
#
# Youngs Moduli (GPa) = 93.75029 70.44667 95.30526
#
# Poissons Ratio (x) = 0.30458 0.17314
# Poissons Ratio (y) = 0.40534 0.30804
# Poissons Ratio (z) = 0.17031 0.22769
#
# Static dielectric constant tensor:
#      x y z
#    x 3.326070 0.000000 0.085050 
#    y 0.000000 3.116550 0.000000 
#    z 0.085050 0.000000 3.791540 
# 
# 
# High freq. dielectric constant tensor:
#      x y z
#    x 1.681490 0.000000 -0.005210 
#    y 0.000000 1.653320 0.000000 
#    z -0.005210 0.000000 1.716380 
# 
# From -- ./inp_files/60598.got.cif
#   From: 2010.06.25/outbox.cif.g09.slc.cpg/sg11_31_cif.got.tgz:60598.got - 2010.06.27 23:14:04.
