data_PCOD8072485
_publ_section_title
;
Structure prediction by ZEFSAII (Michael W. Deem and Ramdas Pophale) SiO2 
 PCOD8072485
Probable space group: P 21/M
;
_chemical_formula_sum "Si O2"
_cell_formula_units_Z 28
_cell_length_a 18.520483
_cell_length_b 9.231219
_cell_length_c 13.469479
_cell_angle_alpha 90.000000
_cell_angle_beta 142.879557
_cell_angle_gamma 90.000000
_cell_volume 1389.741594
_symmetry_space_group_name_H-M "P 21/M"
_symmetry_group_IT_number 11
_symmetry_cell_setting 'monoclinic'
loop_
_space_group_symop_operation_xyz
x,y,z
-x,1/2+y,-z
-x,-y,-z
x,1/2-y,z
loop_
_atom_site_type_symbol
_atom_site_label
_atom_site_fract_x
_atom_site_fract_y
_atom_site_fract_z
Si Si1 0.687160 0.082353 0.057312
Si Si2 0.677299 0.088128 0.269491
Si Si3 0.142239 0.417147 0.403337
Si Si4 0.950122 0.415298 0.352538
Si Si5 0.500976 0.908222 0.755847
Si Si6 0.389174 0.581161 0.432609
Si Si7 0.121189 0.576169 0.174708
O O1 0.676062 0.250000 0.025698
O O2 0.645008 0.040413 0.122320
O O3 0.819685 0.022666 0.187453
O O4 0.612231 0.014454 0.885244
O O5 0.736910 0.250000 0.334262
O O6 0.556518 0.092521 0.198873
O O7 0.761392 0.968625 0.410852
O O8 0.167650 0.250000 0.400182
O O9 0.138689 0.522051 0.305587
O O10 0.017075 0.432134 0.322148
O O11 0.944733 0.250000 0.381948
O O12 0.000000 0.500000 0.500000
O O13 0.550712 0.750000 0.782749
O O14 0.405952 0.955226 0.567849
O O15 0.500000 0.500000 0.500000
O O16 0.404680 0.750000 0.425086
O O17 0.248322 0.537230 0.256057
O O18 0.102970 0.750000 0.153184
O O19 0.000000 0.500000 0.000000
#
# Coordination Sequence:
#
# PCOD8072485 Si02
#       7
#     4   4   4   4   4   4   4
#     4  10  21  35  55  85 120 160 200 242 295 350
#     4  10  19  36  59  82 117 159 198 241 294 351
#     4  11  22  36  60  92 120 154 202 249 300 361
#     4  10  21  36  55  82 119 158 201 248 295 352
#     4  10  21  38  58  84 118 155 198 244 296 357
#     4  10  23  43  67  93 124 161 204 259 318 375
#     4  11  24  45  69  94 126 162 206 261 317 378
#
# _framework density 20.147629999999999
#
# number of rings (size 3 to 8) (size 9 to 14) (size 15 to 20)
#    0.000    1.714    2.857    1.286    0.000    5.143 
#    0.000    4.286    0.000    0.000    0.000    0.000 
#    0.000    0.000    0.000    0.000    0.000    0.000 
#
# Total GULP energy -346892.939463 kJ/mol
# GULP energy per Si atom -12389.033552 kJ/mol
# Density = 2.010177 g / cm^3
# Si number density = 20.147630 Si / 1000 Ang^3
#
#
#
# Elastic Constant Matrix: (Units=GPa)
#
#
# Indices 1 2 3 4 5 6 
#
# 1 74.3500 33.9072 27.9148 0.0000 20.3076 0.0000
# 2 33.9072 80.2886 54.8597 0.0000 12.0513 0.0000
# 3 27.9148 54.8597 125.9347 0.0000 22.5980 0.0000
# 4 0.0000 0.0000 0.0000 40.6671 0.0000 -0.6241
# 5 20.3076 12.0513 22.5980 0.0000 27.7505 0.0000
# 6 0.0000 0.0000 0.0000 -0.6241 0.0000 28.7739
#
#
#
# Elastic Compliance Matrix: (Units=1/GPa)
#
#
# Indices 1 2 3 4 5 6 
#
# 1 0.019633 -0.007101 0.000897 0.000000 -0.012014 0.000000
# 2 -0.007101 0.020367 -0.007780 0.000000 0.002688 0.000000
# 3 0.000897 -0.007780 0.012464 0.000000 -0.007427 0.000000
# 4 0.000000 0.000000 0.000000 0.024598 0.000000 0.000534
# 5 -0.012014 0.002688 -0.007427 0.000000 0.049708 0.000000
# 6 0.000000 0.000000 0.000000 0.000534 0.000000 0.034765
#
#
# Mechanical properties :
#
#
# Convention : Reuss Voigt Hill
#
# Bulk Modulus (GPa) = 40.82435 57.10407 48.96421
# Shear Modulus (GPa) = 25.29485 30.36441 27.82963
#
# Velocity S-wave (km/s) = 3.54711 3.88634 3.72060
# Velocity P-wave (km/s) = 6.08955 6.96725 6.54313
#
# Compressibility (1/GPa) = 0.02449518
#
# Stress axis : x y z
#
# Youngs Moduli (GPa) = 50.93489 49.09948 80.23234
#
# Poissons Ratio (x) = 0.34866 -0.07200
# Poissons Ratio (y) = 0.36170 0.62424
# Poissons Ratio (z) = -0.04571 0.38201
#
# Static dielectric constant tensor:
#      x y z
#    x 3.809690 0.000000 0.158360 
#    y 0.000000 3.751400 0.000000 
#    z 0.158360 0.000000 3.736350 
# 
# 
# High freq. dielectric constant tensor:
#      x y z
#    x 1.786770 0.000000 0.008610 
#    y 0.000000 1.783600 0.000000 
#    z 0.008610 0.000000 1.787530 
# 
# From -- ./inp_files/54611.got.cif
#   From: 2010.06.25/outbox.cif.g09.slc.cpg/sg11_28_cif.got.tgz:54611.got - 2010.06.27 23:14:04.
