data_PCOD8072643
_publ_section_title
;
Structure prediction by ZEFSAII (Michael W. Deem and Ramdas Pophale) SiO2 
 PCOD8072643
Probable space group: P 21/M
;
_chemical_formula_sum "Si O2"
_cell_formula_units_Z 28
_cell_length_a 19.957224
_cell_length_b 8.864586
_cell_length_c 22.851654
_cell_angle_alpha 90.000000
_cell_angle_beta 160.131420
_cell_angle_gamma 90.000000
_cell_volume 1373.982549
_symmetry_space_group_name_H-M "P 21/M"
_symmetry_group_IT_number 11
_symmetry_cell_setting 'monoclinic'
loop_
_space_group_symop_operation_xyz
x,y,z
-x,1/2+y,-z
-x,-y,-z
x,1/2-y,z
loop_
_atom_site_type_symbol
_atom_site_label
_atom_site_fract_x
_atom_site_fract_y
_atom_site_fract_z
Si Si1 0.153818 0.417790 0.585816
Si Si2 0.384618 0.429059 0.458694
Si Si3 0.450021 0.918624 0.018330
Si Si4 0.424949 0.428630 0.269806
Si Si5 0.073196 0.928729 0.921662
Si Si6 0.126215 0.925033 0.836373
Si Si7 0.736865 0.573978 0.449988
O O1 0.070669 0.250000 0.509609
O O2 0.364986 0.419524 0.787980
O O3 0.176594 0.490497 0.540076
O O4 0.000000 0.500000 0.500000
O O5 0.500000 0.500000 0.500000
O O6 0.410847 0.250000 0.482038
O O7 0.475327 0.495337 0.592370
O O8 0.156114 0.473397 0.262120
O O9 0.386462 0.750000 0.948579
O O10 0.273221 0.000946 0.909389
O O11 0.500000 0.000000 0.000000
O O12 0.424523 0.250000 0.277563
O O13 0.546823 0.478065 0.312342
O O14 0.200069 0.486661 0.075910
O O15 0.100057 0.750000 0.950970
O O16 0.152651 0.987286 0.923708
O O17 0.182163 0.750000 0.882973
O O18 0.899979 0.949911 0.633608
O O19 0.676644 0.750000 0.393932
#
# Coordination Sequence:
#
# PCOD8072643 Si02
#       7
#     4   4   4   4   4   4   4
#     4  10  21  35  55  80 113 153 202 258 314 376
#     4  11  24  45  72  99 131 170 211 262 316 376
#     4  10  20  34  52  78 110 149 196 250 307 367
#     4  12  25  40  63  97 134 169 208 262 319 377
#     4  10  21  41  68  94 123 166 216 260 308 374
#     4   9  17  34  61  86 109 148 204 256 306 365
#     4  10  19  37  62  86 114 158 209 260 315 378
#
# _framework density 20.378717000000002
#
# number of rings (size 3 to 8) (size 9 to 14) (size 15 to 20)
#    0.000    1.714    1.429    3.429    0.000    6.286 
#    0.000    2.857    0.000    0.000    0.000    0.000 
#    0.000    0.000    0.000    0.000    0.000    0.000 
#
# Total GULP energy -347152.211227 kJ/mol
# GULP energy per Si atom -12398.293258 kJ/mol
# Density = 2.033233 g / cm^3
# Si number density = 20.378717 Si / 1000 Ang^3
#
#
#
# Elastic Constant Matrix: (Units=GPa)
#
#
# Indices 1 2 3 4 5 6 
#
# 1 132.9471 50.1649 56.9454 0.0000 13.5056 0.0000
# 2 50.1649 83.4177 52.5905 0.0000 4.3589 0.0000
# 3 56.9454 52.5905 129.8586 0.0000 4.9180 0.0000
# 4 0.0000 0.0000 0.0000 24.9777 0.0000 0.3703
# 5 13.5056 4.3589 4.9180 0.0000 32.5404 0.0000
# 6 0.0000 0.0000 0.0000 0.3703 0.0000 34.0061
#
#
#
# Elastic Compliance Matrix: (Units=1/GPa)
#
#
# Indices 1 2 3 4 5 6 
#
# 1 0.010770 -0.004568 -0.002743 0.000000 -0.003444 0.000000
# 2 -0.004568 0.018080 -0.005330 0.000000 0.000279 0.000000
# 3 -0.002743 -0.005330 0.011055 0.000000 0.000181 0.000000
# 4 0.000000 0.000000 0.000000 0.040042 0.000000 -0.000436
# 5 -0.003444 0.000279 0.000181 0.000000 0.032095 0.000000
# 6 0.000000 0.000000 0.000000 -0.000436 0.000000 0.029411
#
#
# Mechanical properties :
#
#
# Convention : Reuss Voigt Hill
#
# Bulk Modulus (GPa) = 68.37570 73.95832 71.16701
# Shear Modulus (GPa) = 29.13604 30.73969 29.93787
#
# Velocity S-wave (km/s) = 3.78528 3.88805 3.83701
# Velocity P-wave (km/s) = 7.26153 7.51842 7.39109
#
# Compressibility (1/GPa) = 0.01462508
#
# Stress axis : x y z
#
# Youngs Moduli (GPa) = 92.85182 55.30886 90.45752
#
# Poissons Ratio (x) = 0.25263 0.24808
# Poissons Ratio (y) = 0.42412 0.48212
# Poissons Ratio (z) = 0.25465 0.29478
#
# Static dielectric constant tensor:
#      x y z
#    x 3.805510 0.000000 -0.020820 
#    y 0.000000 3.749010 0.000000 
#    z -0.020820 0.000000 3.875630 
# 
# 
# High freq. dielectric constant tensor:
#      x y z
#    x 1.808930 0.000000 -0.000410 
#    y 0.000000 1.761420 0.000000 
#    z -0.000410 0.000000 1.812360 
# 
# From -- ./inp_files/69829.got.cif
#   From: 2010.06.25/outbox.cif.g09.slc.cpg/sg11_35_cif.got.tgz:69829.got - 2010.06.27 23:14:04.
