data_PCOD8072272
_publ_section_title
;
Structure prediction by ZEFSAII (Michael W. Deem and Ramdas Pophale) SiO2 
 PCOD8072272
Probable space group: P 21/M
;
_chemical_formula_sum "Si O2"
_cell_formula_units_Z 32
_cell_length_a 20.550887
_cell_length_b 8.990615
_cell_length_c 12.160872
_cell_angle_alpha 90.000000
_cell_angle_beta 128.283058
_cell_angle_gamma 90.000000
_cell_volume 1763.729565
_symmetry_space_group_name_H-M "P 21/M"
_symmetry_group_IT_number 11
_symmetry_cell_setting 'monoclinic'
loop_
_space_group_symop_operation_xyz
x,y,z
-x,1/2+y,-z
-x,-y,-z
x,1/2-y,z
loop_
_atom_site_type_symbol
_atom_site_label
_atom_site_fract_x
_atom_site_fract_y
_atom_site_fract_z
Si Si1 0.518117 0.923410 0.344311
Si Si2 0.536420 0.573229 0.929551
Si Si3 0.291273 0.922789 0.925658
Si Si4 0.996175 0.423324 0.660628
Si Si5 0.124831 0.922311 0.647875
Si Si6 0.785040 0.420958 0.920384
Si Si7 0.620028 0.080093 0.625361
Si Si8 0.044804 0.076117 0.946933
O O1 0.526841 0.750000 0.325773
O O2 0.434443 0.958788 0.324177
O O3 0.515882 0.014688 0.229036
O O4 0.596852 0.975362 0.498694
O O5 0.528442 0.750000 0.928388
O O6 0.500000 0.500000 0.000000
O O7 0.632005 0.527893 0.018670
O O8 0.319939 0.750000 0.957110
O O9 0.223006 0.954092 0.758780
O O10 0.251402 0.967417 0.000061
O O11 0.010242 0.250000 0.660149
O O12 0.912322 0.475094 0.509027
O O13 0.077772 0.498098 0.697356
O O14 0.990235 0.465506 0.782322
O O15 0.107653 0.750000 0.648689
O O16 0.814125 0.250000 0.953605
O O17 0.715537 0.446513 0.754595
O O18 0.861437 0.522957 0.968124
O O19 0.602743 0.250000 0.572679
O O20 0.046655 0.250000 0.970503
O O21 0.000000 0.000000 0.000000
#
# Coordination Sequence:
#
# PCOD8072272 Si02
#       8
#     4   4   4   4   4   4   4   4
#     4  10  19  35  57  84 116 147 186 231 278 334
#     4  12  25  40  59  82 114 153 191 232 286 341
#     4  10  19  35  58  85 113 144 185 232 281 336
#     4   9  18  32  51  80 111 141 181 228 274 327
#     4   9  17  31  55  82 110 142 177 222 279 330
#     4  10  19  35  58  84 114 146 187 232 277 330
#     4   9  18  33  55  84 115 147 183 229 282 333
#     4  11  23  37  54  78 112 150 191 233 283 338
#
# _framework density 18.143370999999998
#
# number of rings (size 3 to 8) (size 9 to 14) (size 15 to 20)
#    0.000    2.000    2.500    1.875    0.000    2.500 
#    0.000    1.250    0.000    6.000    0.000    0.000 
#    0.000    0.000    0.000    0.000    0.000    0.000 
#
# Total GULP energy -396801.823726 kJ/mol
# GULP energy per Si atom -12400.056991 kJ/mol
# Density = 1.810208 g / cm^3
# Si number density = 18.143371 Si / 1000 Ang^3
#
#
#
# Elastic Constant Matrix: (Units=GPa)
#
#
# Indices 1 2 3 4 5 6 
#
# 1 97.1321 54.9478 63.2823 0.0000 -12.5936 0.0000
# 2 54.9478 90.7185 64.0234 0.0000 -13.4038 0.0000
# 3 63.2823 64.0234 125.6313 0.0000 -8.6703 0.0000
# 4 0.0000 0.0000 0.0000 30.2316 0.0000 1.2692
# 5 -12.5936 -13.4038 -8.6703 0.0000 23.7288 0.0000
# 6 0.0000 0.0000 0.0000 1.2692 0.0000 31.3085
#
#
#
# Elastic Compliance Matrix: (Units=1/GPa)
#
#
# Indices 1 2 3 4 5 6 
#
# 1 0.018062 -0.006452 -0.005540 0.000000 0.003918 0.000000
# 2 -0.006452 0.020619 -0.006864 0.000000 0.005715 0.000000
# 3 -0.005540 -0.006864 0.014134 0.000000 -0.001653 0.000000
# 4 0.000000 0.000000 0.000000 0.033134 0.000000 -0.001343
# 5 0.003918 0.005715 -0.001653 0.000000 0.046847 0.000000
# 6 0.000000 0.000000 0.000000 -0.001343 0.000000 0.031995
#
#
# Mechanical properties :
#
#
# Convention : Reuss Voigt Hill
#
# Bulk Modulus (GPa) = 66.20302 75.33211 70.76756
# Shear Modulus (GPa) = 24.09215 25.80235 24.94725
#
# Velocity S-wave (km/s) = 3.64796 3.77521 3.71213
# Velocity P-wave (km/s) = 7.36963 7.78547 7.58040
#
# Compressibility (1/GPa) = 0.01510505
#
# Stress axis : x y z
#
# Youngs Moduli (GPa) = 55.36418 48.49860 70.75080
#
# Poissons Ratio (x) = 0.31289 0.39196
# Poissons Ratio (y) = 0.35719 0.48561
# Poissons Ratio (z) = 0.30672 0.33288
#
# Static dielectric constant tensor:
#      x y z
#    x 3.203960 0.000000 0.059720 
#    y 0.000000 3.333530 0.000000 
#    z 0.059720 0.000000 3.796820 
# 
# 
# High freq. dielectric constant tensor:
#      x y z
#    x 1.671350 0.000000 0.003090 
#    y 0.000000 1.703870 0.000000 
#    z 0.003090 0.000000 1.723170 
# 
# From -- ./inp_files/42903.got.cif
#   From: 2010.06.25/outbox.cif.g09.slc.cpg/sg11_22_cif.got.tgz:42903.got - 2010.06.27 23:14:04.
