data_PCOD8072291
_publ_section_title
;
Structure prediction by ZEFSAII (Michael W. Deem and Ramdas Pophale) SiO2 
 PCOD8072291
Probable space group: P 21/M
;
_chemical_formula_sum "Si O2"
_cell_formula_units_Z 28
_cell_length_a 9.408535
_cell_length_b 8.588378
_cell_length_c 26.334438
_cell_angle_alpha 90.000000
_cell_angle_beta 136.349195
_cell_angle_gamma 90.000000
_cell_volume 1468.827524
_symmetry_space_group_name_H-M "P 21/M"
_symmetry_group_IT_number 11
_symmetry_cell_setting 'monoclinic'
loop_
_space_group_symop_operation_xyz
x,y,z
-x,1/2+y,-z
-x,-y,-z
x,1/2-y,z
loop_
_atom_site_type_symbol
_atom_site_label
_atom_site_fract_x
_atom_site_fract_y
_atom_site_fract_z
Si Si1 0.025303 0.566638 0.264545
Si Si2 0.593837 0.577296 0.190772
Si Si3 0.842916 0.933413 0.919207
Si Si4 0.869980 0.570109 0.812688
Si Si5 0.558191 0.065253 0.570540
Si Si6 0.448936 0.424029 0.704012
Si Si7 0.223365 0.566118 0.560533
O O1 0.022495 0.750000 0.270691
O O2 0.020731 0.525666 0.203550
O O3 0.222284 0.502862 0.348450
O O4 0.805782 0.496796 0.226601
O O5 0.565811 0.750000 0.159639
O O6 0.388687 0.480486 0.124767
O O7 0.623415 0.591937 0.257873
O O8 0.853239 0.750000 0.921946
O O9 0.913438 0.994162 0.881304
O O10 0.000000 0.000000 0.000000
O O11 0.930789 0.750000 0.823102
O O12 0.630286 0.545935 0.742099
O O13 0.566696 0.250000 0.568620
O O14 0.500000 0.000000 0.500000
O O15 0.377473 0.013965 0.561036
O O16 0.504028 0.250000 0.696885
O O17 0.267731 0.508864 0.628437
O O18 0.231789 0.750000 0.555138
O O19 0.000000 0.500000 0.500000
#
# Coordination Sequence:
#
# PCOD8072291 Si02
#       7
#     4   4   4   4   4   4   4
#     4  10  21  38  60  85 118 157 197 239 291 354
#     4   9  20  37  59  87 117 152 191 236 287 343
#     4  10  21  38  61  90 120 152 191 237 286 345
#     4  10  20  35  58  86 115 150 192 235 283 342
#     4  11  24  41  60  86 119 160 203 248 304 357
#     4  10  19  35  58  82 110 147 191 239 292 347
#     4  12  25  40  58  82 113 150 198 252 303 356
#
# _framework density 19.062823999999999
#
# number of rings (size 3 to 8) (size 9 to 14) (size 15 to 20)
#    0.000    1.714    1.429    3.000    2.000    3.429 
#    0.000    0.714    0.000    0.000    0.000    0.000 
#    0.000    0.000    0.000    0.000    0.000    0.000 
#
# Total GULP energy -346906.733153 kJ/mol
# GULP energy per Si atom -12389.526184 kJ/mol
# Density = 1.901944 g / cm^3
# Si number density = 19.062824 Si / 1000 Ang^3
#
#
#
# Elastic Constant Matrix: (Units=GPa)
#
#
# Indices 1 2 3 4 5 6 
#
# 1 116.7234 28.1486 63.7856 0.0000 17.6246 0.0000
# 2 28.1486 55.8456 37.8594 0.0000 -3.3062 0.0000
# 3 63.7856 37.8594 142.7553 0.0000 5.7743 0.0000
# 4 0.0000 0.0000 0.0000 29.0879 0.0000 -1.3646
# 5 17.6246 -3.3062 5.7743 0.0000 22.7610 0.0000
# 6 0.0000 0.0000 0.0000 -1.3646 0.0000 29.2401
#
#
#
# Elastic Compliance Matrix: (Units=1/GPa)
#
#
# Indices 1 2 3 4 5 6 
#
# 1 0.013605 -0.004395 -0.004508 0.000000 -0.010030 0.000000
# 2 -0.004395 0.023758 -0.004662 0.000000 0.008037 0.000000
# 3 -0.004508 -0.004662 0.010247 0.000000 0.000214 0.000000
# 4 0.000000 0.000000 0.000000 0.034454 0.000000 0.001608
# 5 -0.010030 0.008037 0.000214 0.000000 0.052814 0.000000
# 6 0.000000 0.000000 0.000000 0.001608 0.000000 0.034275
#
#
# Mechanical properties :
#
#
# Convention : Reuss Voigt Hill
#
# Bulk Modulus (GPa) = 48.82781 63.87904 56.35343
# Shear Modulus (GPa) = 24.61727 28.58652 26.60190
#
# Velocity S-wave (km/s) = 3.59747 3.87666 3.73967
# Velocity P-wave (km/s) = 6.55175 7.32260 6.94788
#
# Compressibility (1/GPa) = 0.02048013
#
# Stress axis : x y z
#
# Youngs Moduli (GPa) = 73.50304 42.09050 97.59172
#
# Poissons Ratio (x) = 0.18501 0.43990
# Poissons Ratio (y) = 0.32308 0.45497
# Poissons Ratio (z) = 0.33132 0.19622
#
# Static dielectric constant tensor:
#      x y z
#    x -1.671060 0.000000 0.864830 
#    y 0.000000 4.045830 0.000000 
#    z 0.864830 0.000000 3.394330 
# 
# 
# High freq. dielectric constant tensor:
#      x y z
#    x 1.744280 0.000000 -0.004190 
#    y 0.000000 1.741160 0.000000 
#    z -0.004190 0.000000 1.740660 
# 
# From -- ./inp_files/28631.got.cif
#   From: 2010.06.25/outbox.cif.g09.slc.cpg/sg11_15_cif.got.tgz:28631.got - 2010.06.27 23:14:04.
