data_PCOD8072901
_publ_section_title
;
Structure prediction by ZEFSAII (Michael W. Deem and Ramdas Pophale) SiO2 
 PCOD8072901
Probable space group: P 21/M
;
_chemical_formula_sum "Si O2"
_cell_formula_units_Z 20
_cell_length_a 13.690966
_cell_length_b 17.519684
_cell_length_c 11.546889
_cell_angle_alpha 90.000000
_cell_angle_beta 158.397712
_cell_angle_gamma 90.000000
_cell_volume 1019.680082
_symmetry_space_group_name_H-M "P 21/M"
_symmetry_group_IT_number 11
_symmetry_cell_setting 'monoclinic'
loop_
_space_group_symop_operation_xyz
x,y,z
-x,1/2+y,-z
-x,-y,-z
x,1/2-y,z
loop_
_atom_site_type_symbol
_atom_site_label
_atom_site_fract_x
_atom_site_fract_y
_atom_site_fract_z
Si Si1 0.038806 0.429681 0.126784
Si Si2 0.702185 0.914137 0.118692
Si Si3 0.760202 0.750000 0.262904
Si Si4 0.342708 0.750000 0.008268
Si Si5 0.544562 0.334669 0.650031
Si Si6 0.837681 0.496288 0.495284
O O1 0.264131 0.375260 0.323299
O O2 0.125323 0.456938 0.347858
O O3 0.000000 0.500000 0.000000
O O4 0.766739 0.383146 0.830382
O O5 0.717931 0.822862 0.134513
O O6 0.899128 0.947584 0.239511
O O7 0.784146 0.942707 0.335962
O O8 0.405810 0.938338 0.759598
O O9 0.551660 0.750000 0.136452
O O10 0.051106 0.750000 0.636582
O O11 0.385459 0.825551 0.135248
O O12 0.529322 0.250000 0.576535
#
# Coordination Sequence:
#
# PCOD8072901 Si02
#       6
#     4   4   2   2   4   4
#     4  12  23  40  66  89 123 163 205 249 299 371
#     4  10  21  35  59  83 120 159 187 253 282 365
#     4  12  20  34  58  91 118 157 210 232 314 354
#     4  10  20  32  60  87 122 147 196 270 296 332
#     4  10  22  38  61  92 121 147 201 265 309 339
#     4  10  21  38  56  85 121 153 198 234 309 341
#
# _framework density 19.613996
#
# number of rings (size 3 to 8) (size 9 to 14) (size 15 to 20)
#    0.600    0.800    0.000    7.200    0.000    3.200 
#    0.000    0.000   13.200    0.000    0.000    0.000 
#    0.000    0.000    0.000    0.000    0.000    0.000 
#
# Total GULP energy -248066.172400 kJ/mol
# GULP energy per Si atom -12403.308620 kJ/mol
# Density = 1.956935 g / cm^3
# Si number density = 19.613996 Si / 1000 Ang^3
#
#
#
# Elastic Constant Matrix: (Units=GPa)
#
#
# Indices 1 2 3 4 5 6 
#
# 1 68.0599 36.5463 36.8954 0.0000 20.4283 0.0000
# 2 36.5463 130.3604 17.6858 0.0000 2.8681 0.0000
# 3 36.8954 17.6858 53.1225 0.0000 17.5990 0.0000
# 4 0.0000 0.0000 0.0000 47.0488 0.0000 -0.8349
# 5 20.4283 2.8681 17.5990 0.0000 22.4487 0.0000
# 6 0.0000 0.0000 0.0000 -0.8349 0.0000 35.7579
#
#
#
# Elastic Compliance Matrix: (Units=1/GPa)
#
#
# Indices 1 2 3 4 5 6 
#
# 1 0.030268 -0.006286 -0.013604 0.000000 -0.016076 0.000000
# 2 -0.006286 0.009374 -0.000342 0.000000 0.004791 0.000000
# 3 -0.013604 -0.000342 0.032786 0.000000 -0.013280 0.000000
# 4 0.000000 0.000000 0.000000 0.021263 0.000000 0.000496
# 5 -0.016076 0.004791 -0.013280 0.000000 0.068975 0.000000
# 6 0.000000 0.000000 0.000000 0.000496 0.000000 0.027977
#
#
# Mechanical properties :
#
#
# Convention : Reuss Voigt Hill
#
# Bulk Modulus (GPa) = 31.28452 48.19978 39.74215
# Shear Modulus (GPa) = 20.68137 31.74543 26.21340
#
# Velocity S-wave (km/s) = 3.25070 4.02743 3.65973
# Velocity P-wave (km/s) = 5.48399 6.80107 6.17773
#
# Compressibility (1/GPa) = 0.03196469
#
# Stress axis : x y z
#
# Youngs Moduli (GPa) = 33.03772 106.67322 30.50074
#
# Poissons Ratio (x) = 0.67059 0.41492
# Poissons Ratio (y) = 0.20769 0.01043
# Poissons Ratio (z) = 0.44943 0.03650
#
# Static dielectric constant tensor:
#      x y z
#    x 3.265890 0.000000 0.374670 
#    y 0.000000 3.688610 0.000000 
#    z 0.374670 0.000000 3.504060 
# 
# 
# High freq. dielectric constant tensor:
#      x y z
#    x 1.750610 0.000000 0.030450 
#    y 0.000000 1.773700 0.000000 
#    z 0.030450 0.000000 1.764810 
# 
# From -- ./inp_files/29612.got.cif
#   From: 2010.06.25/outbox.cif.g09.slc.cpg/sg11_15_cif.got.tgz:29612.got - 2010.06.27 23:14:04.
