data_PCOD8072690
_publ_section_title
;
Structure prediction by ZEFSAII (Michael W. Deem and Ramdas Pophale) SiO2 
 PCOD8072690
Probable space group: P 21/M
;
_chemical_formula_sum "Si O2"
_cell_formula_units_Z 32
_cell_length_a 9.540563
_cell_length_b 19.669162
_cell_length_c 11.724175
_cell_angle_alpha 90.000000
_cell_angle_beta 129.136950
_cell_angle_gamma 90.000000
_cell_volume 1706.483463
_symmetry_space_group_name_H-M "P 21/M"
_symmetry_group_IT_number 11
_symmetry_cell_setting 'monoclinic'
loop_
_space_group_symop_operation_xyz
x,y,z
-x,1/2+y,-z
-x,-y,-z
x,1/2-y,z
loop_
_atom_site_type_symbol
_atom_site_label
_atom_site_fract_x
_atom_site_fract_y
_atom_site_fract_z
Si Si1 0.771995 0.436682 0.822056
Si Si2 0.867147 0.415416 0.619719
Si Si3 0.621321 0.572983 0.289572
Si Si4 0.362722 0.327415 0.112676
Si Si5 0.883815 0.910134 0.856925
Si Si6 0.204154 0.172319 0.787131
Si Si7 0.692101 0.421323 0.300732
Si Si8 0.940495 0.931992 0.630736
O O1 0.786336 0.405635 0.703275
O O2 0.578264 0.414313 0.766929
O O3 0.787939 0.517858 0.828812
O O4 0.924354 0.405012 0.981421
O O5 0.706074 0.413302 0.445067
O O6 0.971347 0.487363 0.663308
O O7 0.004793 0.355555 0.659982
O O8 0.649070 0.628960 0.206439
O O9 0.635965 0.498263 0.241585
O O10 0.765518 0.583103 0.464758
O O11 0.419210 0.250000 0.164800
O O12 0.251959 0.353704 0.164777
O O13 0.542773 0.369776 0.179261
O O14 0.236693 0.334931 0.938106
O O15 0.914445 0.895868 0.739113
O O16 0.216293 0.250000 0.752238
O O17 0.882246 0.402473 0.339423
#
# Coordination Sequence:
#
# PCOD8072690 Si02
#       8
#     4   4   4   4   4   4   4   4
#     4  10  21  34  63  91 114 149 199 242 288 345
#     4  10  19  38  61  87 119 153 199 241 291 352
#     4  11  21  38  61  92 121 152 197 252 295 343
#     4  11  25  42  59  85 120 160 198 238 300 361
#     4  10  21  38  57  91 120 149 190 245 294 346
#     4  11  23  41  60  82 120 161 197 244 294 353
#     4  11  21  37  63  91 119 156 195 250 294 346
#     4  10  21  35  62  94 121 144 195 251 300 338
#
# _framework density 18.752013999999999
#
# number of rings (size 3 to 8) (size 9 to 14) (size 15 to 20)
#    0.000    1.500    5.000    0.750    3.500    2.500 
#    0.000    2.500    0.000    0.000    0.000    0.000 
#    0.000    0.000    0.000    0.000    0.000    0.000 
#
# Total GULP energy -396942.253577 kJ/mol
# GULP energy per Si atom -12404.445424 kJ/mol
# Density = 1.870933 g / cm^3
# Si number density = 18.752014 Si / 1000 Ang^3
#
#
#
# Elastic Constant Matrix: (Units=GPa)
#
#
# Indices 1 2 3 4 5 6 
#
# 1 119.7695 47.9258 28.6773 0.0000 5.7207 0.0000
# 2 47.9258 99.1181 35.8021 0.0000 1.0605 0.0000
# 3 28.6773 35.8021 54.0813 0.0000 -2.5846 0.0000
# 4 0.0000 0.0000 0.0000 22.3175 0.0000 -0.4124
# 5 5.7207 1.0605 -2.5846 0.0000 36.9270 0.0000
# 6 0.0000 0.0000 0.0000 -0.4124 0.0000 27.4493
#
#
#
# Elastic Compliance Matrix: (Units=1/GPa)
#
#
# Indices 1 2 3 4 5 6 
#
# 1 0.010815 -0.004085 -0.003115 0.000000 -0.001776 0.000000
# 2 -0.004085 0.014839 -0.007673 0.000000 -0.000330 0.000000
# 3 -0.003115 -0.007673 0.025341 0.000000 0.002477 0.000000
# 4 0.000000 0.000000 0.000000 0.044820 0.000000 0.000673
# 5 -0.001776 -0.000330 0.002477 0.000000 0.027538 0.000000
# 6 0.000000 0.000000 0.000000 0.000673 0.000000 0.036441
#
#
# Mechanical properties :
#
#
# Convention : Reuss Voigt Hill
#
# Bulk Modulus (GPa) = 47.06412 55.30880 51.18646
# Shear Modulus (GPa) = 25.42918 28.04299 26.73609
#
# Velocity S-wave (km/s) = 3.68649 3.87132 3.78004
# Velocity P-wave (km/s) = 6.57822 7.03859 6.81229
#
# Compressibility (1/GPa) = 0.02124761
#
# Stress axis : x y z
#
# Youngs Moduli (GPa) = 92.46682 67.38837 39.46195
#
# Poissons Ratio (x) = 0.27527 0.12294
# Poissons Ratio (y) = 0.37771 0.30281
# Poissons Ratio (z) = 0.28806 0.51710
#
# Static dielectric constant tensor:
#      x y z
#    x 3.448130 0.000000 -0.125910 
#    y 0.000000 3.233180 0.000000 
#    z -0.125910 0.000000 3.473140 
# 
# 
# High freq. dielectric constant tensor:
#      x y z
#    x 1.735740 0.000000 -0.002940 
#    y 0.000000 1.699010 0.000000 
#    z -0.002940 0.000000 1.734340 
# 
# From -- ./inp_files/19346.got.cif
#   From: 2010.06.25/outbox.cif.g09.slc.cpg/sg11_10_cif.got.tgz:19346.got - 2010.06.27 23:14:04.
