data_PCOD8072994
_publ_section_title
;
Structure prediction by ZEFSAII (Michael W. Deem and Ramdas Pophale) SiO2 
 PCOD8072994
Probable space group: P 21/M
;
_chemical_formula_sum "Si O2"
_cell_formula_units_Z 32
_cell_length_a 13.859792
_cell_length_b 9.303235
_cell_length_c 14.563097
_cell_angle_alpha 90.000000
_cell_angle_beta 103.479480
_cell_angle_gamma 90.000000
_cell_volume 1826.052561
_symmetry_space_group_name_H-M "P 21/M"
_symmetry_group_IT_number 11
_symmetry_cell_setting 'monoclinic'
loop_
_space_group_symop_operation_xyz
x,y,z
-x,1/2+y,-z
-x,-y,-z
x,1/2-y,z
loop_
_atom_site_type_symbol
_atom_site_label
_atom_site_fract_x
_atom_site_fract_y
_atom_site_fract_z
Si Si1 0.713536 0.582834 0.542711
Si Si2 0.412596 0.583587 0.627081
Si Si3 0.816099 0.416350 0.098277
Si Si4 0.234141 0.417976 0.097123
Si Si5 0.230484 0.583583 0.711725
Si Si6 0.103012 0.420146 0.539374
Si Si7 0.023601 0.087812 0.092863
Si Si8 0.630759 0.579860 0.715383
O O1 0.690995 0.750000 0.523307
O O2 0.628696 0.498949 0.469631
O O3 0.823882 0.545924 0.530397
O O4 0.702645 0.536736 0.646527
O O5 0.421011 0.750000 0.601507
O O6 0.340561 0.560600 0.697570
O O7 0.519991 0.518600 0.677050
O O8 0.796001 0.250000 0.071956
O O9 0.762801 0.463483 0.180314
O O10 0.934723 0.445312 0.144993
O O11 0.772923 0.503329 0.002262
O O12 0.247143 0.250000 0.077948
O O13 0.138086 0.444598 0.143585
O O14 0.324628 0.479811 0.178571
O O15 0.196082 0.750000 0.694259
O O16 0.152167 0.482645 0.642388
O O17 0.085117 0.250000 0.546829
O O18 0.000000 0.500000 0.500000
O O19 0.014800 0.250000 0.058716
O O20 0.000000 0.000000 0.000000
O O21 0.626453 0.750000 0.722464
#
# Coordination Sequence:
#
# PCOD8072994 Si02
#       8
#     4   4   4   4   4   4   4   4
#     4   9  18  32  50  71  94 123 158 192 230 281
#     4   9  17  31  50  70  93 121 155 195 236 280
#     4   9  17  30  47  66  90 122 157 191 230 276
#     4   9  17  29  45  66  91 118 152 193 233 276
#     4   9  18  32  50  70  94 127 162 193 230 278
#     4  10  20  33  50  73 101 128 155 191 232 276
#     4   8  14  25  42  61  82 111 146 184 224 267
#     4   9  17  30  49  71  94 122 155 193 239 284
#
# _framework density 17.524139999999999
#
# number of rings (size 3 to 8) (size 9 to 14) (size 15 to 20)
#    0.000    3.000    0.000    0.750    0.000    2.000 
#    0.000    5.625    0.000    4.500    0.000    0.000 
#    0.000    0.000    0.000    0.000    0.000    0.000 
#
# Total GULP energy -396438.517774 kJ/mol
# GULP energy per Si atom -12388.703680 kJ/mol
# Density = 1.748425 g / cm^3
# Si number density = 17.524140 Si / 1000 Ang^3
#
#
#
# Elastic Constant Matrix: (Units=GPa)
#
#
# Indices 1 2 3 4 5 6 
#
# 1 106.8953 39.7207 65.0522 0.0000 10.6652 0.0000
# 2 39.7207 49.4987 41.3989 0.0000 4.9952 0.0000
# 3 65.0522 41.3989 121.2042 0.0000 0.3138 0.0000
# 4 0.0000 0.0000 0.0000 24.4241 0.0000 1.9740
# 5 10.6652 4.9952 0.3138 0.0000 25.3759 0.0000
# 6 0.0000 0.0000 0.0000 1.9740 0.0000 19.3078
#
#
#
# Elastic Compliance Matrix: (Units=1/GPa)
#
#
# Indices 1 2 3 4 5 6 
#
# 1 0.016481 -0.007412 -0.006300 0.000000 -0.005390 0.000000
# 2 -0.007412 0.032389 -0.007076 0.000000 -0.003173 0.000000
# 3 -0.006300 -0.007076 0.014039 0.000000 0.003867 0.000000
# 4 0.000000 0.000000 0.000000 0.041284 0.000000 -0.004221
# 5 -0.005390 -0.003173 0.003867 0.000000 0.042249 0.000000
# 6 0.000000 0.000000 0.000000 -0.004221 0.000000 0.052224
#
#
# Mechanical properties :
#
#
# Convention : Reuss Voigt Hill
#
# Bulk Modulus (GPa) = 46.87849 63.32687 55.10268
# Shear Modulus (GPa) = 20.21389 22.58332 21.39860
#
# Velocity S-wave (km/s) = 3.39999 3.59374 3.49821
# Velocity P-wave (km/s) = 6.49785 7.30995 6.91583
#
# Compressibility (1/GPa) = 0.02133175
#
# Stress axis : x y z
#
# Youngs Moduli (GPa) = 60.67681 30.87431 71.23134
#
# Poissons Ratio (x) = 0.22885 0.44874
# Poissons Ratio (y) = 0.44976 0.50407
# Poissons Ratio (z) = 0.38225 0.21848
#
# Static dielectric constant tensor:
#      x y z
#    x 3.329090 0.000000 -0.006700 
#    y 0.000000 3.165590 0.000000 
#    z -0.006700 0.000000 3.141720 
# 
# 
# High freq. dielectric constant tensor:
#      x y z
#    x 1.683840 0.000000 -0.004660 
#    y 0.000000 1.662920 0.000000 
#    z -0.004660 0.000000 1.662390 
# 
# From -- ./inp_files/51419.got.cif
#   From: 2010.06.25/outbox.cif.g09.slc.cpg/sg11_26_cif.got.tgz:51419.got - 2010.06.27 23:14:04.
