data_PCOD8072529
_publ_section_title
;
Structure prediction by ZEFSAII (Michael W. Deem and Ramdas Pophale) SiO2 
 PCOD8072529
Probable space group: P 21/M
;
_chemical_formula_sum "Si O2"
_cell_formula_units_Z 24
_cell_length_a 15.026509
_cell_length_b 13.435494
_cell_length_c 11.377105
_cell_angle_alpha 90.000000
_cell_angle_beta 29.478807
_cell_angle_gamma 90.000000
_cell_volume 1130.311827
_symmetry_space_group_name_H-M "P 21/M"
_symmetry_group_IT_number 11
_symmetry_cell_setting 'monoclinic'
loop_
_space_group_symop_operation_xyz
x,y,z
-x,1/2+y,-z
-x,-y,-z
x,1/2-y,z
loop_
_atom_site_type_symbol
_atom_site_label
_atom_site_fract_x
_atom_site_fract_y
_atom_site_fract_z
Si Si1 0.112240 0.547721 0.766634
Si Si2 0.546168 0.359921 0.513282
Si Si3 0.201370 0.063608 0.029564
Si Si4 0.622322 0.634319 0.952023
Si Si5 0.336446 0.861069 0.882948
Si Si6 0.628193 0.544421 0.702246
O O1 0.259030 0.621113 0.652486
O O2 0.208182 0.462762 0.578000
O O3 0.000000 0.500000 0.000000
O O4 0.969215 0.606417 0.846727
O O5 0.486337 0.250000 0.621204
O O6 0.390286 0.432113 0.739684
O O7 0.554968 0.368899 0.363757
O O8 0.219324 0.120682 0.132619
O O9 0.176669 0.943560 0.073834
O O10 0.565811 0.750000 0.009382
O O11 0.448416 0.567772 0.188151
O O12 0.700629 0.593635 0.738992
O O13 0.254317 0.750000 0.992978
O O14 0.474723 0.882648 0.829523
#
# Coordination Sequence:
#
# PCOD8072529 Si02
#       6
#     4   4   4   4   4   4
#     4  12  23  39  66  95 134 168 208 263 329 391
#     4  11  22  39  62  92 130 168 212 263 316 387
#     4  11  22  38  65  90 128 169 214 263 325 376
#     4  10  21  41  65  90 124 168 219 270 317 378
#     4  10  19  36  60  87 124 168 211 256 317 380
#     4  10  22  39  65  94 124 170 214 268 322 382
#
# _framework density 21.233080000000001
#
# number of rings (size 3 to 8) (size 9 to 14) (size 15 to 20)
#    0.000    1.333    5.000    2.500    0.000    2.000 
#    0.000    3.333    0.000    0.000    0.000    0.000 
#    0.000    0.000    0.000    0.000    0.000    0.000 
#
# Total GULP energy -297525.084452 kJ/mol
# GULP energy per Si atom -12396.878519 kJ/mol
# Density = 2.118475 g / cm^3
# Si number density = 21.233080 Si / 1000 Ang^3
#
#
#
# Elastic Constant Matrix: (Units=GPa)
#
#
# Indices 1 2 3 4 5 6 
#
# 1 126.4592 29.6413 23.7732 0.0000 -2.3937 0.0000
# 2 29.6413 134.1268 18.0877 0.0000 3.2947 0.0000
# 3 23.7732 18.0877 60.8338 0.0000 1.9816 0.0000
# 4 0.0000 0.0000 0.0000 11.8162 0.0000 2.3702
# 5 -2.3937 3.2947 1.9816 0.0000 41.7020 0.0000
# 6 0.0000 0.0000 0.0000 2.3702 0.0000 27.4793
#
#
#
# Elastic Compliance Matrix: (Units=1/GPa)
#
#
# Indices 1 2 3 4 5 6 
#
# 1 0.008858 -0.001569 -0.003020 0.000000 0.000776 0.000000
# 2 -0.001569 0.008056 -0.001761 0.000000 -0.000643 0.000000
# 3 -0.003020 -0.001761 0.018171 0.000000 -0.000898 0.000000
# 4 0.000000 0.000000 0.000000 0.086120 0.000000 -0.007428
# 5 0.000776 -0.000643 -0.000898 0.000000 0.024118 0.000000
# 6 0.000000 0.000000 0.000000 -0.007428 0.000000 0.037032
#
#
# Mechanical properties :
#
#
# Convention : Reuss Voigt Hill
#
# Bulk Modulus (GPa) = 44.67499 51.60270 48.13884
# Shear Modulus (GPa) = 24.68931 32.86067 28.77499
#
# Velocity S-wave (km/s) = 3.41365 3.93824 3.68529
# Velocity P-wave (km/s) = 6.05172 6.71084 6.38979
#
# Compressibility (1/GPa) = 0.02238389
#
# Stress axis : x y z
#
# Youngs Moduli (GPa) = 112.89215 124.13551 55.03160
#
# Poissons Ratio (x) = 0.19481 0.16621
# Poissons Ratio (y) = 0.17717 0.09691
# Poissons Ratio (z) = 0.34097 0.21860
#
# Static dielectric constant tensor:
#      x y z
#    x 4.236500 0.000000 0.120370 
#    y 0.000000 3.920620 0.000000 
#    z 0.120370 0.000000 3.533580 
# 
# 
# High freq. dielectric constant tensor:
#      x y z
#    x 1.856680 0.000000 0.014150 
#    y 0.000000 1.827030 0.000000 
#    z 0.014150 0.000000 1.795500 
# 
# From -- ./inp_files/39576.got.cif
#   From: 2010.06.25/outbox.cif.g09.slc.cpg/sg11_20_cif.got.tgz:39576.got - 2010.06.27 23:14:04.
