data_PCOD8072058
_publ_section_title
;
Structure prediction by ZEFSAII (Michael W. Deem and Ramdas Pophale) SiO2 
 PCOD8072058
Probable space group: P 21/M
;
_chemical_formula_sum "Si O2"
_cell_formula_units_Z 28
_cell_length_a 29.659970
_cell_length_b 8.762334
_cell_length_c 10.208582
_cell_angle_alpha 90.000000
_cell_angle_beta 33.840220
_cell_angle_gamma 90.000000
_cell_volume 1477.463028
_symmetry_space_group_name_H-M "P 21/M"
_symmetry_group_IT_number 11
_symmetry_cell_setting 'monoclinic'
loop_
_space_group_symop_operation_xyz
x,y,z
-x,1/2+y,-z
-x,-y,-z
x,1/2-y,z
loop_
_atom_site_type_symbol
_atom_site_label
_atom_site_fract_x
_atom_site_fract_y
_atom_site_fract_z
Si Si1 0.654641 0.569128 0.880717
Si Si2 0.320631 0.072619 0.685505
Si Si3 0.068647 0.427021 0.670473
Si Si4 0.233870 0.430659 0.155272
Si Si5 0.096333 0.425997 0.906124
Si Si6 0.260047 0.928165 0.572087
Si Si7 0.501271 0.926829 0.639055
O O1 0.648864 0.750000 0.900628
O O2 0.707993 0.502174 0.871902
O O3 0.694565 0.522546 0.648576
O O4 0.564950 0.501221 0.106225
O O5 0.303798 0.250000 0.693906
O O6 0.413022 0.045149 0.500436
O O7 0.301149 0.967324 0.610081
O O8 0.263799 0.014593 0.941537
O O9 0.047632 0.250000 0.700756
O O10 0.141238 0.483604 0.401254
O O11 0.097472 0.457525 0.748748
O O12 0.989704 0.524786 0.825385
O O13 0.238980 0.250000 0.154500
O O14 0.112043 0.250000 0.901048
O O15 0.165977 0.525497 0.805038
O O16 0.268547 0.750000 0.522669
O O17 0.482381 0.750000 0.667569
O O18 0.500000 0.000000 0.500000
#
# Coordination Sequence:
#
# PCOD8072058 Si02
#       7
#     4   4   4   4   4   4   4
#     4  11  21  39  64  89 118 156 198 245 297 351
#     4  10  22  41  62  84 117 160 198 238 296 357
#     4   9  17  32  57  88 118 147 191 244 291 344
#     4   9  17  35  61  88 114 150 196 240 290 347
#     4  10  19  34  57  85 119 156 192 236 296 353
#     4  12  25  40  58  87 121 156 199 246 298 353
#     4  11  22  38  62  92 122 155 198 246 296 350
#
# _framework density 18.951405999999999
#
# number of rings (size 3 to 8) (size 9 to 14) (size 15 to 20)
#    0.000    1.714    2.857    2.571    0.000    2.286 
#    0.000    1.429    0.000    0.000    0.000    0.000 
#    0.000    0.000    0.000    0.000    0.000    0.000 
#
# Total GULP energy -347301.681577 kJ/mol
# GULP energy per Si atom -12403.631485 kJ/mol
# Density = 1.890827 g / cm^3
# Si number density = 18.951406 Si / 1000 Ang^3
#
#
#
# Elastic Constant Matrix: (Units=GPa)
#
#
# Indices 1 2 3 4 5 6 
#
# 1 83.8704 37.3065 43.0818 0.0000 -2.7632 0.0000
# 2 37.3065 73.7917 27.9795 0.0000 -12.1941 0.0000
# 3 43.0818 27.9795 126.7194 0.0000 -13.4310 0.0000
# 4 0.0000 0.0000 0.0000 28.7957 0.0000 -4.6551
# 5 -2.7632 -12.1941 -13.4310 0.0000 24.4987 0.0000
# 6 0.0000 0.0000 0.0000 -4.6551 0.0000 27.1234
#
#
#
# Elastic Compliance Matrix: (Units=1/GPa)
#
#
# Indices 1 2 3 4 5 6 
#
# 1 0.017742 -0.007915 -0.004767 0.000000 -0.004552 0.000000
# 2 -0.007915 0.019174 -0.000665 0.000000 0.008287 0.000000
# 3 -0.004767 -0.000665 0.010157 0.000000 0.004700 0.000000
# 4 0.000000 0.000000 0.000000 0.035718 0.000000 0.006130
# 5 -0.004552 0.008287 0.004700 0.000000 0.047007 0.000000
# 6 0.000000 0.000000 0.000000 0.006130 0.000000 0.037921
#
#
# Mechanical properties :
#
#
# Convention : Reuss Voigt Hill
#
# Bulk Modulus (GPa) = 49.06392 55.67965 52.37178
# Shear Modulus (GPa) = 24.85024 27.81781 26.33403
#
# Velocity S-wave (km/s) = 3.62506 3.83541 3.73172
# Velocity P-wave (km/s) = 6.59295 7.00413 6.80165
#
# Compressibility (1/GPa) = 0.02038158
#
# Stress axis : x y z
#
# Youngs Moduli (GPa) = 56.36242 52.15290 98.45447
#
# Poissons Ratio (x) = 0.41277 0.46932
# Poissons Ratio (y) = 0.44609 0.06543
# Poissons Ratio (z) = 0.26867 0.03466
#
# Static dielectric constant tensor:
#      x y z
#    x 3.476200 0.000000 -0.206300 
#    y 0.000000 3.413890 0.000000 
#    z -0.206300 0.000000 3.715360 
# 
# 
# High freq. dielectric constant tensor:
#      x y z
#    x 1.724160 0.000000 -0.013240 
#    y 0.000000 1.727530 0.000000 
#    z -0.013240 0.000000 1.749570 
# 
# From -- ./inp_files/28261.got.cif
#   From: 2010.06.25/outbox.cif.g09.slc.cpg/sg11_15_cif.got.tgz:28261.got - 2010.06.27 23:14:04.
