data_PCOD8072603
_publ_section_title
;
Structure prediction by ZEFSAII (Michael W. Deem and Ramdas Pophale) SiO2 
 PCOD8072603
Probable space group: P 21/M
;
_chemical_formula_sum "Si O2"
_cell_formula_units_Z 14
_cell_length_a 13.949049
_cell_length_b 7.475204
_cell_length_c 21.295879
_cell_angle_alpha 90.000000
_cell_angle_beta 20.579228
_cell_angle_gamma 90.000000
_cell_volume 780.533144
_symmetry_space_group_name_H-M "P 21/M"
_symmetry_group_IT_number 11
_symmetry_cell_setting 'monoclinic'
loop_
_space_group_symop_operation_xyz
x,y,z
-x,1/2+y,-z
-x,-y,-z
x,1/2-y,z
loop_
_atom_site_type_symbol
_atom_site_label
_atom_site_fract_x
_atom_site_fract_y
_atom_site_fract_z
Si Si1 0.552377 0.250000 0.223187
Si Si2 0.182034 0.250000 0.560120
Si Si3 0.209343 0.041533 0.149157
Si Si4 0.779831 0.250000 0.212693
Si Si5 0.761758 0.553322 0.010758
O O1 0.259909 0.250000 0.438016
O O2 0.792068 0.250000 0.128965
O O3 0.573669 0.424429 0.166908
O O4 0.462906 0.250000 0.428935
O O5 0.016069 0.429468 0.675554
O O6 0.133890 0.250000 0.201388
O O7 0.208650 0.976906 0.077477
O O8 0.500000 0.000000 0.000000
O O9 0.935447 0.073700 0.144053
O O10 0.618949 0.750000 0.096302
#
# Coordination Sequence:
#
# PCOD8072603 Si02
#       5
#     2   2   4   2   4
#     4  10  19  37  59  86 121 148 184 232 291 342
#     4  10  23  36  57  92 115 145 190 244 284 334
#     4  11  22  41  63  79 114 156 199 236 283 335
#     4   8  20  37  56  88 124 139 192 230 281 358
#     4   9  20  37  60  86 110 161 185 223 291 347
#
# _framework density 17.936457999999998
#
# number of rings (size 3 to 8) (size 9 to 14) (size 15 to 20)
#    1.714    0.571    1.429    1.714    0.000    2.286 
#    2.571    1.429    0.000    0.000    0.000    0.000 
#    0.000    0.000    0.000    0.000    0.000    0.000 
#
# Total GULP energy -173474.245435 kJ/mol
# GULP energy per Si atom -12391.017531 kJ/mol
# Density = 1.789563 g / cm^3
# Si number density = 17.936458 Si / 1000 Ang^3
#
#
#
# Elastic Constant Matrix: (Units=GPa)
#
#
# Indices 1 2 3 4 5 6 
#
# 1 60.2725 41.0246 63.1492 0.0000 7.8816 0.0000
# 2 41.0246 109.8625 74.6874 0.0000 16.1691 0.0000
# 3 63.1492 74.6874 138.3385 0.0000 25.6131 0.0000
# 4 0.0000 0.0000 0.0000 30.6505 0.0000 10.6136
# 5 7.8816 16.1691 25.6131 0.0000 12.5905 0.0000
# 6 0.0000 0.0000 0.0000 10.6136 0.0000 26.2465
#
#
#
# Elastic Compliance Matrix: (Units=1/GPa)
#
#
# Indices 1 2 3 4 5 6 
#
# 1 0.034903 -0.004090 -0.017088 0.000000 0.018166 0.000000
# 2 -0.004090 0.015005 -0.005038 0.000000 -0.006461 0.000000
# 3 -0.017088 -0.005038 0.023374 0.000000 -0.030385 0.000000
# 4 0.000000 0.000000 0.000000 0.037938 0.000000 -0.015342
# 5 0.018166 -0.006461 -0.030385 0.000000 0.138163 0.000000
# 6 0.000000 0.000000 0.000000 -0.015342 0.000000 0.044304
#
#
# Mechanical properties :
#
#
# Convention : Reuss Voigt Hill
#
# Bulk Modulus (GPa) = 47.95855 74.02180 60.99017
# Shear Modulus (GPa) = 14.16145 22.53832 18.34988
#
# Velocity S-wave (km/s) = 2.81291 3.54865 3.20198
# Velocity P-wave (km/s) = 6.11114 7.62555 6.90996
#
# Compressibility (1/GPa) = 0.02085134
#
# Stress axis : x y z
#
# Youngs Moduli (GPa) = 28.65052 66.64224 42.78174
#
# Poissons Ratio (x) = 0.27259 0.73105
# Poissons Ratio (y) = 0.11719 0.21553
# Poissons Ratio (z) = 0.48958 0.33573
#
# Static dielectric constant tensor:
#      x y z
#    x 3.350560 0.000000 0.055050 
#    y 0.000000 3.272830 0.000000 
#    z 0.055050 0.000000 3.041560 
# 
# 
# High freq. dielectric constant tensor:
#      x y z
#    x 1.699190 0.000000 0.009420 
#    y 0.000000 1.694790 0.000000 
#    z 0.009420 0.000000 1.670590 
# 
# From -- ./inp_files/20091.got.cif
#   From: 2010.06.25/outbox.cif.g09.slc.cpg/sg11_11_cif.got.tgz:20091.got - 2010.06.27 23:14:04.
