data_PCOD8072049
_publ_section_title
;
Structure prediction by ZEFSAII (Michael W. Deem and Ramdas Pophale) SiO2 
 PCOD8072049
Probable space group: P 21/M
;
_chemical_formula_sum "Si O2"
_cell_formula_units_Z 28
_cell_length_a 19.654740
_cell_length_b 9.136577
_cell_length_c 13.489122
_cell_angle_alpha 90.000000
_cell_angle_beta 144.227893
_cell_angle_gamma 90.000000
_cell_volume 1416.007811
_symmetry_space_group_name_H-M "P 21/M"
_symmetry_group_IT_number 11
_symmetry_cell_setting 'monoclinic'
loop_
_space_group_symop_operation_xyz
x,y,z
-x,1/2+y,-z
-x,-y,-z
x,1/2-y,z
loop_
_atom_site_type_symbol
_atom_site_label
_atom_site_fract_x
_atom_site_fract_y
_atom_site_fract_z
Si Si1 0.511895 0.409355 0.771845
Si Si2 0.625248 0.577370 0.659275
Si Si3 0.198719 0.919045 0.519054
Si Si4 0.277954 0.420289 0.009511
Si Si5 0.604817 0.908076 0.165146
Si Si6 0.028986 0.420254 0.636557
Si Si7 0.687098 0.077783 0.550826
O O1 0.535222 0.250000 0.747569
O O2 0.425639 0.376951 0.758294
O O3 0.446804 0.527418 0.625869
O O4 0.632261 0.484817 0.950965
O O5 0.500000 0.500000 0.500000
O O6 0.610337 0.750000 0.625169
O O7 0.717224 0.511331 0.686711
O O8 0.688745 0.541918 0.838049
O O9 0.231931 0.750000 0.571037
O O10 0.226038 0.964865 0.437183
O O11 0.065634 0.952440 0.389267
O O12 0.274114 0.004533 0.691164
O O13 0.293060 0.250000 0.003832
O O14 0.149557 0.474254 0.827696
O O15 0.619546 0.750000 0.127666
O O16 0.500000 0.000000 0.000000
O O17 0.033097 0.250000 0.615611
O O18 0.000000 0.500000 0.500000
O O19 0.688490 0.250000 0.572815
#
# Coordination Sequence:
#
# PCOD8072049 Si02
#       7
#     4   4   4   4   4   4   4
#     4  10  20  33  52  80 113 147 186 234 282 339
#     4  11  21  34  56  87 121 156 191 236 291 349
#     4   9  20  39  59  79 111 151 193 238 289 349
#     4  10  22  38  57  82 116 153 192 236 290 349
#     4  10  21  34  52  80 111 144 186 237 293 348
#     4  10  23  43  63  84 112 153 200 246 294 345
#     4  10  19  34  57  84 115 152 186 229 290 347
#
# _framework density 19.773903000000001
#
# number of rings (size 3 to 8) (size 9 to 14) (size 15 to 20)
#    0.000    2.000    1.429    1.714    2.000    4.000 
#    0.000    0.714    0.000    0.000    0.000    0.000 
#    0.000    0.000    0.000    0.000    0.000    0.000 
#
# Total GULP energy -346941.011598 kJ/mol
# GULP energy per Si atom -12390.750414 kJ/mol
# Density = 1.972890 g / cm^3
# Si number density = 19.773903 Si / 1000 Ang^3
#
#
#
# Elastic Constant Matrix: (Units=GPa)
#
#
# Indices 1 2 3 4 5 6 
#
# 1 79.4189 29.0501 40.9923 0.0000 10.7170 0.0000
# 2 29.0501 88.3444 35.8550 0.0000 4.1428 0.0000
# 3 40.9923 35.8550 118.3140 0.0000 8.3999 0.0000
# 4 0.0000 0.0000 0.0000 25.2877 0.0000 -2.8840
# 5 10.7170 4.1428 8.3999 0.0000 29.4524 0.0000
# 6 0.0000 0.0000 0.0000 -2.8840 0.0000 29.8860
#
#
#
# Elastic Compliance Matrix: (Units=1/GPa)
#
#
# Indices 1 2 3 4 5 6 
#
# 1 0.016746 -0.003504 -0.004432 0.000000 -0.004337 0.000000
# 2 -0.003504 0.013655 -0.002938 0.000000 0.000192 0.000000
# 3 -0.004432 -0.002938 0.010956 0.000000 -0.001099 0.000000
# 4 0.000000 0.000000 0.000000 0.039985 0.000000 0.003859
# 5 -0.004337 0.000192 -0.001099 0.000000 0.035817 0.000000
# 6 0.000000 0.000000 0.000000 0.003859 0.000000 0.033833
#
#
# Mechanical properties :
#
#
# Convention : Reuss Voigt Hill
#
# Bulk Modulus (GPa) = 50.99785 55.31912 53.15848
# Shear Modulus (GPa) = 27.88982 28.93719 28.41351
#
# Velocity S-wave (km/s) = 3.75965 3.82960 3.79478
# Velocity P-wave (km/s) = 6.68529 6.89862 6.79279
#
# Compressibility (1/GPa) = 0.01960867
#
# Stress axis : x y z
#
# Youngs Moduli (GPa) = 59.71516 73.23374 91.27470
#
# Poissons Ratio (x) = 0.25664 0.40454
# Poissons Ratio (y) = 0.20927 0.26813
# Poissons Ratio (z) = 0.26467 0.21513
#
# Static dielectric constant tensor:
#      x y z
#    x 3.979480 0.000000 -0.113700 
#    y 0.000000 4.764380 0.000000 
#    z -0.113700 0.000000 3.553120 
# 
# 
# High freq. dielectric constant tensor:
#      x y z
#    x 1.775470 0.000000 -0.006690 
#    y 0.000000 1.780300 0.000000 
#    z -0.006690 0.000000 1.745520 
# 
# From -- ./inp_files/37698.got.cif
#   From: 2010.06.25/outbox.cif.g09.slc.cpg/sg11_19_cif.got.tgz:37698.got - 2010.06.27 23:14:04.
