data_PCOD8072096
_publ_section_title
;
Structure prediction by ZEFSAII (Michael W. Deem and Ramdas Pophale) SiO2 
 PCOD8072096
Probable space group: P 21/M
;
_chemical_formula_sum "Si O2"
_cell_formula_units_Z 32
_cell_length_a 11.075748
_cell_length_b 9.054657
_cell_length_c 20.666171
_cell_angle_alpha 90.000000
_cell_angle_beta 52.388718
_cell_angle_gamma 90.000000
_cell_volume 1641.811137
_symmetry_space_group_name_H-M "P 21/M"
_symmetry_group_IT_number 11
_symmetry_cell_setting 'monoclinic'
loop_
_space_group_symop_operation_xyz
x,y,z
-x,1/2+y,-z
-x,-y,-z
x,1/2-y,z
loop_
_atom_site_type_symbol
_atom_site_label
_atom_site_fract_x
_atom_site_fract_y
_atom_site_fract_z
Si Si1 0.895014 0.918812 0.257606
Si Si2 0.899537 0.915254 0.583155
Si Si3 0.493815 0.576834 0.180436
Si Si4 0.225259 0.578805 0.958427
Si Si5 0.428805 0.422175 0.585544
Si Si6 0.039020 0.579369 0.890183
Si Si7 0.149037 0.580237 0.273672
Si Si8 0.547128 0.581339 0.673735
O O1 0.895256 0.750000 0.233147
O O2 0.754279 0.944394 0.352939
O O3 0.054110 0.958313 0.240549
O O4 0.876145 0.024080 0.201941
O O5 0.961102 0.750000 0.567516
O O6 0.728006 0.921660 0.614889
O O7 0.920580 0.984699 0.646397
O O8 0.000000 0.000000 0.500000
O O9 0.523993 0.750000 0.179264
O O10 0.614371 0.507014 0.091135
O O11 0.327305 0.544256 0.204790
O O12 0.517169 0.499227 0.241925
O O13 0.252653 0.750000 0.964471
O O14 0.152663 0.551436 0.912051
O O15 0.116030 0.512812 0.049320
O O16 0.500000 0.500000 0.500000
O O17 0.472485 0.250000 0.569103
O O18 0.496163 0.493964 0.627620
O O19 0.995539 0.750000 0.897780
O O20 0.126834 0.750000 0.300665
O O21 0.485586 0.750000 0.692988
#
# Coordination Sequence:
#
# PCOD8072096 Si02
#       8
#     4   4   4   4   4   4   4   4
#     4  10  22  40  59  79 112 152 186 227 282 338
#     4  10  21  35  55  80 106 139 182 234 283 331
#     4  10  19  34  58  85 112 144 185 233 279 329
#     4  10  20  35  58  86 118 149 183 230 279 331
#     4  11  24  39  57  82 112 147 188 233 282 337
#     4  10  21  36  57  87 116 147 186 229 276 331
#     4   9  20  38  57  79 109 147 188 229 280 336
#     4  10  21  37  55  78 110 144 183 228 279 336
#
# _framework density 19.490670000000001
#
# number of rings (size 3 to 8) (size 9 to 14) (size 15 to 20)
#    0.000    2.000    0.000    3.000    1.750    7.000 
#    0.000    0.625    0.000    0.000    0.000    0.000 
#    0.000    0.000    0.000    0.000    0.000    0.000 
#
# Total GULP energy -396914.003000 kJ/mol
# GULP energy per Si atom -12403.562594 kJ/mol
# Density = 1.944631 g / cm^3
# Si number density = 19.490670 Si / 1000 Ang^3
#
#
#
# Elastic Constant Matrix: (Units=GPa)
#
#
# Indices 1 2 3 4 5 6 
#
# 1 58.0766 32.0961 21.7638 0.0000 7.7714 0.0000
# 2 32.0961 121.2769 49.1122 0.0000 -3.8016 0.0000
# 3 21.7638 49.1122 95.0288 0.0000 -14.0338 0.0000
# 4 0.0000 0.0000 0.0000 41.8509 0.0000 -1.3098
# 5 7.7714 -3.8016 -14.0338 0.0000 19.4968 0.0000
# 6 0.0000 0.0000 0.0000 -1.3098 0.0000 28.4015
#
#
#
# Elastic Compliance Matrix: (Units=1/GPa)
#
#
# Indices 1 2 3 4 5 6 
#
# 1 0.023527 -0.004614 -0.005059 0.000000 -0.013919 0.000000
# 2 -0.004614 0.011408 -0.004743 0.000000 0.000649 0.000000
# 3 -0.005059 -0.004743 0.015995 0.000000 0.012605 0.000000
# 4 0.000000 0.000000 0.000000 0.023929 0.000000 0.001104
# 5 -0.013919 0.000649 0.012605 0.000000 0.066038 0.000000
# 6 0.000000 0.000000 0.000000 0.001104 0.000000 0.035260
#
#
# Mechanical properties :
#
#
# Convention : Reuss Voigt Hill
#
# Bulk Modulus (GPa) = 45.25553 53.36961 49.31257
# Shear Modulus (GPa) = 23.54549 29.37719 26.46134
#
# Velocity S-wave (km/s) = 3.47946 3.88654 3.68862
# Velocity P-wave (km/s) = 6.27787 6.89796 6.59520
#
# Compressibility (1/GPa) = 0.02209675
#
# Stress axis : x y z
#
# Youngs Moduli (GPa) = 42.50428 87.65926 62.52123
#
# Poissons Ratio (x) = 0.40446 0.31631
# Poissons Ratio (y) = 0.19611 0.29654
# Poissons Ratio (z) = 0.21504 0.41578
#
# Static dielectric constant tensor:
#      x y z
#    x 3.813070 0.000000 -0.367700 
#    y 0.000000 3.724180 0.000000 
#    z -0.367700 0.000000 3.584140 
# 
# 
# High freq. dielectric constant tensor:
#      x y z
#    x 1.749560 0.000000 -0.014660 
#    y 0.000000 1.772740 0.000000 
#    z -0.014660 0.000000 1.759510 
# 
# From -- ./inp_files/45302.got.cif
#   From: 2010.06.25/outbox.cif.g09.slc.cpg/sg11_23_cif.got.tgz:45302.got - 2010.06.27 23:14:04.
