data_PCOD8072542
_publ_section_title
;
Structure prediction by ZEFSAII (Michael W. Deem and Ramdas Pophale) SiO2 
 PCOD8072542
Probable space group: P 21/M
;
_chemical_formula_sum "Si O2"
_cell_formula_units_Z 32
_cell_length_a 21.496248
_cell_length_b 9.009090
_cell_length_c 27.603611
_cell_angle_alpha 90.000000
_cell_angle_beta 18.744714
_cell_angle_gamma 90.000000
_cell_volume 1717.871335
_symmetry_space_group_name_H-M "P 21/M"
_symmetry_group_IT_number 11
_symmetry_cell_setting 'monoclinic'
loop_
_space_group_symop_operation_xyz
x,y,z
-x,1/2+y,-z
-x,-y,-z
x,1/2-y,z
loop_
_atom_site_type_symbol
_atom_site_label
_atom_site_fract_x
_atom_site_fract_y
_atom_site_fract_z
Si Si1 0.821280 0.925233 0.830243
Si Si2 0.674821 0.579830 0.661330
Si Si3 0.441948 0.417906 0.143866
Si Si4 0.514612 0.924087 0.540893
Si Si5 0.508931 0.920250 0.291093
Si Si6 0.792592 0.425162 0.151552
Si Si7 0.925941 0.574639 0.646438
Si Si8 0.201084 0.919491 0.600734
O O1 0.817819 0.750000 0.831152
O O2 0.870714 0.984736 0.740378
O O3 0.985268 0.977243 0.747727
O O4 0.613862 0.980307 0.999040
O O5 0.691793 0.750000 0.631526
O O6 0.571920 0.567602 0.788641
O O7 0.539248 0.488767 0.725116
O O8 0.885867 0.510222 0.510428
O O9 0.487178 0.250000 0.094553
O O10 0.244157 0.470829 0.264730
O O11 0.530287 0.750000 0.521567
O O12 0.328131 0.966760 0.710991
O O13 0.500000 0.000000 0.500000
O O14 0.709936 0.978557 0.423035
O O15 0.574317 0.750000 0.236609
O O16 0.319273 0.932970 0.463861
O O17 0.684704 0.012193 0.184167
O O18 0.815819 0.250000 0.128974
O O19 0.000000 0.500000 0.000000
O O20 0.968671 0.750000 0.614502
O O21 0.202251 0.750000 0.618597
#
# Coordination Sequence:
#
# PCOD8072542 Si02
#       8
#     4   4   4   4   4   4   4   4
#     4  10  20  36  58  83 110 144 188 233 280 335
#     4  11  22  36  55  83 114 147 189 233 279 334
#     4  10  23  38  53  80 117 149 182 232 286 336
#     4  10  21  37  59  87 116 148 186 228 274 330
#     4  10  19  36  61  84 111 150 189 232 280 327
#     4  10  21  38  60  89 119 149 188 230 275 331
#     4  10  20  38  60  81 108 145 190 234 280 337
#     4   9  18  35  58  83 110 144 187 232 274 327
#
# _framework density 18.627706
#
# number of rings (size 3 to 8) (size 9 to 14) (size 15 to 20)
#    0.000    2.000    1.250    2.250    0.000    4.500 
#    2.250    0.000    0.000    0.000    0.000    0.000 
#    0.000    0.000    0.000    0.000    0.000    0.000 
#
# Total GULP energy -396908.917620 kJ/mol
# GULP energy per Si atom -12403.403676 kJ/mol
# Density = 1.858531 g / cm^3
# Si number density = 18.627706 Si / 1000 Ang^3
#
#
#
# Elastic Constant Matrix: (Units=GPa)
#
#
# Indices 1 2 3 4 5 6 
#
# 1 109.0753 41.5102 17.0762 0.0000 -11.1290 0.0000
# 2 41.5102 69.3341 24.2473 0.0000 -6.0507 0.0000
# 3 17.0762 24.2473 53.0051 0.0000 -12.9837 0.0000
# 4 0.0000 0.0000 0.0000 34.4502 0.0000 -4.7318
# 5 -11.1290 -6.0507 -12.9837 0.0000 26.2850 0.0000
# 6 0.0000 0.0000 0.0000 -4.7318 0.0000 33.1902
#
#
#
# Elastic Compliance Matrix: (Units=1/GPa)
#
#
# Indices 1 2 3 4 5 6 
#
# 1 0.012191 -0.007047 0.000186 0.000000 0.003631 0.000000
# 2 -0.007047 0.021243 -0.007941 0.000000 -0.002016 0.000000
# 3 0.000186 -0.007941 0.025040 0.000000 0.010619 0.000000
# 4 0.000000 0.000000 0.000000 0.029607 0.000000 0.004221
# 5 0.003631 -0.002016 0.010619 0.000000 0.044363 0.000000
# 6 0.000000 0.000000 0.000000 0.004221 0.000000 0.030731
#
#
# Mechanical properties :
#
#
# Convention : Reuss Voigt Hill
#
# Bulk Modulus (GPa) = 34.63882 44.12022 39.37952
# Shear Modulus (GPa) = 24.70296 28.69045 26.69671
#
# Velocity S-wave (km/s) = 3.64557 3.92880 3.78983
# Velocity P-wave (km/s) = 6.02959 6.65712 6.35111
#
# Compressibility (1/GPa) = 0.02886934
#
# Stress axis : x y z
#
# Youngs Moduli (GPa) = 82.02627 47.07409 39.93554
#
# Poissons Ratio (x) = 0.33172 -0.00741
# Poissons Ratio (y) = 0.57803 0.31714
# Poissons Ratio (z) = -0.01522 0.37383
#
# Static dielectric constant tensor:
#      x y z
#    x 3.593290 0.000000 -0.151080 
#    y 0.000000 3.492810 0.000000 
#    z -0.151080 0.000000 3.365910 
# 
# 
# High freq. dielectric constant tensor:
#      x y z
#    x 1.733130 0.000000 -0.010270 
#    y 0.000000 1.726590 0.000000 
#    z -0.010270 0.000000 1.715630 
# 
# From -- ./inp_files/72097.got.cif
#   From: 2010.06.25/outbox.cif.g09.slc.cpg/sg11_37_cif.got.tgz:72097.got - 2010.06.27 23:14:04.
