data_PCOD8072422
_publ_section_title
;
Structure prediction by ZEFSAII (Michael W. Deem and Ramdas Pophale) SiO2 
 PCOD8072422
Probable space group: P 21/M
;
_chemical_formula_sum "Si O2"
_cell_formula_units_Z 20
_cell_length_a 11.371448
_cell_length_b 13.749436
_cell_length_c 16.799742
_cell_angle_alpha 90.000000
_cell_angle_beta 21.944658
_cell_angle_gamma 90.000000
_cell_volume 981.610002
_symmetry_space_group_name_H-M "P 21/M"
_symmetry_group_IT_number 11
_symmetry_cell_setting 'monoclinic'
loop_
_space_group_symop_operation_xyz
x,y,z
-x,1/2+y,-z
-x,-y,-z
x,1/2-y,z
loop_
_atom_site_type_symbol
_atom_site_label
_atom_site_fract_x
_atom_site_fract_y
_atom_site_fract_z
Si Si1 0.763199 0.981835 0.077904
Si Si2 0.207540 0.636359 0.489010
Si Si3 0.752507 0.862171 0.633748
Si Si4 0.885352 0.542094 0.830052
Si Si5 0.750094 0.361984 0.816760
O O1 0.560209 0.076926 0.184732
O O2 0.535278 0.893336 0.243598
O O3 0.970459 0.954185 0.870080
O O4 0.000000 0.000000 0.000000
O O5 0.216120 0.750000 0.498250
O O6 0.916393 0.606859 0.614145
O O7 0.169195 0.582556 0.597796
O O8 0.654187 0.750000 0.697812
O O9 0.995205 0.883364 0.410842
O O10 0.816808 0.429923 0.850651
O O11 0.589009 0.612759 0.005068
O O12 0.756359 0.250000 0.841044
#
# Coordination Sequence:
#
# PCOD8072422 Si02
#       5
#     4   4   4   4   4
#     4  12  26  42  62  89 132 170 206 246 310 375
#     4  11  23  42  67  94 123 158 210 265 309 358
#     4  10  20  40  67  93 123 160 208 260 311 363
#     4  11  22  37  65  92 124 161 207 256 311 367
#     4  10  19  35  65  98 123 154 206 266 313 359
#
# _framework density 20.374690000000001
#
# number of rings (size 3 to 8) (size 9 to 14) (size 15 to 20)
#    0.000    1.200    4.000    3.600    0.000    4.800 
#    0.000    0.000    0.000    0.000    0.000    0.000 
#    0.000    0.000    0.000    0.000    0.000    0.000 
#
# Total GULP energy -248060.001788 kJ/mol
# GULP energy per Si atom -12403.000089 kJ/mol
# Density = 2.032832 g / cm^3
# Si number density = 20.374690 Si / 1000 Ang^3
#
#
#
# Elastic Constant Matrix: (Units=GPa)
#
#
# Indices 1 2 3 4 5 6 
#
# 1 145.8253 55.0570 44.3319 0.0000 24.0920 0.0000
# 2 55.0570 107.8041 38.8349 0.0000 4.6889 0.0000
# 3 44.3319 38.8349 56.0574 0.0000 21.7574 0.0000
# 4 0.0000 0.0000 0.0000 22.4442 0.0000 7.7114
# 5 24.0920 4.6889 21.7574 0.0000 33.6152 0.0000
# 6 0.0000 0.0000 0.0000 7.7114 0.0000 16.8051
#
#
#
# Elastic Compliance Matrix: (Units=1/GPa)
#
#
# Indices 1 2 3 4 5 6 
#
# 1 0.010077 -0.003576 -0.003850 0.000000 -0.004232 0.000000
# 2 -0.003576 0.014321 -0.009766 0.000000 0.006886 0.000000
# 3 -0.003850 -0.009766 0.034789 0.000000 -0.018396 0.000000
# 4 0.000000 0.000000 0.000000 0.052894 0.000000 -0.024272
# 5 -0.004232 0.006886 -0.018396 0.000000 0.043728 0.000000
# 6 0.000000 0.000000 0.000000 -0.024272 0.000000 0.070643
#
#
# Mechanical properties :
#
#
# Convention : Reuss Voigt Hill
#
# Bulk Modulus (GPa) = 40.31608 65.12606 52.72107
# Shear Modulus (GPa) = 18.58032 26.00375 22.29204
#
# Velocity S-wave (km/s) = 3.02310 3.57638 3.31131
# Velocity P-wave (km/s) = 5.65825 7.00625 6.36802
#
# Compressibility (1/GPa) = 0.02480400
#
# Stress axis : x y z
#
# Youngs Moduli (GPa) = 99.23631 69.82877 28.74491
#
# Poissons Ratio (x) = 0.24968 0.11066
# Poissons Ratio (y) = 0.35483 0.28072
# Poissons Ratio (z) = 0.38203 0.68195
#
# Static dielectric constant tensor:
#      x y z
#    x 3.659450 0.000000 0.391230 
#    y 0.000000 3.831580 0.000000 
#    z 0.391230 0.000000 3.709550 
# 
# 
# High freq. dielectric constant tensor:
#      x y z
#    x 1.777510 0.000000 0.037790 
#    y 0.000000 1.810290 0.000000 
#    z 0.037790 0.000000 1.790260 
# 
# From -- ./inp_files/12390.got.cif
#   From: 2010.06.25/outbox.cif.g09.slc.cpg/sg11_7_cif.got.tgz:12390.got - 2010.06.27 23:14:04.
