data_PCOD8072520
_publ_section_title
;
Structure prediction by ZEFSAII (Michael W. Deem and Ramdas Pophale) SiO2 
 PCOD8072520
Probable space group: P 21/M
;
_chemical_formula_sum "Si O2"
_cell_formula_units_Z 20
_cell_length_a 5.132184
_cell_length_b 8.431905
_cell_length_c 22.449505
_cell_angle_alpha 90.000000
_cell_angle_beta 83.393644
_cell_angle_gamma 90.000000
_cell_volume 965.031223
_symmetry_space_group_name_H-M "P 21/M"
_symmetry_group_IT_number 11
_symmetry_cell_setting 'monoclinic'
loop_
_space_group_symop_operation_xyz
x,y,z
-x,1/2+y,-z
-x,-y,-z
x,1/2-y,z
loop_
_atom_site_type_symbol
_atom_site_label
_atom_site_fract_x
_atom_site_fract_y
_atom_site_fract_z
Si Si1 0.732977 0.562011 0.533749
Si Si2 0.963280 0.934238 0.127845
Si Si3 0.647710 0.562799 0.668367
Si Si4 0.893853 0.061991 0.258947
Si Si5 0.494694 0.064445 0.066385
O O1 0.500000 0.500000 0.500000
O O2 0.731127 0.750000 0.534624
O O3 0.699130 0.492607 0.601359
O O4 0.000000 0.500000 0.500000
O O5 0.923894 0.750000 0.115349
O O6 0.887014 0.971017 0.197234
O O7 0.774472 0.031488 0.089064
O O8 0.264515 0.981061 0.109502
O O9 0.675272 0.750000 0.664556
O O10 0.362042 0.511544 0.697615
O O11 0.861008 0.498244 0.709441
O O12 0.905582 0.250000 0.246608
O O13 0.439582 0.250000 0.067305
O O14 0.500000 0.000000 0.000000
#
# Coordination Sequence:
#
# PCOD8072520 Si02
#       5
#     4   4   4   4   4
#     4  11  22  39  61  89 121 159 202 251 304 363
#     4  12  25  42  63  94 129 161 198 251 308 361
#     4   9  19  35  58  83 114 155 202 245 294 359
#     4  10  19  36  60  85 112 155 205 247 291 355
#     4  12  25  44  67  93 124 164 207 250 298 358
#
# _framework density 20.724719
#
# number of rings (size 3 to 8) (size 9 to 14) (size 15 to 20)
#    0.000    1.200    0.000    7.200    0.000    4.800 
#    0.000    6.000    0.000    0.000    0.000    0.000 
#    0.000    0.000    0.000    0.000    0.000    0.000 
#
# Total GULP energy -248116.836437 kJ/mol
# GULP energy per Si atom -12405.841822 kJ/mol
# Density = 2.067755 g / cm^3
# Si number density = 20.724719 Si / 1000 Ang^3
#
#
#
# Elastic Constant Matrix: (Units=GPa)
#
#
# Indices 1 2 3 4 5 6 
#
# 1 110.8789 20.5647 20.3597 0.0000 10.0756 0.0000
# 2 20.5647 71.7559 39.3448 0.0000 -3.3354 0.0000
# 3 20.3597 39.3448 121.3965 0.0000 9.1986 0.0000
# 4 0.0000 0.0000 0.0000 34.5407 0.0000 1.1470
# 5 10.0756 -3.3354 9.1986 0.0000 45.2092 0.0000
# 6 0.0000 0.0000 0.0000 1.1470 0.0000 29.4850
#
#
#
# Elastic Compliance Matrix: (Units=1/GPa)
#
#
# Indices 1 2 3 4 5 6 
#
# 1 0.009817 -0.002564 -0.000645 0.000000 -0.002246 0.000000
# 2 -0.002564 0.017879 -0.005594 0.000000 0.003029 0.000000
# 3 -0.000645 -0.005594 0.010339 0.000000 -0.002372 0.000000
# 4 0.000000 0.000000 0.000000 0.028989 0.000000 -0.001128
# 5 -0.002246 0.003029 -0.002372 0.000000 0.023326 0.000000
# 6 0.000000 0.000000 0.000000 -0.001128 0.000000 0.033959
#
#
# Mechanical properties :
#
#
# Convention : Reuss Voigt Hill
#
# Bulk Modulus (GPa) = 48.95306 51.61886 50.28596
# Shear Modulus (GPa) = 33.61909 36.76444 35.19176
#
# Velocity S-wave (km/s) = 4.03199 4.21639 4.12522
# Velocity P-wave (km/s) = 6.73408 6.97602 6.85612
#
# Compressibility (1/GPa) = 0.02042773
#
# Stress axis : x y z
#
# Youngs Moduli (GPa) = 101.86458 55.93124 96.72570
#
# Poissons Ratio (x) = 0.14341 0.06241
# Poissons Ratio (y) = 0.26119 0.54109
# Poissons Ratio (z) = 0.06573 0.31289
#
# Static dielectric constant tensor:
#      x y z
#    x 4.089690 0.000000 0.066190 
#    y 0.000000 3.710370 0.000000 
#    z 0.066190 0.000000 4.031300 
# 
# 
# High freq. dielectric constant tensor:
#      x y z
#    x 1.830560 0.000000 0.000160 
#    y 0.000000 1.795450 0.000000 
#    z 0.000160 0.000000 1.831420 
# 
# From -- ./inp_files/62466.got.cif
#   From: 2010.06.25/outbox.cif.g09.slc.cpg/sg11_32_cif.got.tgz:62466.got - 2010.06.27 23:14:04.
