data_PCOD8072531
_publ_section_title
;
Structure prediction by ZEFSAII (Michael W. Deem and Ramdas Pophale) SiO2 
 PCOD8072531
Probable space group: P 21/M
;
_chemical_formula_sum "Si O2"
_cell_formula_units_Z 20
_cell_length_a 5.149761
_cell_length_b 8.477424
_cell_length_c 22.438657
_cell_angle_alpha 90.000000
_cell_angle_beta 96.549774
_cell_angle_gamma 90.000000
_cell_volume 973.204186
_symmetry_space_group_name_H-M "P 21/M"
_symmetry_group_IT_number 11
_symmetry_cell_setting 'monoclinic'
loop_
_space_group_symop_operation_xyz
x,y,z
-x,1/2+y,-z
-x,-y,-z
x,1/2-y,z
loop_
_atom_site_type_symbol
_atom_site_label
_atom_site_fract_x
_atom_site_fract_y
_atom_site_fract_z
Si Si1 0.649707 0.562366 0.834612
Si Si2 0.592176 0.063922 0.565350
Si Si3 0.733846 0.065016 0.967362
Si Si4 0.125131 0.936842 0.628906
Si Si5 0.114581 0.936868 0.763476
O O1 0.656212 0.750000 0.842487
O O2 0.702767 0.483247 0.898613
O O3 0.374537 0.500317 0.802418
O O4 0.866940 0.501869 0.793910
O O5 0.633439 0.250000 0.563518
O O6 0.500000 0.000000 0.500000
O O7 0.380234 0.020533 0.609433
O O8 0.867964 0.982554 0.586019
O O9 0.736308 0.250000 0.973407
O O10 0.500000 0.000000 0.000000
O O11 0.000000 0.000000 0.000000
O O12 0.168489 0.750000 0.626952
O O13 0.095936 0.999793 0.695632
O O14 0.119046 0.750000 0.762101
#
# Coordination Sequence:
#
# PCOD8072531 Si02
#       5
#     4   4   4   4   4
#     4  10  19  36  60  88 119 157 200 245 293 355
#     4  12  25  42  62  90 124 162 203 252 307 361
#     4  12  25  42  63  91 123 161 204 253 306 361
#     4  11  22  41  66  93 122 160 205 250 297 360
#     4   9  19  35  60  88 118 156 199 240 293 359
#
# _framework density 20.550671999999999
#
# number of rings (size 3 to 8) (size 9 to 14) (size 15 to 20)
#    0.000    1.200    0.000    7.200    0.000    4.800 
#    0.000    6.000    0.000    0.000    0.000    0.000 
#    0.000    0.000    0.000    0.000    0.000    0.000 
#
# Total GULP energy -248101.506323 kJ/mol
# GULP energy per Si atom -12405.075316 kJ/mol
# Density = 2.050390 g / cm^3
# Si number density = 20.550672 Si / 1000 Ang^3
#
#
#
# Elastic Constant Matrix: (Units=GPa)
#
#
# Indices 1 2 3 4 5 6 
#
# 1 104.4536 33.8048 1.3158 0.0000 1.4533 0.0000
# 2 33.8048 54.0831 54.1706 0.0000 -1.5336 0.0000
# 3 1.3158 54.1706 94.8735 0.0000 1.1128 0.0000
# 4 0.0000 0.0000 0.0000 30.9166 0.0000 0.5013
# 5 1.4533 -1.5336 1.1128 0.0000 48.9677 0.0000
# 6 0.0000 0.0000 0.0000 0.5013 0.0000 29.9890
#
#
#
# Elastic Compliance Matrix: (Units=1/GPa)
#
#
# Indices 1 2 3 4 5 6 
#
# 1 0.017598 -0.025276 0.014207 0.000000 -0.001637 0.000000
# 2 -0.025276 0.079676 -0.045193 0.000000 0.004273 0.000000
# 3 0.014207 -0.045193 0.036179 0.000000 -0.002659 0.000000
# 4 0.000000 0.000000 0.000000 0.032354 0.000000 -0.000541
# 5 -0.001637 0.004273 -0.002659 0.000000 0.020664 0.000000
# 6 0.000000 0.000000 0.000000 -0.000541 0.000000 0.033355
#
#
# Mechanical properties :
#
#
# Convention : Reuss Voigt Hill
#
# Bulk Modulus (GPa) = 47.78073 47.99919 47.88996
# Shear Modulus (GPa) = 14.73516 32.91592 23.82554
#
# Velocity S-wave (km/s) = 2.68062 4.00646 3.40863
# Velocity P-wave (km/s) = 5.73425 6.69399 6.23262
#
# Compressibility (1/GPa) = 0.02092894
#
# Stress axis : x y z
#
# Youngs Moduli (GPa) = 56.82579 12.55084 27.64070
#
# Poissons Ratio (x) = 0.31724 -0.39270
# Poissons Ratio (y) = 1.43633 1.24916
# Poissons Ratio (z) = -0.80733 0.56721
#
# Static dielectric constant tensor:
#      x y z
#    x 4.082580 0.000000 -0.009730 
#    y 0.000000 3.571940 0.000000 
#    z -0.009730 0.000000 3.951040 
# 
# 
# High freq. dielectric constant tensor:
#      x y z
#    x 1.826380 0.000000 -0.000500 
#    y 0.000000 1.789760 0.000000 
#    z -0.000500 0.000000 1.825490 
# 
# From -- ./inp_files/8478.got.cif
#   From: 2010.06.25/outbox.cif.g09.slc.cpg/sg11_5_cif.got.tgz:8478.got - 2010.06.27 23:14:04.
