data_PCOD8072589
_publ_section_title
;
Structure prediction by ZEFSAII (Michael W. Deem and Ramdas Pophale) SiO2 
 PCOD8072589
Probable space group: P 21/M
;
_chemical_formula_sum "Si O2"
_cell_formula_units_Z 22
_cell_length_a 9.666680
_cell_length_b 22.930427
_cell_length_c 5.128048
_cell_angle_alpha 90.000000
_cell_angle_beta 59.921378
_cell_angle_gamma 90.000000
_cell_volume 983.620527
_symmetry_space_group_name_H-M "P 21/M"
_symmetry_group_IT_number 11
_symmetry_cell_setting 'monoclinic'
loop_
_space_group_symop_operation_xyz
x,y,z
-x,1/2+y,-z
-x,-y,-z
x,1/2-y,z
loop_
_atom_site_type_symbol
_atom_site_label
_atom_site_fract_x
_atom_site_fract_y
_atom_site_fract_z
Si Si1 0.939136 0.250000 0.175512
Si Si2 0.589471 0.250000 0.585910
Si Si3 0.045233 0.626820 0.940099
Si Si4 0.258337 0.250000 0.204951
Si Si5 0.463617 0.432635 0.060854
Si Si6 0.850244 0.625788 0.602695
Si Si7 0.397958 0.621805 0.570617
O O1 0.776215 0.250000 0.518018
O O2 0.115494 0.250000 0.132155
O O3 0.929697 0.194147 0.997376
O O4 0.574078 0.191462 0.424808
O O5 0.441647 0.250000 0.928368
O O6 0.927461 0.599308 0.265355
O O7 0.982588 0.627481 0.703375
O O8 0.218912 0.597828 0.790345
O O9 0.232076 0.188973 0.384672
O O10 0.565124 0.395252 0.761372
O O11 0.500000 0.500000 0.000000
O O12 0.277917 0.421153 0.178048
O O13 0.491546 0.411439 0.329444
#
# Coordination Sequence:
#
# PCOD8072589 Si02
#       7
#     2   2   4   2   4   4   4
#     4   8  19  33  58  92 139 162 202 264 333 392
#     4  10  20  39  66 104 130 171 216 272 336 417
#     4  10  21  40  63  93 129 168 212 264 332 395
#     4  10  19  36  64  94 135 167 218 260 349 397
#     4  12  26  45  65  94 133 177 227 279 324 387
#     4  11  22  39  64  93 126 168 214 267 328 397
#     4  11  24  44  68  98 133 172 217 276 336 399
#
# _framework density 22.366350000000001
#
# number of rings (size 3 to 8) (size 9 to 14) (size 15 to 20)
#    0.000    1.455    1.818    3.273    2.545    1.455 
#    0.000   10.909    0.000    0.000    0.000    0.000 
#    0.000    0.000    0.000    0.000    0.000    0.000 
#
# Total GULP energy -272571.838561 kJ/mol
# GULP energy per Si atom -12389.629025 kJ/mol
# Density = 2.231544 g / cm^3
# Si number density = 22.366350 Si / 1000 Ang^3
#
#
#
# Elastic Constant Matrix: (Units=GPa)
#
#
# Indices 1 2 3 4 5 6 
#
# 1 72.4404 22.9040 31.1364 0.0000 -14.2680 0.0000
# 2 22.9040 81.9674 10.5279 0.0000 1.8865 0.0000
# 3 31.1364 10.5279 134.1163 0.0000 -22.5848 0.0000
# 4 0.0000 0.0000 0.0000 6.5057 0.0000 5.7360
# 5 -14.2680 1.8865 -22.5848 0.0000 45.2897 0.0000
# 6 0.0000 0.0000 0.0000 5.7360 0.0000 16.2825
#
#
#
# Elastic Compliance Matrix: (Units=1/GPa)
#
#
# Indices 1 2 3 4 5 6 
#
# 1 0.017344 -0.004562 -0.002965 0.000000 0.004175 0.000000
# 2 -0.004562 0.013573 -0.000375 0.000000 -0.002190 0.000000
# 3 -0.002965 -0.000375 0.008755 0.000000 0.003447 0.000000
# 4 0.000000 0.000000 0.000000 0.222966 0.000000 -0.078547
# 5 0.004175 -0.002190 0.003447 0.000000 0.025206 0.000000
# 6 0.000000 0.000000 0.000000 -0.078547 0.000000 0.089086
#
#
# Mechanical properties :
#
#
# Convention : Reuss Voigt Hill
#
# Bulk Modulus (GPa) = 41.89833 46.40675 44.15254
# Shear Modulus (GPa) = 12.47850 28.54596 20.51223
#
# Velocity S-wave (km/s) = 2.36458 3.57640 3.03166
# Velocity P-wave (km/s) = 5.12137 6.15205 5.66022
#
# Compressibility (1/GPa) = 0.02386730
#
# Stress axis : x y z
#
# Youngs Moduli (GPa) = 57.65813 73.67476 114.22586
#
# Poissons Ratio (x) = 0.33607 0.33872
# Poissons Ratio (y) = 0.26301 0.04286
# Poissons Ratio (z) = 0.17098 0.02764
#
# Static dielectric constant tensor:
#      x y z
#    x 3.956680 0.000000 -0.416310 
#    y 0.000000 6.061510 0.000000 
#    z -0.416310 0.000000 3.991980 
# 
# 
# High freq. dielectric constant tensor:
#      x y z
#    x 1.880830 0.000000 -0.027490 
#    y 0.000000 1.858110 0.000000 
#    z -0.027490 0.000000 1.882070 
# 
# From -- ./inp_files/2381.got.cif
#   From: 2010.06.25/outbox.cif.g09.slc.cpg/sg11_2_cif.got.tgz:2381.got - 2010.06.27 23:14:04.
