data_PCOD8072390
_publ_section_title
;
Structure prediction by ZEFSAII (Michael W. Deem and Ramdas Pophale) SiO2 
 PCOD8072390
Probable space group: P 21/M
;
_chemical_formula_sum "Si O2"
_cell_formula_units_Z 28
_cell_length_a 11.986099
_cell_length_b 13.131641
_cell_length_c 9.723528
_cell_angle_alpha 90.000000
_cell_angle_beta 61.614310
_cell_angle_gamma 90.000000
_cell_volume 1346.444833
_symmetry_space_group_name_H-M "P 21/M"
_symmetry_group_IT_number 11
_symmetry_cell_setting 'monoclinic'
loop_
_space_group_symop_operation_xyz
x,y,z
-x,1/2+y,-z
-x,-y,-z
x,1/2-y,z
loop_
_atom_site_type_symbol
_atom_site_label
_atom_site_fract_x
_atom_site_fract_y
_atom_site_fract_z
Si Si1 0.870301 0.366218 0.348205
Si Si2 0.803032 0.576038 0.111174
Si Si3 0.027179 0.945049 0.147297
Si Si4 0.841903 0.363756 0.676303
Si Si5 0.354166 0.496524 0.550623
Si Si6 0.378260 0.013021 0.233155
Si Si7 0.594249 0.862673 0.043674
O O1 0.891930 0.250000 0.284655
O O2 0.903936 0.376151 0.490094
O O3 0.720926 0.395086 0.412520
O O4 0.960578 0.445067 0.216380
O O5 0.708474 0.570246 0.295011
O O6 0.933483 0.620380 0.102223
O O7 0.842685 0.469104 0.012427
O O8 0.732383 0.642568 0.036811
O O9 0.049975 0.883854 0.273442
O O10 0.788281 0.250000 0.726508
O O11 0.728336 0.441304 0.770280
O O12 0.500000 0.500000 0.500000
O O13 0.341117 0.446098 0.406193
O O14 0.393131 0.109220 0.124605
O O15 0.507197 0.946455 0.170140
O O16 0.534111 0.750000 0.087162
#
# Coordination Sequence:
#
# PCOD8072390 Si02
#       7
#     4   4   4   4   4   4   4
#     4   9  20  36  60  89 119 162 208 244 301 370
#     4  10  21  38  60  87 121 157 200 241 306 357
#     4  10  20  37  60  84 125 159 199 250 301 352
#     4  10  19  35  60  90 116 155 204 250 304 361
#     4  10  19  38  63  86 119 161 195 255 310 350
#     4  10  21  39  62  85 125 154 200 255 304 356
#     4  11  22  38  62  88 118 162 204 245 303 363
#
# _framework density 20.795507000000001
#
# number of rings (size 3 to 8) (size 9 to 14) (size 15 to 20)
#    0.000    2.000    2.857    0.857    0.000    1.714 
#    0.000    7.143    0.000    0.000    0.000    0.000 
#    0.000    0.000    0.000    0.000    0.000    0.000 
#
# Total GULP energy -346889.877400 kJ/mol
# GULP energy per Si atom -12388.924193 kJ/mol
# Density = 2.074818 g / cm^3
# Si number density = 20.795507 Si / 1000 Ang^3
#
#
#
# Elastic Constant Matrix: (Units=GPa)
#
#
# Indices 1 2 3 4 5 6 
#
# 1 100.2618 17.2643 32.0488 0.0000 18.6893 0.0000
# 2 17.2643 56.8762 20.2136 0.0000 8.1450 0.0000
# 3 32.0488 20.2136 107.1996 0.0000 5.7846 0.0000
# 4 0.0000 0.0000 0.0000 17.9181 0.0000 -0.4865
# 5 18.6893 8.1450 5.7846 0.0000 37.5927 0.0000
# 6 0.0000 0.0000 0.0000 -0.4865 0.0000 12.1673
#
#
#
# Elastic Compliance Matrix: (Units=1/GPa)
#
#
# Indices 1 2 3 4 5 6 
#
# 1 0.012236 -0.001895 -0.003020 0.000000 -0.005208 0.000000
# 2 -0.001895 0.019625 -0.002980 0.000000 -0.002851 0.000000
# 3 -0.003020 -0.002980 0.010767 0.000000 0.000490 0.000000
# 4 0.000000 0.000000 0.000000 0.055870 0.000000 0.002234
# 5 -0.005208 -0.002851 0.000490 0.000000 0.029732 0.000000
# 6 0.000000 0.000000 0.000000 0.002234 0.000000 0.082277
#
#
# Mechanical properties :
#
#
# Convention : Reuss Voigt Hill
#
# Bulk Modulus (GPa) = 37.26103 44.82122 41.04113
# Shear Modulus (GPa) = 21.25459 26.52300 23.88879
#
# Velocity S-wave (km/s) = 3.20046 3.57518 3.39300
# Velocity P-wave (km/s) = 5.62263 6.21632 5.92691
#
# Compressibility (1/GPa) = 0.02683769
#
# Stress axis : x y z
#
# Youngs Moduli (GPa) = 81.72395 50.95614 92.87926
#
# Poissons Ratio (x) = 0.09657 0.28048
# Poissons Ratio (y) = 0.15488 0.27678
# Poissons Ratio (z) = 0.24679 0.15185
#
# Static dielectric constant tensor:
#      x y z
#    x 3.955150 0.000000 0.107570 
#    y 0.000000 3.345680 0.000000 
#    z 0.107570 0.000000 3.999380 
# 
# 
# High freq. dielectric constant tensor:
#      x y z
#    x 1.821840 0.000000 0.013070 
#    y 0.000000 1.765590 0.000000 
#    z 0.013070 0.000000 1.831830 
# 
# From -- ./inp_files/17687.got.cif
#   From: 2010.06.25/outbox.cif.g09.slc.cpg/sg11_9_cif.got.tgz:17687.got - 2010.06.27 23:14:04.
