data_PCOD8072122
_publ_section_title
;
Structure prediction by ZEFSAII (Michael W. Deem and Ramdas Pophale) SiO2 
 PCOD8072122
Probable space group: P 21/M
;
_chemical_formula_sum "Si O2"
_cell_formula_units_Z 32
_cell_length_a 13.860103
_cell_length_b 9.157895
_cell_length_c 22.148292
_cell_angle_alpha 90.000000
_cell_angle_beta 147.636425
_cell_angle_gamma 90.000000
_cell_volume 1504.843792
_symmetry_space_group_name_H-M "P 21/M"
_symmetry_group_IT_number 11
_symmetry_cell_setting 'monoclinic'
loop_
_space_group_symop_operation_xyz
x,y,z
-x,1/2+y,-z
-x,-y,-z
x,1/2-y,z
loop_
_atom_site_type_symbol
_atom_site_label
_atom_site_fract_x
_atom_site_fract_y
_atom_site_fract_z
Si Si1 0.642797 0.079311 0.465853
Si Si2 0.279826 0.582134 0.269464
Si Si3 0.583964 0.091816 0.299081
Si Si4 0.686498 0.923753 0.077782
Si Si5 0.892089 0.917885 0.069152
Si Si6 0.994072 0.925352 0.681621
Si Si7 0.748120 0.416383 0.884396
Si Si8 0.923029 0.407622 0.406294
O O1 0.654444 0.250000 0.488832
O O2 0.678475 0.049810 0.413194
O O3 0.443248 0.020177 0.378167
O O4 0.792729 0.991510 0.584051
O O5 0.342518 0.750000 0.310500
O O6 0.222844 0.548242 0.170362
O O7 0.090649 0.547872 0.204296
O O8 0.486468 0.250000 0.257691
O O9 0.714617 0.109737 0.311703
O O10 0.454061 0.965747 0.207988
O O11 0.676887 0.750000 0.086589
O O12 0.727809 0.951918 0.028484
O O13 0.859111 0.997699 0.199339
O O14 0.500000 0.000000 0.000000
O O15 0.889461 0.750000 0.049372
O O16 0.880454 0.000115 0.999310
O O17 0.994941 0.750000 0.691927
O O18 0.056073 0.976962 0.648049
O O19 0.771729 0.250000 0.913374
O O20 0.020733 0.250000 0.457791
O O21 0.000000 0.500000 0.500000
#
# Coordination Sequence:
#
# PCOD8072122 Si02
#       8
#     4   4   4   4   4   4   4   4
#     4  10  19  34  58  88 121 156 190 233 290 351
#     4   9  19  37  60  90 125 157 192 239 295 356
#     4   9  18  32  49  77 118 158 192 230 284 350
#     4  11  26  47  67  87 114 154 204 253 298 346
#     4  10  22  41  63  84 115 159 202 246 298 353
#     4  11  23  39  61  87 118 156 198 246 297 350
#     4  10  20  32  55  90 123 154 192 238 292 351
#     4  10  20  33  53  82 116 153 193 237 290 351
#
# _framework density 21.264665999999998
#
# number of rings (size 3 to 8) (size 9 to 14) (size 15 to 20)
#    0.000    2.000    1.250    1.875    1.750    3.500 
#    0.000    0.625    0.000    0.000    0.000    0.000 
#    0.000    0.000    0.000    0.000    0.000    0.000 
#
# Total GULP energy -396465.931684 kJ/mol
# GULP energy per Si atom -12389.560365 kJ/mol
# Density = 2.121627 g / cm^3
# Si number density = 21.264666 Si / 1000 Ang^3
#
#
#
# Elastic Constant Matrix: (Units=GPa)
#
#
# Indices 1 2 3 4 5 6 
#
# 1 39.8646 27.3980 20.2594 0.0000 23.1353 0.0000
# 2 27.3980 102.7156 60.3694 0.0000 12.3984 0.0000
# 3 20.2594 60.3694 122.5515 0.0000 18.4778 0.0000
# 4 0.0000 0.0000 0.0000 43.5746 0.0000 3.9555
# 5 23.1353 12.3984 18.4778 0.0000 29.3114 0.0000
# 6 0.0000 0.0000 0.0000 3.9555 0.0000 20.9038
#
#
#
# Elastic Compliance Matrix: (Units=1/GPa)
#
#
# Indices 1 2 3 4 5 6 
#
# 1 0.054810 -0.011271 0.002536 0.000000 -0.040092 0.000000
# 2 -0.011271 0.016098 -0.007052 0.000000 0.006532 0.000000
# 3 0.002536 -0.007052 0.012229 0.000000 -0.006728 0.000000
# 4 0.000000 0.000000 0.000000 0.023350 0.000000 -0.004418
# 5 -0.040092 0.006532 -0.006728 0.000000 0.067239 0.000000
# 6 0.000000 0.000000 0.000000 -0.004418 0.000000 0.048674
#
#
# Mechanical properties :
#
#
# Convention : Reuss Voigt Hill
#
# Bulk Modulus (GPa) = 19.39352 53.46502 36.42927
# Shear Modulus (GPa) = 18.43930 29.23163 23.83547
#
# Velocity S-wave (km/s) = 2.94791 3.71166 3.35161
# Velocity P-wave (km/s) = 4.55266 6.60044 5.66977
#
# Compressibility (1/GPa) = 0.05156361
#
# Stress axis : x y z
#
# Youngs Moduli (GPa) = 18.24501 62.11955 81.77538
#
# Poissons Ratio (x) = 0.70015 -0.20741
# Poissons Ratio (y) = 0.20564 0.57665
# Poissons Ratio (z) = -0.04628 0.43804
#
# Static dielectric constant tensor:
#      x y z
#    x 4.670990 0.000000 0.443140 
#    y 0.000000 4.195790 0.000000 
#    z 0.443140 0.000000 3.810160 
# 
# 
# High freq. dielectric constant tensor:
#      x y z
#    x 1.826230 0.000000 0.014080 
#    y 0.000000 1.836100 0.000000 
#    z 0.014080 0.000000 1.829870 
# 
# From -- ./inp_files/69090.got.cif
#   From: 2010.06.25/outbox.cif.g09.slc.cpg/sg11_35_cif.got.tgz:69090.got - 2010.06.27 23:14:04.
