data_PCOD8072965
_publ_section_title
;
Structure prediction by ZEFSAII (Michael W. Deem and Ramdas Pophale) SiO2 
 PCOD8072965
Probable space group: P 21/M
;
_chemical_formula_sum "Si O2"
_cell_formula_units_Z 32
_cell_length_a 11.552181
_cell_length_b 8.939313
_cell_length_c 22.867078
_cell_angle_alpha 90.000000
_cell_angle_beta 130.413657
_cell_angle_gamma 90.000000
_cell_volume 1797.969971
_symmetry_space_group_name_H-M "P 21/M"
_symmetry_group_IT_number 11
_symmetry_cell_setting 'monoclinic'
loop_
_space_group_symop_operation_xyz
x,y,z
-x,1/2+y,-z
-x,-y,-z
x,1/2-y,z
loop_
_atom_site_type_symbol
_atom_site_label
_atom_site_fract_x
_atom_site_fract_y
_atom_site_fract_z
Si Si1 0.775266 0.425029 0.705372
Si Si2 0.347166 0.072779 0.724150
Si Si3 0.224959 0.415440 0.803318
Si Si4 0.952967 0.580501 0.926267
Si Si5 0.638565 0.926729 0.764065
Si Si6 0.927949 0.078499 0.154344
Si Si7 0.952547 0.073226 0.424270
Si Si8 0.092582 0.916743 0.368003
O O1 0.747156 0.250000 0.707092
O O2 0.649304 0.520202 0.699603
O O3 0.774282 0.461337 0.635006
O O4 0.940109 0.467802 0.783120
O O5 0.328804 0.250000 0.708012
O O6 0.346801 0.035109 0.793784
O O7 0.504381 0.014402 0.750887
O O8 0.211377 0.989448 0.646797
O O9 0.263436 0.250000 0.839603
O O10 0.222725 0.527266 0.858883
O O11 0.064904 0.417184 0.718086
O O12 0.932322 0.750000 0.937871
O O13 0.792692 0.523734 0.847658
O O14 0.086214 0.561995 0.920704
O O15 0.000000 0.500000 0.000000
O O16 0.610273 0.750000 0.756393
O O17 0.968849 0.250000 0.183625
O O18 0.944027 0.250000 0.427949
O O19 0.000000 0.000000 0.500000
O O20 0.081450 0.031695 0.418193
O O21 0.123275 0.750000 0.402877
#
# Coordination Sequence:
#
# PCOD8072965 Si02
#       8
#     4   4   4   4   4   4   4   4
#     4   9  16  27  45  68  94 125 158 195 239 283
#     4  10  20  34  51  73 100 129 163 199 239 290
#     4   8  15  27  44  67  93 121 155 195 237 283
#     4   9  19  32  47  70  98 127 160 199 241 287
#     4  10  20  33  49  73 101 127 161 202 243 288
#     4   9  16  26  42  67  95 120 154 200 242 281
#     4  11  21  33  51  74 101 132 164 200 242 285
#     4   8  15  28  45  68  96 123 158 200 238 281
#
# _framework density 17.797851000000001
#
# number of rings (size 3 to 8) (size 9 to 14) (size 15 to 20)
#    0.000    2.750    0.000    4.875    0.000    8.500 
#    0.000    0.000    0.000    1.500    0.000    0.000 
#    0.000    0.000    0.000    0.000    0.000    0.000 
#
# Total GULP energy -396462.605198 kJ/mol
# GULP energy per Si atom -12389.456412 kJ/mol
# Density = 1.775734 g / cm^3
# Si number density = 17.797851 Si / 1000 Ang^3
#
#
#
# Elastic Constant Matrix: (Units=GPa)
#
#
# Indices 1 2 3 4 5 6 
#
# 1 144.1260 60.9631 46.9396 0.0000 -33.0042 0.0000
# 2 60.9631 103.4331 44.0451 0.0000 -20.2070 0.0000
# 3 46.9396 44.0451 61.3147 0.0000 -23.0938 0.0000
# 4 0.0000 0.0000 0.0000 25.1481 0.0000 -7.0292
# 5 -33.0042 -20.2070 -23.0938 0.0000 24.0707 0.0000
# 6 0.0000 0.0000 0.0000 -7.0292 0.0000 34.4073
#
#
#
# Elastic Compliance Matrix: (Units=1/GPa)
#
#
# Indices 1 2 3 4 5 6 
#
# 1 0.011759 -0.003918 -0.002120 0.000000 0.010801 0.000000
# 2 -0.003918 0.015402 -0.008170 0.000000 -0.000282 0.000000
# 3 -0.002120 -0.008170 0.031509 0.000000 0.020465 0.000000
# 4 0.000000 0.000000 0.000000 0.042173 0.000000 0.008616
# 5 0.010801 -0.000282 0.020465 0.000000 0.075752 0.000000
# 6 0.000000 0.000000 0.000000 0.008616 0.000000 0.030824
#
#
# Mechanical properties :
#
#
# Convention : Reuss Voigt Hill
#
# Bulk Modulus (GPa) = 33.05349 68.08550 50.56949
# Shear Modulus (GPa) = 20.33189 27.18695 23.75942
#
# Velocity S-wave (km/s) = 3.38358 3.91262 3.65767
# Velocity P-wave (km/s) = 5.82037 7.66481 6.80537
#
# Compressibility (1/GPa) = 0.03025399
#
# Stress axis : x y z
#
# Youngs Moduli (GPa) = 85.03817 64.92854 31.73687
#
# Poissons Ratio (x) = 0.25441 0.06727
# Poissons Ratio (y) = 0.33320 0.25929
# Poissons Ratio (z) = 0.18026 0.53047
#
# Static dielectric constant tensor:
#      x y z
#    x 4.013830 0.000000 -0.440800 
#    y 0.000000 3.507810 0.000000 
#    z -0.440800 0.000000 3.039200 
# 
# 
# High freq. dielectric constant tensor:
#      x y z
#    x 1.698440 0.000000 -0.040910 
#    y 0.000000 1.697830 0.000000 
#    z -0.040910 0.000000 1.632850 
# 
# From -- ./inp_files/64459.got.cif
#   From: 2010.06.25/outbox.cif.g09.slc.cpg/sg11_33_cif.got.tgz:64459.got - 2010.06.27 23:14:04.
