data_PCOD8072030
_publ_section_title
;
Structure prediction by ZEFSAII (Michael W. Deem and Ramdas Pophale) SiO2 
 PCOD8072030
Probable space group: P 21/M
;
_chemical_formula_sum "Si O2"
_cell_formula_units_Z 32
_cell_length_a 20.408618
_cell_length_b 8.932968
_cell_length_c 26.004546
_cell_angle_alpha 90.000000
_cell_angle_beta 159.181389
_cell_angle_gamma 90.000000
_cell_volume 1684.957781
_symmetry_space_group_name_H-M "P 21/M"
_symmetry_group_IT_number 11
_symmetry_cell_setting 'monoclinic'
loop_
_space_group_symop_operation_xyz
x,y,z
-x,1/2+y,-z
-x,-y,-z
x,1/2-y,z
loop_
_atom_site_type_symbol
_atom_site_label
_atom_site_fract_x
_atom_site_fract_y
_atom_site_fract_z
Si Si1 0.394811 0.922691 0.830207
Si Si2 0.817160 0.923734 0.144034
Si Si3 0.910559 0.077684 0.312818
Si Si4 0.257645 0.078994 0.209522
Si Si5 0.599842 0.423937 0.525546
Si Si6 0.057660 0.076543 0.962038
Si Si7 0.006665 0.427117 0.188860
Si Si8 0.842010 0.921407 0.415728
O O1 0.356578 0.750000 0.791904
O O2 0.260278 0.978907 0.777159
O O3 0.350957 0.005002 0.743571
O O4 0.603382 0.955982 0.998787
O O5 0.857040 0.750000 0.161906
O O6 0.928408 0.974831 0.275888
O O7 0.876656 0.022202 0.139557
O O8 0.878032 0.250000 0.272784
O O9 0.106538 0.059816 0.486343
O O10 0.195889 0.250000 0.176131
O O11 0.471976 0.056036 0.380990
O O12 0.223220 0.043629 0.123937
O O13 0.137216 0.968558 0.156022
O O14 0.500000 0.500000 0.500000
O O15 0.632767 0.250000 0.562229
O O16 0.792964 0.501614 0.656248
O O17 0.048903 0.250000 0.940307
O O18 0.090641 0.980719 0.935064
O O19 0.027188 0.250000 0.203232
O O20 0.836371 0.750000 0.395642
O O21 0.000000 0.000000 0.500000
#
# Coordination Sequence:
#
# PCOD8072030 Si02
#       8
#     4   4   4   4   4   4   4   4
#     4   9  19  35  56  83 113 144 186 234 279 333
#     4  11  23  38  56  80 109 147 190 232 281 337
#     4   9  18  34  55  83 115 145 181 229 279 331
#     4   9  19  34  56  86 114 139 175 221 273 327
#     4  11  21  36  59  87 114 144 182 225 272 328
#     4  10  19  34  57  83 111 142 177 223 272 327
#     4  12  25  40  56  78 112 151 189 232 281 334
#     4   9  17  30  52  81 112 143 180 225 274 325
#
# _framework density 18.991572999999999
#
# number of rings (size 3 to 8) (size 9 to 14) (size 15 to 20)
#    0.000    2.000    1.250    3.750    0.000    4.500 
#    0.000    1.250    0.000    1.500    0.000    0.000 
#    0.000    0.000    0.000    0.000    0.000    0.000 
#
# Total GULP energy -396760.986171 kJ/mol
# GULP energy per Si atom -12398.780818 kJ/mol
# Density = 1.894835 g / cm^3
# Si number density = 18.991573 Si / 1000 Ang^3
#
#
#
# Elastic Constant Matrix: (Units=GPa)
#
#
# Indices 1 2 3 4 5 6 
#
# 1 94.1960 45.4314 35.9346 0.0000 -21.1974 0.0000
# 2 45.4314 110.1248 37.3922 0.0000 -16.0610 0.0000
# 3 35.9346 37.3922 66.3613 0.0000 -28.6922 0.0000
# 4 0.0000 0.0000 0.0000 30.3278 0.0000 -4.1146
# 5 -21.1974 -16.0610 -28.6922 0.0000 27.9013 0.0000
# 6 0.0000 0.0000 0.0000 -4.1146 0.0000 32.5971
#
#
#
# Elastic Compliance Matrix: (Units=1/GPa)
#
#
# Indices 1 2 3 4 5 6 
#
# 1 0.015261 -0.004322 -0.003405 0.000000 0.005604 0.000000
# 2 -0.004322 0.012453 -0.005396 0.000000 -0.001664 0.000000
# 3 -0.003405 -0.005396 0.031495 0.000000 0.026695 0.000000
# 4 0.000000 0.000000 0.000000 0.033548 0.000000 0.004235
# 5 0.005604 -0.001664 0.026695 0.000000 0.066592 0.000000
# 6 0.000000 0.000000 0.000000 0.004235 0.000000 0.031212
#
#
# Mechanical properties :
#
#
# Convention : Reuss Voigt Hill
#
# Bulk Modulus (GPa) = 30.33735 56.46649 43.40192
# Shear Modulus (GPa) = 21.94946 28.29350 25.12148
#
# Velocity S-wave (km/s) = 3.40332 3.86397 3.64094
# Velocity P-wave (km/s) = 5.60823 7.05010 6.37009
#
# Compressibility (1/GPa) = 0.03296267
#
# Stress axis : x y z
#
# Youngs Moduli (GPa) = 65.52615 80.30077 31.75074
#
# Poissons Ratio (x) = 0.34708 0.10812
# Poissons Ratio (y) = 0.28322 0.17132
# Poissons Ratio (z) = 0.22314 0.43330
#
# Static dielectric constant tensor:
#      x y z
#    x 3.365340 0.000000 -0.328040 
#    y 0.000000 3.647430 0.000000 
#    z -0.328040 0.000000 3.898720 
# 
# 
# High freq. dielectric constant tensor:
#      x y z
#    x 1.711800 0.000000 -0.029220 
#    y 0.000000 1.748710 0.000000 
#    z -0.029220 0.000000 1.740640 
# 
# From -- ./inp_files/72222.got.cif
#   From: 2010.06.25/outbox.cif.g09.slc.cpg/sg11_37_cif.got.tgz:72222.got - 2010.06.27 23:14:04.
