data_PCOD8072832
_publ_section_title
;
Structure prediction by ZEFSAII (Michael W. Deem and Ramdas Pophale) SiO2 
 PCOD8072832
Probable space group: P 21/M
;
_chemical_formula_sum "Si O2"
_cell_formula_units_Z 28
_cell_length_a 9.401316
_cell_length_b 9.269737
_cell_length_c 26.379240
_cell_angle_alpha 90.000000
_cell_angle_beta 40.137979
_cell_angle_gamma 90.000000
_cell_volume 1481.935179
_symmetry_space_group_name_H-M "P 21/M"
_symmetry_group_IT_number 11
_symmetry_cell_setting 'monoclinic'
loop_
_space_group_symop_operation_xyz
x,y,z
-x,1/2+y,-z
-x,-y,-z
x,1/2-y,z
loop_
_atom_site_type_symbol
_atom_site_label
_atom_site_fract_x
_atom_site_fract_y
_atom_site_fract_z
Si Si1 0.064047 0.915376 0.932186
Si Si2 0.709748 0.920391 0.420750
Si Si3 0.594948 0.081947 0.242499
Si Si4 0.739741 0.414956 0.809712
Si Si5 0.140812 0.418235 0.319342
Si Si6 0.792694 0.912907 0.281363
Si Si7 0.600557 0.588475 0.016948
O O1 0.102897 0.750000 0.937755
O O2 0.273369 0.977779 0.843324
O O3 0.861271 0.931638 0.948640
O O4 0.000000 0.000000 0.000000
O O5 0.701015 0.750000 0.434255
O O6 0.718379 0.953767 0.358605
O O7 0.500000 0.000000 0.500000
O O8 0.924569 0.986835 0.390510
O O9 0.650736 0.250000 0.231213
O O10 0.332640 0.054385 0.308602
O O11 0.671697 0.012142 0.273855
O O12 0.743700 0.250000 0.786871
O O13 0.757804 0.532710 0.761360
O O14 0.511081 0.454207 0.899215
O O15 0.942946 0.432537 0.793812
O O16 0.075823 0.250000 0.334502
O O17 0.722847 0.750000 0.287817
O O18 0.531445 0.750000 0.023359
O O19 0.500000 0.500000 0.000000
#
# Coordination Sequence:
#
# PCOD8072832 Si02
#       7
#     4   4   4   4   4   4   4
#     4  10  21  35  50  73 104 141 184 229 273 319
#     4  10  21  39  62  88 113 137 170 211 255 313
#     4  10  21  35  51  76 110 142 180 224 265 315
#     4   9  18  33  50  72 101 135 179 227 269 318
#     4  10  20  34  54  79 105 138 176 214 257 310
#     4   9  19  34  54  79 106 137 175 216 261 314
#     4  10  20  32  48  71 100 134 177 227 277 323
#
# _framework density 18.894213000000001
#
# number of rings (size 3 to 8) (size 9 to 14) (size 15 to 20)
#    0.000    2.286    0.000    3.429    0.000    5.714 
#    0.000    0.714    0.000    0.000    0.000    0.000 
#    0.000    0.000    0.000    0.000    0.000    0.000 
#
# Total GULP energy -347118.178217 kJ/mol
# GULP energy per Si atom -12397.077793 kJ/mol
# Density = 1.885121 g / cm^3
# Si number density = 18.894213 Si / 1000 Ang^3
#
#
#
# Elastic Constant Matrix: (Units=GPa)
#
#
# Indices 1 2 3 4 5 6 
#
# 1 71.2728 33.9274 27.8595 0.0000 -4.4935 0.0000
# 2 33.9274 71.5404 38.6696 0.0000 -3.6470 0.0000
# 3 27.8595 38.6696 94.6067 0.0000 -19.2871 0.0000
# 4 0.0000 0.0000 0.0000 32.2372 0.0000 3.7997
# 5 -4.4935 -3.6470 -19.2871 0.0000 23.2419 0.0000
# 6 0.0000 0.0000 0.0000 3.7997 0.0000 36.2664
#
#
#
# Elastic Compliance Matrix: (Units=1/GPa)
#
#
# Indices 1 2 3 4 5 6 
#
# 1 0.018540 -0.007537 -0.002274 0.000000 0.000515 0.000000
# 2 -0.007537 0.021310 -0.007350 0.000000 -0.004212 0.000000
# 3 -0.002274 -0.007350 0.016753 0.000000 0.012310 0.000000
# 4 0.000000 0.000000 0.000000 0.031408 0.000000 -0.003291
# 5 0.000515 -0.004212 0.012310 0.000000 0.052679 0.000000
# 6 0.000000 0.000000 0.000000 -0.003291 0.000000 0.027918
#
#
# Mechanical properties :
#
#
# Convention : Reuss Voigt Hill
#
# Bulk Modulus (GPa) = 44.87871 48.70366 46.79119
# Shear Modulus (GPa) = 23.76902 27.47998 25.62450
#
# Velocity S-wave (km/s) = 3.55069 3.81781 3.68667
# Velocity P-wave (km/s) = 6.37291 6.72809 6.55291
#
# Compressibility (1/GPa) = 0.02228228
#
# Stress axis : x y z
#
# Youngs Moduli (GPa) = 53.93859 46.92537 59.68948
#
# Poissons Ratio (x) = 0.35367 0.13573
# Poissons Ratio (y) = 0.40653 0.43870
# Poissons Ratio (z) = 0.12265 0.34489
#
# Static dielectric constant tensor:
#      x y z
#    x 3.354740 0.000000 -0.325620 
#    y 0.000000 3.460030 0.000000 
#    z -0.325620 0.000000 3.682090 
# 
# 
# High freq. dielectric constant tensor:
#      x y z
#    x 1.727890 0.000000 -0.016660 
#    y 0.000000 1.735130 0.000000 
#    z -0.016660 0.000000 1.729610 
# 
# From -- ./inp_files/28977.got.cif
#   From: 2010.06.25/outbox.cif.g09.slc.cpg/sg11_15_cif.got.tgz:28977.got - 2010.06.27 23:14:04.
