data_PCOD8072772
_publ_section_title
;
Structure prediction by ZEFSAII (Michael W. Deem and Ramdas Pophale) SiO2 
 PCOD8072772
Probable space group: P 21/M
;
_chemical_formula_sum "Si O2"
_cell_formula_units_Z 32
_cell_length_a 17.710666
_cell_length_b 14.093411
_cell_length_c 11.709342
_cell_angle_alpha 90.000000
_cell_angle_beta 31.346835
_cell_angle_gamma 90.000000
_cell_volume 1520.436792
_symmetry_space_group_name_H-M "P 21/M"
_symmetry_group_IT_number 11
_symmetry_cell_setting 'monoclinic'
loop_
_space_group_symop_operation_xyz
x,y,z
-x,1/2+y,-z
-x,-y,-z
x,1/2-y,z
loop_
_atom_site_type_symbol
_atom_site_label
_atom_site_fract_x
_atom_site_fract_y
_atom_site_fract_z
Si Si1 0.793421 0.363167 0.153810
Si Si2 0.382269 0.362915 0.530522
Si Si3 0.001584 0.642273 0.720341
Si Si4 0.845731 0.474225 0.649758
Si Si5 0.935413 0.863059 0.060055
Si Si6 0.316217 0.637613 0.948187
Si Si7 0.491489 0.362736 0.628636
Si Si8 0.728676 0.643460 0.904128
O O1 0.798318 0.250000 0.152134
O O2 0.658160 0.398802 0.407021
O O3 0.772596 0.395840 0.049827
O O4 0.941826 0.406935 0.014479
O O5 0.385565 0.250000 0.528468
O O6 0.223945 0.399293 0.693454
O O7 0.406118 0.401678 0.628212
O O8 0.515953 0.398760 0.278783
O O9 0.060162 0.750000 0.651255
O O10 0.860077 0.638716 0.823980
O O11 0.131536 0.576708 0.501357
O O12 0.963764 0.602959 0.894139
O O13 0.759834 0.403738 0.843253
O O14 0.756516 0.573872 0.759980
O O15 0.000000 0.500000 0.500000
O O16 0.940583 0.750000 0.057963
O O17 0.312002 0.750000 0.964201
O O18 0.484723 0.250000 0.634259
O O19 0.413318 0.396150 0.845974
O O20 0.707954 0.750000 0.883352
#
# Coordination Sequence:
#
# PCOD8072772 Si02
#       8
#     4   4   4   4   4   4   4   4
#     4   8  15  25  44  75 107 132 160 200 249 302
#     4   8  13  23  44  71 100 130 162 203 246 292
#     4   9  16  27  47  74 102 131 165 205 245 288
#     4  10  20  31  47  73 101 129 170 213 248 291
#     4   9  14  24  46  78 104 132 169 201 241 295
#     4   9  17  31  49  76 107 134 161 200 253 299
#     4   8  12  23  42  67  96 123 155 204 253 294
#     4   9  16  28  47  69  92 123 166 215 253 287
#
# _framework density 21.046583999999999
#
# number of rings (size 3 to 8) (size 9 to 14) (size 15 to 20)
#    0.000    3.250    1.250    1.875    0.000    0.500 
#    0.000    2.500    0.000    3.750    6.500    0.000 
#    0.000    1.000    0.000    0.000    0.000    0.000 
#
# Total GULP energy -396479.968595 kJ/mol
# GULP energy per Si atom -12389.999019 kJ/mol
# Density = 2.099868 g / cm^3
# Si number density = 21.046584 Si / 1000 Ang^3
#
#
#
# Elastic Constant Matrix: (Units=GPa)
#
#
# Indices 1 2 3 4 5 6 
#
# 1 55.1626 7.9678 44.0216 0.0000 -18.3456 0.0000
# 2 7.9678 43.9388 32.8868 0.0000 4.9819 0.0000
# 3 44.0216 32.8868 151.2041 0.0000 -10.3825 0.0000
# 4 0.0000 0.0000 0.0000 19.0211 0.0000 6.2958
# 5 -18.3456 4.9819 -10.3825 0.0000 31.0444 0.0000
# 6 0.0000 0.0000 0.0000 6.2958 0.0000 7.8386
#
#
#
# Elastic Compliance Matrix: (Units=1/GPa)
#
#
# Indices 1 2 3 4 5 6 
#
# 1 0.028998 -0.001696 -0.007040 0.000000 0.015054 0.000000
# 2 -0.001696 0.028624 -0.006260 0.000000 -0.007689 0.000000
# 3 -0.007040 -0.006260 0.010038 0.000000 0.000202 0.000000
# 4 0.000000 0.000000 0.000000 0.071611 0.000000 -0.057516
# 5 0.015054 -0.007689 0.000202 0.000000 0.042409 0.000000
# 6 0.000000 0.000000 0.000000 -0.057516 0.000000 0.173769
#
#
# Mechanical properties :
#
#
# Convention : Reuss Voigt Hill
#
# Bulk Modulus (GPa) = 26.54753 46.67311 36.61032
# Shear Modulus (GPa) = 12.56292 22.60943 17.58617
#
# Velocity S-wave (km/s) = 2.44582 3.28114 2.89378
# Velocity P-wave (km/s) = 4.54061 6.04804 5.34771
#
# Compressibility (1/GPa) = 0.03766828
#
# Stress axis : x y z
#
# Youngs Moduli (GPa) = 34.48548 34.93620 99.61650
#
# Poissons Ratio (x) = 0.05926 0.70128
# Poissons Ratio (y) = 0.05849 0.62358
# Poissons Ratio (z) = 0.24277 0.21869
#
# Static dielectric constant tensor:
#      x y z
#    x 3.460010 0.000000 -0.168740 
#    y 0.000000 3.874070 0.000000 
#    z -0.168740 0.000000 4.337570 
# 
# 
# High freq. dielectric constant tensor:
#      x y z
#    x 1.756660 0.000000 -0.008100 
#    y 0.000000 1.827530 0.000000 
#    z -0.008100 0.000000 1.836650 
# 
# From -- ./inp_files/41622.got.cif
#   From: 2010.06.25/outbox.cif.g09.slc.cpg/sg11_21_cif.got.tgz:41622.got - 2010.06.27 23:14:04.
