data_PCOD8072926
_publ_section_title
;
Structure prediction by ZEFSAII (Michael W. Deem and Ramdas Pophale) SiO2 
 PCOD8072926
Probable space group: P 21/M
;
_chemical_formula_sum "Si O2"
_cell_formula_units_Z 24
_cell_length_a 14.244604
_cell_length_b 8.939609
_cell_length_c 16.175832
_cell_angle_alpha 90.000000
_cell_angle_beta 43.086733
_cell_angle_gamma 90.000000
_cell_volume 1407.092978
_symmetry_space_group_name_H-M "P 21/M"
_symmetry_group_IT_number 11
_symmetry_cell_setting 'monoclinic'
loop_
_space_group_symop_operation_xyz
x,y,z
-x,1/2+y,-z
-x,-y,-z
x,1/2-y,z
loop_
_atom_site_type_symbol
_atom_site_label
_atom_site_fract_x
_atom_site_fract_y
_atom_site_fract_z
Si Si1 0.635568 0.424285 0.381754
Si Si2 0.248339 0.926365 0.529133
Si Si3 0.476872 0.924087 0.710274
Si Si4 0.985838 0.927652 0.598306
Si Si5 0.530739 0.077458 0.100326
Si Si6 0.712913 0.076463 0.830625
O O1 0.500000 0.500000 0.500000
O O2 0.613627 0.250000 0.405292
O O3 0.756040 0.471848 0.369107
O O4 0.645774 0.466618 0.277154
O O5 0.255188 0.750000 0.513558
O O6 0.111322 0.987557 0.573918
O O7 0.381818 0.990948 0.398162
O O8 0.512554 0.750000 0.680278
O O9 0.422234 0.963323 0.836874
O O10 0.985647 0.750000 0.589244
O O11 0.847926 0.979001 0.731923
O O12 0.000000 0.000000 0.500000
O O13 0.483908 0.250000 0.122223
O O14 0.402429 0.973413 0.160362
O O15 0.659449 0.045560 0.957880
O O16 0.746256 0.250000 0.793645
#
# Coordination Sequence:
#
# PCOD8072926 Si02
#       6
#     4   4   4   4   4   4
#     4   8  14  26  43  64  89 115 144 179 221 265
#     4   9  18  30  44  65  93 121 147 180 223 269
#     4   9  16  27  47  71  91 114 146 184 224 265
#     4  11  22  34  48  67  92 122 154 186 223 269
#     4   9  18  32  49  69  92 118 151 189 226 267
#     4  10  20  33  48  67  92 122 153 186 226 268
#
# _framework density 17.056442000000001
#
# number of rings (size 3 to 8) (size 9 to 14) (size 15 to 20)
#    0.000    2.667    0.000    2.000    0.000    5.333 
#    0.000    0.000    0.000    1.000    0.000    0.000 
#    0.000    0.000    0.000    0.000    0.000    0.667 
#
# Total GULP energy -297330.148919 kJ/mol
# GULP energy per Si atom -12388.756205 kJ/mol
# Density = 1.701762 g / cm^3
# Si number density = 17.056442 Si / 1000 Ang^3
#
#
#
# Elastic Constant Matrix: (Units=GPa)
#
#
# Indices 1 2 3 4 5 6 
#
# 1 161.1390 36.7080 74.8734 0.0000 28.0760 0.0000
# 2 36.7080 36.1054 23.5798 0.0000 2.4261 0.0000
# 3 74.8734 23.5798 90.1646 0.0000 16.6914 0.0000
# 4 0.0000 0.0000 0.0000 24.4319 0.0000 -0.7063
# 5 28.0760 2.4261 16.6914 0.0000 32.5090 0.0000
# 6 0.0000 0.0000 0.0000 -0.7063 0.0000 20.7793
#
#
#
# Elastic Compliance Matrix: (Units=1/GPa)
#
#
# Indices 1 2 3 4 5 6 
#
# 1 0.012323 -0.007467 -0.007087 0.000000 -0.006447 0.000000
# 2 -0.007467 0.038069 -0.004888 0.000000 0.006117 0.000000
# 3 -0.007087 -0.004888 0.018845 0.000000 -0.003190 0.000000
# 4 0.000000 0.000000 0.000000 0.040970 0.000000 0.001393
# 5 -0.006447 0.006117 -0.003190 0.000000 0.037510 0.000000
# 6 0.000000 0.000000 0.000000 0.001393 0.000000 0.048172
#
#
# Mechanical properties :
#
#
# Convention : Reuss Voigt Hill
#
# Bulk Modulus (GPa) = 32.94474 61.97014 47.45744
# Shear Modulus (GPa) = 20.41727 25.69389 23.05558
#
# Velocity S-wave (km/s) = 3.46358 3.88545 3.68057
# Velocity P-wave (km/s) = 5.94578 7.51933 6.77837
#
# Compressibility (1/GPa) = 0.03035386
#
# Stress axis : x y z
#
# Youngs Moduli (GPa) = 81.14871 26.26778 53.06551
#
# Poissons Ratio (x) = 0.19615 0.37607
# Poissons Ratio (y) = 0.60595 0.25936
# Poissons Ratio (z) = 0.57509 0.12838
#
# Static dielectric constant tensor:
#      x y z
#    x 3.814200 0.000000 0.418800 
#    y 0.000000 3.176020 0.000000 
#    z 0.418800 0.000000 3.124540 
# 
# 
# High freq. dielectric constant tensor:
#      x y z
#    x 1.665540 0.000000 0.029040 
#    y 0.000000 1.661460 0.000000 
#    z 0.029040 0.000000 1.632140 
# 
# From -- ./inp_files/37234.got.cif
#   From: 2010.06.25/outbox.cif.g09.slc.cpg/sg11_19_cif.got.tgz:37234.got - 2010.06.27 23:14:04.
