data_PCOD8072203
_publ_section_title
;
Structure prediction by ZEFSAII (Michael W. Deem and Ramdas Pophale) SiO2 
 PCOD8072203
Probable space group: P 21/M
;
_chemical_formula_sum "Si O2"
_cell_formula_units_Z 28
_cell_length_a 21.562728
_cell_length_b 9.053291
_cell_length_c 16.279749
_cell_angle_alpha 90.000000
_cell_angle_beta 154.061373
_cell_angle_gamma 90.000000
_cell_volume 1390.095869
_symmetry_space_group_name_H-M "P 21/M"
_symmetry_group_IT_number 11
_symmetry_cell_setting 'monoclinic'
loop_
_space_group_symop_operation_xyz
x,y,z
-x,1/2+y,-z
-x,-y,-z
x,1/2-y,z
loop_
_atom_site_type_symbol
_atom_site_label
_atom_site_fract_x
_atom_site_fract_y
_atom_site_fract_z
Si Si1 0.795371 0.577094 0.708229
Si Si2 0.467132 0.924515 0.672784
Si Si3 0.948068 0.921320 0.057886
Si Si4 0.683889 0.911198 0.184161
Si Si5 0.791399 0.576297 0.038634
Si Si6 0.122030 0.925054 0.698009
Si Si7 0.616259 0.089132 0.246341
O O1 0.783121 0.750000 0.678106
O O2 0.640254 0.505139 0.516646
O O3 0.904379 0.510638 0.770842
O O4 0.849202 0.537956 0.863225
O O5 0.451624 0.750000 0.644061
O O6 0.426347 0.975981 0.716171
O O7 0.627027 0.974140 0.842152
O O8 0.989025 0.750000 0.106514
O O9 0.861182 0.965400 0.035139
O O10 0.760480 0.750000 0.269755
O O11 0.733417 0.024468 0.173210
O O12 0.715943 0.976582 0.313903
O O13 0.519111 0.886542 0.972534
O O14 0.802020 0.750000 0.071180
O O15 0.879057 0.486015 0.210776
O O16 0.107278 0.750000 0.680812
O O17 0.000000 0.000000 0.500000
O O18 0.691511 0.250000 0.346345
#
# Coordination Sequence:
#
# PCOD8072203 Si02
#       7
#     4   4   4   4   4   4   4
#     4  10  21  37  59  90 122 153 196 244 288 346
#     4  10  20  36  59  87 121 158 194 238 297 353
#     4   9  20  40  64  86 116 158 197 239 296 353
#     4  10  19  35  56  79 108 145 190 235 281 334
#     4  10  21  41  64  87 117 155 197 244 297 355
#     4  12  25  40  59  83 114 152 194 240 294 350
#     4   9  18  33  54  80 110 146 187 230 282 338
#
# _framework density 20.142496000000001
#
# number of rings (size 3 to 8) (size 9 to 14) (size 15 to 20)
#    0.000    2.000    1.429    2.143    0.000    4.571 
#    0.000    1.429    0.000    0.000    0.000    0.000 
#    0.000    0.000    0.000    0.000    0.000    0.000 
#
# Total GULP energy -347157.405898 kJ/mol
# GULP energy per Si atom -12398.478782 kJ/mol
# Density = 2.009665 g / cm^3
# Si number density = 20.142496 Si / 1000 Ang^3
#
#
#
# Elastic Constant Matrix: (Units=GPa)
#
#
# Indices 1 2 3 4 5 6 
#
# 1 129.3547 51.2103 39.0192 0.0000 -13.7997 0.0000
# 2 51.2103 99.3196 47.8468 0.0000 -6.1786 0.0000
# 3 39.0192 47.8468 98.7614 0.0000 -1.1993 0.0000
# 4 0.0000 0.0000 0.0000 31.9522 0.0000 -1.5445
# 5 -13.7997 -6.1786 -1.1993 0.0000 16.5691 0.0000
# 6 0.0000 0.0000 0.0000 -1.5445 0.0000 30.0230
#
#
#
# Elastic Compliance Matrix: (Units=1/GPa)
#
#
# Indices 1 2 3 4 5 6 
#
# 1 0.010776 -0.004035 -0.002214 0.000000 0.007310 0.000000
# 2 -0.004035 0.014979 -0.005641 0.000000 0.001817 0.000000
# 3 -0.002214 -0.005641 0.013697 0.000000 -0.002956 0.000000
# 4 0.000000 0.000000 0.000000 0.031375 0.000000 0.001614
# 5 0.007310 0.001817 -0.002956 0.000000 0.066905 0.000000
# 6 0.000000 0.000000 0.000000 0.001614 0.000000 0.033391
#
#
# Mechanical properties :
#
#
# Convention : Reuss Voigt Hill
#
# Bulk Modulus (GPa) = 63.80388 67.06539 65.43464
# Shear Modulus (GPa) = 24.98431 28.33283 26.65857
#
# Velocity S-wave (km/s) = 3.52572 3.75456 3.64194
# Velocity P-wave (km/s) = 6.95121 7.22242 7.08811
#
# Compressibility (1/GPa) = 0.01567303
#
# Stress axis : x y z
#
# Youngs Moduli (GPa) = 92.80215 66.75824 73.00872
#
# Poissons Ratio (x) = 0.26936 0.16163
# Poissons Ratio (y) = 0.37444 0.41183
# Poissons Ratio (z) = 0.20544 0.37658
#
# Static dielectric constant tensor:
#      x y z
#    x 3.864040 0.000000 0.048250 
#    y 0.000000 3.947370 0.000000 
#    z 0.048250 0.000000 3.547190 
# 
# 
# High freq. dielectric constant tensor:
#      x y z
#    x 1.787500 0.000000 -0.002380 
#    y 0.000000 1.785240 0.000000 
#    z -0.002380 0.000000 1.775850 
# 
# From -- ./inp_files/54462.got.cif
#   From: 2010.06.25/outbox.cif.g09.slc.cpg/sg11_28_cif.got.tgz:54462.got - 2010.06.27 23:14:04.
