data_PCOD8072309
_publ_section_title
;
Structure prediction by ZEFSAII (Michael W. Deem and Ramdas Pophale) SiO2 
 PCOD8072309
Probable space group: P 21/M
;
_chemical_formula_sum "Si O2"
_cell_formula_units_Z 32
_cell_length_a 20.960800
_cell_length_b 8.724230
_cell_length_c 26.644682
_cell_angle_alpha 90.000000
_cell_angle_beta 19.465229
_cell_angle_gamma 90.000000
_cell_volume 1623.662538
_symmetry_space_group_name_H-M "P 21/M"
_symmetry_group_IT_number 11
_symmetry_cell_setting 'monoclinic'
loop_
_space_group_symop_operation_xyz
x,y,z
-x,1/2+y,-z
-x,-y,-z
x,1/2-y,z
loop_
_atom_site_type_symbol
_atom_site_label
_atom_site_fract_x
_atom_site_fract_y
_atom_site_fract_z
Si Si1 0.806038 0.427718 0.125448
Si Si2 0.655662 0.581183 0.326672
Si Si3 0.424793 0.424912 0.898795
Si Si4 0.152527 0.566643 0.424760
Si Si5 0.835356 0.569174 0.476401
Si Si6 0.786707 0.079718 0.321511
Si Si7 0.966286 0.933352 0.767044
Si Si8 0.566099 0.925443 0.223025
O O1 0.822767 0.250000 0.101517
O O2 0.653943 0.460958 0.282240
O O3 0.747243 0.515875 0.118972
O O4 0.000000 0.500000 0.000000
O O5 0.726004 0.750000 0.257145
O O6 0.438992 0.591399 0.504107
O O7 0.806639 0.528858 0.258061
O O8 0.440258 0.250000 0.903345
O O9 0.637491 0.496843 0.748683
O O10 0.369424 0.443518 0.881932
O O11 0.250552 0.495311 0.060757
O O12 0.149741 0.750000 0.427432
O O13 0.101588 0.509513 0.518285
O O14 0.000000 0.500000 0.500000
O O15 0.859106 0.750000 0.463973
O O16 0.616537 0.527496 0.626694
O O17 0.970324 0.509711 0.331757
O O18 0.869229 0.250000 0.248667
O O19 0.895341 0.012850 0.289847
O O20 0.974675 0.750000 0.755624
O O21 0.514020 0.750000 0.274511
#
# Coordination Sequence:
#
# PCOD8072309 Si02
#       8
#     4   4   4   4   4   4   4   4
#     4  12  25  38  53  76 107 145 190 244 299 353
#     4  10  20  35  51  74 105 141 187 236 290 350
#     4   8  18  35  59  88 117 149 188 235 291 348
#     4  10  20  39  65  92 121 156 195 237 284 344
#     4  11  22  37  59  90 121 156 196 235 279 339
#     4   9  19  33  54  77 104 143 185 232 287 347
#     4  10  19  35  58  84 114 151 192 238 292 344
#     4  10  20  38  60  83 112 151 196 246 296 352
#
# _framework density 19.70853
#
# number of rings (size 3 to 8) (size 9 to 14) (size 15 to 20)
#    0.000    2.000    0.000    4.875    1.750    2.000 
#    0.000    4.375    0.000    0.000    0.000    0.000 
#    0.000    0.000    0.000    0.000    0.000    0.000 
#
# Total GULP energy -396660.199184 kJ/mol
# GULP energy per Si atom -12395.631225 kJ/mol
# Density = 1.966367 g / cm^3
# Si number density = 19.708530 Si / 1000 Ang^3
#
#
#
# Elastic Constant Matrix: (Units=GPa)
#
#
# Indices 1 2 3 4 5 6 
#
# 1 118.5966 40.3607 55.3522 0.0000 -24.6714 0.0000
# 2 40.3607 84.0307 35.0225 0.0000 -0.4740 0.0000
# 3 55.3522 35.0225 97.8966 0.0000 -1.6542 0.0000
# 4 0.0000 0.0000 0.0000 20.8271 0.0000 -0.8560
# 5 -24.6714 -0.4740 -1.6542 0.0000 27.0009 0.0000
# 6 0.0000 0.0000 0.0000 -0.8560 0.0000 34.9301
#
#
#
# Elastic Compliance Matrix: (Units=1/GPa)
#
#
# Indices 1 2 3 4 5 6 
#
# 1 0.016545 -0.004781 -0.007398 0.000000 0.014580 0.000000
# 2 -0.004781 0.015367 -0.002867 0.000000 -0.004274 0.000000
# 3 -0.007398 -0.002867 0.015324 0.000000 -0.005871 0.000000
# 4 0.000000 0.000000 0.000000 0.048063 0.000000 0.001178
# 5 0.014580 -0.004274 -0.005871 0.000000 0.049924 0.000000
# 6 0.000000 0.000000 0.000000 0.001178 0.000000 0.028657
#
#
# Mechanical properties :
#
#
# Convention : Reuss Voigt Hill
#
# Bulk Modulus (GPa) = 58.32555 62.44387 60.38471
# Shear Modulus (GPa) = 23.84507 27.87085 25.85796
#
# Velocity S-wave (km/s) = 3.48211 3.76460 3.62611
# Velocity P-wave (km/s) = 6.76943 7.11679 6.94528
#
# Compressibility (1/GPa) = 0.01714514
#
# Stress axis : x y z
#
# Youngs Moduli (GPa) = 60.44112 65.07250 65.25656
#
# Poissons Ratio (x) = 0.31112 0.48277
# Poissons Ratio (y) = 0.28898 0.18707
# Poissons Ratio (z) = 0.44714 0.18654
#
# Static dielectric constant tensor:
#      x y z
#    x 3.941670 0.000000 0.486470 
#    y 0.000000 3.843560 0.000000 
#    z 0.486470 0.000000 4.659650 
# 
# 
# High freq. dielectric constant tensor:
#      x y z
#    x 1.761340 0.000000 0.003350 
#    y 0.000000 1.758940 0.000000 
#    z 0.003350 0.000000 1.769580 
# 
# From -- ./inp_files/72039.got.cif
#   From: 2010.06.25/outbox.cif.g09.slc.cpg/sg11_37_cif.got.tgz:72039.got - 2010.06.27 23:14:04.
