data_PCOD8072134
_publ_section_title
;
Structure prediction by ZEFSAII (Michael W. Deem and Ramdas Pophale) SiO2 
 PCOD8072134
Probable space group: P 21/M
;
_chemical_formula_sum "Si O2"
_cell_formula_units_Z 28
_cell_length_a 8.298686
_cell_length_b 14.533046
_cell_length_c 11.622771
_cell_angle_alpha 90.000000
_cell_angle_beta 107.117584
_cell_angle_gamma 90.000000
_cell_volume 1339.672023
_symmetry_space_group_name_H-M "P 21/M"
_symmetry_group_IT_number 11
_symmetry_cell_setting 'monoclinic'
loop_
_space_group_symop_operation_xyz
x,y,z
-x,1/2+y,-z
-x,-y,-z
x,1/2-y,z
loop_
_atom_site_type_symbol
_atom_site_label
_atom_site_fract_x
_atom_site_fract_y
_atom_site_fract_z
Si Si1 0.234594 0.548855 0.510691
Si Si2 0.127042 0.019357 0.926444
Si Si3 0.663925 0.852183 0.884500
Si Si4 0.368656 0.851342 0.982539
Si Si5 0.448590 0.146773 0.744026
Si Si6 0.585764 0.966475 0.654888
Si Si7 0.087683 0.077508 0.668968
O O1 0.286265 0.471238 0.425783
O O2 0.415812 0.592751 0.585843
O O3 0.147037 0.508855 0.605665
O O4 0.091161 0.615410 0.422148
O O5 0.040750 0.044333 0.787645
O O6 0.228280 0.925912 0.932185
O O7 0.235541 0.106786 0.987010
O O8 0.000000 0.000000 0.000000
O O9 0.731698 0.750000 0.870126
O O10 0.684276 0.916244 0.777430
O O11 0.471615 0.848721 0.885399
O O12 0.288644 0.750000 0.987650
O O13 0.487231 0.878834 0.114954
O O14 0.506411 0.250000 0.719725
O O15 0.243506 0.148395 0.701899
O O16 0.526362 0.070649 0.675079
#
# Coordination Sequence:
#
# PCOD8072134 Si02
#       7
#     4   4   4   4   4   4   4
#     4   9  20  37  59  85 114 163 202 241 288 351
#     4  12  23  36  61  91 123 156 194 245 311 357
#     4  11  22  38  63  92 119 153 197 245 303 364
#     4  10  20  36  57  87 121 155 195 236 295 366
#     4  10  19  34  59  86 117 156 196 244 297 351
#     4  10  19  38  62  85 122 153 202 248 294 349
#     4  10  20  36  58  83 121 155 199 243 296 350
#
# _framework density 20.900638000000001
#
# number of rings (size 3 to 8) (size 9 to 14) (size 15 to 20)
#    0.000    1.714    2.857    3.000    0.000    0.571 
#    0.000    7.857    0.000   10.286    0.000    0.000 
#    0.000    0.000    0.000    0.000    0.000    0.000 
#
# Total GULP energy -346882.688031 kJ/mol
# GULP energy per Si atom -12388.667430 kJ/mol
# Density = 2.085307 g / cm^3
# Si number density = 20.900638 Si / 1000 Ang^3
#
#
#
# Elastic Constant Matrix: (Units=GPa)
#
#
# Indices 1 2 3 4 5 6 
#
# 1 48.4264 7.9309 9.2313 0.0000 -14.6271 0.0000
# 2 7.9309 84.2813 20.8591 0.0000 -5.0037 0.0000
# 3 9.2313 20.8591 108.4294 0.0000 -13.1076 0.0000
# 4 0.0000 0.0000 0.0000 -4.3737 0.0000 -17.3834
# 5 -14.6271 -5.0037 -13.1076 0.0000 40.0453 0.0000
# 6 0.0000 0.0000 0.0000 -17.3834 0.0000 -2.3315
#
#
#
# Elastic Compliance Matrix: (Units=1/GPa)
#
#
# Indices 1 2 3 4 5 6 
#
# 1 0.023504 -0.001550 -0.000717 0.000000 0.008157 0.000000
# 2 -0.001550 0.012585 -0.002257 0.000000 0.000268 0.000000
# 3 -0.000717 -0.002257 0.010050 0.000000 0.002746 0.000000
# 4 0.000000 0.000000 0.000000 0.007985 0.000000 -0.059535
# 5 0.008157 0.000268 0.002746 0.000000 0.028883 0.000000
# 6 0.000000 0.000000 0.000000 -0.059535 0.000000 0.014979
#
#
# Mechanical properties :
#
#
# Convention : Reuss Voigt Hill
#
# Bulk Modulus (GPa) = 26.96014 35.24221 31.10117
# Shear Modulus (GPa) = 41.87684 20.20907 31.04295
#
# Velocity S-wave (km/s) = 4.48103 3.11289 3.85809
# Velocity P-wave (km/s) = 6.30080 5.46063 5.89570
#
# Compressibility (1/GPa) = 0.03709179
#
# Stress axis : x y z
#
# Youngs Moduli (GPa) = 42.54570 79.45762 99.50568
#
# Poissons Ratio (x) = 0.12317 0.07133
# Poissons Ratio (y) = 0.06595 0.22456
# Poissons Ratio (z) = 0.03050 0.17932
#
# Static dielectric constant tensor:
#      x y z
#    x 4.133930 0.000000 0.139030 
#    y 0.000000 3.202030 0.000000 
#    z 0.139030 0.000000 4.023720 
# 
# 
# High freq. dielectric constant tensor:
#      x y z
#    x 1.815820 0.000000 -0.001970 
#    y 0.000000 1.774160 0.000000 
#    z -0.001970 0.000000 1.838650 
# 
# From -- ./inp_files/24977.got.cif
#   From: 2010.06.25/outbox.cif.g09.slc.cpg/sg11_13_cif.got.tgz:24977.got - 2010.06.27 23:14:04.
