data_PCOD8072558
_publ_section_title
;
Structure prediction by ZEFSAII (Michael W. Deem and Ramdas Pophale) SiO2 
 PCOD8072558
Probable space group: P 21/M
;
_chemical_formula_sum "Si O2"
_cell_formula_units_Z 32
_cell_length_a 7.994748
_cell_length_b 20.492133
_cell_length_c 10.457582
_cell_angle_alpha 90.000000
_cell_angle_beta 58.985980
_cell_angle_gamma 90.000000
_cell_volume 1468.334313
_symmetry_space_group_name_H-M "P 21/M"
_symmetry_group_IT_number 11
_symmetry_cell_setting 'monoclinic'
loop_
_space_group_symop_operation_xyz
x,y,z
-x,1/2+y,-z
-x,-y,-z
x,1/2-y,z
loop_
_atom_site_type_symbol
_atom_site_label
_atom_site_fract_x
_atom_site_fract_y
_atom_site_fract_z
Si Si1 0.023929 0.323381 0.224584
Si Si2 0.528297 0.505749 0.776903
Si Si3 0.671018 0.082548 0.941668
Si Si4 0.765552 0.875103 0.613254
Si Si5 0.591465 0.324181 0.375127
Si Si6 0.597699 0.821690 0.051243
Si Si7 0.587172 0.880948 0.312443
Si Si8 0.032030 0.170591 0.721290
O O1 0.011304 0.250000 0.283617
O O2 0.112092 0.365536 0.305680
O O3 0.812809 0.345182 0.252666
O O4 0.166929 0.327058 0.045796
O O5 0.659638 0.468674 0.830200
O O6 0.683531 0.550826 0.639745
O O7 0.421517 0.457578 0.718963
O O8 0.346280 0.544414 0.916282
O O9 0.477763 0.127438 0.023884
O O10 0.846082 0.133189 0.851419
O O11 0.565135 0.832274 0.678021
O O12 0.913308 0.857186 0.440307
O O13 0.581504 0.250000 0.426449
O O14 0.543020 0.370871 0.512368
O O15 0.524230 0.750000 0.043485
O O16 0.505223 0.840180 0.224408
O O17 0.800539 0.851611 0.248363
O O18 0.006254 0.250000 0.729456
#
# Coordination Sequence:
#
# PCOD8072558 Si02
#       8
#     4   4   4   4   4   4   4   4
#     4  10  21  37  61  93 123 165 212 263 329 372
#     4  10  23  42  61  87 128 174 211 253 313 378
#     4  10  22  42  60  90 126 163 214 259 308 385
#     4  11  22  42  62  93 132 163 211 264 314 382
#     4  10  22  40  63  93 128 164 211 270 326 379
#     4  10  19  36  61  87 120 161 209 267 316 370
#     4  10  22  41  61  89 128 164 209 261 314 382
#     4  11  24  41  65  97 125 161 210 267 330 375
#
# _framework density 21.793402
#
# number of rings (size 3 to 8) (size 9 to 14) (size 15 to 20)
#    0.000    1.750    1.250    3.375    3.500    4.000 
#    2.250    1.250    0.000    0.000    0.000    0.000 
#    0.000    0.000    0.000    0.000    0.000    0.000 
#
# Total GULP energy -396419.194679 kJ/mol
# GULP energy per Si atom -12388.099834 kJ/mol
# Density = 2.174380 g / cm^3
# Si number density = 21.793402 Si / 1000 Ang^3
#
#
#
# Elastic Constant Matrix: (Units=GPa)
#
#
# Indices 1 2 3 4 5 6 
#
# 1 49.9856 12.1115 1.8105 0.0000 -20.2558 0.0000
# 2 12.1115 129.1304 36.5689 0.0000 -14.7782 0.0000
# 3 1.8105 36.5689 46.7537 0.0000 -19.7395 0.0000
# 4 0.0000 0.0000 0.0000 37.6264 0.0000 -7.3608
# 5 -20.2558 -14.7782 -19.7395 0.0000 36.2969 0.0000
# 6 0.0000 0.0000 0.0000 -7.3608 0.0000 30.9383
#
#
#
# Elastic Compliance Matrix: (Units=1/GPa)
#
#
# Indices 1 2 3 4 5 6 
#
# 1 0.028497 -0.003163 0.009789 0.000000 0.019939 0.000000
# 2 -0.003163 0.010300 -0.008968 0.000000 -0.002448 0.000000
# 3 0.009789 -0.008968 0.037369 0.000000 0.022134 0.000000
# 4 0.000000 0.000000 0.000000 0.027874 0.000000 0.006632
# 5 0.019939 -0.002448 0.022134 0.000000 0.049718 0.000000
# 6 0.000000 0.000000 0.000000 0.006632 0.000000 0.033900
#
#
# Mechanical properties :
#
#
# Convention : Reuss Voigt Hill
#
# Bulk Modulus (GPa) = 13.98948 36.31685 25.15316
# Shear Modulus (GPa) = 23.12992 32.66423 27.89707
#
# Velocity S-wave (km/s) = 3.26134 3.87565 3.58169
# Velocity P-wave (km/s) = 4.54035 6.06035 5.35456
#
# Compressibility (1/GPa) = 0.07148230
#
# Stress axis : x y z
#
# Youngs Moduli (GPa) = 35.09080 97.08608 26.76043
#
# Poissons Ratio (x) = 0.30709 -0.26195
# Poissons Ratio (y) = 0.11099 0.23998
# Poissons Ratio (z) = -0.34349 0.87063
#
# Static dielectric constant tensor:
#      x y z
#    x 3.975130 0.000000 -0.132210 
#    y 0.000000 4.139360 0.000000 
#    z -0.132210 0.000000 3.874710 
# 
# 
# High freq. dielectric constant tensor:
#      x y z
#    x 1.842580 0.000000 -0.002760 
#    y 0.000000 1.863290 0.000000 
#    z -0.002760 0.000000 1.856440 
# 
# From -- ./inp_files/32821.got.cif
#   From: 2010.06.25/outbox.cif.g09.slc.cpg/sg11_17_cif.got.tgz:32821.got - 2010.06.27 23:14:04.
