data_PCOD8072727
_publ_section_title
;
Structure prediction by ZEFSAII (Michael W. Deem and Ramdas Pophale) SiO2 
 PCOD8072727
Probable space group: P 21/M
;
_chemical_formula_sum "Si O2"
_cell_formula_units_Z 28
_cell_length_a 5.139592
_cell_length_b 25.079574
_cell_length_c 10.604225
_cell_angle_alpha 90.000000
_cell_angle_beta 79.747403
_cell_angle_gamma 90.000000
_cell_volume 1345.046299
_symmetry_space_group_name_H-M "P 21/M"
_symmetry_group_IT_number 11
_symmetry_cell_setting 'monoclinic'
loop_
_space_group_symop_operation_xyz
x,y,z
-x,1/2+y,-z
-x,-y,-z
x,1/2-y,z
loop_
_atom_site_type_symbol
_atom_site_label
_atom_site_fract_x
_atom_site_fract_y
_atom_site_fract_z
Si Si1 0.812993 0.598823 0.919473
Si Si2 0.313896 0.422456 0.795010
Si Si3 0.638688 0.453838 0.192487
Si Si4 0.866057 0.111461 0.650717
Si Si5 0.980308 0.690456 0.739172
Si Si6 0.220753 0.308601 0.520497
Si Si7 0.642363 0.386708 0.419653
O O1 0.542104 0.570812 0.900818
O O2 0.821899 0.658350 0.860607
O O3 0.057332 0.562841 0.852259
O O4 0.814317 0.603836 0.069945
O O5 0.391675 0.483258 0.811925
O O6 0.584071 0.390600 0.743889
O O7 0.092237 0.420863 0.705162
O O8 0.536121 0.434130 0.339601
O O9 0.842884 0.088766 0.507584
O O10 0.959688 0.173384 0.621761
O O11 0.048738 0.750000 0.782871
O O12 0.813746 0.694366 0.626298
O O13 0.244459 0.657801 0.685523
O O14 0.310347 0.250000 0.561603
O O15 0.428144 0.356315 0.525591
#
# Coordination Sequence:
#
# PCOD8072727 Si02
#       7
#     4   4   4   4   4   4   4
#     4  11  22  41  62  90 124 156 215 253 297 373
#     4  12  24  41  61  86 131 173 201 244 303 365
#     4  11  23  39  65  92 119 164 209 260 307 351
#     4  11  24  41  58  91 122 161 205 243 302 376
#     4   9  19  35  62  93 116 150 196 264 319 347
#     4  10  19  39  65  88 117 155 200 258 313 361
#     4  10  20  38  63  92 125 146 209 257 308 364
#
# _framework density 20.817129999999999
#
# number of rings (size 3 to 8) (size 9 to 14) (size 15 to 20)
#    0.000    1.429    2.857    3.000    0.000    1.714 
#    0.000    1.429    0.000    0.000    0.000    0.000 
#    0.000    0.000    0.000    0.000    0.000    0.000 
#
# Total GULP energy -347015.940927 kJ/mol
# GULP energy per Si atom -12393.426462 kJ/mol
# Density = 2.076975 g / cm^3
# Si number density = 20.817130 Si / 1000 Ang^3
#
#
#
# Elastic Constant Matrix: (Units=GPa)
#
#
# Indices 1 2 3 4 5 6 
#
# 1 90.9792 22.5954 31.5808 0.0000 -0.8662 0.0000
# 2 22.5954 99.0557 68.7261 0.0000 -7.1054 0.0000
# 3 31.5808 68.7261 96.6405 0.0000 -5.5746 0.0000
# 4 0.0000 0.0000 0.0000 16.4652 0.0000 -3.9140
# 5 -0.8662 -7.1054 -5.5746 0.0000 32.4940 0.0000
# 6 0.0000 0.0000 0.0000 -3.9140 0.0000 26.1876
#
#
#
# Elastic Compliance Matrix: (Units=1/GPa)
#
#
# Indices 1 2 3 4 5 6 
#
# 1 0.012402 -0.000057 -0.004034 0.000000 -0.000374 0.000000
# 2 -0.000057 0.020051 -0.014127 0.000000 0.001959 0.000000
# 3 -0.004034 -0.014127 0.021743 0.000000 0.000534 0.000000
# 4 0.000000 0.000000 0.000000 0.062972 0.000000 0.009412
# 5 -0.000374 0.001959 0.000534 0.000000 0.031285 0.000000
# 6 0.000000 0.000000 0.000000 0.009412 0.000000 0.039593
#
#
# Mechanical properties :
#
#
# Convention : Reuss Voigt Hill
#
# Bulk Modulus (GPa) = 56.30758 59.16444 57.73601
# Shear Modulus (GPa) = 21.70119 25.94756 23.82438
#
# Velocity S-wave (km/s) = 3.23223 3.53434 3.38666
# Velocity P-wave (km/s) = 6.40602 6.71850 6.56412
#
# Compressibility (1/GPa) = 0.01775960
#
# Stress axis : x y z
#
# Youngs Moduli (GPa) = 80.62961 49.87375 45.99117
#
# Poissons Ratio (x) = 0.00285 0.18552
# Poissons Ratio (y) = 0.00461 0.64973
# Poissons Ratio (z) = 0.32525 0.70458
#
# Static dielectric constant tensor:
#      x y z
#    x 3.804120 0.000000 0.025190 
#    y 0.000000 3.830130 0.000000 
#    z 0.025190 0.000000 3.789740 
# 
# 
# High freq. dielectric constant tensor:
#      x y z
#    x 1.820850 0.000000 0.003480 
#    y 0.000000 1.799750 0.000000 
#    z 0.003480 0.000000 1.805920 
# 
# From -- ./inp_files/30090.got.cif
#   From: 2010.06.25/outbox.cif.g09.slc.cpg/sg11_16_cif.got.tgz:30090.got - 2010.06.27 23:14:04.
