data_PCOD8072490
_publ_section_title
;
Structure prediction by ZEFSAII (Michael W. Deem and Ramdas Pophale) SiO2 
 PCOD8072490
Probable space group: P 21/M
;
_chemical_formula_sum "Si O2"
_cell_formula_units_Z 32
_cell_length_a 13.886499
_cell_length_b 19.800858
_cell_length_c 9.052287
_cell_angle_alpha 90.000000
_cell_angle_beta 38.405601
_cell_angle_gamma 90.000000
_cell_volume 1546.263798
_symmetry_space_group_name_H-M "P 21/M"
_symmetry_group_IT_number 11
_symmetry_cell_setting 'monoclinic'
loop_
_space_group_symop_operation_xyz
x,y,z
-x,1/2+y,-z
-x,-y,-z
x,1/2-y,z
loop_
_atom_site_type_symbol
_atom_site_label
_atom_site_fract_x
_atom_site_fract_y
_atom_site_fract_z
Si Si1 0.681411 0.172744 0.222479
Si Si2 0.426050 0.826517 0.964301
Si Si3 0.473290 0.066353 0.626972
Si Si4 0.864136 0.943968 0.036772
Si Si5 0.213808 0.323502 0.514151
Si Si6 0.610599 0.050537 0.782633
Si Si7 0.983748 0.177088 0.041132
Si Si8 0.882911 0.964966 0.356056
O O1 0.637024 0.250000 0.306086
O O2 0.683685 0.158484 0.044307
O O3 0.547821 0.129795 0.457740
O O4 0.849931 0.155435 0.086560
O O5 0.401710 0.750000 0.051559
O O6 0.603460 0.837566 0.700359
O O7 0.378231 0.877179 0.151289
O O8 0.289447 0.077437 0.865072
O O9 0.544490 0.061315 0.701153
O O10 0.500000 0.000000 0.500000
O O11 0.991561 0.882868 0.870859
O O12 0.824268 0.960772 0.255848
O O13 0.939560 0.008704 0.862990
O O14 0.179745 0.250000 0.474543
O O15 0.130717 0.390973 0.547143
O O16 0.147530 0.316814 0.759186
O O17 0.780400 0.017907 0.570235
O O18 0.500000 0.000000 0.000000
O O19 0.945130 0.250000 0.162120
#
# Coordination Sequence:
#
# PCOD8072490 Si02
#       8
#     4   4   4   4   4   4   4   4
#     4  10  21  39  64  94 121 158 211 258 303 365
#     4  10  21  39  62  88 123 164 203 249 307 373
#     4  12  24  38  62  92 121 163 209 261 305 357
#     4  10  21  37  59  89 121 160 203 261 311 356
#     4   9  17  32  55  81 111 153 201 245 295 357
#     4  12  23  40  59  88 129 165 205 250 317 377
#     4   9  18  33  59  91 120 155 200 253 307 360
#     4  10  19  36  59  83 121 157 201 250 311 363
#
# _framework density 20.695046999999999
#
# number of rings (size 3 to 8) (size 9 to 14) (size 15 to 20)
#    0.000    1.750    2.500    3.000    3.500    2.000 
#    0.000    2.500    0.000    0.750    0.000    0.000 
#    0.000    0.000    0.000    0.000    0.000    0.000 
#
# Total GULP energy -396541.092631 kJ/mol
# GULP energy per Si atom -12391.909145 kJ/mol
# Density = 2.064794 g / cm^3
# Si number density = 20.695047 Si / 1000 Ang^3
#
#
#
# Elastic Constant Matrix: (Units=GPa)
#
#
# Indices 1 2 3 4 5 6 
#
# 1 77.2000 61.8233 22.8408 0.0000 -5.6193 0.0000
# 2 61.8233 170.7575 56.4863 0.0000 -0.9431 0.0000
# 3 22.8408 56.4863 70.6087 0.0000 -8.6276 0.0000
# 4 0.0000 0.0000 0.0000 42.1526 0.0000 -0.2272
# 5 -5.6193 -0.9431 -8.6276 0.0000 27.1415 0.0000
# 6 0.0000 0.0000 0.0000 -0.2272 0.0000 25.1473
#
#
#
# Elastic Compliance Matrix: (Units=1/GPa)
#
#
# Indices 1 2 3 4 5 6 
#
# 1 0.018595 -0.006617 -0.000291 0.000000 0.003527 0.000000
# 2 -0.006617 0.010405 -0.006562 0.000000 -0.003094 0.000000
# 3 -0.000291 -0.006562 0.020258 0.000000 0.006151 0.000000
# 4 0.000000 0.000000 0.000000 0.023724 0.000000 0.000214
# 5 0.003527 -0.003094 0.006151 0.000000 0.039422 0.000000
# 6 0.000000 0.000000 0.000000 0.000214 0.000000 0.039768
#
#
# Mechanical properties :
#
#
# Convention : Reuss Voigt Hill
#
# Bulk Modulus (GPa) = 44.80457 66.76299 55.78378
# Shear Modulus (GPa) = 26.80233 30.71600 28.75916
#
# Velocity S-wave (km/s) = 3.60267 3.85674 3.73186
# Velocity P-wave (km/s) = 6.24520 7.22239 6.75150
#
# Compressibility (1/GPa) = 0.02231915
#
# Stress axis : x y z
#
# Youngs Moduli (GPa) = 53.77806 96.10378 49.36388
#
# Poissons Ratio (x) = 0.63588 0.01436
# Poissons Ratio (y) = 0.35583 0.32392
# Poissons Ratio (z) = 0.01564 0.63063
#
# Static dielectric constant tensor:
#      x y z
#    x 3.549680 0.000000 -0.248920 
#    y 0.000000 4.393710 0.000000 
#    z -0.248920 0.000000 3.595940 
# 
# 
# High freq. dielectric constant tensor:
#      x y z
#    x 1.770850 0.000000 -0.030310 
#    y 0.000000 1.840740 0.000000 
#    z -0.030310 0.000000 1.792290 
# 
# From -- ./inp_files/23071.got.cif
#   From: 2010.06.25/outbox.cif.g09.slc.cpg/sg11_12_cif.got.tgz:23071.got - 2010.06.27 23:14:04.
