data_PCOD8072145
_publ_section_title
;
Structure prediction by ZEFSAII (Michael W. Deem and Ramdas Pophale) SiO2 
 PCOD8072145
Probable space group: P 21/M
;
_chemical_formula_sum "Si O2"
_cell_formula_units_Z 32
_cell_length_a 12.619888
_cell_length_b 13.885414
_cell_length_c 18.456815
_cell_angle_alpha 90.000000
_cell_angle_beta 150.123491
_cell_angle_gamma 90.000000
_cell_volume 1611.075056
_symmetry_space_group_name_H-M "P 21/M"
_symmetry_group_IT_number 11
_symmetry_cell_setting 'monoclinic'
loop_
_space_group_symop_operation_xyz
x,y,z
-x,1/2+y,-z
-x,-y,-z
x,1/2-y,z
loop_
_atom_site_type_symbol
_atom_site_label
_atom_site_fract_x
_atom_site_fract_y
_atom_site_fract_z
Si Si1 0.464747 0.028976 0.800019
Si Si2 0.940170 0.458797 0.127064
Si Si3 0.934404 0.141007 0.859709
Si Si4 0.504597 0.141579 0.677487
Si Si5 0.198977 0.357888 0.157807
Si Si6 0.066258 0.359867 0.348790
Si Si7 0.362186 0.862638 0.643455
Si Si8 0.041868 0.476816 0.607651
O O1 0.434615 0.081481 0.705340
O O2 0.284549 0.064550 0.751071
O O3 0.423495 0.916492 0.755344
O O4 0.688394 0.053088 0.968793
O O5 0.001248 0.572270 0.169858
O O6 0.062366 0.426564 0.127319
O O7 0.014748 0.397212 0.238567
O O8 0.906518 0.250000 0.814052
O O9 0.717702 0.101302 0.767365
O O10 0.121091 0.133048 0.029098
O O11 0.547152 0.250000 0.729618
O O12 0.319914 0.136537 0.508257
O O13 0.162778 0.250000 0.165523
O O14 0.451058 0.382557 0.305194
O O15 0.983387 0.250000 0.308895
O O16 0.954680 0.427551 0.341500
O O17 0.341913 0.750000 0.649489
O O18 0.139911 0.900598 0.475895
O O19 0.000000 0.500000 0.500000
#
# Coordination Sequence:
#
# PCOD8072145 Si02
#       8
#     4   4   4   4   4   4   4   4
#     4  11  21  38  63  94 119 158 212 258 302 361
#     4  12  23  36  64  92 133 166 200 253 318 368
#     4  10  20  35  58  90 126 169 212 248 297 368
#     4  10  20  37  61  89 124 162 208 255 301 364
#     4  10  19  34  59  93 126 160 207 252 301 370
#     4  11  25  43  61  91 127 163 205 258 319 372
#     4  10  20  36  60  91 122 154 205 259 305 356
#     4  10  22  41  64  86 115 158 213 256 303 367
#
# _framework density 19.862513
#
# number of rings (size 3 to 8) (size 9 to 14) (size 15 to 20)
#    0.000    1.500    5.000    1.500    0.000    4.000 
#    0.000    0.625    0.000    0.000    0.000    0.000 
#    0.000    0.000    0.000    0.000    0.000    0.000 
#
# Total GULP energy -396674.368890 kJ/mol
# GULP energy per Si atom -12396.074028 kJ/mol
# Density = 1.981731 g / cm^3
# Si number density = 19.862513 Si / 1000 Ang^3
#
#
#
# Elastic Constant Matrix: (Units=GPa)
#
#
# Indices 1 2 3 4 5 6 
#
# 1 57.2941 32.8078 55.8855 0.0000 22.9502 0.0000
# 2 32.8078 88.4586 53.6276 0.0000 9.5706 0.0000
# 3 55.8855 53.6276 110.9391 0.0000 28.5023 0.0000
# 4 0.0000 0.0000 0.0000 27.0858 0.0000 -2.1409
# 5 22.9502 9.5706 28.5023 0.0000 40.2886 0.0000
# 6 0.0000 0.0000 0.0000 -2.1409 0.0000 23.3299
#
#
#
# Elastic Compliance Matrix: (Units=1/GPa)
#
#
# Indices 1 2 3 4 5 6 
#
# 1 0.038260 -0.004252 -0.014517 0.000000 -0.010515 0.000000
# 2 -0.004252 0.016602 -0.006713 0.000000 0.003227 0.000000
# 3 -0.014517 -0.006713 0.020822 0.000000 -0.004866 0.000000
# 4 0.000000 0.000000 0.000000 0.037189 0.000000 0.003413
# 5 -0.010515 0.003227 -0.004866 0.000000 0.033487 0.000000
# 6 0.000000 0.000000 0.000000 0.003413 0.000000 0.043177
#
#
# Mechanical properties :
#
#
# Convention : Reuss Voigt Hill
#
# Bulk Modulus (GPa) = 40.45009 60.14820 50.29914
# Shear Modulus (GPa) = 20.10129 25.76560 22.93345
#
# Velocity S-wave (km/s) = 3.18468 3.60557 3.40164
# Velocity P-wave (km/s) = 5.82513 6.90518 6.38802
#
# Compressibility (1/GPa) = 0.02472183
#
# Stress axis : x y z
#
# Youngs Moduli (GPa) = 26.13670 60.23389 48.02610
#
# Poissons Ratio (x) = 0.25609 0.69719
# Poissons Ratio (y) = 0.11112 0.32238
# Poissons Ratio (z) = 0.37943 0.40433
#
# Static dielectric constant tensor:
#      x y z
#    x 3.662710 0.000000 0.560880 
#    y 0.000000 3.884780 0.000000 
#    z 0.560880 0.000000 3.828680 
# 
# 
# High freq. dielectric constant tensor:
#      x y z
#    x 1.747430 0.000000 0.035200 
#    y 0.000000 1.785560 0.000000 
#    z 0.035200 0.000000 1.769730 
# 
# From -- ./inp_files/59485.got.cif
#   From: 2010.06.25/outbox.cif.g09.slc.cpg/sg11_30_cif.got.tgz:59485.got - 2010.06.27 23:14:04.
