data_PCOD8072654
_publ_section_title
;
Structure prediction by ZEFSAII (Michael W. Deem and Ramdas Pophale) SiO2 
 PCOD8072654
Probable space group: P 21/M
;
_chemical_formula_sum "Si O2"
_cell_formula_units_Z 26
_cell_length_a 8.143090
_cell_length_b 19.300042
_cell_length_c 10.958486
_cell_angle_alpha 90.000000
_cell_angle_beta 44.897378
_cell_angle_gamma 90.000000
_cell_volume 1215.636669
_symmetry_space_group_name_H-M "P 21/M"
_symmetry_group_IT_number 11
_symmetry_cell_setting 'monoclinic'
loop_
_space_group_symop_operation_xyz
x,y,z
-x,1/2+y,-z
-x,-y,-z
x,1/2-y,z
loop_
_atom_site_type_symbol
_atom_site_label
_atom_site_fract_x
_atom_site_fract_y
_atom_site_fract_z
Si Si1 0.349424 0.490497 0.960122
Si Si2 0.311696 0.750000 0.706647
Si Si3 0.608639 0.392047 0.235173
Si Si4 0.110850 0.394865 0.588217
Si Si5 0.148893 0.529291 0.693209
Si Si6 0.799327 0.250000 0.519778
Si Si7 0.859508 0.750000 0.445384
Si Si8 0.702020 0.097870 0.632507
O O1 0.311476 0.569267 0.930067
O O2 0.466416 0.440466 0.797140
O O3 0.500000 0.500000 0.000000
O O4 0.105778 0.454149 0.119182
O O5 0.247003 0.820545 0.815471
O O6 0.192277 0.750000 0.634010
O O7 0.587945 0.750000 0.557863
O O8 0.329167 0.381395 0.381245
O O9 0.654141 0.446848 0.318613
O O10 0.174768 0.446373 0.663515
O O11 0.039582 0.318362 0.674611
O O12 0.891178 0.425161 0.633007
O O13 0.189735 0.569270 0.547522
O O14 0.663615 0.180848 0.637275
O O15 0.053613 0.250000 0.455261
#
# Coordination Sequence:
#
# PCOD8072654 Si02
#       8
#     4   2   4   4   4   2   2   4
#     4  12  25  41  62  99 135 172 220 272 324 396
#     4  10  20  42  65  96 133 171 220 275 336 395
#     4  11  23  40  64  97 131 168 221 270 331 396
#     4  10  19  37  62  91 126 168 212 266 326 388
#     4  12  22  38  66  95 130 168 214 276 325 384
#     4  10  20  40  68  95 127 174 221 275 333 402
#     4   8  20  32  59  95 126 165 221 262 325 405
#     4  11  22  42  66  96 127 170 223 268 331 394
#
# _framework density 21.387968999999998
#
# number of rings (size 3 to 8) (size 9 to 14) (size 15 to 20)
#    0.000    1.231    4.615    2.308    0.000    0.000 
#    0.000    3.077    0.000    0.000    0.000    0.000 
#    0.000    0.000    0.000    0.000    0.000    0.000 
#
# Total GULP energy -322118.390303 kJ/mol
# GULP energy per Si atom -12389.168858 kJ/mol
# Density = 2.133929 g / cm^3
# Si number density = 21.387969 Si / 1000 Ang^3
#
#
#
# Elastic Constant Matrix: (Units=GPa)
#
#
# Indices 1 2 3 4 5 6 
#
# 1 78.2474 50.3202 6.5905 0.0000 6.5142 0.0000
# 2 50.3202 175.5680 41.8371 0.0000 23.1067 0.0000
# 3 6.5905 41.8371 95.8534 0.0000 -7.3124 0.0000
# 4 0.0000 0.0000 0.0000 15.6565 0.0000 2.7326
# 5 6.5142 23.1067 -7.3124 0.0000 27.7015 0.0000
# 6 0.0000 0.0000 0.0000 2.7326 0.0000 34.9435
#
#
#
# Elastic Compliance Matrix: (Units=1/GPa)
#
#
# Indices 1 2 3 4 5 6 
#
# 1 0.015761 -0.004859 0.001086 0.000000 0.000634 0.000000
# 2 -0.004859 0.009084 -0.004206 0.000000 -0.007545 0.000000
# 3 0.001086 -0.004206 0.012698 0.000000 0.006605 0.000000
# 4 0.000000 0.000000 0.000000 0.064755 0.000000 -0.005064
# 5 0.000634 -0.007545 0.006605 0.000000 0.043987 0.000000
# 6 0.000000 0.000000 0.000000 -0.005064 0.000000 0.029014
#
#
# Mechanical properties :
#
#
# Convention : Reuss Voigt Hill
#
# Bulk Modulus (GPa) = 46.33404 60.79605 53.56504
# Shear Modulus (GPa) = 25.19500 32.38839 28.79169
#
# Velocity S-wave (km/s) = 3.43592 3.89566 3.67299
# Velocity P-wave (km/s) = 6.11975 6.98011 6.56404
#
# Compressibility (1/GPa) = 0.02158241
#
# Stress axis : x y z
#
# Youngs Moduli (GPa) = 63.44863 110.08527 78.75410
#
# Poissons Ratio (x) = 0.53494 -0.08550
# Poissons Ratio (y) = 0.30832 0.33126
# Poissons Ratio (z) = -0.06888 0.46305
#
# Static dielectric constant tensor:
#      x y z
#    x 4.081380 0.000000 0.079720 
#    y 0.000000 4.624510 0.000000 
#    z 0.079720 0.000000 3.736720 
# 
# 
# High freq. dielectric constant tensor:
#      x y z
#    x 1.850370 0.000000 -0.004970 
#    y 0.000000 1.861980 0.000000 
#    z -0.004970 0.000000 1.792630 
# 
# From -- ./inp_files/14587.got.cif
#   From: 2010.06.25/outbox.cif.g09.slc.cpg/sg11_8_cif.got.tgz:14587.got - 2010.06.27 23:14:04.
