data_PCOD8072576
_publ_section_title
;
Structure prediction by ZEFSAII (Michael W. Deem and Ramdas Pophale) SiO2 
 PCOD8072576
Probable space group: P 21/M
;
_chemical_formula_sum "Si O2"
_cell_formula_units_Z 32
_cell_length_a 12.406373
_cell_length_b 15.956316
_cell_length_c 15.093520
_cell_angle_alpha 90.000000
_cell_angle_beta 31.643843
_cell_angle_gamma 90.000000
_cell_volume 1567.571379
_symmetry_space_group_name_H-M "P 21/M"
_symmetry_group_IT_number 11
_symmetry_cell_setting 'monoclinic'
loop_
_space_group_symop_operation_xyz
x,y,z
-x,1/2+y,-z
-x,-y,-z
x,1/2-y,z
loop_
_atom_site_type_symbol
_atom_site_label
_atom_site_fract_x
_atom_site_fract_y
_atom_site_fract_z
Si Si1 0.108830 0.849038 0.793329
Si Si2 0.948857 0.049879 0.623511
Si Si3 0.046807 0.349828 0.909222
Si Si4 0.318466 0.909958 0.950802
Si Si5 0.811231 0.569119 0.866861
Si Si6 0.673206 0.652052 0.583936
Si Si7 0.420741 0.654324 0.068025
Si Si8 0.435689 0.151933 0.537397
O O1 0.124603 0.750000 0.791755
O O2 0.959662 0.870761 0.817701
O O3 0.335834 0.888428 0.615930
O O4 0.018680 0.885580 0.948902
O O5 0.728286 0.095147 0.769611
O O6 0.111742 0.122954 0.526774
O O7 0.951134 0.984319 0.702315
O O8 0.000000 0.000000 0.500000
O O9 0.033226 0.250000 0.916803
O O10 0.279078 0.380948 0.723155
O O11 0.900754 0.384332 0.934685
O O12 0.490658 0.898977 0.756678
O O13 0.368400 0.852971 0.000993
O O14 0.314000 0.007460 0.980763
O O15 0.653777 0.625772 0.921601
O O16 0.643120 0.750000 0.624380
O O17 0.666942 0.631441 0.484783
O O18 0.394177 0.750000 0.117049
O O19 0.463839 0.250000 0.529979
#
# Coordination Sequence:
#
# PCOD8072576 Si02
#       8
#     4   4   4   4   4   4   4   4
#     4  10  21  41  62  86 124 168 210 252 300 372
#     4  11  23  41  60  89 127 158 197 258 321 368
#     4  10  19  36  62  90 120 160 207 259 307 359
#     4  11  21  37  62  92 121 156 202 259 320 361
#     4  11  24  41  60  85 126 165 200 251 318 373
#     4  11  20  36  62  92 121 156 202 257 307 366
#     4  11  22  40  64  88 114 160 213 253 301 375
#     4   9  18  34  58  89 120 154 205 257 302 352
#
# _framework density 20.413744000000001
#
# number of rings (size 3 to 8) (size 9 to 14) (size 15 to 20)
#    0.000    1.500    1.250    6.375    0.000    1.500 
#    4.500    3.125    0.000    0.000    0.000    0.000 
#    0.000    0.000    0.000    0.000    0.000    0.000 
#
# Total GULP energy -396857.175031 kJ/mol
# GULP energy per Si atom -12401.786720 kJ/mol
# Density = 2.036728 g / cm^3
# Si number density = 20.413744 Si / 1000 Ang^3
#
#
#
# Elastic Constant Matrix: (Units=GPa)
#
#
# Indices 1 2 3 4 5 6 
#
# 1 104.5889 24.7370 54.0585 0.0000 -11.0717 0.0000
# 2 24.7370 33.1929 23.7522 0.0000 -1.5949 0.0000
# 3 54.0585 23.7522 148.2349 0.0000 -0.6838 0.0000
# 4 0.0000 0.0000 0.0000 25.3190 0.0000 -4.3013
# 5 -11.0717 -1.5949 -0.6838 0.0000 28.9774 0.0000
# 6 0.0000 0.0000 0.0000 -4.3013 0.0000 31.7846
#
#
#
# Elastic Compliance Matrix: (Units=1/GPa)
#
#
# Indices 1 2 3 4 5 6 
#
# 1 0.013771 -0.007292 -0.003832 0.000000 0.004770 0.000000
# 2 -0.007292 0.037978 -0.003430 0.000000 -0.000777 0.000000
# 3 -0.003832 -0.003430 0.008686 0.000000 -0.001448 0.000000
# 4 0.000000 0.000000 0.000000 0.040425 0.000000 0.005471
# 5 0.004770 -0.000777 -0.001448 0.000000 0.036255 0.000000
# 6 0.000000 0.000000 0.000000 0.005471 0.000000 0.032202
#
#
# Mechanical properties :
#
#
# Convention : Reuss Voigt Hill
#
# Bulk Modulus (GPa) = 31.91933 54.56801 43.24367
# Shear Modulus (GPa) = 23.93852 29.44748 26.69300
#
# Velocity S-wave (km/s) = 3.42814 3.80219 3.62000
# Velocity P-wave (km/s) = 5.59818 6.78709 6.22110
#
# Compressibility (1/GPa) = 0.03132898
#
# Stress axis : x y z
#
# Youngs Moduli (GPa) = 72.61448 26.33090 115.12397
#
# Poissons Ratio (x) = 0.19200 0.44112
# Poissons Ratio (y) = 0.52950 0.39484
# Poissons Ratio (z) = 0.27824 0.09031
#
# Static dielectric constant tensor:
#      x y z
#    x 3.680330 0.000000 -0.060520 
#    y 0.000000 3.552800 0.000000 
#    z -0.060520 0.000000 4.094630 
# 
# 
# High freq. dielectric constant tensor:
#      x y z
#    x 1.793920 0.000000 -0.004730 
#    y 0.000000 1.785210 0.000000 
#    z -0.004730 0.000000 1.812060 
# 
# From -- ./inp_files/50649.got.cif
#   From: 2010.06.25/outbox.cif.g09.slc.cpg/sg11_26_cif.got.tgz:50649.got - 2010.06.27 23:14:04.
