data_PCOD8072261
_publ_section_title
;
Structure prediction by ZEFSAII (Michael W. Deem and Ramdas Pophale) SiO2 
 PCOD8072261
Probable space group: P 21/M
;
_chemical_formula_sum "Si O2"
_cell_formula_units_Z 32
_cell_length_a 22.820899
_cell_length_b 8.655936
_cell_length_c 15.232366
_cell_angle_alpha 90.000000
_cell_angle_beta 148.484249
_cell_angle_gamma 90.000000
_cell_volume 1572.874318
_symmetry_space_group_name_H-M "P 21/M"
_symmetry_group_IT_number 11
_symmetry_cell_setting 'monoclinic'
loop_
_space_group_symop_operation_xyz
x,y,z
-x,1/2+y,-z
-x,-y,-z
x,1/2-y,z
loop_
_atom_site_type_symbol
_atom_site_label
_atom_site_fract_x
_atom_site_fract_y
_atom_site_fract_z
Si Si1 0.502338 0.068670 0.739436
Si Si2 0.264981 0.431942 0.360057
Si Si3 0.253516 0.932575 0.994813
Si Si4 0.924517 0.431941 0.758845
Si Si5 0.123238 0.934258 0.657716
Si Si6 0.799370 0.432345 0.430130
Si Si7 0.556113 0.067881 0.156290
Si Si8 0.162174 0.932510 0.063117
O O1 0.501630 0.250000 0.754921
O O2 0.391912 0.016668 0.545354
O O3 0.615739 0.017118 0.833928
O O4 0.509028 0.988328 0.841848
O O5 0.247168 0.250000 0.349652
O O6 0.177911 0.522670 0.309632
O O7 0.246712 0.481440 0.236476
O O8 0.243964 0.750000 0.979135
O O9 0.191584 0.993912 0.003063
O O10 0.192186 0.999611 0.829531
O O11 0.946125 0.250000 0.796318
O O12 0.896512 0.479774 0.622631
O O13 0.035574 0.523798 0.927750
O O14 0.119346 0.750000 0.653587
O O15 0.179499 0.999136 0.640106
O O16 0.000000 0.000000 0.500000
O O17 0.791949 0.250000 0.414113
O O18 0.683121 0.496651 0.320585
O O19 0.552285 0.250000 0.146719
O O20 0.500000 0.000000 0.000000
O O21 0.178877 0.750000 0.093271
#
# Coordination Sequence:
#
# PCOD8072261 Si02
#       8
#     4   4   4   4   4   4   4   4
#     4  10  21  40  63  86 116 154 197 245 297 354
#     4  11  23  39  61  89 118 151 194 249 304 356
#     4   9  20  39  61  84 117 159 198 239 295 354
#     4  11  21  38  61  87 120 154 194 246 300 356
#     4  10  19  35  57  82 114 152 192 234 282 340
#     4   9  19  34  56  82 113 151 187 228 287 347
#     4  11  21  36  57  85 117 153 195 237 290 346
#     4  11  23  39  60  86 116 156 201 245 296 359
#
# _framework density 20.344919000000001
#
# number of rings (size 3 to 8) (size 9 to 14) (size 15 to 20)
#    0.000    1.750    1.250    3.375    0.000    3.000 
#    0.000    5.625    0.000    0.000    0.000    0.000 
#    0.000    0.000    0.000    0.000    0.000    0.000 
#
# Total GULP energy -396828.742281 kJ/mol
# GULP energy per Si atom -12400.898196 kJ/mol
# Density = 2.029861 g / cm^3
# Si number density = 20.344919 Si / 1000 Ang^3
#
#
#
# Elastic Constant Matrix: (Units=GPa)
#
#
# Indices 1 2 3 4 5 6 
#
# 1 109.0124 13.2899 46.2750 0.0000 -2.1058 0.0000
# 2 13.2899 30.6932 21.5804 0.0000 1.7630 0.0000
# 3 46.2750 21.5804 139.3917 0.0000 -1.0393 0.0000
# 4 0.0000 0.0000 0.0000 28.7786 0.0000 -1.4638
# 5 -2.1058 1.7630 -1.0393 0.0000 42.6497 0.0000
# 6 0.0000 0.0000 0.0000 -1.4638 0.0000 24.4300
#
#
#
# Elastic Compliance Matrix: (Units=1/GPa)
#
#
# Indices 1 2 3 4 5 6 
#
# 1 0.010850 -0.002469 -0.003216 0.000000 0.000559 0.000000
# 2 -0.002469 0.037239 -0.004959 0.000000 -0.001782 0.000000
# 3 -0.003216 -0.004959 0.009011 0.000000 0.000266 0.000000
# 4 0.000000 0.000000 0.000000 0.034854 0.000000 0.002088
# 5 0.000559 -0.001782 0.000266 0.000000 0.023555 0.000000
# 6 0.000000 0.000000 0.000000 0.002088 0.000000 0.041058
#
#
# Mechanical properties :
#
#
# Convention : Reuss Voigt Hill
#
# Bulk Modulus (GPa) = 27.92306 49.04310 38.48308
# Shear Modulus (GPa) = 26.34469 32.36848 29.35659
#
# Velocity S-wave (km/s) = 3.60238 3.99304 3.80273
# Velocity P-wave (km/s) = 5.57292 6.73924 6.18364
#
# Compressibility (1/GPa) = 0.03581270
#
# Stress axis : x y z
#
# Youngs Moduli (GPa) = 92.16521 26.85391 110.97305
#
# Poissons Ratio (x) = 0.06631 0.35684
# Poissons Ratio (y) = 0.22758 0.55029
# Poissons Ratio (z) = 0.29636 0.13316
#
# Static dielectric constant tensor:
#      x y z
#    x 4.242200 0.000000 0.012700 
#    y 0.000000 3.419700 0.000000 
#    z 0.012700 0.000000 4.024180 
# 
# 
# High freq. dielectric constant tensor:
#      x y z
#    x 1.802150 0.000000 -0.002630 
#    y 0.000000 1.770520 0.000000 
#    z -0.002630 0.000000 1.810640 
# 
# From -- ./inp_files/55706.got.cif
#   From: 2010.06.25/outbox.cif.g09.slc.cpg/sg11_28_cif.got.tgz:55706.got - 2010.06.27 23:14:04.
