data_PCOD8072773
_publ_section_title
;
Structure prediction by ZEFSAII (Michael W. Deem and Ramdas Pophale) SiO2 
 PCOD8072773
Probable space group: P 21/M
;
_chemical_formula_sum "Si O2"
_cell_formula_units_Z 32
_cell_length_a 25.933131
_cell_length_b 9.090141
_cell_length_c 13.791019
_cell_angle_alpha 90.000000
_cell_angle_beta 147.101321
_cell_angle_gamma 90.000000
_cell_volume 1765.817374
_symmetry_space_group_name_H-M "P 21/M"
_symmetry_group_IT_number 11
_symmetry_cell_setting 'monoclinic'
loop_
_space_group_symop_operation_xyz
x,y,z
-x,1/2+y,-z
-x,-y,-z
x,1/2-y,z
loop_
_atom_site_type_symbol
_atom_site_label
_atom_site_fract_x
_atom_site_fract_y
_atom_site_fract_z
Si Si1 0.226816 0.417268 0.869963
Si Si2 0.625487 0.421444 0.011545
Si Si3 0.898672 0.079589 0.949760
Si Si4 0.893274 0.923669 0.130932
Si Si5 0.041668 0.419491 0.474175
Si Si6 0.532496 0.080447 0.147081
Si Si7 0.880274 0.579887 0.727385
Si Si8 0.272805 0.582760 0.626078
O O1 0.262111 0.250000 0.935394
O O2 0.316360 0.520957 0.989848
O O3 0.177108 0.466012 0.892077
O O4 0.155238 0.431388 0.664664
O O5 0.606827 0.250000 0.970286
O O6 0.683227 0.459649 0.200487
O O7 0.522624 0.502440 0.850738
O O8 0.870861 0.250000 0.912120
O O9 0.011288 0.054312 0.130403
O O10 0.852519 0.992456 0.967509
O O11 0.854503 0.012968 0.782344
O O12 0.906291 0.750000 0.141929
O O13 0.997828 0.996819 0.312301
O O14 0.008966 0.250000 0.419789
O O15 0.000000 0.500000 0.500000
O O16 0.501564 0.250000 0.093364
O O17 0.646900 0.065846 0.331733
O O18 0.500000 0.000000 0.000000
O O19 0.859453 0.750000 0.715012
O O20 0.814524 0.524605 0.535401
O O21 0.235142 0.750000 0.569353
#
# Coordination Sequence:
#
# PCOD8072773 Si02
#       8
#     4   4   4   4   4   4   4   4
#     4   9  19  32  45  66  96 129 165 201 238 285
#     4  10  20  31  47  73 102 133 166 200 242 287
#     4  10  21  36  52  71  97 128 163 207 250 289
#     4  10  20  33  49  68  93 129 166 204 247 289
#     4   9  17  29  43  62  89 122 161 200 238 280
#     4   9  17  31  49  70  98 130 162 198 242 290
#     4  10  21  35  52  74  96 125 163 204 248 293
#     4   9  19  33  49  72  99 129 162 198 243 291
#
# _framework density 18.121918999999998
#
# number of rings (size 3 to 8) (size 9 to 14) (size 15 to 20)
#    0.000    2.500    0.000    3.750    1.750    7.500 
#    0.000    0.000    0.000    0.000    0.000    0.875 
#    0.000    0.000    0.000    0.000    0.000    0.000 
#
# Total GULP energy -396652.036803 kJ/mol
# GULP energy per Si atom -12395.376150 kJ/mol
# Density = 1.808067 g / cm^3
# Si number density = 18.121919 Si / 1000 Ang^3
#
#
#
# Elastic Constant Matrix: (Units=GPa)
#
#
# Indices 1 2 3 4 5 6 
#
# 1 74.0217 36.1104 4.0037 0.0000 1.4665 0.0000
# 2 36.1104 105.5444 14.2178 0.0000 6.3895 0.0000
# 3 4.0037 14.2178 22.6992 0.0000 1.6973 0.0000
# 4 0.0000 0.0000 0.0000 27.1723 0.0000 0.6185
# 5 1.4665 6.3895 1.6973 0.0000 22.5814 0.0000
# 6 0.0000 0.0000 0.0000 0.6185 0.0000 31.2490
#
#
#
# Elastic Compliance Matrix: (Units=1/GPa)
#
#
# Indices 1 2 3 4 5 6 
#
# 1 0.016231 -0.005671 0.000652 0.000000 0.000502 0.000000
# 2 -0.005671 0.012467 -0.006609 0.000000 -0.002662 0.000000
# 3 0.000652 -0.006609 0.048213 0.000000 -0.001796 0.000000
# 4 0.000000 0.000000 0.000000 0.036819 0.000000 -0.000729
# 5 0.000502 -0.002662 -0.001796 0.000000 0.045140 0.000000
# 6 0.000000 0.000000 0.000000 -0.000729 0.000000 0.032015
#
#
# Mechanical properties :
#
#
# Convention : Reuss Voigt Hill
#
# Bulk Modulus (GPa) = 18.63800 34.54768 26.59284
# Shear Modulus (GPa) = 21.54924 26.06278 23.80601
#
# Velocity S-wave (km/s) = 3.45211 3.79646 3.62837
# Velocity P-wave (km/s) = 5.11826 6.19055 5.67976
#
# Compressibility (1/GPa) = 0.05365383
#
# Stress axis : x y z
#
# Youngs Moduli (GPa) = 61.61033 80.21477 20.74116
#
# Poissons Ratio (x) = 0.45493 -0.01352
# Poissons Ratio (y) = 0.34942 0.13708
# Poissons Ratio (z) = -0.04017 0.53014
#
# Static dielectric constant tensor:
#      x y z
#    x 3.135320 0.000000 -0.073160 
#    y 0.000000 3.465760 0.000000 
#    z -0.073160 0.000000 3.008610 
# 
# 
# High freq. dielectric constant tensor:
#      x y z
#    x 1.693590 0.000000 0.008920 
#    y 0.000000 1.717280 0.000000 
#    z 0.008920 0.000000 1.655210 
# 
# From -- ./inp_files/56205.got.cif
#   From: 2010.06.25/outbox.cif.g09.slc.cpg/sg11_29_cif.got.tgz:56205.got - 2010.06.27 23:14:04.
