data_PCOD8072599
_publ_section_title
;
Structure prediction by ZEFSAII (Michael W. Deem and Ramdas Pophale) SiO2 
 PCOD8072599
Probable space group: P 21/M
;
_chemical_formula_sum "Si O2"
_cell_formula_units_Z 32
_cell_length_a 9.000063
_cell_length_b 23.542028
_cell_length_c 15.572321
_cell_angle_alpha 90.000000
_cell_angle_beta 29.633168
_cell_angle_gamma 90.000000
_cell_volume 1631.401546
_symmetry_space_group_name_H-M "P 21/M"
_symmetry_group_IT_number 11
_symmetry_cell_setting 'monoclinic'
loop_
_space_group_symop_operation_xyz
x,y,z
-x,1/2+y,-z
-x,-y,-z
x,1/2-y,z
loop_
_atom_site_type_symbol
_atom_site_label
_atom_site_fract_x
_atom_site_fract_y
_atom_site_fract_z
Si Si1 0.107857 0.116280 0.616765
Si Si2 0.139372 0.118439 0.270343
Si Si3 0.708764 0.494122 0.810553
Si Si4 0.181175 0.891460 0.740698
Si Si5 0.159663 0.874195 0.076423
Si Si6 0.885100 0.814229 0.551096
Si Si7 0.114038 0.499496 0.038373
Si Si8 0.171227 0.686568 0.900812
O O1 0.461709 0.106925 0.438380
O O2 0.993163 0.154285 0.594930
O O3 0.944920 0.055940 0.695820
O O4 0.016316 0.147615 0.751049
O O5 0.004652 0.152344 0.419382
O O6 0.947958 0.135095 0.282373
O O7 0.105630 0.051119 0.303148
O O8 0.487629 0.134198 0.082255
O O9 0.500000 0.500000 0.000000
O O10 0.467731 0.483205 0.855590
O O11 0.056662 0.852557 0.880625
O O12 0.065348 0.955485 0.811719
O O13 0.074818 0.939385 0.101654
O O14 0.044857 0.837112 0.054045
O O15 0.011489 0.750000 0.490432
O O16 0.528220 0.814170 0.725957
O O17 0.000000 0.500000 0.000000
O O18 0.047836 0.750000 0.948191
#
# Coordination Sequence:
#
# PCOD8072599 Si02
#       8
#     4   4   4   4   4   4   4   4
#     4  11  22  37  59  88 118 150 189 236 290 341
#     4  10  20  38  61  83 114 156 190 229 282 346
#     4  11  20  38  58  84 121 150 184 231 288 353
#     4  11  21  35  58  89 115 146 191 236 287 336
#     4  10  19  37  59  82 113 152 189 224 284 348
#     4   9  21  40  58  81 115 154 196 238 285 336
#     4  11  20  36  59  84 117 151 185 230 281 346
#     4   9  19  36  58  81 109 149 195 235 280 340
#
# _framework density 19.615036
#
# number of rings (size 3 to 8) (size 9 to 14) (size 15 to 20)
#    0.000    1.750    5.000    0.000    1.750    3.500 
#    2.250    0.000    0.000    3.750    0.000    0.000 
#    0.000    0.000    0.000    0.000    0.000    0.000 
#
# Total GULP energy -396762.446717 kJ/mol
# GULP energy per Si atom -12398.826460 kJ/mol
# Density = 1.957039 g / cm^3
# Si number density = 19.615036 Si / 1000 Ang^3
#
#
#
# Elastic Constant Matrix: (Units=GPa)
#
#
# Indices 1 2 3 4 5 6 
#
# 1 157.9075 54.9246 45.3389 0.0000 24.2940 0.0000
# 2 54.9246 126.3950 52.0209 0.0000 18.8776 0.0000
# 3 45.3389 52.0209 71.9303 0.0000 24.5473 0.0000
# 4 0.0000 0.0000 0.0000 21.0333 0.0000 1.5217
# 5 24.2940 18.8776 24.5473 0.0000 35.2256 0.0000
# 6 0.0000 0.0000 0.0000 1.5217 0.0000 20.4378
#
#
#
# Elastic Compliance Matrix: (Units=1/GPa)
#
#
# Indices 1 2 3 4 5 6 
#
# 1 0.008258 -0.002026 -0.002843 0.000000 -0.002628 0.000000
# 2 -0.002026 0.011768 -0.007293 0.000000 0.000173 0.000000
# 3 -0.002843 -0.007293 0.024883 0.000000 -0.011471 0.000000
# 4 0.000000 0.000000 0.000000 0.047801 0.000000 -0.003559
# 5 -0.002628 0.000173 -0.011471 0.000000 0.038102 0.000000
# 6 0.000000 0.000000 0.000000 -0.003559 0.000000 0.049194
#
#
# Mechanical properties :
#
#
# Convention : Reuss Voigt Hill
#
# Bulk Modulus (GPa) = 48.57673 73.42242 60.99958
# Shear Modulus (GPa) = 23.67517 28.93589 26.30553
#
# Velocity S-wave (km/s) = 3.47795 3.84499 3.66606
# Velocity P-wave (km/s) = 6.39898 7.56471 7.00613
#
# Compressibility (1/GPa) = 0.02058599
#
# Stress axis : x y z
#
# Youngs Moduli (GPa) = 121.09185 84.97868 40.18774
#
# Poissons Ratio (x) = 0.17215 0.11426
# Poissons Ratio (y) = 0.24531 0.29307
# Poissons Ratio (z) = 0.34429 0.61971
#
# Static dielectric constant tensor:
#      x y z
#    x 4.020320 0.000000 0.093110 
#    y 0.000000 3.668420 0.000000 
#    z 0.093110 0.000000 3.483330 
# 
# 
# High freq. dielectric constant tensor:
#      x y z
#    x 1.779450 0.000000 0.013730 
#    y 0.000000 1.758600 0.000000 
#    z 0.013730 0.000000 1.736300 
# 
# From -- ./inp_files/48445.got.cif
#   From: 2010.06.25/outbox.cif.g09.slc.cpg/sg11_25_cif.got.tgz:48445.got - 2010.06.27 23:14:04.
