data_PCOD8072719
_publ_section_title
;
Structure prediction by ZEFSAII (Michael W. Deem and Ramdas Pophale) SiO2 
 PCOD8072719
Probable space group: P 21/M
;
_chemical_formula_sum "Si O2"
_cell_formula_units_Z 28
_cell_length_a 16.399724
_cell_length_b 19.670197
_cell_length_c 9.710284
_cell_angle_alpha 90.000000
_cell_angle_beta 28.156714
_cell_angle_gamma 90.000000
_cell_volume 1478.131893
_symmetry_space_group_name_H-M "P 21/M"
_symmetry_group_IT_number 11
_symmetry_cell_setting 'monoclinic'
loop_
_space_group_symop_operation_xyz
x,y,z
-x,1/2+y,-z
-x,-y,-z
x,1/2-y,z
loop_
_atom_site_type_symbol
_atom_site_label
_atom_site_fract_x
_atom_site_fract_y
_atom_site_fract_z
Si Si1 0.931825 0.902416 0.728697
Si Si2 0.443612 0.671821 0.083963
Si Si3 0.300895 0.947368 0.127853
Si Si4 0.241894 0.409094 0.297891
Si Si5 0.306212 0.517446 0.820942
Si Si6 0.921648 0.325532 0.249947
Si Si7 0.978786 0.433746 0.939341
O O1 0.876698 0.885398 0.654557
O O2 0.103964 0.947627 0.472265
O O3 0.977047 0.837334 0.755781
O O4 0.788094 0.945604 0.020466
O O5 0.449146 0.750000 0.019412
O O6 0.417883 0.614982 0.004274
O O7 0.284462 0.663889 0.426309
O O8 0.626372 0.653701 0.880622
O O9 0.358306 0.023437 0.089607
O O10 0.303946 0.937634 0.960753
O O11 0.127186 0.423609 0.603853
O O12 0.500000 0.500000 0.500000
O O13 0.211213 0.561957 0.845987
O O14 0.964511 0.250000 0.139579
O O15 0.991097 0.370797 0.023168
O O16 0.000000 0.500000 0.000000
#
# Coordination Sequence:
#
# PCOD8072719 Si02
#       7
#     4   4   4   4   4   4   4
#     4  10  19  41  59  84 116 157 194 242 294 353
#     4  10  23  39  58  86 117 157 200 242 291 349
#     4  10  19  39  60  86 119 153 196 244 294 349
#     4  11  21  36  64  91 118 151 202 249 289 351
#     4  11  22  34  58  93 118 146 194 247 298 346
#     4  10  23  41  60  83 121 161 195 239 304 358
#     4  12  22  38  61  92 123 154 194 246 299 351
#
# _framework density 18.942829
#
# number of rings (size 3 to 8) (size 9 to 14) (size 15 to 20)
#    0.000    1.429    4.286    2.143    6.000    1.143 
#    0.000    0.714    0.000    0.000    0.000    0.000 
#    0.000    0.000    0.000    0.000    0.000    0.000 
#
# Total GULP energy -347044.292122 kJ/mol
# GULP energy per Si atom -12394.439004 kJ/mol
# Density = 1.889971 g / cm^3
# Si number density = 18.942829 Si / 1000 Ang^3
#
#
#
# Elastic Constant Matrix: (Units=GPa)
#
#
# Indices 1 2 3 4 5 6 
#
# 1 119.5474 62.0451 44.8237 0.0000 10.1733 0.0000
# 2 62.0451 122.4206 34.2995 0.0000 5.0406 0.0000
# 3 44.8237 34.2995 75.6735 0.0000 -2.7543 0.0000
# 4 0.0000 0.0000 0.0000 23.9009 0.0000 0.7597
# 5 10.1733 5.0406 -2.7543 0.0000 32.1374 0.0000
# 6 0.0000 0.0000 0.0000 0.7597 0.0000 23.8792
#
#
#
# Elastic Compliance Matrix: (Units=1/GPa)
#
#
# Indices 1 2 3 4 5 6 
#
# 1 0.013524 -0.005045 -0.005869 0.000000 -0.003993 0.000000
# 2 -0.005045 0.011348 -0.002169 0.000000 -0.000369 0.000000
# 3 -0.005869 -0.002169 0.017810 0.000000 0.003724 0.000000
# 4 0.000000 0.000000 0.000000 0.041882 0.000000 -0.001332
# 5 -0.003993 -0.000369 0.003724 0.000000 0.032757 0.000000
# 6 0.000000 0.000000 0.000000 -0.001332 0.000000 0.041920
#
#
# Mechanical properties :
#
#
# Convention : Reuss Voigt Hill
#
# Bulk Modulus (GPa) = 60.54834 66.66422 63.60628
# Shear Modulus (GPa) = 26.19010 27.74839 26.96924
#
# Velocity S-wave (km/s) = 3.72235 3.83149 3.77731
# Velocity P-wave (km/s) = 7.10687 7.40557 7.25776
#
# Compressibility (1/GPa) = 0.01651573
#
# Stress axis : x y z
#
# Youngs Moduli (GPa) = 73.94414 88.11803 56.14955
#
# Poissons Ratio (x) = 0.44458 0.32954
# Poissons Ratio (y) = 0.37307 0.12177
# Poissons Ratio (z) = 0.43398 0.19110
#
# Static dielectric constant tensor:
#      x y z
#    x 3.763010 0.000000 -0.078130 
#    y 0.000000 3.408170 0.000000 
#    z -0.078130 0.000000 3.202040 
# 
# 
# High freq. dielectric constant tensor:
#      x y z
#    x 1.745610 0.000000 -0.002460 
#    y 0.000000 1.721040 0.000000 
#    z -0.002460 0.000000 1.732100 
# 
# From -- ./inp_files/23164.got.cif
#   From: 2010.06.25/outbox.cif.g09.slc.cpg/sg11_12_cif.got.tgz:23164.got - 2010.06.27 23:14:04.
