data_PCOD8072423
_publ_section_title
;
Structure prediction by ZEFSAII (Michael W. Deem and Ramdas Pophale) SiO2 
 PCOD8072423
Probable space group: P 21/M
;
_chemical_formula_sum "Si O2"
_cell_formula_units_Z 32
_cell_length_a 13.436991
_cell_length_b 24.126556
_cell_length_c 13.449442
_cell_angle_alpha 90.000000
_cell_angle_beta 157.484770
_cell_angle_gamma 90.000000
_cell_volume 1669.628620
_symmetry_space_group_name_H-M "P 21/M"
_symmetry_group_IT_number 11
_symmetry_cell_setting 'monoclinic'
loop_
_space_group_symop_operation_xyz
x,y,z
-x,1/2+y,-z
-x,-y,-z
x,1/2-y,z
loop_
_atom_site_type_symbol
_atom_site_label
_atom_site_fract_x
_atom_site_fract_y
_atom_site_fract_z
Si Si1 0.179588 0.958609 0.312380
Si Si2 0.656512 0.021533 0.833872
Si Si3 0.453573 0.958251 0.048839
Si Si4 0.991748 0.934112 0.511768
Si Si5 0.082167 0.874230 0.391230
Si Si6 0.275593 0.624272 0.222117
Si Si7 0.254252 0.315521 0.250688
Si Si8 0.617528 0.684667 0.854969
O O1 0.132916 0.927853 0.372418
O O2 0.230245 0.915456 0.273012
O O3 0.430416 0.997412 0.555639
O O4 0.927837 0.994401 0.052089
O O5 0.597422 0.009514 0.895247
O O6 0.674174 0.087395 0.829758
O O7 0.707784 0.919487 0.293666
O O8 0.205420 0.920131 0.793324
O O9 0.500000 0.000000 0.000000
O O10 0.048430 0.896035 0.470641
O O11 0.000000 0.000000 0.500000
O O12 0.324514 0.832518 0.610299
O O13 0.819767 0.843557 0.116277
O O14 0.524638 0.662513 0.471460
O O15 0.024859 0.662249 0.973068
O O16 0.250757 0.250000 0.254088
O O17 0.315302 0.335092 0.194561
O O18 0.643642 0.750000 0.890463
#
# Coordination Sequence:
#
# PCOD8072423 Si02
#       8
#     4   4   4   4   4   4   4   4
#     4  12  21  36  52  84 121 163 192 219 286 353
#     4  12  24  36  57  81 124 162 193 239 279 352
#     4  10  19  36  52  78 110 148 193 235 269 317
#     4  10  20  34  53  82 111 145 193 237 276 339
#     4  12  21  36  61  86 118 158 190 239 296 355
#     4  12  23  39  55  88 118 157 198 229 296 346
#     4  11  22  41  62  84 116 153 199 254 287 340
#     4  11  22  38  58  87 117 152 193 242 294 352
#
# _framework density 19.165939000000002
#
# number of rings (size 3 to 8) (size 9 to 14) (size 15 to 20)
#    0.000    0.750    2.500    8.250    0.000    2.000 
#    0.000    0.000    0.000    0.000    0.000   17.500 
#    0.000    0.000    0.000    0.000    0.000    0.000 
#
# Total GULP energy -396843.172461 kJ/mol
# GULP energy per Si atom -12401.349139 kJ/mol
# Density = 1.912232 g / cm^3
# Si number density = 19.165939 Si / 1000 Ang^3
#
#
#
# Elastic Constant Matrix: (Units=GPa)
#
#
# Indices 1 2 3 4 5 6 
#
# 1 55.2988 15.5381 7.1388 0.0000 19.4760 0.0000
# 2 15.5381 68.9323 38.5838 0.0000 -3.8450 0.0000
# 3 7.1388 38.5838 212.1295 0.0000 -25.5407 0.0000
# 4 0.0000 0.0000 0.0000 -254.9848 0.0000 -207.7010
# 5 19.4760 -3.8450 -25.5407 0.0000 63.7195 0.0000
# 6 0.0000 0.0000 0.0000 -207.7010 0.0000 -126.4226
#
#
#
# Elastic Compliance Matrix: (Units=1/GPa)
#
#
# Indices 1 2 3 4 5 6 
#
# 1 0.022180 -0.005006 -0.000723 0.000000 -0.007371 0.000000
# 2 -0.005006 0.017284 -0.002801 0.000000 0.001450 0.000000
# 3 -0.000723 -0.002801 0.005521 0.000000 0.002265 0.000000
# 4 0.000000 0.000000 0.000000 0.011594 0.000000 -0.019048
# 5 -0.007371 0.001450 0.002265 0.000000 0.018942 0.000000
# 6 0.000000 0.000000 0.000000 -0.019048 0.000000 0.023385
#
#
# Mechanical properties :
#
#
# Convention : Reuss Voigt Hill
#
# Bulk Modulus (GPa) = 35.81104 50.98691 43.39897
# Shear Modulus (GPa) = 39.91276 -45.19758 -2.64241
#
# Velocity S-wave (km/s) = 4.56837 -4.86142 -1.17545
# Velocity P-wave (km/s) = 6.82290 2.20241 4.56626
#
# Compressibility (1/GPa) = 0.02792435
#
# Stress axis : x y z
#
# Youngs Moduli (GPa) = 45.08638 57.85744 181.14134
#
# Poissons Ratio (x) = 0.28962 0.13104
# Poissons Ratio (y) = 0.22569 0.50731
# Poissons Ratio (z) = 0.03262 0.16204
#
# Static dielectric constant tensor:
#      x y z
#    x 3.508400 0.000000 0.491470 
#    y 0.000000 3.358240 0.000000 
#    z 0.491470 0.000000 6.102820 
# 
# 
# High freq. dielectric constant tensor:
#      x y z
#    x 1.728450 0.000000 0.009160 
#    y 0.000000 1.718180 0.000000 
#    z 0.009160 0.000000 1.781770 
# 
# From -- ./inp_files/52723.got.cif
#   From: 2010.06.25/outbox.cif.g09.slc.cpg/sg11_27_cif.got.tgz:52723.got - 2010.06.27 23:14:04.
