data_PCOD8072874
_publ_section_title
;
Structure prediction by ZEFSAII (Michael W. Deem and Ramdas Pophale) SiO2 
 PCOD8072874
Probable space group: P 21/M
;
_chemical_formula_sum "Si O2"
_cell_formula_units_Z 32
_cell_length_a 13.941287
_cell_length_b 9.076195
_cell_length_c 22.170537
_cell_angle_alpha 90.000000
_cell_angle_beta 148.118195
_cell_angle_gamma 90.000000
_cell_volume 1481.683908
_symmetry_space_group_name_H-M "P 21/M"
_symmetry_group_IT_number 11
_symmetry_cell_setting 'monoclinic'
loop_
_space_group_symop_operation_xyz
x,y,z
-x,1/2+y,-z
-x,-y,-z
x,1/2-y,z
loop_
_atom_site_type_symbol
_atom_site_label
_atom_site_fract_x
_atom_site_fract_y
_atom_site_fract_z
Si Si1 0.646642 0.924207 0.458506
Si Si2 0.232567 0.583959 0.244090
Si Si3 0.604216 0.087125 0.317592
Si Si4 0.675548 0.923268 0.064086
Si Si5 0.893710 0.082950 0.085976
Si Si6 0.991588 0.078055 0.670537
Si Si7 0.737928 0.411173 0.875936
Si Si8 0.912680 0.416129 0.398273
O O1 0.665444 0.750000 0.473052
O O2 0.440162 0.974393 0.363776
O O3 0.693169 0.976641 0.414790
O O4 0.796822 0.000736 0.582126
O O5 0.218895 0.750000 0.261673
O O6 0.170158 0.577165 0.140737
O O7 0.090797 0.487228 0.207084
O O8 0.604420 0.250000 0.347114
O O9 0.702862 0.089652 0.305829
O O10 0.402912 0.041996 0.192786
O O11 0.634339 0.750000 0.035629
O O12 0.859061 0.954043 0.199309
O O13 0.724476 0.995211 0.025544
O O14 0.500000 0.000000 0.000000
O O15 0.890004 0.250000 0.107998
O O16 0.879792 0.075565 0.005985
O O17 0.957173 0.250000 0.642818
O O18 0.074158 0.009551 0.654590
O O19 0.640234 0.250000 0.827256
O O20 0.990284 0.250000 0.430336
O O21 0.000000 0.500000 0.500000
#
# Coordination Sequence:
#
# PCOD8072874 Si02
#       8
#     4   4   4   4   4   4   4   4
#     4  10  20  36  60  89 123 160 195 242 303 364
#     4   9  19  37  61  93 130 165 199 245 307 370
#     4  10  20  32  50  83 121 159 201 243 297 364
#     4  11  27  49  69  90 120 160 208 262 310 361
#     4  11  23  40  64  93 123 163 211 259 309 364
#     4  11  24  41  62  87 118 158 204 255 309 363
#     4   9  20  36  57  88 127 165 203 248 305 365
#     4  11  22  34  54  86 122 159 200 246 301 365
#
# _framework density 21.597048999999998
#
# number of rings (size 3 to 8) (size 9 to 14) (size 15 to 20)
#    0.000    1.750    1.250    3.375    1.750    7.000 
#    0.000    0.625    0.000    0.000    0.000    0.000 
#    0.000    0.000    0.000    0.000    0.000    0.000 
#
# Total GULP energy -396613.725939 kJ/mol
# GULP energy per Si atom -12394.178936 kJ/mol
# Density = 2.154789 g / cm^3
# Si number density = 21.597049 Si / 1000 Ang^3
#
#
#
# Elastic Constant Matrix: (Units=GPa)
#
#
# Indices 1 2 3 4 5 6 
#
# 1 60.1922 38.2282 27.0744 0.0000 24.7602 0.0000
# 2 38.2282 134.3993 54.4804 0.0000 16.5357 0.0000
# 3 27.0744 54.4804 79.3820 0.0000 17.1764 0.0000
# 4 0.0000 0.0000 0.0000 35.2669 0.0000 7.4190
# 5 24.7602 16.5357 17.1764 0.0000 31.2598 0.0000
# 6 0.0000 0.0000 0.0000 7.4190 0.0000 34.2971
#
#
#
# Elastic Compliance Matrix: (Units=1/GPa)
#
#
# Indices 1 2 3 4 5 6 
#
# 1 0.028414 -0.004841 -0.002330 0.000000 -0.018665 0.000000
# 2 -0.004841 0.011221 -0.006350 0.000000 0.001388 0.000000
# 3 -0.002330 -0.006350 0.018867 0.000000 -0.005162 0.000000
# 4 0.000000 0.000000 0.000000 0.029707 0.000000 -0.006426
# 5 -0.018665 0.001388 -0.005162 0.000000 0.048876 0.000000
# 6 0.000000 0.000000 0.000000 -0.006426 0.000000 0.030547
#
#
# Mechanical properties :
#
#
# Convention : Reuss Voigt Hill
#
# Bulk Modulus (GPa) = 31.78671 57.05994 44.42332
# Shear Modulus (GPa) = 24.37108 30.44414 27.40761
#
# Velocity S-wave (km/s) = 3.36288 3.75860 3.56623
# Velocity P-wave (km/s) = 5.46156 6.73154 6.12953
#
# Compressibility (1/GPa) = 0.03145969
#
# Stress axis : x y z
#
# Youngs Moduli (GPa) = 35.19401 89.11989 53.00214
#
# Poissons Ratio (x) = 0.43144 0.12348
# Poissons Ratio (y) = 0.17038 0.33657
# Poissons Ratio (z) = 0.08200 0.56593
#
# Static dielectric constant tensor:
#      x y z
#    x 3.761290 0.000000 0.219130 
#    y 0.000000 4.020130 0.000000 
#    z 0.219130 0.000000 3.842690 
# 
# 
# High freq. dielectric constant tensor:
#      x y z
#    x 1.835660 0.000000 0.016090 
#    y 0.000000 1.859620 0.000000 
#    z 0.016090 0.000000 1.839900 
# 
# From -- ./inp_files/69092.got.cif
#   From: 2010.06.25/outbox.cif.g09.slc.cpg/sg11_35_cif.got.tgz:69092.got - 2010.06.27 23:14:04.
