data_PCOD8072176
_publ_section_title
;
Structure prediction by ZEFSAII (Michael W. Deem and Ramdas Pophale) SiO2 
 PCOD8072176
Probable space group: P 21/M
;
_chemical_formula_sum "Si O2"
_cell_formula_units_Z 24
_cell_length_a 19.420279
_cell_length_b 9.574394
_cell_length_c 10.141591
_cell_angle_alpha 90.000000
_cell_angle_beta 38.252175
_cell_angle_gamma 90.000000
_cell_volume 1167.482350
_symmetry_space_group_name_H-M "P 21/M"
_symmetry_group_IT_number 11
_symmetry_cell_setting 'monoclinic'
loop_
_space_group_symop_operation_xyz
x,y,z
-x,1/2+y,-z
-x,-y,-z
x,1/2-y,z
loop_
_atom_site_type_symbol
_atom_site_label
_atom_site_fract_x
_atom_site_fract_y
_atom_site_fract_z
Si Si1 0.266120 0.087717 0.525061
Si Si2 0.574671 0.902288 0.301940
Si Si3 0.896792 0.415274 0.710829
Si Si4 0.524288 0.093892 0.155253
Si Si5 0.743009 0.404504 0.697992
Si Si6 0.188925 0.404973 0.927085
O O1 0.247560 0.250000 0.528069
O O2 0.397146 0.050576 0.324510
O O3 0.204349 0.041336 0.752855
O O4 0.211162 0.006963 0.484496
O O5 0.519015 0.750000 0.366644
O O6 0.690059 0.882794 0.198628
O O7 0.500000 0.000000 0.500000
O O8 0.587097 0.977441 0.144893
O O9 0.922215 0.250000 0.688669
O O10 0.794497 0.441788 0.764209
O O11 0.000000 0.500000 0.500000
O O12 0.873824 0.479657 0.890898
O O13 0.526194 0.250000 0.217034
O O14 0.606815 0.093148 0.904917
O O15 0.783746 0.250000 0.597311
O O16 0.130589 0.250000 0.018395
#
# Coordination Sequence:
#
# PCOD8072176 Si02
#       6
#     4   4   4   4   4   4
#     4  10  21  36  57  86 125 163 193 233 283 342
#     4  11  20  31  52  82 119 158 198 241 284 337
#     4  11  24  43  67  90 113 145 191 249 302 353
#     4  10  19  35  54  82 123 160 199 237 279 338
#     4  10  22  38  58  86 121 156 195 242 287 342
#     4  10  21  38  59  86 118 153 196 244 291 344
#
# _framework density 20.557054999999998
#
# number of rings (size 3 to 8) (size 9 to 14) (size 15 to 20)
#    0.000    1.667    3.333    1.500    0.000    4.000 
#    0.000    0.833    0.000    0.000    0.000    0.000 
#    0.000    0.000    0.000    0.000    0.000    0.000 
#
# Total GULP energy -297342.884010 kJ/mol
# GULP energy per Si atom -12389.286834 kJ/mol
# Density = 2.051027 g / cm^3
# Si number density = 20.557055 Si / 1000 Ang^3
#
#
#
# Elastic Constant Matrix: (Units=GPa)
#
#
# Indices 1 2 3 4 5 6 
#
# 1 51.8503 41.5342 31.4828 0.0000 27.2498 0.0000
# 2 41.5342 127.0539 66.5585 0.0000 25.8026 0.0000
# 3 31.4828 66.5585 108.9003 0.0000 16.1598 0.0000
# 4 0.0000 0.0000 0.0000 33.4251 0.0000 5.5026
# 5 27.2498 25.8026 16.1598 0.0000 32.9846 0.0000
# 6 0.0000 0.0000 0.0000 5.5026 0.0000 29.9112
#
#
#
# Elastic Compliance Matrix: (Units=1/GPa)
#
#
# Indices 1 2 3 4 5 6 
#
# 1 0.040550 -0.005472 -0.004360 0.000000 -0.027084 0.000000
# 2 -0.005472 0.013545 -0.006250 0.000000 -0.003014 0.000000
# 3 -0.004360 -0.006250 0.014022 0.000000 0.001621 0.000000
# 4 0.000000 0.000000 0.000000 0.030852 0.000000 -0.005676
# 5 -0.027084 -0.003014 0.001621 0.000000 0.054256 0.000000
# 6 0.000000 0.000000 0.000000 -0.005676 0.000000 0.034476
#
#
# Mechanical properties :
#
#
# Convention : Reuss Voigt Hill
#
# Bulk Modulus (GPa) = 27.81205 62.99505 45.40355
# Shear Modulus (GPa) = 21.56568 29.14611 25.35589
#
# Velocity S-wave (km/s) = 3.24244 3.76947 3.51585
# Velocity P-wave (km/s) = 5.25133 7.04669 6.21419
#
# Compressibility (1/GPa) = 0.03595564
#
# Stress axis : x y z
#
# Youngs Moduli (GPa) = 24.66068 73.82559 71.31488
#
# Poissons Ratio (x) = 0.40396 0.31091
# Poissons Ratio (y) = 0.13494 0.44570
# Poissons Ratio (z) = 0.10751 0.46139
#
# Static dielectric constant tensor:
#      x y z
#    x -4.284210 0.000000 -3.764940 
#    y 0.000000 3.691070 0.000000 
#    z -3.764940 0.000000 1.652120 
# 
# 
# High freq. dielectric constant tensor:
#      x y z
#    x 1.777480 0.000000 0.015860 
#    y 0.000000 1.814220 0.000000 
#    z 0.015860 0.000000 1.796640 
# 
# From -- ./inp_files/43885.got.cif
#   From: 2010.06.25/outbox.cif.g09.slc.cpg/sg11_22_cif.got.tgz:43885.got - 2010.06.27 23:14:04.
