data_PCOD8072568
_publ_section_title
;
Structure prediction by ZEFSAII (Michael W. Deem and Ramdas Pophale) SiO2 
 PCOD8072568
Probable space group: P 21/M
;
_chemical_formula_sum "Si O2"
_cell_formula_units_Z 32
_cell_length_a 12.741436
_cell_length_b 9.067938
_cell_length_c 31.505505
_cell_angle_alpha 90.000000
_cell_angle_beta 26.892472
_cell_angle_gamma 90.000000
_cell_volume 1646.481243
_symmetry_space_group_name_H-M "P 21/M"
_symmetry_group_IT_number 11
_symmetry_cell_setting 'monoclinic'
loop_
_space_group_symop_operation_xyz
x,y,z
-x,1/2+y,-z
-x,-y,-z
x,1/2-y,z
loop_
_atom_site_type_symbol
_atom_site_label
_atom_site_fract_x
_atom_site_fract_y
_atom_site_fract_z
Si Si1 0.093749 0.923219 0.207163
Si Si2 0.458298 0.920166 0.917587
Si Si3 0.144156 0.078373 0.412118
Si Si4 0.669825 0.424146 0.205684
Si Si5 0.608185 0.917431 0.142545
Si Si6 0.735691 0.920813 0.404645
Si Si7 0.074543 0.584625 0.355799
Si Si8 0.962599 0.419217 0.869428
O O1 0.150132 0.750000 0.190979
O O2 0.849125 0.961995 0.318284
O O3 0.068028 0.973141 0.167837
O O4 0.299997 0.008086 0.156106
O O5 0.501864 0.750000 0.890107
O O6 0.335800 0.998761 0.921474
O O7 0.285524 0.937685 0.019252
O O8 0.113455 0.250000 0.429491
O O9 0.414420 0.031445 0.314743
O O10 0.028985 0.029932 0.409650
O O11 0.000000 0.000000 0.500000
O O12 0.691049 0.250000 0.191303
O O13 0.725836 0.501639 0.140376
O O14 0.848633 0.477779 0.176511
O O15 0.703842 0.750000 0.105913
O O16 0.334359 0.920343 0.245790
O O17 0.681042 0.750000 0.426704
O O18 0.918700 0.970490 0.373741
O O19 0.500000 0.000000 0.500000
O O20 0.010406 0.750000 0.394138
O O21 0.048992 0.250000 0.840234
#
# Coordination Sequence:
#
# PCOD8072568 Si02
#       8
#     4   4   4   4   4   4   4   4
#     4  10  21  41  62  82 115 157 202 242 287 352
#     4  11  22  36  59  91 119 149 196 246 295 349
#     4  10  21  36  57  85 113 146 190 236 287 346
#     4  10  22  39  58  85 119 151 194 247 293 344
#     4  10  19  36  62  85 112 153 193 236 291 347
#     4  10  21  37  57  85 115 148 192 238 289 344
#     4   9  18  35  56  79 110 146 188 236 284 338
#     4  10  23  40  59  85 120 159 196 240 294 355
#
# _framework density 19.435386999999999
#
# number of rings (size 3 to 8) (size 9 to 14) (size 15 to 20)
#    0.000    2.000    1.250    1.875    0.000    6.000 
#    0.000    2.500    0.000    0.000    0.000    0.000 
#    0.000    0.000    0.000    0.000    0.000    0.000 
#
# Total GULP energy -396852.526977 kJ/mol
# GULP energy per Si atom -12401.641468 kJ/mol
# Density = 1.939115 g / cm^3
# Si number density = 19.435387 Si / 1000 Ang^3
#
#
#
# Elastic Constant Matrix: (Units=GPa)
#
#
# Indices 1 2 3 4 5 6 
#
# 1 105.4247 49.7725 42.6807 0.0000 14.0052 0.0000
# 2 49.7725 86.6355 39.9210 0.0000 6.5758 0.0000
# 3 42.6807 39.9210 79.8939 0.0000 19.0376 0.0000
# 4 0.0000 0.0000 0.0000 31.5907 0.0000 -0.5839
# 5 14.0052 6.5758 19.0376 0.0000 30.5537 0.0000
# 6 0.0000 0.0000 0.0000 -0.5839 0.0000 36.2755
#
#
#
# Elastic Compliance Matrix: (Units=1/GPa)
#
#
# Indices 1 2 3 4 5 6 
#
# 1 0.014390 -0.006263 -0.003884 0.000000 -0.002828 0.000000
# 2 -0.006263 0.017796 -0.006245 0.000000 0.002932 0.000000
# 3 -0.003884 -0.006245 0.019926 0.000000 -0.009291 0.000000
# 4 0.000000 0.000000 0.000000 0.031664 0.000000 0.000510
# 5 -0.002828 0.002932 -0.009291 0.000000 0.039184 0.000000
# 6 0.000000 0.000000 0.000000 0.000510 0.000000 0.027575
#
#
# Mechanical properties :
#
#
# Convention : Reuss Voigt Hill
#
# Bulk Modulus (GPa) = 51.73863 59.63361 55.68612
# Shear Modulus (GPa) = 26.34869 28.98928 27.66898
#
# Velocity S-wave (km/s) = 3.68599 3.86628 3.77721
# Velocity P-wave (km/s) = 6.69283 7.11902 6.90921
#
# Compressibility (1/GPa) = 0.01932792
#
# Stress axis : x y z
#
# Youngs Moduli (GPa) = 69.49033 56.19304 50.18540
#
# Poissons Ratio (x) = 0.35193 0.19494
# Poissons Ratio (y) = 0.43521 0.31341
# Poissons Ratio (z) = 0.26992 0.35093
#
# Static dielectric constant tensor:
#      x y z
#    x 3.735150 0.000000 0.118850 
#    y 0.000000 3.603920 0.000000 
#    z 0.118850 0.000000 3.447280 
# 
# 
# High freq. dielectric constant tensor:
#      x y z
#    x 1.762540 0.000000 0.008830 
#    y 0.000000 1.758930 0.000000 
#    z 0.008830 0.000000 1.755780 
# 
# From -- ./inp_files/45273.got.cif
#   From: 2010.06.25/outbox.cif.g09.slc.cpg/sg11_23_cif.got.tgz:45273.got - 2010.06.27 23:14:04.
