data_PCOD8072216
_publ_section_title
;
Structure prediction by ZEFSAII (Michael W. Deem and Ramdas Pophale) SiO2 
 PCOD8072216
Probable space group: P 21/M
;
_chemical_formula_sum "Si O2"
_cell_formula_units_Z 28
_cell_length_a 15.470141
_cell_length_b 19.566205
_cell_length_c 7.647865
_cell_angle_alpha 90.000000
_cell_angle_beta 36.328388
_cell_angle_gamma 90.000000
_cell_volume 1371.403444
_symmetry_space_group_name_H-M "P 21/M"
_symmetry_group_IT_number 11
_symmetry_cell_setting 'monoclinic'
loop_
_space_group_symop_operation_xyz
x,y,z
-x,1/2+y,-z
-x,-y,-z
x,1/2-y,z
loop_
_atom_site_type_symbol
_atom_site_label
_atom_site_fract_x
_atom_site_fract_y
_atom_site_fract_z
Si Si1 0.575753 0.673676 0.693392
Si Si2 0.886687 0.883051 0.206776
Si Si3 0.267535 0.499690 0.359190
Si Si4 0.605628 0.168696 0.346274
Si Si5 0.090431 0.591821 0.174612
Si Si6 0.010040 0.438430 0.306208
Si Si7 0.492991 0.591119 0.154712
O O1 0.527960 0.750000 0.809705
O O2 0.751052 0.668886 0.426295
O O3 0.516397 0.651486 0.600342
O O4 0.493366 0.629630 0.970353
O O5 0.835956 0.957755 0.344128
O O6 0.015282 0.866288 0.136168
O O7 0.948071 0.884322 0.910349
O O8 0.164722 0.548510 0.414690
O O9 0.362074 0.538103 0.350856
O O10 0.357197 0.452481 0.075452
O O11 0.637214 0.250000 0.309312
O O12 0.531815 0.142065 0.644999
O O13 0.752073 0.127151 0.059866
O O14 0.979339 0.599365 0.522489
O O15 0.103070 0.508825 0.132089
#
# Coordination Sequence:
#
# PCOD8072216 Si02
#       7
#     4   4   4   4   4   4   4
#     4  10  23  39  54  78 110 146 189 229 268 324
#     4  10  20  36  56  79 111 143 177 223 272 328
#     4   9  18  33  57  88 113 139 181 225 279 342
#     4  11  23  38  57  81 110 148 191 230 271 324
#     4  10  21  35  56  83 108 140 184 221 270 332
#     4  10  19  35  56  81 114 143 170 227 284 321
#     4  10  19  36  58  81 112 146 180 228 280 328
#
# _framework density 20.417041999999999
#
# number of rings (size 3 to 8) (size 9 to 14) (size 15 to 20)
#    0.000    2.000    0.000    4.714    0.000    5.143 
#    0.000    8.571    0.000    0.000    0.000    0.000 
#    0.000    0.000    0.000    0.000    0.000    0.000 
#
# Total GULP energy -346959.848141 kJ/mol
# GULP energy per Si atom -12391.423148 kJ/mol
# Density = 2.037057 g / cm^3
# Si number density = 20.417042 Si / 1000 Ang^3
#
#
#
# Elastic Constant Matrix: (Units=GPa)
#
#
# Indices 1 2 3 4 5 6 
#
# 1 75.6638 20.9946 18.5927 0.0000 3.5238 0.0000
# 2 20.9946 46.9393 24.4812 0.0000 1.4629 0.0000
# 3 18.5927 24.4812 69.0407 0.0000 4.6621 0.0000
# 4 0.0000 0.0000 0.0000 22.7664 0.0000 2.5966
# 5 3.5238 1.4629 4.6621 0.0000 38.5842 0.0000
# 6 0.0000 0.0000 0.0000 2.5966 0.0000 23.1633
#
#
#
# Elastic Compliance Matrix: (Units=1/GPa)
#
#
# Indices 1 2 3 4 5 6 
#
# 1 0.015363 -0.005788 -0.002021 0.000000 -0.000939 0.000000
# 2 -0.005788 0.028319 -0.008516 0.000000 0.000484 0.000000
# 3 -0.002021 -0.008516 0.018162 0.000000 -0.001687 0.000000
# 4 0.000000 0.000000 0.000000 0.044493 0.000000 -0.004988
# 5 -0.000939 0.000484 -0.001687 0.000000 0.026189 0.000000
# 6 0.000000 0.000000 0.000000 -0.004988 0.000000 0.043731
#
#
# Mechanical properties :
#
#
# Convention : Reuss Voigt Hill
#
# Bulk Modulus (GPa) = 34.25352 35.53119 34.89236
# Shear Modulus (GPa) = 22.86886 25.40781 24.13834
#
# Velocity S-wave (km/s) = 3.35040 3.53149 3.44214
# Velocity P-wave (km/s) = 5.63740 5.83687 5.73800
#
# Compressibility (1/GPa) = 0.02919408
#
# Stress axis : x y z
#
# Youngs Moduli (GPa) = 65.09241 35.31190 55.05964
#
# Poissons Ratio (x) = 0.20438 0.11130
# Poissons Ratio (y) = 0.37674 0.46887
# Poissons Ratio (z) = 0.13158 0.30071
#
# Static dielectric constant tensor:
#      x y z
#    x 4.062770 0.000000 -0.018380 
#    y 0.000000 3.521270 0.000000 
#    z -0.018380 0.000000 3.622880 
# 
# 
# High freq. dielectric constant tensor:
#      x y z
#    x 1.810860 0.000000 -0.000040 
#    y 0.000000 1.768250 0.000000 
#    z -0.000040 0.000000 1.799710 
# 
# From -- ./inp_files/25253.got.cif
#   From: 2010.06.25/outbox.cif.g09.slc.cpg/sg11_13_cif.got.tgz:25253.got - 2010.06.27 23:14:04.
