data_PCOD8072005
_publ_section_title
;
Structure prediction by ZEFSAII (Michael W. Deem and Ramdas Pophale) SiO2 
 PCOD8072005
Probable space group: P 21/M
;
_chemical_formula_sum "Si O2"
_cell_formula_units_Z 28
_cell_length_a 26.910482
_cell_length_b 9.698113
_cell_length_c 8.068833
_cell_angle_alpha 90.000000
_cell_angle_beta 138.911025
_cell_angle_gamma 90.000000
_cell_volume 1384.002821
_symmetry_space_group_name_H-M "P 21/M"
_symmetry_group_IT_number 11
_symmetry_cell_setting 'monoclinic'
loop_
_space_group_symop_operation_xyz
x,y,z
-x,1/2+y,-z
-x,-y,-z
x,1/2-y,z
loop_
_atom_site_type_symbol
_atom_site_label
_atom_site_fract_x
_atom_site_fract_y
_atom_site_fract_z
Si Si1 0.069582 0.098915 0.818533
Si Si2 0.921072 0.098107 0.635185
Si Si3 0.574842 0.911934 0.703238
Si Si4 0.827059 0.095183 0.098442
Si Si5 0.836653 0.599693 0.637875
Si Si6 0.328698 0.087475 0.740032
Si Si7 0.682150 0.589057 0.661208
O O1 0.055221 0.250000 0.697531
O O2 0.994273 0.047033 0.719953
O O3 0.094240 0.976460 0.759581
O O4 0.142187 0.118310 0.118557
O O5 0.938410 0.250000 0.752394
O O6 0.842835 0.104627 0.333574
O O7 0.904628 0.991197 0.738080
O O8 0.555590 0.750000 0.666673
O O9 0.623196 0.942994 0.659577
O O10 0.500000 0.000000 0.500000
O O11 0.614248 0.964734 0.973616
O O12 0.817627 0.250000 0.999268
O O13 0.754593 0.004146 0.877527
O O14 0.834824 0.750000 0.543908
O O15 0.754367 0.526669 0.425853
O O16 0.321703 0.250000 0.736701
O O17 0.352287 0.049572 0.608379
O O18 0.705626 0.750000 0.724299
#
# Coordination Sequence:
#
# PCOD8072005 Si02
#       7
#     4   4   4   4   4   4   4
#     4  10  20  36  55  75 106 149 194 237 284 344
#     4  10  22  35  49  76 113 149 187 240 297 341
#     4  10  22  39  62  90 119 150 183 225 280 340
#     4  11  22  35  53  81 114 146 187 240 291 337
#     4  10  19  34  57  80 103 142 195 240 280 334
#     4   9  18  36  60  86 113 146 193 236 272 336
#     4  10  20  39  64  84 112 155 193 231 282 337
#
# _framework density 20.231173999999999
#
# number of rings (size 3 to 8) (size 9 to 14) (size 15 to 20)
#    0.000    2.000    1.429    2.143    0.000    4.571 
#    0.000    1.429    0.000    0.000    0.000    0.000 
#    0.000    0.000    0.000    0.000    0.000    0.000 
#
# Total GULP energy -346896.807789 kJ/mol
# GULP energy per Si atom -12389.171707 kJ/mol
# Density = 2.018513 g / cm^3
# Si number density = 20.231174 Si / 1000 Ang^3
#
#
#
# Elastic Constant Matrix: (Units=GPa)
#
#
# Indices 1 2 3 4 5 6 
#
# 1 103.3275 51.4010 35.1916 0.0000 0.3822 0.0000
# 2 51.4010 83.5893 27.1412 0.0000 4.2534 0.0000
# 3 35.1916 27.1412 109.2855 0.0000 0.4443 0.0000
# 4 0.0000 0.0000 0.0000 26.4900 0.0000 8.9167
# 5 0.3822 4.2534 0.4443 0.0000 23.7683 0.0000
# 6 0.0000 0.0000 0.0000 8.9167 0.0000 26.7902
#
#
#
# Elastic Compliance Matrix: (Units=1/GPa)
#
#
# Indices 1 2 3 4 5 6 
#
# 1 0.014677 -0.008217 -0.002691 0.000000 0.001285 0.000000
# 2 -0.008217 0.017736 -0.001747 0.000000 -0.003009 0.000000
# 3 -0.002691 -0.001747 0.010450 0.000000 0.000160 0.000000
# 4 0.000000 0.000000 0.000000 0.042513 0.000000 -0.014150
# 5 0.001285 -0.003009 0.000160 0.000000 0.042588 0.000000
# 6 0.000000 0.000000 0.000000 -0.014150 0.000000 0.042037
#
#
# Mechanical properties :
#
#
# Convention : Reuss Voigt Hill
#
# Bulk Modulus (GPa) = 56.96502 58.18554 57.57528
# Shear Modulus (GPa) = 24.85568 27.57428 26.21498
#
# Velocity S-wave (km/s) = 3.50892 3.69583 3.60359
# Velocity P-wave (km/s) = 6.68093 6.85821 6.77015
#
# Compressibility (1/GPa) = 0.01755463
#
# Stress axis : x y z
#
# Youngs Moduli (GPa) = 68.13237 56.38138 95.69431
#
# Poissons Ratio (x) = 0.46329 0.25750
# Poissons Ratio (y) = 0.55985 0.16714
# Poissons Ratio (z) = 0.18333 0.09847
#
# Static dielectric constant tensor:
#      x y z
#    x 3.628360 0.000000 -0.196500 
#    y 0.000000 3.719290 0.000000 
#    z -0.196500 0.000000 3.764180 
# 
# 
# High freq. dielectric constant tensor:
#      x y z
#    x 1.779590 0.000000 -0.004940 
#    y 0.000000 1.774610 0.000000 
#    z -0.004940 0.000000 1.791910 
# 
# From -- ./inp_files/28581.got.cif
#   From: 2010.06.25/outbox.cif.g09.slc.cpg/sg11_15_cif.got.tgz:28581.got - 2010.06.27 23:14:04.
