data_PCOD8072269
_publ_section_title
;
Structure prediction by ZEFSAII (Michael W. Deem and Ramdas Pophale) SiO2 
 PCOD8072269
Probable space group: P 21/M
;
_chemical_formula_sum "Si O2"
_cell_formula_units_Z 32
_cell_length_a 15.939794
_cell_length_b 14.056555
_cell_length_c 12.737057
_cell_angle_alpha 90.000000
_cell_angle_beta 143.578321
_cell_angle_gamma 90.000000
_cell_volume 1694.395747
_symmetry_space_group_name_H-M "P 21/M"
_symmetry_group_IT_number 11
_symmetry_cell_setting 'monoclinic'
loop_
_space_group_symop_operation_xyz
x,y,z
-x,1/2+y,-z
-x,-y,-z
x,1/2-y,z
loop_
_atom_site_type_symbol
_atom_site_label
_atom_site_fract_x
_atom_site_fract_y
_atom_site_fract_z
Si Si1 0.174064 0.644565 0.525861
Si Si2 0.157894 0.484179 0.198477
Si Si3 0.655429 0.141979 0.506393
Si Si4 0.795219 0.638411 0.553208
Si Si5 0.595514 0.976707 0.693944
Si Si6 0.529989 0.141223 0.777805
Si Si7 0.005447 0.475077 0.383925
Si Si8 0.753111 0.357788 0.166706
O O1 0.108874 0.750000 0.462895
O O2 0.297168 0.634863 0.566010
O O3 0.043256 0.574602 0.364353
O O4 0.246391 0.616619 0.709638
O O5 0.236494 0.581202 0.313197
O O6 0.147684 0.409579 0.283165
O O7 0.250475 0.443195 0.193318
O O8 0.000000 0.500000 0.000000
O O9 0.661003 0.250000 0.554032
O O10 0.491837 0.107394 0.337091
O O11 0.820094 0.750000 0.587250
O O12 0.631950 0.610666 0.376077
O O13 0.873629 0.599974 0.528170
O O14 0.500000 0.000000 0.500000
O O15 0.611075 0.071247 0.780300
O O16 0.544931 0.250000 0.751603
O O17 0.597178 0.130829 0.961609
O O18 0.000000 0.500000 0.500000
O O19 0.855167 0.428810 0.203204
O O20 0.808458 0.250000 0.206307
#
# Coordination Sequence:
#
# PCOD8072269 Si02
#       8
#     4   4   4   4   4   4   4   4
#     4   9  17  33  58  84 115 155 196 236 287 351
#     4  11  24  40  60  86 119 152 196 250 301 355
#     4  10  20  38  62  81 112 158 198 233 290 359
#     4  11  22  39  61  87 119 154 193 242 300 352
#     4  10  20  37  55  82 113 150 196 238 288 345
#     4  10  20  36  60  87 119 152 192 246 295 347
#     4  10  19  35  57  83 117 154 188 234 288 348
#     4   9  19  33  56  90 117 149 197 240 286 348
#
# _framework density 18.885788000000002
#
# number of rings (size 3 to 8) (size 9 to 14) (size 15 to 20)
#    0.000    2.000    3.750    0.375    1.750    3.500 
#    0.000    5.625    0.000    0.750    0.000    0.000 
#    0.000    0.000    0.000    0.000    0.000    0.000 
#
# Total GULP energy -396535.671741 kJ/mol
# GULP energy per Si atom -12391.739742 kJ/mol
# Density = 1.884280 g / cm^3
# Si number density = 18.885788 Si / 1000 Ang^3
#
#
#
# Elastic Constant Matrix: (Units=GPa)
#
#
# Indices 1 2 3 4 5 6 
#
# 1 123.1616 53.3953 45.7527 0.0000 13.4688 0.0000
# 2 53.3953 110.8190 41.5776 0.0000 1.8750 0.0000
# 3 45.7527 41.5776 104.2849 0.0000 13.5304 0.0000
# 4 0.0000 0.0000 0.0000 25.4799 0.0000 -1.2817
# 5 13.4688 1.8750 13.5304 0.0000 25.1624 0.0000
# 6 0.0000 0.0000 0.0000 -1.2817 0.0000 28.4727
#
#
#
# Elastic Compliance Matrix: (Units=1/GPa)
#
#
# Indices 1 2 3 4 5 6 
#
# 1 0.011545 -0.004471 -0.002714 0.000000 -0.004388 0.000000
# 2 -0.004471 0.012402 -0.003412 0.000000 0.003303 0.000000
# 3 -0.002714 -0.003412 0.012812 0.000000 -0.005183 0.000000
# 4 0.000000 0.000000 0.000000 0.039336 0.000000 0.001771
# 5 -0.004388 0.003303 -0.005183 0.000000 0.044631 0.000000
# 6 0.000000 0.000000 0.000000 0.001771 0.000000 0.035201
#
#
# Mechanical properties :
#
#
# Convention : Reuss Voigt Hill
#
# Bulk Modulus (GPa) = 64.23542 68.85741 66.54642
# Shear Modulus (GPa) = 27.42598 28.99233 28.20916
#
# Velocity S-wave (km/s) = 3.81491 3.92234 3.86900
# Velocity P-wave (km/s) = 7.31376 7.55328 7.43449
#
# Compressibility (1/GPa) = 0.01556773
#
# Stress axis : x y z
#
# Youngs Moduli (GPa) = 86.61400 80.63282 78.04956
#
# Poissons Ratio (x) = 0.36047 0.21180
# Poissons Ratio (y) = 0.38721 0.26629
# Poissons Ratio (z) = 0.23504 0.27510
#
# Static dielectric constant tensor:
#      x y z
#    x 4.134310 0.000000 0.310160 
#    y 0.000000 3.658690 0.000000 
#    z 0.310160 0.000000 3.217910 
# 
# 
# High freq. dielectric constant tensor:
#      x y z
#    x 1.745930 0.000000 0.000620 
#    y 0.000000 1.740080 0.000000 
#    z 0.000620 0.000000 1.705380 
# 
# From -- ./inp_files/39669.got.cif
#   From: 2010.06.25/outbox.cif.g09.slc.cpg/sg11_20_cif.got.tgz:39669.got - 2010.06.27 23:14:04.
