data_PCOD8072579
_publ_section_title
;
Structure prediction by ZEFSAII (Michael W. Deem and Ramdas Pophale) SiO2 
 PCOD8072579
Probable space group: P 21/M
;
_chemical_formula_sum "Si O2"
_cell_formula_units_Z 26
_cell_length_a 10.369759
_cell_length_b 7.889046
_cell_length_c 17.739368
_cell_angle_alpha 90.000000
_cell_angle_beta 74.639609
_cell_angle_gamma 90.000000
_cell_volume 1399.374298
_symmetry_space_group_name_H-M "P 21/M"
_symmetry_group_IT_number 11
_symmetry_cell_setting 'monoclinic'
loop_
_space_group_symop_operation_xyz
x,y,z
-x,1/2+y,-z
-x,-y,-z
x,1/2-y,z
loop_
_atom_site_type_symbol
_atom_site_label
_atom_site_fract_x
_atom_site_fract_y
_atom_site_fract_z
Si Si1 0.866814 0.050714 0.563669
Si Si2 0.769794 0.556254 0.731164
Si Si3 0.657967 0.250000 0.166897
Si Si4 0.053638 0.750000 0.910187
Si Si5 0.818230 0.936397 0.891353
Si Si6 0.751650 0.250000 0.994326
Si Si7 0.510272 0.558336 0.265457
Si Si8 0.418692 0.552451 0.439692
O O1 0.857189 0.250000 0.569872
O O2 0.732633 0.975362 0.542980
O O3 0.875017 0.979138 0.647720
O O4 0.000000 0.000000 0.500000
O O5 0.721282 0.750000 0.735321
O O6 0.837568 0.513851 0.800786
O O7 0.640540 0.437989 0.742228
O O8 0.815171 0.250000 0.163628
O O9 0.597792 0.423680 0.207059
O O10 0.640367 0.250000 0.078020
O O11 0.966229 0.918195 0.905108
O O12 0.100183 0.750000 0.990402
O O13 0.745459 0.750000 0.909434
O O14 0.733876 0.081192 0.946723
O O15 0.568355 0.750000 0.247191
O O16 0.506334 0.499602 0.353458
O O17 0.500000 0.500000 0.500000
O O18 0.399147 0.750000 0.443523
#
# Coordination Sequence:
#
# PCOD8072579 Si02
#       8
#     4   4   2   2   4   2   4   4
#     4  10  21  37  55  86 118 151 194 245 289 336
#     4  10  19  36  63  81 112 151 192 230 292 343
#     4  10  22  37  57  86 110 155 188 229 294 336
#     4   8  20  39  55  86 117 140 195 227 290 343
#     4   9  20  36  58  87 108 148 191 236 279 350
#     4  10  20  36  62  82 111 151 193 230 296 339
#     4  10  21  39  58  81 116 152 192 232 282 344
#     4   9  20  36  58  84 108 154 197 231 286 351
#
# _framework density 18.579732
#
# number of rings (size 3 to 8) (size 9 to 14) (size 15 to 20)
#    0.923    1.538    0.769    2.308    3.231    1.846 
#    4.154    0.769    0.000    0.000    0.000    0.000 
#    0.000    0.000    0.000    0.000    0.000    0.000 
#
# Total GULP energy -322119.159327 kJ/mol
# GULP energy per Si atom -12389.198436 kJ/mol
# Density = 1.853744 g / cm^3
# Si number density = 18.579732 Si / 1000 Ang^3
#
#
#
# Elastic Constant Matrix: (Units=GPa)
#
#
# Indices 1 2 3 4 5 6 
#
# 1 44.2648 30.7759 45.6472 0.0000 -7.4035 0.0000
# 2 30.7759 97.1494 67.0559 0.0000 -12.8938 0.0000
# 3 45.6472 67.0559 149.6967 0.0000 -0.5560 0.0000
# 4 0.0000 0.0000 0.0000 34.6341 0.0000 -2.6346
# 5 -7.4035 -12.8938 -0.5560 0.0000 36.2491 0.0000
# 6 0.0000 0.0000 0.0000 -2.6346 0.0000 23.8843
#
#
#
# Elastic Compliance Matrix: (Units=1/GPa)
#
#
# Indices 1 2 3 4 5 6 
#
# 1 0.035803 -0.004457 -0.008900 0.000000 0.005591 0.000000
# 2 -0.004457 0.016503 -0.006016 0.000000 0.004868 0.000000
# 3 -0.008900 -0.006016 0.012075 0.000000 -0.003772 0.000000
# 4 0.000000 0.000000 0.000000 0.029118 0.000000 0.003212
# 5 0.005591 0.004868 -0.003772 0.000000 0.030402 0.000000
# 6 0.000000 0.000000 0.000000 0.003212 0.000000 0.042223
#
#
# Mechanical properties :
#
#
# Convention : Reuss Voigt Hill
#
# Bulk Modulus (GPa) = 39.00731 64.22988 51.61859
# Shear Modulus (GPa) = 23.42847 28.79563 26.11205
#
# Velocity S-wave (km/s) = 3.55487 3.94107 3.75294
# Velocity P-wave (km/s) = 6.15545 7.44005 6.82803
#
# Compressibility (1/GPa) = 0.02563622
#
# Stress axis : x y z
#
# Youngs Moduli (GPa) = 27.93023 60.59325 82.81686
#
# Poissons Ratio (x) = 0.27005 0.73711
# Poissons Ratio (y) = 0.12448 0.49819
# Poissons Ratio (z) = 0.24859 0.36450
#
# Static dielectric constant tensor:
#      x y z
#    x 3.072260 0.000000 0.055420 
#    y 0.000000 3.455310 0.000000 
#    z 0.055420 0.000000 2.539010 
# 
# 
# High freq. dielectric constant tensor:
#      x y z
#    x 1.692190 0.000000 0.009430 
#    y 0.000000 1.725940 0.000000 
#    z 0.009430 0.000000 1.723160 
# 
# From -- ./inp_files/48753.got.cif
#   From: 2010.06.25/outbox.cif.g09.slc.cpg/sg11_25_cif.got.tgz:48753.got - 2010.06.27 23:14:04.
