data_PCOD8072607
_publ_section_title
;
Structure prediction by ZEFSAII (Michael W. Deem and Ramdas Pophale) SiO2 
 PCOD8072607
Probable space group: P 21/M
;
_chemical_formula_sum "Si O2"
_cell_formula_units_Z 32
_cell_length_a 15.236761
_cell_length_b 8.842004
_cell_length_c 12.130024
_cell_angle_alpha 90.000000
_cell_angle_beta 87.850280
_cell_angle_gamma 90.000000
_cell_volume 1633.049191
_symmetry_space_group_name_H-M "P 21/M"
_symmetry_group_IT_number 11
_symmetry_cell_setting 'monoclinic'
loop_
_space_group_symop_operation_xyz
x,y,z
-x,1/2+y,-z
-x,-y,-z
x,1/2-y,z
loop_
_atom_site_type_symbol
_atom_site_label
_atom_site_fract_x
_atom_site_fract_y
_atom_site_fract_z
Si Si1 0.064028 0.570989 0.907017
Si Si2 0.036724 0.426471 0.671774
Si Si3 0.128871 0.574156 0.468130
Si Si4 0.265037 0.575291 0.918909
Si Si5 0.449293 0.428590 0.293067
Si Si6 0.354773 0.926668 0.685051
Si Si7 0.587243 0.928001 0.946985
Si Si8 0.304421 0.428531 0.465645
O O1 0.051862 0.750000 0.906321
O O2 0.040317 0.509429 0.787958
O O3 0.163634 0.526658 0.934555
O O4 0.000000 0.500000 0.000000
O O5 0.054703 0.250000 0.688795
O O6 0.108579 0.491364 0.584407
O O7 0.941845 0.457984 0.623151
O O8 0.137373 0.750000 0.494870
O O9 0.219234 0.507288 0.416681
O O10 0.278931 0.750000 0.948140
O O11 0.295790 0.542154 0.793895
O O12 0.323292 0.479075 0.999747
O O13 0.455892 0.250000 0.297018
O O14 0.547687 0.492805 0.299452
O O15 0.406337 0.480044 0.180211
O O16 0.389099 0.489845 0.395156
O O17 0.355525 0.750000 0.653184
O O18 0.311431 0.023456 0.591360
O O19 0.577133 0.750000 0.959565
O O20 0.500000 0.000000 0.000000
O O21 0.294503 0.250000 0.454653
#
# Coordination Sequence:
#
# PCOD8072607 Si02
#       8
#     4   4   4   4   4   4   4   4
#     4  11  24  41  62  89 125 164 203 249 306 363
#     4  10  21  39  64  90 116 148 198 252 297 355
#     4  10  21  38  60  87 118 155 192 237 301 363
#     4  10  22  40  62  87 115 154 199 245 298 353
#     4   9  20  37  56  80 115 154 189 237 297 346
#     4  10  19  37  60  80 114 154 191 242 299 351
#     4  11  21  38  62  87 116 152 196 245 295 351
#     4  11  22  35  54  85 119 151 195 241 286 351
#
# _framework density 19.595247000000001
#
# number of rings (size 3 to 8) (size 9 to 14) (size 15 to 20)
#    0.000    1.750    1.250    3.000    0.000    5.000 
#    0.000    5.625    0.000    0.000    0.000    0.000 
#    0.000    0.000    0.000    0.000    0.000    0.000 
#
# Total GULP energy -396894.249379 kJ/mol
# GULP energy per Si atom -12402.945293 kJ/mol
# Density = 1.955065 g / cm^3
# Si number density = 19.595247 Si / 1000 Ang^3
#
#
#
# Elastic Constant Matrix: (Units=GPa)
#
#
# Indices 1 2 3 4 5 6 
#
# 1 148.9873 53.8652 52.6776 0.0000 -6.5074 0.0000
# 2 53.8652 73.4075 38.9602 0.0000 7.0542 0.0000
# 3 52.6776 38.9602 82.1328 0.0000 10.5318 0.0000
# 4 0.0000 0.0000 0.0000 31.5509 0.0000 2.5031
# 5 -6.5074 7.0542 10.5318 0.0000 28.4246 0.0000
# 6 0.0000 0.0000 0.0000 2.5031 0.0000 35.3904
#
#
#
# Elastic Compliance Matrix: (Units=1/GPa)
#
#
# Indices 1 2 3 4 5 6 
#
# 1 0.010823 -0.005906 -0.004877 0.000000 0.005750 0.000000
# 2 -0.005906 0.021481 -0.005821 0.000000 -0.004526 0.000000
# 3 -0.004877 -0.005821 0.018922 0.000000 -0.006683 0.000000
# 4 0.000000 0.000000 0.000000 0.031874 0.000000 -0.002254
# 5 0.005750 -0.004526 -0.006683 0.000000 0.040097 0.000000
# 6 0.000000 0.000000 0.000000 -0.002254 0.000000 0.028416
#
#
# Mechanical properties :
#
#
# Convention : Reuss Voigt Hill
#
# Bulk Modulus (GPa) = 55.50474 66.17041 60.83757
# Shear Modulus (GPa) = 26.20192 29.67482 27.93837
#
# Velocity S-wave (km/s) = 3.66068 3.89574 3.78004
# Velocity P-wave (km/s) = 6.80107 7.35375 7.08280
#
# Compressibility (1/GPa) = 0.01801648
#
# Stress axis : x y z
#
# Youngs Moduli (GPa) = 92.39777 46.55371 52.84846
#
# Poissons Ratio (x) = 0.27492 0.25777
# Poissons Ratio (y) = 0.54566 0.30766
# Poissons Ratio (z) = 0.45067 0.27101
#
# Static dielectric constant tensor:
#      x y z
#    x 3.845220 0.000000 -0.041740 
#    y 0.000000 3.498630 0.000000 
#    z -0.041740 0.000000 3.660430 
# 
# 
# High freq. dielectric constant tensor:
#      x y z
#    x 1.778460 0.000000 0.003430 
#    y 0.000000 1.758250 0.000000 
#    z 0.003430 0.000000 1.765450 
# 
# From -- ./inp_files/38091.got.cif
#   From: 2010.06.25/outbox.cif.g09.slc.cpg/sg11_20_cif.got.tgz:38091.got - 2010.06.27 23:14:04.
