data_PCOD8072195
_publ_section_title
;
Structure prediction by ZEFSAII (Michael W. Deem and Ramdas Pophale) SiO2 
 PCOD8072195
Probable space group: P 21/M
;
_chemical_formula_sum "Si O2"
_cell_formula_units_Z 28
_cell_length_a 27.838900
_cell_length_b 9.026552
_cell_length_c 9.790257
_cell_angle_alpha 90.000000
_cell_angle_beta 38.680896
_cell_angle_gamma 90.000000
_cell_volume 1537.573348
_symmetry_space_group_name_H-M "P 21/M"
_symmetry_group_IT_number 11
_symmetry_cell_setting 'monoclinic'
loop_
_space_group_symop_operation_xyz
x,y,z
-x,1/2+y,-z
-x,-y,-z
x,1/2-y,z
loop_
_atom_site_type_symbol
_atom_site_label
_atom_site_fract_x
_atom_site_fract_y
_atom_site_fract_z
Si Si1 0.162654 0.573949 0.277642
Si Si2 0.441630 0.079519 0.229385
Si Si3 0.154546 0.922442 0.985994
Si Si4 0.013104 0.423513 0.614263
Si Si5 0.698959 0.074132 0.840429
Si Si6 0.712534 0.426842 0.502390
Si Si7 0.534174 0.418960 0.295762
O O1 0.153068 0.750000 0.305860
O O2 0.087402 0.501044 0.517615
O O3 0.236844 0.517995 0.195914
O O4 0.169045 0.514279 0.107216
O O5 0.432828 0.250000 0.204035
O O6 0.472954 0.065968 0.311955
O O7 0.360800 0.997270 0.406969
O O8 0.500000 0.000000 0.000000
O O9 0.171126 0.750000 0.960489
O O10 0.213482 0.989035 0.744473
O O11 0.067151 0.951256 0.126245
O O12 0.028809 0.250000 0.560591
O O13 0.000000 0.500000 0.500000
O O14 0.695626 0.250000 0.845337
O O15 0.719108 0.016854 0.643780
O O16 0.616066 0.010100 0.069430
O O17 0.705085 0.250000 0.512678
O O18 0.500000 0.500000 0.500000
O O19 0.548034 0.250000 0.306709
#
# Coordination Sequence:
#
# PCOD8072195 Si02
#       7
#     4   4   4   4   4   4   4
#     4   9  17  31  51  75 101 135 174 211 255 309
#     4  11  22  38  57  79 107 140 181 220 263 316
#     4   8  16  29  51  76  97 130 174 208 249 311
#     4   9  16  30  50  75 103 132 170 212 255 308
#     4   9  18  34  53  74 104 136 173 212 255 314
#     4  10  19  35  56  77 103 139 177 217 262 311
#     4  10  22  38  55  79 107 138 177 221 264 316
#
# _framework density 18.210512000000001
#
# number of rings (size 3 to 8) (size 9 to 14) (size 15 to 20)
#    0.000    2.571    1.429    1.714    2.000    1.143 
#    0.000    5.714    0.000    0.000    0.000    0.000 
#    0.000    0.000    0.000    0.000    0.000    0.000 
#
# Total GULP energy -347050.009633 kJ/mol
# GULP energy per Si atom -12394.643201 kJ/mol
# Density = 1.816906 g / cm^3
# Si number density = 18.210512 Si / 1000 Ang^3
#
#
#
# Elastic Constant Matrix: (Units=GPa)
#
#
# Indices 1 2 3 4 5 6 
#
# 1 109.1857 25.4996 71.7208 0.0000 -13.3468 0.0000
# 2 25.4996 47.4957 38.1945 0.0000 -1.4279 0.0000
# 3 71.7208 38.1945 169.2203 0.0000 -14.7797 0.0000
# 4 0.0000 0.0000 0.0000 25.9633 0.0000 -5.6116
# 5 -13.3468 -1.4279 -14.7797 0.0000 28.9670 0.0000
# 6 0.0000 0.0000 0.0000 -5.6116 0.0000 26.1278
#
#
#
# Elastic Compliance Matrix: (Units=1/GPa)
#
#
# Indices 1 2 3 4 5 6 
#
# 1 0.013423 -0.003395 -0.004602 0.000000 0.003669 0.000000
# 2 -0.003395 0.026670 -0.004817 0.000000 -0.002708 0.000000
# 3 -0.004602 -0.004817 0.009149 0.000000 0.002310 0.000000
# 4 0.000000 0.000000 0.000000 0.040391 0.000000 0.008675
# 5 0.003669 -0.002708 0.002310 0.000000 0.037258 0.000000
# 6 0.000000 0.000000 0.000000 0.008675 0.000000 0.040137
#
#
# Mechanical properties :
#
#
# Convention : Reuss Voigt Hill
#
# Bulk Modulus (GPa) = 42.35016 66.30349 54.32683
# Shear Modulus (GPa) = 24.93419 28.91075 26.92247
#
# Velocity S-wave (km/s) = 3.70431 3.98877 3.84917
# Velocity P-wave (km/s) = 6.44998 7.59620 7.04644
#
# Compressibility (1/GPa) = 0.02361266
#
# Stress axis : x y z
#
# Youngs Moduli (GPa) = 74.49677 37.49569 109.30037
#
# Poissons Ratio (x) = 0.12731 0.50304
# Poissons Ratio (y) = 0.25294 0.52650
# Poissons Ratio (z) = 0.34286 0.18062
#
# Static dielectric constant tensor:
#      x y z
#    x 3.275800 0.000000 -0.125000 
#    y 0.000000 3.180940 0.000000 
#    z -0.125000 0.000000 3.695360 
# 
# 
# High freq. dielectric constant tensor:
#      x y z
#    x 1.702010 0.000000 -0.017190 
#    y 0.000000 1.676950 0.000000 
#    z -0.017190 0.000000 1.712020 
# 
# From -- ./inp_files/28022.got.cif
#   From: 2010.06.25/outbox.cif.g09.slc.cpg/sg11_15_cif.got.tgz:28022.got - 2010.06.27 23:14:04.
