data_PCOD8072560
_publ_section_title
;
Structure prediction by ZEFSAII (Michael W. Deem and Ramdas Pophale) SiO2 
 PCOD8072560
Probable space group: P 21/M
;
_chemical_formula_sum "Si O2"
_cell_formula_units_Z 28
_cell_length_a 20.799631
_cell_length_b 9.041362
_cell_length_c 15.772728
_cell_angle_alpha 90.000000
_cell_angle_beta 152.098192
_cell_angle_gamma 90.000000
_cell_volume 1388.042941
_symmetry_space_group_name_H-M "P 21/M"
_symmetry_group_IT_number 11
_symmetry_cell_setting 'monoclinic'
loop_
_space_group_symop_operation_xyz
x,y,z
-x,1/2+y,-z
-x,-y,-z
x,1/2-y,z
loop_
_atom_site_type_symbol
_atom_site_label
_atom_site_fract_x
_atom_site_fract_y
_atom_site_fract_z
Si Si1 0.462582 0.423943 0.733933
Si Si2 0.000414 0.078052 0.589778
Si Si3 0.061847 0.415782 0.207005
Si Si4 0.690339 0.917458 0.616422
Si Si5 0.254180 0.580915 0.158447
Si Si6 0.272080 0.074551 0.002594
Si Si7 0.217066 0.578363 0.527739
O O1 0.481287 0.250000 0.769197
O O2 0.405495 0.463389 0.574023
O O3 0.356035 0.483361 0.680537
O O4 0.607379 0.506099 0.915168
O O5 0.020761 0.250000 0.597055
O O6 0.855252 0.045243 0.466501
O O7 0.127187 0.020583 0.794983
O O8 0.000000 0.000000 0.500000
O O9 0.089834 0.250000 0.276301
O O10 0.150688 0.436586 0.225495
O O11 0.105669 0.536366 0.326897
O O12 0.904059 0.437636 0.000477
O O13 0.659167 0.750000 0.607693
O O14 0.658559 0.021387 0.659840
O O15 0.295872 0.750000 0.189248
O O16 0.289376 0.487282 0.117031
O O17 0.285043 0.250000 0.019870
O O18 0.254021 0.750000 0.560734
#
# Coordination Sequence:
#
# PCOD8072560 Si02
#       7
#     4   4   4   4   4   4   4
#     4  10  22  40  60  86 118 158 202 241 287 344
#     4  10  23  41  65  95 121 147 187 235 290 352
#     4   9  18  32  51  79 114 153 197 243 289 341
#     4   9  19  34  51  76 114 155 198 246 289 337
#     4  11  21  32  52  82 115 154 201 246 293 341
#     4  11  23  41  61  86 118 155 194 240 295 349
#     4  10  19  36  61  89 118 153 192 236 290 348
#
# _framework density 20.172287000000001
#
# number of rings (size 3 to 8) (size 9 to 14) (size 15 to 20)
#    0.000    2.000    1.429    3.000    0.000    6.286 
#    0.000    0.714    0.000    0.000    0.000    0.000 
#    0.000    0.000    0.000    0.000    0.000    0.000 
#
# Total GULP energy -347227.245260 kJ/mol
# GULP energy per Si atom -12400.973045 kJ/mol
# Density = 2.012637 g / cm^3
# Si number density = 20.172287 Si / 1000 Ang^3
#
#
#
# Elastic Constant Matrix: (Units=GPa)
#
#
# Indices 1 2 3 4 5 6 
#
# 1 106.3657 57.6716 46.3789 0.0000 1.3281 0.0000
# 2 57.6716 96.8262 33.1628 0.0000 4.8765 0.0000
# 3 46.3789 33.1628 43.9642 0.0000 15.6409 0.0000
# 4 0.0000 0.0000 0.0000 29.4948 0.0000 -0.7493
# 5 1.3281 4.8765 15.6409 0.0000 30.4968 0.0000
# 6 0.0000 0.0000 0.0000 -0.7493 0.0000 37.8238
#
#
#
# Elastic Compliance Matrix: (Units=1/GPa)
#
#
# Indices 1 2 3 4 5 6 
#
# 1 0.023082 -0.006102 -0.024142 0.000000 0.012352 0.000000
# 2 -0.006102 0.015921 -0.005824 0.000000 0.000707 0.000000
# 3 -0.024142 -0.005824 0.063485 0.000000 -0.030577 0.000000
# 4 0.000000 0.000000 0.000000 0.033921 0.000000 0.000672
# 5 0.012352 0.000707 -0.030577 0.000000 0.047821 0.000000
# 6 0.000000 0.000000 0.000000 0.000672 0.000000 0.026452
#
#
# Mechanical properties :
#
#
# Convention : Reuss Voigt Hill
#
# Bulk Modulus (GPa) = 32.94569 57.95365 45.44967
# Shear Modulus (GPa) = 17.06850 26.89258 21.98054
#
# Velocity S-wave (km/s) = 2.91200 3.65519 3.30455
# Velocity P-wave (km/s) = 5.26060 6.82683 6.09424
#
# Compressibility (1/GPa) = 0.03035299
#
# Stress axis : x y z
#
# Youngs Moduli (GPa) = 43.32297 62.80870 15.75169
#
# Poissons Ratio (x) = 0.38325 0.38028
# Poissons Ratio (y) = 0.26435 0.09174
# Poissons Ratio (z) = 1.04590 0.36581
#
# Static dielectric constant tensor:
#      x y z
#    x 3.681050 0.000000 0.314240 
#    y 0.000000 3.651170 0.000000 
#    z 0.314240 0.000000 3.540760 
# 
# 
# High freq. dielectric constant tensor:
#      x y z
#    x 1.788720 0.000000 0.022240 
#    y 0.000000 1.791550 0.000000 
#    z 0.022240 0.000000 1.767300 
# 
# From -- ./inp_files/54588.got.cif
#   From: 2010.06.25/outbox.cif.g09.slc.cpg/sg11_28_cif.got.tgz:54588.got - 2010.06.27 23:14:04.
