data_PCOD8072435
_publ_section_title
;
Structure prediction by ZEFSAII (Michael W. Deem and Ramdas Pophale) SiO2 
 PCOD8072435
Probable space group: P 21/M
;
_chemical_formula_sum "Si O2"
_cell_formula_units_Z 32
_cell_length_a 15.473205
_cell_length_b 12.984386
_cell_length_c 12.671168
_cell_angle_alpha 90.000000
_cell_angle_beta 42.139315
_cell_angle_gamma 90.000000
_cell_volume 1708.044472
_symmetry_space_group_name_H-M "P 21/M"
_symmetry_group_IT_number 11
_symmetry_cell_setting 'monoclinic'
loop_
_space_group_symop_operation_xyz
x,y,z
-x,1/2+y,-z
-x,-y,-z
x,1/2-y,z
loop_
_atom_site_type_symbol
_atom_site_label
_atom_site_fract_x
_atom_site_fract_y
_atom_site_fract_z
Si Si1 0.096821 0.366274 0.209681
Si Si2 0.763585 0.487089 0.388262
Si Si3 0.512259 0.633888 0.885258
Si Si4 0.811483 0.367375 0.548219
Si Si5 0.741784 0.128950 0.194471
Si Si6 0.710027 0.500184 0.829841
Si Si7 0.537201 0.633923 0.618223
Si Si8 0.966459 0.488081 0.909294
O O1 0.152371 0.250000 0.154798
O O2 0.190808 0.443772 0.183754
O O3 0.077606 0.405374 0.106757
O O4 0.963530 0.367474 0.393254
O O5 0.737225 0.423893 0.519316
O O6 0.774837 0.406371 0.282520
O O7 0.649511 0.565737 0.465480
O O8 0.901491 0.548311 0.269705
O O9 0.487148 0.750000 0.946879
O O10 0.628655 0.588125 0.846611
O O11 0.556001 0.631766 0.725606
O O12 0.381746 0.570033 0.015793
O O13 0.759802 0.250000 0.602999
O O14 0.783405 0.427647 0.680980
O O15 0.743295 0.250000 0.188122
O O16 0.601114 0.087138 0.288662
O O17 0.847435 0.091480 0.012438
O O18 0.551570 0.750000 0.561315
O O19 0.000000 0.500000 0.000000
#
# Coordination Sequence:
#
# PCOD8072435 Si02
#       8
#     4   4   4   4   4   4   4   4
#     4  10  21  37  58  83 113 147 186 231 283 335
#     4  10  19  36  56  82 110 147 187 234 279 341
#     4  10  21  35  54  78 109 150 189 232 285 336
#     4  10  20  35  56  82 112 146 186 235 283 335
#     4  10  20  35  57  81 110 147 185 229 285 342
#     4  11  20  35  57  80 112 148 190 235 277 334
#     4  10  20  35  54  78 110 146 185 233 285 335
#     4   9  20  36  58  83 111 144 181 227 280 335
#
# _framework density 18.734876
#
# number of rings (size 3 to 8) (size 9 to 14) (size 15 to 20)
#    0.000    2.000    1.250    2.625    0.000    3.500 
#    0.000    2.500    0.000    4.500    0.000    0.000 
#    0.000    0.000    0.000    0.000    0.000    0.000 
#
# Total GULP energy -396717.840198 kJ/mol
# GULP energy per Si atom -12397.432506 kJ/mol
# Density = 1.869223 g / cm^3
# Si number density = 18.734876 Si / 1000 Ang^3
#
#
#
# Elastic Constant Matrix: (Units=GPa)
#
#
# Indices 1 2 3 4 5 6 
#
# 1 85.3906 46.7662 33.9176 0.0000 -10.2670 0.0000
# 2 46.7662 105.2902 48.9009 0.0000 -10.7359 0.0000
# 3 33.9176 48.9009 79.0789 0.0000 -10.3233 0.0000
# 4 0.0000 0.0000 0.0000 30.2552 0.0000 2.3530
# 5 -10.2670 -10.7359 -10.3233 0.0000 34.1462 0.0000
# 6 0.0000 0.0000 0.0000 2.3530 0.0000 27.4332
#
#
#
# Elastic Compliance Matrix: (Units=1/GPa)
#
#
# Indices 1 2 3 4 5 6 
#
# 1 0.016287 -0.005471 -0.003319 0.000000 0.002174 0.000000
# 2 -0.005471 0.015265 -0.006956 0.000000 0.001052 0.000000
# 3 -0.003319 -0.006956 0.018692 0.000000 0.002466 0.000000
# 4 0.000000 0.000000 0.000000 0.033274 0.000000 -0.002854
# 5 0.002174 0.001052 0.002466 0.000000 0.031016 0.000000
# 6 0.000000 0.000000 0.000000 -0.002854 0.000000 0.036697
#
#
# Mechanical properties :
#
#
# Convention : Reuss Voigt Hill
#
# Bulk Modulus (GPa) = 53.32391 58.76991 56.04691
# Shear Modulus (GPa) = 26.45869 27.71193 27.08531
#
# Velocity S-wave (km/s) = 3.76209 3.85016 3.80638
# Velocity P-wave (km/s) = 6.88442 7.15558 7.02131
#
# Compressibility (1/GPa) = 0.01875331
#
# Stress axis : x y z
#
# Youngs Moduli (GPa) = 61.39959 65.50720 53.49768
#
# Poissons Ratio (x) = 0.35840 0.17753
# Poissons Ratio (y) = 0.33592 0.37213
# Poissons Ratio (z) = 0.20376 0.45567
#
# Static dielectric constant tensor:
#      x y z
#    x 3.497710 0.000000 -0.189740 
#    y 0.000000 3.517080 0.000000 
#    z -0.189740 0.000000 3.577690 
# 
# 
# High freq. dielectric constant tensor:
#      x y z
#    x 1.734470 0.000000 -0.006380 
#    y 0.000000 1.723120 0.000000 
#    z -0.006380 0.000000 1.728690 
# 
# From -- ./inp_files/39634.got.cif
#   From: 2010.06.25/outbox.cif.g09.slc.cpg/sg11_20_cif.got.tgz:39634.got - 2010.06.27 23:14:04.
