data_PCOD8072875
_publ_section_title
;
Structure prediction by ZEFSAII (Michael W. Deem and Ramdas Pophale) SiO2 
 PCOD8072875
Probable space group: P 21/M
;
_chemical_formula_sum "Si O2"
_cell_formula_units_Z 32
_cell_length_a 16.581283
_cell_length_b 9.568651
_cell_length_c 26.197690
_cell_angle_alpha 90.000000
_cell_angle_beta 155.787143
_cell_angle_gamma 90.000000
_cell_volume 1704.711725
_symmetry_space_group_name_H-M "P 21/M"
_symmetry_group_IT_number 11
_symmetry_cell_setting 'monoclinic'
loop_
_space_group_symop_operation_xyz
x,y,z
-x,1/2+y,-z
-x,-y,-z
x,1/2-y,z
loop_
_atom_site_type_symbol
_atom_site_label
_atom_site_fract_x
_atom_site_fract_y
_atom_site_fract_z
Si Si1 0.950450 0.088470 0.749489
Si Si2 0.365441 0.586149 0.262234
Si Si3 0.904950 0.401062 0.308889
Si Si4 0.024674 0.413570 0.905043
Si Si5 0.411621 0.083735 0.185966
Si Si6 0.827475 0.403896 0.381988
Si Si7 0.689849 0.908480 0.113832
Si Si8 0.720765 0.908148 0.536224
O O1 0.881724 0.250000 0.709541
O O2 0.967069 0.024059 0.816162
O O3 0.169854 0.073415 0.853879
O O4 0.790977 0.004218 0.623867
O O5 0.390705 0.750000 0.263214
O O6 0.144939 0.550664 0.152488
O O7 0.411829 0.492888 0.240177
O O8 0.509125 0.544986 0.392251
O O9 0.837270 0.250000 0.245812
O O10 0.849481 0.396379 0.334941
O O11 0.800486 0.536903 0.227189
O O12 0.135834 0.419181 0.430177
O O13 0.048174 0.250000 0.909799
O O14 0.230106 0.471743 0.046352
O O15 0.395104 0.250000 0.185353
O O16 0.612024 0.040102 0.272851
O O17 0.855309 0.250000 0.422240
O O18 0.000000 0.500000 0.500000
O O19 0.627082 0.750000 0.086369
O O20 0.500000 0.000000 0.000000
O O21 0.710881 0.750000 0.551624
#
# Coordination Sequence:
#
# PCOD8072875 Si02
#       8
#     4   4   4   4   4   4   4   4
#     4   9  19  35  55  78 106 142 180 219 264 319
#     4  10  20  36  58  80 106 143 182 224 276 326
#     4   9  18  33  51  72 102 140 176 212 259 315
#     4   9  19  36  57  80 108 142 182 224 270 325
#     4  10  21  36  56  81 109 143 183 228 272 321
#     4  10  21  35  55  80 108 144 182 223 270 320
#     4  10  20  32  51  76 103 138 175 214 258 313
#     4   9  18  33  53  78 109 141 175 221 271 317
#
# _framework density 18.771502000000002
#
# number of rings (size 3 to 8) (size 9 to 14) (size 15 to 20)
#    0.000    2.500    0.000    1.500    1.750    3.500 
#    0.000    3.750    0.000    0.000    0.000    0.000 
#    0.000    0.000    0.000    0.000    0.000    0.000 
#
# Total GULP energy -396624.023175 kJ/mol
# GULP energy per Si atom -12394.500724 kJ/mol
# Density = 1.872878 g / cm^3
# Si number density = 18.771502 Si / 1000 Ang^3
#
#
#
# Elastic Constant Matrix: (Units=GPa)
#
#
# Indices 1 2 3 4 5 6 
#
# 1 77.8663 33.4288 44.9441 0.0000 -5.8792 0.0000
# 2 33.4288 71.5123 47.6100 0.0000 -1.8218 0.0000
# 3 44.9441 47.6100 130.7889 0.0000 6.4136 0.0000
# 4 0.0000 0.0000 0.0000 30.3059 0.0000 -2.0942
# 5 -5.8792 -1.8218 6.4136 0.0000 29.4695 0.0000
# 6 0.0000 0.0000 0.0000 -2.0942 0.0000 19.7018
#
#
#
# Elastic Compliance Matrix: (Units=1/GPa)
#
#
# Indices 1 2 3 4 5 6 
#
# 1 0.018033 -0.005356 -0.004455 0.000000 0.004236 0.000000
# 2 -0.005356 0.020251 -0.005600 0.000000 0.001402 0.000000
# 3 -0.004455 -0.005600 0.011398 0.000000 -0.003716 0.000000
# 4 0.000000 0.000000 0.000000 0.033241 0.000000 0.003533
# 5 0.004236 0.001402 -0.003716 0.000000 0.035674 0.000000
# 6 0.000000 0.000000 0.000000 0.003533 0.000000 0.051132
#
#
# Mechanical properties :
#
#
# Convention : Reuss Voigt Hill
#
# Bulk Modulus (GPa) = 53.02220 59.12593 56.07407
# Shear Modulus (GPa) = 24.17351 26.17440 25.17395
#
# Velocity S-wave (km/s) = 3.59245 3.73818 3.66604
# Velocity P-wave (km/s) = 6.74649 7.08506 6.91784
#
# Compressibility (1/GPa) = 0.01886002
#
# Stress axis : x y z
#
# Youngs Moduli (GPa) = 55.45369 49.37942 87.73764
#
# Poissons Ratio (x) = 0.26447 0.39087
# Poissons Ratio (y) = 0.29700 0.49135
# Poissons Ratio (z) = 0.24704 0.27654
#
# Static dielectric constant tensor:
#      x y z
#    x 3.428050 0.000000 0.132830 
#    y 0.000000 3.620260 0.000000 
#    z 0.132830 0.000000 3.255850 
# 
# 
# High freq. dielectric constant tensor:
#      x y z
#    x 1.731080 0.000000 0.008170 
#    y 0.000000 1.715150 0.000000 
#    z 0.008170 0.000000 1.733280 
# 
# From -- ./inp_files/54296.got.cif
#   From: 2010.06.25/outbox.cif.g09.slc.cpg/sg11_28_cif.got.tgz:54296.got - 2010.06.27 23:14:04.
