data_PCOD8072326
_publ_section_title
;
Structure prediction by ZEFSAII (Michael W. Deem and Ramdas Pophale) SiO2 
 PCOD8072326
Probable space group: P 21/M
;
_chemical_formula_sum "Si O2"
_cell_formula_units_Z 32
_cell_length_a 15.803386
_cell_length_b 8.753856
_cell_length_c 12.154216
_cell_angle_alpha 90.000000
_cell_angle_beta 82.863085
_cell_angle_gamma 90.000000
_cell_volume 1668.393625
_symmetry_space_group_name_H-M "P 21/M"
_symmetry_group_IT_number 11
_symmetry_cell_setting 'monoclinic'
loop_
_space_group_symop_operation_xyz
x,y,z
-x,1/2+y,-z
-x,-y,-z
x,1/2-y,z
loop_
_atom_site_type_symbol
_atom_site_label
_atom_site_fract_x
_atom_site_fract_y
_atom_site_fract_z
Si Si1 0.201202 0.070636 0.696721
Si Si2 0.706177 0.930332 0.763360
Si Si3 0.974452 0.417551 0.213788
Si Si4 0.590685 0.069895 0.959582
Si Si5 0.070148 0.418057 0.420171
Si Si6 0.738330 0.071600 0.101130
Si Si7 0.854079 0.930552 0.907144
Si Si8 0.235547 0.928827 0.456057
O O1 0.206317 0.250000 0.685795
O O2 0.264512 0.012726 0.781239
O O3 0.235090 0.000658 0.577454
O O4 0.103750 0.026947 0.744033
O O5 0.699400 0.750000 0.753141
O O6 0.794488 0.976302 0.811935
O O7 0.625786 0.993991 0.843110
O O8 0.696878 0.000800 0.641566
O O9 0.937906 0.250000 0.185136
O O10 0.036988 0.391406 0.305048
O O11 0.045691 0.482139 0.116884
O O12 0.584326 0.250000 0.942979
O O13 0.652597 0.027546 0.050658
O O14 0.500000 0.000000 0.000000
O O15 0.095160 0.250000 0.465588
O O16 0.147826 0.533981 0.409550
O O17 0.000000 0.500000 0.500000
O O18 0.745618 0.250000 0.121009
O O19 0.821337 0.016850 0.020769
O O20 0.847430 0.750000 0.928121
O O21 0.250546 0.750000 0.466446
#
# Coordination Sequence:
#
# PCOD8072326 Si02
#       8
#     4   4   4   4   4   4   4   4
#     4  12  25  38  54  76 107 153 202 239 283 337
#     4  10  19  35  58  87 119 148 185 234 282 333
#     4  10  20  34  51  74 107 147 194 244 290 331
#     4  10  21  39  66  98 122 146 177 219 276 338
#     4  11  20  32  49  73 104 145 194 246 291 330
#     4  10  22  40  59  82 113 146 185 229 279 336
#     4   9  18  34  55  78 107 145 189 238 288 330
#     4  12  23  35  53  78 113 152 192 239 286 336
#
# _framework density 19.180126000000001
#
# number of rings (size 3 to 8) (size 9 to 14) (size 15 to 20)
#    0.000    1.500    2.500    3.750    0.000    3.500 
#    0.000    0.000    0.000    0.750    0.000    0.000 
#    0.000    0.000    0.000    0.000    0.000    0.000 
#
# Total GULP energy -396607.530041 kJ/mol
# GULP energy per Si atom -12393.985314 kJ/mol
# Density = 1.913647 g / cm^3
# Si number density = 19.180126 Si / 1000 Ang^3
#
#
#
# Elastic Constant Matrix: (Units=GPa)
#
#
# Indices 1 2 3 4 5 6 
#
# 1 84.3463 38.5191 56.9352 0.0000 -21.1491 0.0000
# 2 38.5191 121.7932 67.4397 0.0000 -12.0750 0.0000
# 3 56.9352 67.4397 130.3040 0.0000 -10.4809 0.0000
# 4 0.0000 0.0000 0.0000 32.9269 0.0000 -2.7408
# 5 -21.1491 -12.0750 -10.4809 0.0000 24.2460 0.0000
# 6 0.0000 0.0000 0.0000 -2.7408 0.0000 26.4641
#
#
#
# Elastic Compliance Matrix: (Units=1/GPa)
#
#
# Indices 1 2 3 4 5 6 
#
# 1 0.021046 -0.001075 -0.007465 0.000000 0.014595 0.000000
# 2 -0.001075 0.011820 -0.005439 0.000000 0.002598 0.000000
# 3 -0.007465 -0.005439 0.013478 0.000000 -0.003394 0.000000
# 4 0.000000 0.000000 0.000000 0.030634 0.000000 0.003173
# 5 0.014595 0.002598 -0.003394 0.000000 0.053801 0.000000
# 6 0.000000 0.000000 0.000000 0.003173 0.000000 0.038116
#
#
# Mechanical properties :
#
#
# Convention : Reuss Voigt Hill
#
# Bulk Modulus (GPa) = 54.39190 73.58127 63.98659
# Shear Modulus (GPa) = 24.63279 28.29737 26.46508
#
# Velocity S-wave (km/s) = 3.58758 3.84519 3.71862
# Velocity P-wave (km/s) = 6.75137 7.62631 7.20214
#
# Compressibility (1/GPa) = 0.01838509
#
# Stress axis : x y z
#
# Youngs Moduli (GPa) = 47.51561 84.60423 74.19497
#
# Poissons Ratio (x) = 0.09098 0.55388
# Poissons Ratio (y) = 0.05110 0.40352
# Poissons Ratio (z) = 0.35472 0.46013
#
# Static dielectric constant tensor:
#      x y z
#    x 3.272110 0.000000 -0.057040 
#    y 0.000000 3.578400 0.000000 
#    z -0.057040 0.000000 3.645610 
# 
# 
# High freq. dielectric constant tensor:
#      x y z
#    x 1.710070 0.000000 -0.011440 
#    y 0.000000 1.755970 0.000000 
#    z -0.011440 0.000000 1.756100 
# 
# From -- ./inp_files/38252.got.cif
#   From: 2010.06.25/outbox.cif.g09.slc.cpg/sg11_20_cif.got.tgz:38252.got - 2010.06.27 23:14:04.
