data_PCOD8072377
_publ_section_title
;
Structure prediction by ZEFSAII (Michael W. Deem and Ramdas Pophale) SiO2 
 PCOD8072377
Probable space group: P 21/M
;
_chemical_formula_sum "Si O2"
_cell_formula_units_Z 24
_cell_length_a 11.461314
_cell_length_b 14.720780
_cell_length_c 14.428274
_cell_angle_alpha 90.000000
_cell_angle_beta 31.089250
_cell_angle_gamma 90.000000
_cell_volume 1257.021940
_symmetry_space_group_name_H-M "P 21/M"
_symmetry_group_IT_number 11
_symmetry_cell_setting 'monoclinic'
loop_
_space_group_symop_operation_xyz
x,y,z
-x,1/2+y,-z
-x,-y,-z
x,1/2-y,z
loop_
_atom_site_type_symbol
_atom_site_label
_atom_site_fract_x
_atom_site_fract_y
_atom_site_fract_z
Si Si1 0.497990 0.464881 0.698928
Si Si2 0.108140 0.445914 0.842327
Si Si3 0.644545 0.412032 0.925589
Si Si4 0.034108 0.968766 0.702019
Si Si5 0.666078 0.147476 0.115172
Si Si6 0.638820 0.850165 0.032884
O O1 0.358727 0.419477 0.707930
O O2 0.761124 0.443095 0.505421
O O3 0.456111 0.574061 0.734508
O O4 0.412004 0.422007 0.852665
O O5 0.135583 0.508804 0.733684
O O6 0.000000 0.500000 0.000000
O O7 0.940040 0.362154 0.934537
O O8 0.575791 0.341970 0.891280
O O9 0.907005 0.442559 0.746319
O O10 0.500000 0.500000 0.000000
O O11 0.582295 0.369434 0.067283
O O12 0.863087 0.883800 0.826225
O O13 0.600673 0.250000 0.190014
O O14 0.683042 0.750000 0.044078
#
# Coordination Sequence:
#
# PCOD8072377 Si02
#       6
#     4   4   4   4   4   4
#     4  11  21  37  60  86 121 149 188 244 294 340
#     4   9  17  37  58  83 111 154 185 232 290 338
#     4   9  17  38  59  79 111 154 189 237 290 333
#     4  10  20  37  63  83 113 151 195 236 291 340
#     4  10  19  35  60  85 114 157 196 235 289 348
#     4  11  22  38  58  83 117 156 195 236 287 345
#
# _framework density 19.092746000000002
#
# number of rings (size 3 to 8) (size 9 to 14) (size 15 to 20)
#    0.000    2.000    6.667    1.000    0.000    2.000 
#    0.000    4.167    0.000    2.000    0.000    0.000 
#    0.000    0.000    0.000    0.000    0.000    0.000 
#
# Total GULP energy -297385.725865 kJ/mol
# GULP energy per Si atom -12391.071911 kJ/mol
# Density = 1.904929 g / cm^3
# Si number density = 19.092746 Si / 1000 Ang^3
#
#
#
# Elastic Constant Matrix: (Units=GPa)
#
#
# Indices 1 2 3 4 5 6 
#
# 1 116.7682 20.5678 20.7204 0.0000 -11.8546 0.0000
# 2 20.5678 106.1053 34.5509 0.0000 1.1065 0.0000
# 3 20.7204 34.5509 99.9270 0.0000 -17.6481 0.0000
# 4 0.0000 0.0000 0.0000 12.3523 0.0000 -0.5523
# 5 -11.8546 1.1065 -17.6481 0.0000 19.1848 0.0000
# 6 0.0000 0.0000 0.0000 -0.5523 0.0000 15.1647
#
#
#
# Elastic Compliance Matrix: (Units=1/GPa)
#
#
# Indices 1 2 3 4 5 6 
#
# 1 0.009516 -0.001788 -0.000356 0.000000 0.005656 0.000000
# 2 -0.001788 0.011334 -0.004607 0.000000 -0.005996 0.000000
# 3 -0.000356 -0.004607 0.013948 0.000000 0.012877 0.000000
# 4 0.000000 0.000000 0.000000 0.081089 0.000000 0.002953
# 5 0.005656 -0.005996 0.012877 0.000000 0.067810 0.000000
# 6 0.000000 0.000000 0.000000 0.002953 0.000000 0.066050
#
#
# Mechanical properties :
#
#
# Convention : Reuss Voigt Hill
#
# Bulk Modulus (GPa) = 46.95668 52.71986 49.83827
# Shear Modulus (GPa) = 18.49464 25.80446 22.14955
#
# Velocity S-wave (km/s) = 3.11573 3.68031 3.40972
# Velocity P-wave (km/s) = 6.13116 6.76254 6.45457
#
# Compressibility (1/GPa) = 0.02129622
#
# Stress axis : x y z
#
# Youngs Moduli (GPa) = 105.08342 88.23111 71.69324
#
# Poissons Ratio (x) = 0.15772 0.02555
# Poissons Ratio (y) = 0.18785 0.33030
# Poissons Ratio (z) = 0.03744 0.40650
#
# Static dielectric constant tensor:
#      x y z
#    x 4.441870 0.000000 -0.381840 
#    y 0.000000 3.420050 0.000000 
#    z -0.381840 0.000000 3.288020 
# 
# 
# High freq. dielectric constant tensor:
#      x y z
#    x 1.765600 0.000000 -0.009290 
#    y 0.000000 1.716590 0.000000 
#    z -0.009290 0.000000 1.711360 
# 
# From -- ./inp_files/50322.got.cif
#   From: 2010.06.25/outbox.cif.g09.slc.cpg/sg11_26_cif.got.tgz:50322.got - 2010.06.27 23:14:04.
