data_PCOD8072237
_publ_section_title
;
Structure prediction by ZEFSAII (Michael W. Deem and Ramdas Pophale) SiO2 
 PCOD8072237
Probable space group: P 21/M
;
_chemical_formula_sum "Si O2"
_cell_formula_units_Z 28
_cell_length_a 9.518951
_cell_length_b 8.657397
_cell_length_c 26.196066
_cell_angle_alpha 90.000000
_cell_angle_beta 140.310642
_cell_angle_gamma 90.000000
_cell_volume 1378.663723
_symmetry_space_group_name_H-M "P 21/M"
_symmetry_group_IT_number 11
_symmetry_cell_setting 'monoclinic'
loop_
_space_group_symop_operation_xyz
x,y,z
-x,1/2+y,-z
-x,-y,-z
x,1/2-y,z
loop_
_atom_site_type_symbol
_atom_site_label
_atom_site_fract_x
_atom_site_fract_y
_atom_site_fract_z
Si Si1 0.716935 0.429724 0.083950
Si Si2 0.851870 0.073772 0.822890
Si Si3 0.060914 0.567342 0.571932
Si Si4 0.637737 0.431619 0.492716
Si Si5 0.153418 0.932842 0.767262
Si Si6 0.601151 0.568041 0.259353
Si Si7 0.288990 0.571458 0.330600
O O1 0.686213 0.250000 0.074333
O O2 0.747353 0.488285 0.150657
O O3 0.928578 0.472848 0.108278
O O4 0.500000 0.500000 0.000000
O O5 0.926401 0.250000 0.849272
O O6 0.660628 0.032659 0.809886
O O7 0.752082 0.041029 0.739720
O O8 0.084835 0.750000 0.574583
O O9 0.869826 0.519230 0.557761
O O10 0.000000 0.500000 0.500000
O O11 0.283987 0.496218 0.657284
O O12 0.500000 0.500000 0.500000
O O13 0.677344 0.250000 0.509309
O O14 0.504028 0.470508 0.403776
O O15 0.118340 0.750000 0.755892
O O16 0.317251 0.983361 0.768528
O O17 0.918205 0.014795 0.693562
O O18 0.645644 0.750000 0.268152
O O19 0.334949 0.750000 0.356300
#
# Coordination Sequence:
#
# PCOD8072237 Si02
#       7
#     4   4   4   4   4   4   4
#     4  10  21  38  63  90 118 148 185 228 276 334
#     4   9  20  37  59  84 112 144 182 225 274 332
#     4  12  25  41  59  82 114 154 198 246 296 348
#     4  12  24  38  55  78 109 147 192 244 295 344
#     4  10  21  37  57  85 117 152 190 233 283 341
#     4  11  22  38  59  85 116 152 192 237 286 341
#     4  10  19  35  57  80 107 143 187 237 287 340
#
# _framework density 20.309521
#
# number of rings (size 3 to 8) (size 9 to 14) (size 15 to 20)
#    0.000    1.429    0.000    6.000    0.000    4.571 
#    0.000    0.714    0.000    0.000    0.000    0.000 
#    0.000    0.000    0.000    0.000    0.000    0.000 
#
# Total GULP energy -347280.538203 kJ/mol
# GULP energy per Si atom -12402.876364 kJ/mol
# Density = 2.026330 g / cm^3
# Si number density = 20.309521 Si / 1000 Ang^3
#
#
#
# Elastic Constant Matrix: (Units=GPa)
#
#
# Indices 1 2 3 4 5 6 
#
# 1 67.8439 -3.7145 0.2127 0.0000 9.0984 0.0000
# 2 -3.7145 57.5948 15.3443 0.0000 2.8591 0.0000
# 3 0.2127 15.3443 75.6308 0.0000 15.4637 0.0000
# 4 0.0000 0.0000 0.0000 36.4083 0.0000 2.8382
# 5 9.0984 2.8591 15.4637 0.0000 25.8801 0.0000
# 6 0.0000 0.0000 0.0000 2.8382 0.0000 35.5970
#
#
#
# Elastic Compliance Matrix: (Units=1/GPa)
#
#
# Indices 1 2 3 4 5 6 
#
# 1 0.015627 0.001046 0.001015 0.000000 -0.006216 0.000000
# 2 0.001046 0.018426 -0.003702 0.000000 -0.000191 0.000000
# 3 0.001015 -0.003702 0.015902 0.000000 -0.009450 0.000000
# 4 0.000000 0.000000 0.000000 0.027638 0.000000 -0.002204
# 5 -0.006216 -0.000191 -0.009450 0.000000 0.046492 0.000000
# 6 0.000000 0.000000 0.000000 -0.002204 0.000000 0.028268
#
#
# Mechanical properties :
#
#
# Convention : Reuss Voigt Hill
#
# Bulk Modulus (GPa) = 21.42560 24.97272 23.19916
# Shear Modulus (GPa) = 29.20651 32.19222 30.69936
#
# Velocity S-wave (km/s) = 3.79630 3.98563 3.89212
# Velocity P-wave (km/s) = 5.45787 5.78818 5.62545
#
# Compressibility (1/GPa) = 0.04667314
#
# Stress axis : x y z
#
# Youngs Moduli (GPa) = 63.99014 54.27122 62.88322
#
# Poissons Ratio (x) = -0.05677 -0.06381
# Poissons Ratio (y) = -0.06694 0.23280
# Poissons Ratio (z) = -0.06493 0.20092
#
# Static dielectric constant tensor:
#      x y z
#    x 3.681340 0.000000 0.318800 
#    y 0.000000 3.896450 0.000000 
#    z 0.318800 0.000000 3.683120 
# 
# 
# High freq. dielectric constant tensor:
#      x y z
#    x 1.800850 0.000000 0.011910 
#    y 0.000000 1.803100 0.000000 
#    z 0.011910 0.000000 1.781620 
# 
# From -- ./inp_files/28278.got.cif
#   From: 2010.06.25/outbox.cif.g09.slc.cpg/sg11_15_cif.got.tgz:28278.got - 2010.06.27 23:14:04.
