data_PCOD8072636
_publ_section_title
;
Structure prediction by ZEFSAII (Michael W. Deem and Ramdas Pophale) SiO2 
 PCOD8072636
Probable space group: P 21/M
;
_chemical_formula_sum "Si O2"
_cell_formula_units_Z 32
_cell_length_a 15.204855
_cell_length_b 8.992997
_cell_length_c 22.242119
_cell_angle_alpha 90.000000
_cell_angle_beta 32.501538
_cell_angle_gamma 90.000000
_cell_volume 1634.171808
_symmetry_space_group_name_H-M "P 21/M"
_symmetry_group_IT_number 11
_symmetry_cell_setting 'monoclinic'
loop_
_space_group_symop_operation_xyz
x,y,z
-x,1/2+y,-z
-x,-y,-z
x,1/2-y,z
loop_
_atom_site_type_symbol
_atom_site_label
_atom_site_fract_x
_atom_site_fract_y
_atom_site_fract_z
Si Si1 0.010421 0.572601 0.739247
Si Si2 0.006678 0.577406 0.127427
Si Si3 0.871042 0.421605 0.707810
Si Si4 0.850079 0.083411 0.517646
Si Si5 0.663722 0.084649 0.503581
Si Si6 0.674370 0.422831 0.131016
Si Si7 0.670919 0.572559 0.261522
Si Si8 0.380573 0.577913 0.243613
O O1 0.009766 0.750000 0.736531
O O2 0.951813 0.516344 0.837310
O O3 0.884049 0.515675 0.761535
O O4 0.193993 0.506924 0.618740
O O5 0.996690 0.750000 0.150902
O O6 0.836992 0.519141 0.197293
O O7 0.145758 0.546408 0.998526
O O8 0.902254 0.250000 0.705171
O O9 0.691202 0.445356 0.782268
O O10 0.003578 0.471933 0.581961
O O11 0.920837 0.250000 0.486243
O O12 0.717356 0.085202 0.541575
O O13 0.758416 0.024386 0.629546
O O14 0.645553 0.250000 0.488244
O O15 0.481467 0.011892 0.609299
O O16 0.643519 0.250000 0.159956
O O17 0.657643 0.507041 0.203018
O O18 0.543609 0.481384 0.157733
O O19 0.662994 0.750000 0.259958
O O20 0.423658 0.750000 0.230729
#
# Coordination Sequence:
#
# PCOD8072636 Si02
#       8
#     4   4   4   4   4   4   4   4
#     4  10  21  38  58  80 112 150 190 231 274 330
#     4  10  23  40  58  81 110 148 191 237 282 325
#     4  10  20  33  54  83 113 145 185 228 275 333
#     4   9  16  30  51  78 115 149 181 220 269 331
#     4   8  15  30  54  82 111 143 177 220 268 323
#     4  11  23  37  55  85 118 143 184 240 280 325
#     4  10  19  37  62  83 112 150 182 222 285 343
#     4  10  20  35  55  80 111 150 188 224 275 337
#
# _framework density 19.581783999999999
#
# number of rings (size 3 to 8) (size 9 to 14) (size 15 to 20)
#    0.000    2.250    1.250    2.625    0.000    3.500 
#    0.000    1.250    0.000    0.000    0.000    0.000 
#    0.000    0.000    0.000    0.000    0.000    0.000 
#
# Total GULP energy -396699.616356 kJ/mol
# GULP energy per Si atom -12396.863011 kJ/mol
# Density = 1.953721 g / cm^3
# Si number density = 19.581784 Si / 1000 Ang^3
#
#
#
# Elastic Constant Matrix: (Units=GPa)
#
#
# Indices 1 2 3 4 5 6 
#
# 1 62.3084 22.4710 19.3431 0.0000 -10.1251 0.0000
# 2 22.4710 55.4423 17.7957 0.0000 -2.3388 0.0000
# 3 19.3431 17.7957 30.1004 0.0000 -1.8033 0.0000
# 4 0.0000 0.0000 0.0000 26.4811 0.0000 -0.9781
# 5 -10.1251 -2.3388 -1.8033 0.0000 27.2359 0.0000
# 6 0.0000 0.0000 0.0000 -0.9781 0.0000 23.1980
#
#
#
# Elastic Compliance Matrix: (Units=1/GPa)
#
#
# Indices 1 2 3 4 5 6 
#
# 1 0.022521 -0.005329 -0.010891 0.000000 0.007194 0.000000
# 2 -0.005329 0.023552 -0.010539 0.000000 -0.000656 0.000000
# 3 -0.010891 -0.010539 0.046339 0.000000 -0.001886 0.000000
# 4 0.000000 0.000000 0.000000 0.037822 0.000000 0.001595
# 5 0.007194 -0.000656 -0.001886 0.000000 0.039209 0.000000
# 6 0.000000 0.000000 0.000000 0.001595 0.000000 0.043174
#
#
# Mechanical properties :
#
#
# Convention : Reuss Voigt Hill
#
# Bulk Modulus (GPa) = 25.71100 29.67455 27.69277
# Shear Modulus (GPa) = 17.91481 21.26576 19.59028
#
# Velocity S-wave (km/s) = 3.02797 3.29902 3.16640
# Velocity P-wave (km/s) = 5.03819 5.44963 5.24794
#
# Compressibility (1/GPa) = 0.03889386
#
# Stress axis : x y z
#
# Youngs Moduli (GPa) = 44.40317 42.46001 21.58017
#
# Poissons Ratio (x) = 0.22625 0.23503
# Poissons Ratio (y) = 0.23661 0.22743
# Poissons Ratio (z) = 0.48360 0.44749
#
# Static dielectric constant tensor:
#      x y z
#    x 3.535880 0.000000 -0.180650 
#    y 0.000000 3.411180 0.000000 
#    z -0.180650 0.000000 3.588970 
# 
# 
# High freq. dielectric constant tensor:
#      x y z
#    x 1.762320 0.000000 -0.008190 
#    y 0.000000 1.746700 0.000000 
#    z -0.008190 0.000000 1.753950 
# 
# From -- ./inp_files/68983.got.cif
#   From: 2010.06.25/outbox.cif.g09.slc.cpg/sg11_35_cif.got.tgz:68983.got - 2010.06.27 23:14:04.
