data_PCOD8072976
_publ_section_title
;
Structure prediction by ZEFSAII (Michael W. Deem and Ramdas Pophale) SiO2 
 PCOD8072976
Probable space group: P 21/M
;
_chemical_formula_sum "Si O2"
_cell_formula_units_Z 32
_cell_length_a 12.709372
_cell_length_b 8.826984
_cell_length_c 17.403077
_cell_angle_alpha 90.000000
_cell_angle_beta 89.225393
_cell_angle_gamma 90.000000
_cell_volume 1952.193140
_symmetry_space_group_name_H-M "P 21/M"
_symmetry_group_IT_number 11
_symmetry_cell_setting 'monoclinic'
loop_
_space_group_symop_operation_xyz
x,y,z
-x,1/2+y,-z
-x,-y,-z
x,1/2-y,z
loop_
_atom_site_type_symbol
_atom_site_label
_atom_site_fract_x
_atom_site_fract_y
_atom_site_fract_z
Si Si1 0.387323 0.927076 0.501160
Si Si2 0.881484 0.926403 0.087097
Si Si3 0.620385 0.429194 0.662780
Si Si4 0.393792 0.573567 0.666335
Si Si5 0.301554 0.927529 0.826909
Si Si6 0.878430 0.427413 0.925901
Si Si7 0.491205 0.070212 0.916668
Si Si8 0.306288 0.929673 0.179074
O O1 0.403603 0.750000 0.493991
O O2 0.330969 0.980973 0.421513
O O3 0.335043 0.967222 0.584763
O O4 0.500000 0.000000 0.500000
O O5 0.855711 0.750000 0.094270
O O6 0.003507 0.961697 0.103127
O O7 0.815040 0.017842 0.150575
O O8 0.850314 0.981167 0.002648
O O9 0.618089 0.250000 0.669636
O O10 0.501076 0.482464 0.674462
O O11 0.690235 0.492936 0.733025
O O12 0.423575 0.750000 0.667545
O O13 0.316532 0.531909 0.736823
O O14 0.313830 0.750000 0.842534
O O15 0.384950 0.015410 0.877825
O O16 0.862747 0.250000 0.943912
O O17 0.799879 0.488048 0.860708
O O18 0.489147 0.250000 0.923367
O O19 0.590817 0.011450 0.866744
O O20 0.500000 0.000000 0.000000
O O21 0.305707 0.750000 0.178424
#
# Coordination Sequence:
#
# PCOD8072976 Si02
#       8
#     4   4   4   4   4   4   4   4
#     4   8  14  24  40  61  86 115 147 179 215 262
#     4  10  20  33  50  69  87 113 154 198 234 272
#     4   9  15  26  44  65  89 117 146 179 221 271
#     4   9  17  28  41  62  91 121 150 182 219 261
#     4  11  21  32  46  64  92 126 156 188 226 265
#     4   9  18  34  52  68  89 115 147 191 239 279
#     4  11  21  32  46  66  94 123 153 183 222 278
#     4   9  17  29  46  67  90 116 144 180 225 273
#
# _framework density 16.391821
#
# number of rings (size 3 to 8) (size 9 to 14) (size 15 to 20)
#    0.000    2.500    1.250    1.875    0.000    2.000 
#    0.000    1.250    0.000    0.000    0.000    0.875 
#    0.000    0.000    0.000    0.000    0.000    0.000 
#
# Total GULP energy -396479.183597 kJ/mol
# GULP energy per Si atom -12389.974487 kJ/mol
# Density = 1.635451 g / cm^3
# Si number density = 16.391821 Si / 1000 Ang^3
#
#
#
# Elastic Constant Matrix: (Units=GPa)
#
#
# Indices 1 2 3 4 5 6 
#
# 1 72.1888 15.5799 58.6744 0.0000 1.4368 0.0000
# 2 15.5799 32.2742 31.1543 0.0000 -1.5779 0.0000
# 3 58.6744 31.1543 170.7778 0.0000 2.3065 0.0000
# 4 0.0000 0.0000 0.0000 18.0424 0.0000 -1.1294
# 5 1.4368 -1.5779 2.3065 0.0000 18.5822 0.0000
# 6 0.0000 0.0000 0.0000 -1.1294 0.0000 18.1951
#
#
#
# Elastic Compliance Matrix: (Units=1/GPa)
#
#
# Indices 1 2 3 4 5 6 
#
# 1 0.019577 -0.003671 -0.006042 0.000000 -0.001075 0.000000
# 2 -0.003671 0.038602 -0.005839 0.000000 0.004286 0.000000
# 3 -0.006042 -0.005839 0.009012 0.000000 -0.001147 0.000000
# 4 0.000000 0.000000 0.000000 0.055641 0.000000 0.003454
# 5 -0.001075 0.004286 -0.001147 0.000000 0.054404 0.000000
# 6 0.000000 0.000000 0.000000 0.003454 0.000000 0.055174
#
#
# Mechanical properties :
#
#
# Convention : Reuss Voigt Hill
#
# Bulk Modulus (GPa) = 27.70977 54.00643 40.85810
# Shear Modulus (GPa) = 18.14593 22.28608 20.21601
#
# Velocity S-wave (km/s) = 3.33079 3.69126 3.51564
# Velocity P-wave (km/s) = 5.63325 7.15443 6.43892
#
# Compressibility (1/GPa) = 0.03608835
#
# Stress axis : x y z
#
# Youngs Moduli (GPa) = 51.08024 25.90519 110.96266
#
# Poissons Ratio (x) = 0.09509 0.67043
# Poissons Ratio (y) = 0.18751 0.64789
# Poissons Ratio (z) = 0.30862 0.15125
#
# Static dielectric constant tensor:
#      x y z
#    x 2.955310 0.000000 0.142840 
#    y 0.000000 3.124440 0.000000 
#    z 0.142840 0.000000 3.959700 
# 
# 
# High freq. dielectric constant tensor:
#      x y z
#    x 1.589800 0.000000 0.001800 
#    y 0.000000 1.626080 0.000000 
#    z 0.001800 0.000000 1.649210 
# 
# From -- ./inp_files/58714.got.cif
#   From: 2010.06.25/outbox.cif.g09.slc.cpg/sg11_30_cif.got.tgz:58714.got - 2010.06.27 23:14:04.
