data_PCOD8072228
_publ_section_title
;
Structure prediction by ZEFSAII (Michael W. Deem and Ramdas Pophale) SiO2 
 PCOD8072228
Probable space group: P 21/M
;
_chemical_formula_sum "Si O2"
_cell_formula_units_Z 32
_cell_length_a 12.343750
_cell_length_b 9.249164
_cell_length_c 14.948166
_cell_angle_alpha 90.000000
_cell_angle_beta 91.464553
_cell_angle_gamma 90.000000
_cell_volume 1706.065162
_symmetry_space_group_name_H-M "P 21/M"
_symmetry_group_IT_number 11
_symmetry_cell_setting 'monoclinic'
loop_
_space_group_symop_operation_xyz
x,y,z
-x,1/2+y,-z
-x,-y,-z
x,1/2-y,z
loop_
_atom_site_type_symbol
_atom_site_label
_atom_site_fract_x
_atom_site_fract_y
_atom_site_fract_z
Si Si1 0.887276 0.578756 0.740958
Si Si2 0.092907 0.079000 0.056736
Si Si3 0.255659 0.085051 0.569981
Si Si4 0.335296 0.418606 0.021781
Si Si5 0.045656 0.922232 0.588278
Si Si6 0.492076 0.418457 0.868342
Si Si7 0.686106 0.585670 0.629776
Si Si8 0.475296 0.080869 0.665493
O O1 0.882184 0.750000 0.740960
O O2 0.912117 0.521896 0.841053
O O3 0.769267 0.522780 0.705771
O O4 0.979049 0.526793 0.674025
O O5 0.073297 0.250000 0.050839
O O6 0.209449 0.035676 0.017591
O O7 0.000000 0.000000 0.000000
O O8 0.233125 0.250000 0.601059
O O9 0.252133 0.076225 0.463061
O O10 0.370288 0.029384 0.609402
O O11 0.166990 0.977157 0.608656
O O12 0.345683 0.250000 0.043048
O O13 0.398541 0.499266 0.102218
O O14 0.389930 0.461156 0.928456
O O15 0.041896 0.750000 0.574227
O O16 0.000000 0.000000 0.500000
O O17 0.517797 0.250000 0.876623
O O18 0.460645 0.465446 0.768074
O O19 0.652953 0.750000 0.650458
O O20 0.578400 0.492801 0.623405
O O21 0.493233 0.250000 0.655610
#
# Coordination Sequence:
#
# PCOD8072228 Si02
#       8
#     4   4   4   4   4   4   4   4
#     4   9  19  36  57  80 108 143 179 224 276 320
#     4  10  21  37  56  79 109 143 181 224 272 324
#     4  10  21  37  55  78 110 145 179 222 273 320
#     4   9  18  34  56  77 101 139 181 217 263 324
#     4  11  21  37  59  81 109 143 185 229 272 324
#     4   9  18  33  53  79 108 137 172 223 272 312
#     4  10  19  35  57  77 105 143 182 220 264 324
#     4  10  21  34  50  78 114 142 172 221 275 320
#
# _framework density 18.756610999999999
#
# number of rings (size 3 to 8) (size 9 to 14) (size 15 to 20)
#    0.000    2.250    1.250    1.500    0.000    4.000 
#    0.000    3.125    0.000    0.000    0.000    0.000 
#    0.000    0.000    0.000    0.000    0.000    0.000 
#
# Total GULP energy -396838.682938 kJ/mol
# GULP energy per Si atom -12401.208842 kJ/mol
# Density = 1.871392 g / cm^3
# Si number density = 18.756611 Si / 1000 Ang^3
#
#
#
# Elastic Constant Matrix: (Units=GPa)
#
#
# Indices 1 2 3 4 5 6 
#
# 1 148.2944 45.1158 49.7956 0.0000 6.3427 0.0000
# 2 45.1158 43.4474 24.8425 0.0000 0.0466 0.0000
# 3 49.7956 24.8425 84.6714 0.0000 10.6310 0.0000
# 4 0.0000 0.0000 0.0000 23.9790 0.0000 3.5405
# 5 6.3427 0.0466 10.6310 0.0000 33.0452 0.0000
# 6 0.0000 0.0000 0.0000 3.5405 0.0000 35.5515
#
#
#
# Elastic Compliance Matrix: (Units=1/GPa)
#
#
# Indices 1 2 3 4 5 6 
#
# 1 0.010748 -0.009145 -0.003522 0.000000 -0.000917 0.000000
# 2 -0.009145 0.035667 -0.005524 0.000000 0.003482 0.000000
# 3 -0.003522 -0.005524 0.016066 0.000000 -0.004485 0.000000
# 4 0.000000 0.000000 0.000000 0.042326 0.000000 -0.004215
# 5 -0.000917 0.003482 -0.004485 0.000000 0.031875 0.000000
# 6 0.000000 0.000000 0.000000 -0.004215 0.000000 0.028548
#
#
# Mechanical properties :
#
#
# Convention : Reuss Voigt Hill
#
# Bulk Modulus (GPa) = 38.31706 57.32454 47.82080
# Shear Modulus (GPa) = 23.77429 28.95910 26.36670
#
# Velocity S-wave (km/s) = 3.56408 3.93356 3.75337
# Velocity P-wave (km/s) = 6.11636 7.15956 6.65842
#
# Compressibility (1/GPa) = 0.02609803
#
# Stress axis : x y z
#
# Youngs Moduli (GPa) = 93.04379 28.03686 62.24496
#
# Poissons Ratio (x) = 0.25641 0.21925
# Poissons Ratio (y) = 0.85091 0.34381
# Poissons Ratio (z) = 0.32774 0.15486
#
# Static dielectric constant tensor:
#      x y z
#    x 3.549600 0.000000 -0.038920 
#    y 0.000000 3.327340 0.000000 
#    z -0.038920 0.000000 3.639210 
# 
# 
# High freq. dielectric constant tensor:
#      x y z
#    x 1.736600 0.000000 -0.002050 
#    y 0.000000 1.708500 0.000000 
#    z -0.002050 0.000000 1.733480 
# 
# From -- ./inp_files/49350.got.cif
#   From: 2010.06.25/outbox.cif.g09.slc.cpg/sg11_25_cif.got.tgz:49350.got - 2010.06.27 23:14:04.
