data_PCOD8072357
_publ_section_title
;
Structure prediction by ZEFSAII (Michael W. Deem and Ramdas Pophale) SiO2 
 PCOD8072357
Probable space group: P 21/M
;
_chemical_formula_sum "Si O2"
_cell_formula_units_Z 32
_cell_length_a 25.488498
_cell_length_b 8.619632
_cell_length_c 20.689305
_cell_angle_alpha 90.000000
_cell_angle_beta 157.935726
_cell_angle_gamma 90.000000
_cell_volume 1707.490035
_symmetry_space_group_name_H-M "P 21/M"
_symmetry_group_IT_number 11
_symmetry_cell_setting 'monoclinic'
loop_
_space_group_symop_operation_xyz
x,y,z
-x,1/2+y,-z
-x,-y,-z
x,1/2-y,z
loop_
_atom_site_type_symbol
_atom_site_label
_atom_site_fract_x
_atom_site_fract_y
_atom_site_fract_z
Si Si1 0.401096 0.066083 0.075670
Si Si2 0.437593 0.432350 0.364069
Si Si3 0.838152 0.430258 0.998204
Si Si4 0.444132 0.067452 0.870005
Si Si5 0.125837 0.570271 0.317830
Si Si6 0.162208 0.929485 0.509162
Si Si7 0.415253 0.934213 0.595862
Si Si8 0.129230 0.567528 0.816951
O O1 0.384261 0.250000 0.059643
O O2 0.249132 0.987580 0.905222
O O3 0.492770 0.000622 0.239944
O O4 0.473800 0.019248 0.092730
O O5 0.500000 0.500000 0.500000
O O6 0.453010 0.250000 0.383948
O O7 0.524351 0.501000 0.402245
O O8 0.275784 0.476651 0.172796
O O9 0.808329 0.250000 0.955367
O O10 0.829531 0.482555 0.063097
O O11 0.990674 0.470622 0.144129
O O12 0.470898 0.250000 0.896462
O O13 0.279823 0.031967 0.677788
O O14 0.500000 0.000000 0.000000
O O15 0.089813 0.750000 0.265774
O O16 0.170921 0.539679 0.442791
O O17 0.254163 0.513381 0.419617
O O18 0.187546 0.750000 0.554603
O O19 0.012719 0.982173 0.366045
O O20 0.423370 0.750000 0.607132
O O21 0.105055 0.750000 0.784676
#
# Coordination Sequence:
#
# PCOD8072357 Si02
#       8
#     4   4   4   4   4   4   4   4
#     4  11  20  37  61  88 116 151 197 242 287 343
#     4  11  22  38  58  82 114 154 192 235 289 346
#     4  10  20  34  53  83 117 149 187 233 283 339
#     4  12  25  41  60  86 120 158 194 238 291 347
#     4   9  17  33  57  84 111 144 186 234 284 338
#     4  10  19  35  59  86 116 153 193 236 288 347
#     4   9  18  34  58  85 112 145 190 237 284 338
#     4  10  20  34  55  88 122 151 189 241 291 339
#
# _framework density 18.740960000000001
#
# number of rings (size 3 to 8) (size 9 to 14) (size 15 to 20)
#    0.000    1.750    2.500    3.000    0.000    1.500 
#    0.000    2.500    0.000    0.000    0.000    0.000 
#    0.000    0.000    0.000    0.000    0.000    0.000 
#
# Total GULP energy -396921.706261 kJ/mol
# GULP energy per Si atom -12403.803321 kJ/mol
# Density = 1.869830 g / cm^3
# Si number density = 18.740960 Si / 1000 Ang^3
#
#
#
# Elastic Constant Matrix: (Units=GPa)
#
#
# Indices 1 2 3 4 5 6 
#
# 1 103.3669 14.0567 59.1466 0.0000 5.1825 0.0000
# 2 14.0567 51.3340 21.7502 0.0000 -2.4125 0.0000
# 3 59.1466 21.7502 116.4067 0.0000 10.2032 0.0000
# 4 0.0000 0.0000 0.0000 33.5128 0.0000 2.3648
# 5 5.1825 -2.4125 10.2032 0.0000 31.3210 0.0000
# 6 0.0000 0.0000 0.0000 2.3648 0.0000 26.5536
#
#
#
# Elastic Compliance Matrix: (Units=1/GPa)
#
#
# Indices 1 2 3 4 5 6 
#
# 1 0.013676 -0.000881 -0.006773 0.000000 -0.000124 0.000000
# 2 -0.000881 0.021490 -0.003835 0.000000 0.003050 0.000000
# 3 -0.006773 -0.003835 0.013049 0.000000 -0.003426 0.000000
# 4 0.000000 0.000000 0.000000 0.030028 0.000000 -0.002674
# 5 -0.000124 0.003050 -0.003426 0.000000 0.033299 0.000000
# 6 0.000000 0.000000 0.000000 -0.002674 0.000000 0.037898
#
#
# Mechanical properties :
#
#
# Convention : Reuss Voigt Hill
#
# Bulk Modulus (GPa) = 39.62572 51.22385 45.42478
# Shear Modulus (GPa) = 27.65025 30.02107 28.83566
#
# Velocity S-wave (km/s) = 3.84525 4.00671 3.92681
# Velocity P-wave (km/s) = 6.39566 6.98548 6.69706
#
# Compressibility (1/GPa) = 0.02523614
#
# Stress axis : x y z
#
# Youngs Moduli (GPa) = 73.12079 46.53378 76.63450
#
# Poissons Ratio (x) = 0.04099 0.51907
# Poissons Ratio (y) = 0.06441 0.29390
# Poissons Ratio (z) = 0.49527 0.17846
#
# Static dielectric constant tensor:
#      x y z
#    x 3.516020 0.000000 0.184400 
#    y 0.000000 3.369260 0.000000 
#    z 0.184400 0.000000 3.473070 
# 
# 
# High freq. dielectric constant tensor:
#      x y z
#    x 1.712360 0.000000 0.021020 
#    y 0.000000 1.726310 0.000000 
#    z 0.021020 0.000000 1.731290 
# 
# From -- ./inp_files/67284.got.cif
#   From: 2010.06.25/outbox.cif.g09.slc.cpg/sg11_34_cif.got.tgz:67284.got - 2010.06.27 23:14:04.
