data_PCOD8072474
_publ_section_title
;
Structure prediction by ZEFSAII (Michael W. Deem and Ramdas Pophale) SiO2 
 PCOD8072474
Probable space group: P 21/M
;
_chemical_formula_sum "Si O2"
_cell_formula_units_Z 24
_cell_length_a 14.241946
_cell_length_b 13.437350
_cell_length_c 11.455317
_cell_angle_alpha 90.000000
_cell_angle_beta 32.505375
_cell_angle_gamma 90.000000
_cell_volume 1178.068504
_symmetry_space_group_name_H-M "P 21/M"
_symmetry_group_IT_number 11
_symmetry_cell_setting 'monoclinic'
loop_
_space_group_symop_operation_xyz
x,y,z
-x,1/2+y,-z
-x,-y,-z
x,1/2-y,z
loop_
_atom_site_type_symbol
_atom_site_label
_atom_site_fract_x
_atom_site_fract_y
_atom_site_fract_z
Si Si1 0.383062 0.077293 0.966215
Si Si2 0.726316 0.863994 0.528925
Si Si3 0.565133 0.459062 0.309036
Si Si4 0.279186 0.958094 0.282089
Si Si5 0.956501 0.466220 0.916948
Si Si6 0.030254 0.141254 0.278952
O O1 0.223908 0.155286 0.131237
O O2 0.306882 0.980694 0.116448
O O3 0.560667 0.113792 0.843375
O O4 0.433449 0.051522 0.781144
O O5 0.727337 0.750000 0.572215
O O6 0.566238 0.876493 0.604977
O O7 0.906554 0.885048 0.271744
O O8 0.709022 0.938402 0.656877
O O9 0.500000 0.500000 0.500000
O O10 0.763131 0.417617 0.113345
O O11 0.097980 0.900571 0.486307
O O12 0.970015 0.567113 0.828519
O O13 0.000000 0.500000 0.000000
O O14 0.966248 0.250000 0.304754
#
# Coordination Sequence:
#
# PCOD8072474 Si02
#       6
#     4   4   4   4   4   4
#     4   9  19  36  58  81 110 152 188 228 286 332
#     4  10  21  36  58  85 111 147 192 234 281 340
#     4  10  19  36  59  79 110 147 187 234 282 332
#     4   9  19  38  59  81 116 152 185 233 287 336
#     4  10  20  37  58  79 116 152 185 232 286 336
#     4  10  21  35  56  87 116 147 190 236 283 338
#
# _framework density 20.372329000000001
#
# number of rings (size 3 to 8) (size 9 to 14) (size 15 to 20)
#    0.000    2.333    1.667    0.500    0.000    2.667 
#    0.000    6.667    0.000    0.000    0.000    0.000 
#    0.000    0.000    0.000    0.000    0.000    0.000 
#
# Total GULP energy -297404.113804 kJ/mol
# GULP energy per Si atom -12391.838075 kJ/mol
# Density = 2.032596 g / cm^3
# Si number density = 20.372329 Si / 1000 Ang^3
#
#
#
# Elastic Constant Matrix: (Units=GPa)
#
#
# Indices 1 2 3 4 5 6 
#
# 1 66.6794 19.3622 30.9368 0.0000 2.8656 0.0000
# 2 19.3622 92.2652 29.8079 0.0000 -9.2823 0.0000
# 3 30.9368 29.8079 130.9135 0.0000 -7.5283 0.0000
# 4 0.0000 0.0000 0.0000 9.7030 0.0000 -4.5027
# 5 2.8656 -9.2823 -7.5283 0.0000 42.8963 0.0000
# 6 0.0000 0.0000 0.0000 -4.5027 0.0000 16.9321
#
#
#
# Elastic Compliance Matrix: (Units=1/GPa)
#
#
# Indices 1 2 3 4 5 6 
#
# 1 0.017604 -0.002751 -0.003673 0.000000 -0.002416 0.000000
# 2 -0.002751 0.012316 -0.002011 0.000000 0.002496 0.000000
# 3 -0.003673 -0.002011 0.009045 0.000000 0.001398 0.000000
# 4 0.000000 0.000000 0.000000 0.117570 0.000000 0.031265
# 5 -0.002416 0.002496 0.001398 0.000000 0.024259 0.000000
# 6 0.000000 0.000000 0.000000 0.031265 0.000000 0.067374
#
#
# Mechanical properties :
#
#
# Convention : Reuss Voigt Hill
#
# Bulk Modulus (GPa) = 45.25599 50.00797 47.63198
# Shear Modulus (GPa) = 18.35532 27.88968 23.12250
#
# Velocity S-wave (km/s) = 3.00491 3.70401 3.37262
# Velocity P-wave (km/s) = 5.85679 6.54929 6.21270
#
# Compressibility (1/GPa) = 0.02209652
#
# Stress axis : x y z
#
# Youngs Moduli (GPa) = 56.80640 81.19333 110.56176
#
# Poissons Ratio (x) = 0.22334 0.40605
# Poissons Ratio (y) = 0.15626 0.22231
# Poissons Ratio (z) = 0.20863 0.16326
#
# Static dielectric constant tensor:
#      x y z
#    x 3.846270 0.000000 -0.301430 
#    y 0.000000 3.212620 0.000000 
#    z -0.301430 0.000000 4.190590 
# 
# 
# High freq. dielectric constant tensor:
#      x y z
#    x 1.802100 0.000000 -0.010160 
#    y 0.000000 1.743300 0.000000 
#    z -0.010160 0.000000 1.824800 
# 
# From -- ./inp_files/39497.got.cif
#   From: 2010.06.25/outbox.cif.g09.slc.cpg/sg11_20_cif.got.tgz:39497.got - 2010.06.27 23:14:04.
