data_PCOD8072090
_publ_section_title
;
Structure prediction by ZEFSAII (Michael W. Deem and Ramdas Pophale) SiO2 
 PCOD8072090
Probable space group: P 21/M
;
_chemical_formula_sum "Si O2"
_cell_formula_units_Z 32
_cell_length_a 7.737600
_cell_length_b 24.884325
_cell_length_c 13.925090
_cell_angle_alpha 90.000000
_cell_angle_beta 144.916494
_cell_angle_gamma 90.000000
_cell_volume 1541.075864
_symmetry_space_group_name_H-M "P 21/M"
_symmetry_group_IT_number 11
_symmetry_cell_setting 'monoclinic'
loop_
_space_group_symop_operation_xyz
x,y,z
-x,1/2+y,-z
-x,-y,-z
x,1/2-y,z
loop_
_atom_site_type_symbol
_atom_site_label
_atom_site_fract_x
_atom_site_fract_y
_atom_site_fract_z
Si Si1 0.849448 0.116653 0.830518
Si Si2 0.883018 0.492217 0.755820
Si Si3 0.474125 0.188097 0.523453
Si Si4 0.209336 0.518796 0.505297
Si Si5 0.587497 0.367274 0.385517
Si Si6 0.170634 0.691408 0.847013
Si Si7 0.399195 0.191363 0.126909
Si Si8 0.095991 0.594897 0.938811
O O1 0.980804 0.068864 0.823706
O O2 0.580568 0.148805 0.657150
O O3 0.748126 0.090670 0.885921
O O4 0.103411 0.157455 0.977730
O O5 0.557814 0.499219 0.661350
O O6 0.904711 0.500741 0.650870
O O7 0.124196 0.535364 0.905690
O O8 0.550525 0.250000 0.583011
O O9 0.640274 0.171573 0.500382
O O10 0.120959 0.177838 0.349672
O O11 0.186135 0.583158 0.502379
O O12 0.000000 0.500000 0.500000
O O13 0.637430 0.334217 0.310346
O O14 0.251849 0.389718 0.225830
O O15 0.120034 0.750000 0.875910
O O16 0.452623 0.697221 0.907818
O O17 0.262920 0.643346 0.959798
O O18 0.305172 0.250000 0.123679
#
# Coordination Sequence:
#
# PCOD8072090 Si02
#       8
#     4   4   4   4   4   4   4   4
#     4  11  21  37  57  85 119 154 196 244 308 357
#     4  10  21  39  58  86 126 158 200 248 300 364
#     4  10  19  34  58  84 110 147 198 250 298 351
#     4  10  21  36  61  92 120 158 200 253 303 357
#     4   9  18  35  56  83 110 150 201 233 292 367
#     4   9  20  38  58  84 113 151 201 245 290 358
#     4  10  21  37  58  83 118 156 194 245 301 362
#     4   9  20  36  59  78 113 162 190 236 295 364
#
# _framework density 20.764714999999999
#
# number of rings (size 3 to 8) (size 9 to 14) (size 15 to 20)
#    0.000    2.250    1.250    1.125    3.500    3.500 
#    2.250    1.875    0.000    3.000    0.000    0.000 
#    0.000    0.000    0.000    0.000    0.000    0.000 
#
# Total GULP energy -396431.476854 kJ/mol
# GULP energy per Si atom -12388.483652 kJ/mol
# Density = 2.071745 g / cm^3
# Si number density = 20.764715 Si / 1000 Ang^3
#
#
#
# Elastic Constant Matrix: (Units=GPa)
#
#
# Indices 1 2 3 4 5 6 
#
# 1 81.8453 7.5541 8.2517 0.0000 -15.6488 0.0000
# 2 7.5541 107.5842 10.7653 0.0000 -14.3915 0.0000
# 3 8.2517 10.7653 45.8396 0.0000 -25.8555 0.0000
# 4 0.0000 0.0000 0.0000 -1.1361 0.0000 -14.8561
# 5 -15.6488 -14.3915 -25.8555 0.0000 26.7371 0.0000
# 6 0.0000 0.0000 0.0000 -14.8561 0.0000 28.5625
#
#
#
# Elastic Compliance Matrix: (Units=1/GPa)
#
#
# Indices 1 2 3 4 5 6 
#
# 1 0.014209 0.000273 0.004734 0.000000 0.013041 0.000000
# 2 0.000273 0.010070 0.001613 0.000000 0.007140 0.000000
# 3 0.004734 0.001613 0.049800 0.000000 0.051796 0.000000
# 4 0.000000 0.000000 0.000000 -0.112827 0.000000 -0.058684
# 5 0.013041 0.007140 0.051796 0.000000 0.098966 0.000000
# 6 0.000000 0.000000 0.000000 -0.058684 0.000000 0.004488
#
#
# Mechanical properties :
#
#
# Convention : Reuss Voigt Hill
#
# Bulk Modulus (GPa) = 11.45232 32.04569 21.74900
# Shear Modulus (GPa) = 62.05724 24.74590 43.40157
#
# Velocity S-wave (km/s) = 5.47273 3.45589 4.57679
# Velocity P-wave (km/s) = 6.74252 5.60272 6.19888
#
# Compressibility (1/GPa) = 0.08731854
#
# Stress axis : x y z
#
# Youngs Moduli (GPa) = 70.37722 99.30927 20.08051
#
# Poissons Ratio (x) = -0.02712 -0.09506
# Poissons Ratio (y) = -0.01922 -0.03240
# Poissons Ratio (z) = -0.33315 -0.16022
#
# Static dielectric constant tensor:
#      x y z
#    x 3.661090 0.000000 -0.359530 
#    y 0.000000 4.722080 0.000000 
#    z -0.359530 0.000000 3.594720 
# 
# 
# High freq. dielectric constant tensor:
#      x y z
#    x 1.790890 0.000000 -0.027800 
#    y 0.000000 1.837340 0.000000 
#    z -0.027800 0.000000 1.788540 
# 
# From -- ./inp_files/48463.got.cif
#   From: 2010.06.25/outbox.cif.g09.slc.cpg/sg11_25_cif.got.tgz:48463.got - 2010.06.27 23:14:04.
