data_PCOD8072637
_publ_section_title
;
Structure prediction by ZEFSAII (Michael W. Deem and Ramdas Pophale) SiO2 
 PCOD8072637
Probable space group: P 21/M
;
_chemical_formula_sum "Si O2"
_cell_formula_units_Z 28
_cell_length_a 9.810212
_cell_length_b 8.811416
_cell_length_c 29.514933
_cell_angle_alpha 90.000000
_cell_angle_beta 147.005769
_cell_angle_gamma 90.000000
_cell_volume 1389.336103
_symmetry_space_group_name_H-M "P 21/M"
_symmetry_group_IT_number 11
_symmetry_cell_setting 'monoclinic'
loop_
_space_group_symop_operation_xyz
x,y,z
-x,1/2+y,-z
-x,-y,-z
x,1/2-y,z
loop_
_atom_site_type_symbol
_atom_site_label
_atom_site_fract_x
_atom_site_fract_y
_atom_site_fract_z
Si Si1 0.507463 0.075794 0.637172
Si Si2 0.185126 0.069643 0.629639
Si Si3 0.054055 0.424257 0.826569
Si Si4 0.536618 0.430468 0.807255
Si Si5 0.919068 0.929964 0.063858
Si Si6 0.623289 0.070569 0.489822
Si Si7 0.550205 0.428103 0.123556
O O1 0.463512 0.250000 0.610706
O O2 0.283526 0.016034 0.607557
O O3 0.760031 0.058452 0.736225
O O4 0.527868 0.977159 0.597251
O O5 0.190770 0.250000 0.632428
O O6 0.369059 0.004869 0.719540
O O7 0.906402 0.008841 0.562007
O O8 0.138683 0.250000 0.842702
O O9 0.116999 0.481713 0.894529
O O10 0.200605 0.535544 0.834437
O O11 0.534593 0.250000 0.806201
O O12 0.416840 0.489279 0.819821
O O13 0.818784 0.495003 0.881838
O O14 0.925261 0.750000 0.063734
O O15 0.692378 0.994438 0.970430
O O16 0.616615 0.250000 0.493537
O O17 0.500000 0.000000 0.500000
O O18 0.525019 0.250000 0.124150
#
# Coordination Sequence:
#
# PCOD8072637 Si02
#       7
#     4   4   4   4   4   4   4
#     4  10  20  39  65  88 110 145 195 242 283 333
#     4   9  19  38  64  87 109 146 197 238 273 334
#     4  10  20  37  61  84 108 150 199 236 279 343
#     4  10  19  37  62  84 108 150 201 239 276 334
#     4   9  18  36  60  83 110 148 197 244 284 334
#     4  11  24  40  60  90 123 152 184 228 284 342
#     4  11  23  35  51  84 124 153 184 238 297 338
#
# _framework density 20.153510000000001
#
# number of rings (size 3 to 8) (size 9 to 14) (size 15 to 20)
#    0.000    2.000    1.429    2.143    2.000    0.571 
#    0.000    4.286    0.000    0.000    0.000    0.000 
#    0.000    0.000    0.000    0.000    0.000    0.000 
#
# Total GULP energy -347251.756609 kJ/mol
# GULP energy per Si atom -12401.848450 kJ/mol
# Density = 2.010764 g / cm^3
# Si number density = 20.153510 Si / 1000 Ang^3
#
#
#
# Elastic Constant Matrix: (Units=GPa)
#
#
# Indices 1 2 3 4 5 6 
#
# 1 124.7120 18.4366 33.6401 0.0000 -14.1547 0.0000
# 2 18.4366 31.3092 22.2758 0.0000 -2.3728 0.0000
# 3 33.6401 22.2758 80.3938 0.0000 -11.6428 0.0000
# 4 0.0000 0.0000 0.0000 23.6899 0.0000 2.1914
# 5 -14.1547 -2.3728 -11.6428 0.0000 39.2541 0.0000
# 6 0.0000 0.0000 0.0000 2.1914 0.0000 20.2590
#
#
#
# Elastic Compliance Matrix: (Units=1/GPa)
#
#
# Indices 1 2 3 4 5 6 
#
# 1 0.009535 -0.003540 -0.002656 0.000000 0.002436 0.000000
# 2 -0.003540 0.041127 -0.010176 0.000000 -0.001809 0.000000
# 3 -0.002656 -0.010176 0.016866 0.000000 0.003430 0.000000
# 4 0.000000 0.000000 0.000000 0.042639 0.000000 -0.004612
# 5 0.002436 -0.001809 0.003430 0.000000 0.027262 0.000000
# 6 0.000000 0.000000 0.000000 -0.004612 0.000000 0.049860
#
#
# Mechanical properties :
#
#
# Convention : Reuss Voigt Hill
#
# Bulk Modulus (GPa) = 28.74920 42.79112 35.77016
# Shear Modulus (GPa) = 21.58632 27.44476 24.51554
#
# Velocity S-wave (km/s) = 3.27631 3.69424 3.49153
# Velocity P-wave (km/s) = 5.34868 6.28293 5.83453
#
# Compressibility (1/GPa) = 0.03478357
#
# Stress axis : x y z
#
# Youngs Moduli (GPa) = 104.87889 24.31475 59.28915
#
# Poissons Ratio (x) = 0.08608 0.15747
# Poissons Ratio (y) = 0.37131 0.60334
# Poissons Ratio (z) = 0.27855 0.24743
#
# Static dielectric constant tensor:
#      x y z
#    x 3.734520 0.000000 0.056720 
#    y 0.000000 3.257570 0.000000 
#    z 0.056720 0.000000 3.857020 
# 
# 
# High freq. dielectric constant tensor:
#      x y z
#    x 1.801140 0.000000 -0.002230 
#    y 0.000000 1.749280 0.000000 
#    z -0.002230 0.000000 1.797440 
# 
# From -- ./inp_files/28407.got.cif
#   From: 2010.06.25/outbox.cif.g09.slc.cpg/sg11_15_cif.got.tgz:28407.got - 2010.06.27 23:14:04.
