data_PCOD8072760
_publ_section_title
;
Structure prediction by ZEFSAII (Michael W. Deem and Ramdas Pophale) SiO2 
 PCOD8072760
Probable space group: P 21/M
;
_chemical_formula_sum "Si O2"
_cell_formula_units_Z 28
_cell_length_a 14.866010
_cell_length_b 9.231646
_cell_length_c 18.931361
_cell_angle_alpha 90.000000
_cell_angle_beta 38.021481
_cell_angle_gamma 90.000000
_cell_volume 1600.315835
_symmetry_space_group_name_H-M "P 21/M"
_symmetry_group_IT_number 11
_symmetry_cell_setting 'monoclinic'
loop_
_space_group_symop_operation_xyz
x,y,z
-x,1/2+y,-z
-x,-y,-z
x,1/2-y,z
loop_
_atom_site_type_symbol
_atom_site_label
_atom_site_fract_x
_atom_site_fract_y
_atom_site_fract_z
Si Si1 0.754078 0.086652 0.592621
Si Si2 0.399855 0.582045 0.915502
Si Si3 0.483375 0.582323 0.713382
Si Si4 0.844296 0.419885 0.826132
Si Si5 0.454385 0.580450 0.457943
Si Si6 0.878916 0.087305 0.374783
Si Si7 0.685351 0.416081 0.786300
O O1 0.687300 0.250000 0.620636
O O2 0.888821 0.068077 0.454600
O O3 0.793931 0.070831 0.650828
O O4 0.641349 0.959987 0.645108
O O5 0.436252 0.750000 0.905838
O O6 0.375137 0.551951 0.846855
O O7 0.532872 0.494447 0.866878
O O8 0.250908 0.536894 0.046824
O O9 0.481177 0.750000 0.692009
O O10 0.447528 0.484585 0.667037
O O11 0.865827 0.250000 0.805658
O O12 0.766654 0.483602 0.803751
O O13 0.004799 0.486346 0.735899
O O14 0.500000 0.500000 0.500000
O O15 0.487325 0.750000 0.444296
O O16 0.284393 0.547159 0.548844
O O17 0.917180 0.250000 0.328708
O O18 0.646173 0.250000 0.826402
#
# Coordination Sequence:
#
# PCOD8072760 Si02
#       7
#     4   4   4   4   4   4   4
#     4   8  15  29  45  63  92 125 159 202 244 280
#     4   9  18  31  46  67  96 129 166 205 238 271
#     4   9  16  28  48  72  96 123 155 191 234 279
#     4  10  20  31  44  66  97 131 166 203 239 276
#     4  10  20  35  56  80 101 118 144 186 234 286
#     4   9  19  33  47  67  96 126 154 188 235 288
#     4   9  17  29  46  67  91 125 169 211 245 276
#
# _framework density 17.496545000000001
#
# number of rings (size 3 to 8) (size 9 to 14) (size 15 to 20)
#    0.000    2.857    0.000    2.143    0.000    5.143 
#    0.000    0.000    0.000    0.857    0.000    0.000 
#    0.000    0.000    0.000    0.000    0.000    0.000 
#
# Total GULP energy -346952.020300 kJ/mol
# GULP energy per Si atom -12391.143582 kJ/mol
# Density = 1.745672 g / cm^3
# Si number density = 17.496545 Si / 1000 Ang^3
#
#
#
# Elastic Constant Matrix: (Units=GPa)
#
#
# Indices 1 2 3 4 5 6 
#
# 1 70.0928 40.3699 55.4573 0.0000 22.9157 0.0000
# 2 40.3699 71.8626 53.2222 0.0000 9.3368 0.0000
# 3 55.4573 53.2222 123.2443 0.0000 14.4294 0.0000
# 4 0.0000 0.0000 0.0000 27.5258 0.0000 0.4849
# 5 22.9157 9.3368 14.4294 0.0000 25.9201 0.0000
# 6 0.0000 0.0000 0.0000 0.4849 0.0000 23.6410
#
#
#
# Elastic Compliance Matrix: (Units=1/GPa)
#
#
# Indices 1 2 3 4 5 6 
#
# 1 0.033580 -0.009916 -0.008312 0.000000 -0.021488 0.000000
# 2 -0.009916 0.023555 -0.006143 0.000000 0.003702 0.000000
# 3 -0.008312 -0.006143 0.014321 0.000000 0.001589 0.000000
# 4 0.000000 0.000000 0.000000 0.036343 0.000000 -0.000745
# 5 -0.021488 0.003702 0.001589 0.000000 0.055360 0.000000
# 6 0.000000 0.000000 0.000000 -0.000745 0.000000 0.042315
#
#
# Mechanical properties :
#
#
# Convention : Reuss Voigt Hill
#
# Bulk Modulus (GPa) = 44.02836 62.58872 53.30854
# Shear Modulus (GPa) = 19.09951 23.16073 21.13012
#
# Velocity S-wave (km/s) = 3.30755 3.64226 3.47893
# Velocity P-wave (km/s) = 6.30913 7.31695 6.83165
#
# Compressibility (1/GPa) = 0.02271264
#
# Stress axis : x y z
#
# Youngs Moduli (GPa) = 29.77982 42.45420 69.82655
#
# Poissons Ratio (x) = 0.42097 0.58041
# Poissons Ratio (y) = 0.29530 0.42897
# Poissons Ratio (z) = 0.24754 0.26081
#
# Static dielectric constant tensor:
#      x y z
#    x 3.023140 0.000000 0.406740 
#    y 0.000000 3.263500 0.000000 
#    z 0.406740 0.000000 3.445950 
# 
# 
# High freq. dielectric constant tensor:
#      x y z
#    x 1.637880 0.000000 0.031410 
#    y 0.000000 1.680520 0.000000 
#    z 0.031410 0.000000 1.674950 
# 
# From -- ./inp_files/42297.got.cif
#   From: 2010.06.25/outbox.cif.g09.slc.cpg/sg11_22_cif.got.tgz:42297.got - 2010.06.27 23:14:04.
