data_PCOD8072892
_publ_section_title
;
Structure prediction by ZEFSAII (Michael W. Deem and Ramdas Pophale) SiO2 
 PCOD8072892
Probable space group: P 21/M
;
_chemical_formula_sum "Si O2"
_cell_formula_units_Z 32
_cell_length_a 16.605118
_cell_length_b 8.812007
_cell_length_c 24.781830
_cell_angle_alpha 90.000000
_cell_angle_beta 153.201527
_cell_angle_gamma 90.000000
_cell_volume 1634.879926
_symmetry_space_group_name_H-M "P 21/M"
_symmetry_group_IT_number 11
_symmetry_cell_setting 'monoclinic'
loop_
_space_group_symop_operation_xyz
x,y,z
-x,1/2+y,-z
-x,-y,-z
x,1/2-y,z
loop_
_atom_site_type_symbol
_atom_site_label
_atom_site_fract_x
_atom_site_fract_y
_atom_site_fract_z
Si Si1 0.286531 0.424330 0.292578
Si Si2 0.809581 0.070950 0.874318
Si Si3 0.340200 0.428993 0.832587
Si Si4 0.808494 0.568676 0.370767
Si Si5 0.542871 0.068514 0.298333
Si Si6 0.101830 0.075211 0.287998
Si Si7 0.324824 0.920194 0.506706
Si Si8 0.722968 0.074086 0.096199
O O1 0.223896 0.250000 0.243470
O O2 0.229992 0.535285 0.211262
O O3 0.198159 0.495835 0.293439
O O4 0.499827 0.428607 0.425968
O O5 0.811386 0.250000 0.885834
O O6 0.659340 0.995491 0.823205
O O7 0.000000 0.000000 0.000000
O O8 0.332075 0.250000 0.828135
O O9 0.245089 0.487620 0.721329
O O10 0.238727 0.490338 0.824403
O O11 0.546630 0.486262 0.959811
O O12 0.816889 0.750000 0.380151
O O13 0.655310 0.505155 0.317867
O O14 0.000000 0.500000 0.500000
O O15 0.536346 0.250000 0.289104
O O16 0.635393 0.016957 0.409697
O O17 0.150028 0.250000 0.316702
O O18 0.890348 0.043892 0.157071
O O19 0.169692 0.013460 0.385583
O O20 0.253864 0.750000 0.469545
O O21 0.702048 0.250000 0.097853
#
# Coordination Sequence:
#
# PCOD8072892 Si02
#       8
#     4   4   4   4   4   4   4   4
#     4   9  19  36  53  77 113 150 187 233 285 335
#     4  11  22  38  61  87 116 154 196 240 291 351
#     4   9  20  39  58  78 111 148 187 233 291 350
#     4  11  24  40  61  89 119 157 201 249 305 362
#     4  10  22  41  60  85 118 154 197 245 298 353
#     4  10  20  32  53  83 111 142 185 235 286 341
#     4   9  19  34  53  76 111 151 185 228 283 342
#     4   9  19  36  57  82 108 143 187 236 289 343
#
# _framework density 19.573302000000002
#
# number of rings (size 3 to 8) (size 9 to 14) (size 15 to 20)
#    0.000    2.250    0.000    3.000    1.750    5.500 
#    0.000    2.500    0.000    0.000    0.000    0.000 
#    0.000    0.000    0.000    0.000    0.000    0.000 
#
# Total GULP energy -396748.631178 kJ/mol
# GULP energy per Si atom -12398.394724 kJ/mol
# Density = 1.952875 g / cm^3
# Si number density = 19.573302 Si / 1000 Ang^3
#
#
#
# Elastic Constant Matrix: (Units=GPa)
#
#
# Indices 1 2 3 4 5 6 
#
# 1 106.1826 29.5353 49.3023 0.0000 -1.6938 0.0000
# 2 29.5353 64.1133 37.1069 0.0000 0.4644 0.0000
# 3 49.3023 37.1069 110.0349 0.0000 -2.1630 0.0000
# 4 0.0000 0.0000 0.0000 31.8301 0.0000 0.3558
# 5 -1.6938 0.4644 -2.1630 0.0000 25.0424 0.0000
# 6 0.0000 0.0000 0.0000 0.3558 0.0000 31.2636
#
#
#
# Elastic Compliance Matrix: (Units=1/GPa)
#
#
# Indices 1 2 3 4 5 6 
#
# 1 0.012373 -0.003107 -0.004486 0.000000 0.000507 0.000000
# 2 -0.003107 0.020182 -0.005434 0.000000 -0.001054 0.000000
# 3 -0.004486 -0.005434 0.012949 0.000000 0.000916 0.000000
# 4 0.000000 0.000000 0.000000 0.031421 0.000000 -0.000358
# 5 0.000507 -0.001054 0.000916 0.000000 0.040065 0.000000
# 6 0.000000 0.000000 0.000000 -0.000358 0.000000 0.031990
#
#
# Mechanical properties :
#
#
# Convention : Reuss Voigt Hill
#
# Bulk Modulus (GPa) = 51.41871 56.91331 54.16601
# Shear Modulus (GPa) = 27.54555 28.58631 28.06593
#
# Velocity S-wave (km/s) = 3.75547 3.82576 3.79078
# Velocity P-wave (km/s) = 6.71801 6.97534 6.84788
#
# Compressibility (1/GPa) = 0.01944817
#
# Stress axis : x y z
#
# Youngs Moduli (GPa) = 80.82072 49.55000 77.22799
#
# Poissons Ratio (x) = 0.15396 0.34645
# Poissons Ratio (y) = 0.25113 0.41968
# Poissons Ratio (z) = 0.36257 0.26927
#
# Static dielectric constant tensor:
#      x y z
#    x 3.665270 0.000000 0.045930 
#    y 0.000000 3.559010 0.000000 
#    z 0.045930 0.000000 3.781650 
# 
# 
# High freq. dielectric constant tensor:
#      x y z
#    x 1.764110 0.000000 0.007880 
#    y 0.000000 1.755740 0.000000 
#    z 0.007880 0.000000 1.765470 
# 
# From -- ./inp_files/69076.got.cif
#   From: 2010.06.25/outbox.cif.g09.slc.cpg/sg11_35_cif.got.tgz:69076.got - 2010.06.27 23:14:04.
