data_PCOD8072906
_publ_section_title
;
Structure prediction by ZEFSAII (Michael W. Deem and Ramdas Pophale) SiO2 
 PCOD8072906
Probable space group: P 21/M
;
_chemical_formula_sum "Si O2"
_cell_formula_units_Z 32
_cell_length_a 15.230220
_cell_length_b 8.701412
_cell_length_c 15.255251
_cell_angle_alpha 90.000000
_cell_angle_beta 87.929221
_cell_angle_gamma 90.000000
_cell_volume 2020.373014
_symmetry_space_group_name_H-M "P 21/M"
_symmetry_group_IT_number 11
_symmetry_cell_setting 'monoclinic'
loop_
_space_group_symop_operation_xyz
x,y,z
-x,1/2+y,-z
-x,-y,-z
x,1/2-y,z
loop_
_atom_site_type_symbol
_atom_site_label
_atom_site_fract_x
_atom_site_fract_y
_atom_site_fract_z
Si Si1 0.095929 0.070349 0.915834
Si Si2 0.091759 0.926140 0.103472
Si Si3 0.402630 0.074160 0.780355
Si Si4 0.390454 0.575999 0.229137
Si Si5 0.597607 0.075928 0.394117
Si Si6 0.730273 0.429653 0.088888
Si Si7 0.415625 0.926494 0.417895
Si Si8 0.735585 0.572621 0.899412
O O1 0.099432 0.250000 0.942518
O O2 0.008526 0.040278 0.858993
O O3 0.187360 0.018898 0.867244
O O4 0.090576 0.961297 0.000423
O O5 0.117094 0.750000 0.118888
O O6 0.168426 0.028377 0.145078
O O7 0.380416 0.250000 0.800455
O O8 0.506117 0.039959 0.780783
O O9 0.365379 0.032022 0.684585
O O10 0.357664 0.971119 0.855872
O O11 0.370963 0.750000 0.199443
O O12 0.358456 0.550295 0.331252
O O13 0.339003 0.460215 0.168868
O O14 0.613547 0.250000 0.362949
O O15 0.640528 0.046190 0.489875
O O16 0.494331 0.047973 0.412304
O O17 0.747446 0.250000 0.093675
O O18 0.717709 0.477515 0.988249
O O19 0.452480 0.750000 0.415704
O O20 0.733859 0.750000 0.924245
#
# Coordination Sequence:
#
# PCOD8072906 Si02
#       8
#     4   4   4   4   4   4   4   4
#     4   9  16  27  44  64  84 106 135 173 215 256
#     4   9  16  27  44  63  83 108 137 171 213 258
#     4  10  20  33  46  61  85 116 148 182 217 253
#     4   9  18  32  46  60  83 116 150 181 213 250
#     4   9  15  25  43  65  85 106 137 175 216 259
#     4  11  21  32  46  62  84 115 148 181 215 254
#     4   8  15  27  43  62  84 110 138 173 216 257
#     4  11  21  31  44  62  86 115 147 183 217 251
#
# _framework density 15.838660000000001
#
# number of rings (size 3 to 8) (size 9 to 14) (size 15 to 20)
#    0.000    2.500    0.000    6.000    0.000    5.000 
#    0.000    0.000    0.000    0.000    0.000    0.000 
#    0.000    1.000    0.000    3.000    0.000    4.750 
#
# Total GULP energy -396429.473472 kJ/mol
# GULP energy per Si atom -12388.421046 kJ/mol
# Density = 1.580261 g / cm^3
# Si number density = 15.838660 Si / 1000 Ang^3
#
#
#
# Elastic Constant Matrix: (Units=GPa)
#
#
# Indices 1 2 3 4 5 6 
#
# 1 65.5395 27.5048 36.8109 0.0000 5.7572 0.0000
# 2 27.5048 66.8182 24.7208 0.0000 2.6406 0.0000
# 3 36.8109 24.7208 73.1591 0.0000 6.3181 0.0000
# 4 0.0000 0.0000 0.0000 21.3139 0.0000 -0.2714
# 5 5.7572 2.6406 6.3181 0.0000 1.4780 0.0000
# 6 0.0000 0.0000 0.0000 -0.2714 0.0000 23.6534
#
#
#
# Elastic Compliance Matrix: (Units=1/GPa)
#
#
# Indices 1 2 3 4 5 6 
#
# 1 0.027264 -0.006404 -0.005344 0.000000 -0.071917 0.000000
# 2 -0.006404 0.018689 -0.003747 0.000000 0.007571 0.000000
# 3 -0.005344 -0.003747 0.024171 0.000000 -0.075817 0.000000
# 4 0.000000 0.000000 0.000000 0.046925 0.000000 0.000538
# 5 -0.071917 0.007571 -0.075817 0.000000 1.267290 0.000000
# 6 0.000000 0.000000 0.000000 0.000538 0.000000 0.042283
#
#
# Mechanical properties :
#
#
# Convention : Reuss Voigt Hill
#
# Bulk Modulus (GPa) = 25.55184 42.62108 34.08646
# Shear Modulus (GPa) = 3.39984 17.05441 10.22713
#
# Velocity S-wave (km/s) = 1.46670 3.28496 2.54383
# Velocity P-wave (km/s) = 4.36301 6.43085 5.49508
#
# Compressibility (1/GPa) = 0.03913612
#
# Stress axis : x y z
#
# Youngs Moduli (GPa) = 36.67812 53.50729 41.37141
#
# Poissons Ratio (x) = 0.34265 0.22107
# Poissons Ratio (y) = 0.23488 0.15501
# Poissons Ratio (z) = 0.19599 0.20048
#
# Static dielectric constant tensor:
#      x y z
#    x 3.150360 0.000000 -0.007220 
#    y 0.000000 3.057290 0.000000 
#    z -0.007220 0.000000 2.969980 
# 
# 
# High freq. dielectric constant tensor:
#      x y z
#    x 1.578830 0.000000 0.003180 
#    y 0.000000 1.623400 0.000000 
#    z 0.003180 0.000000 1.577750 
# 
# From -- ./inp_files/51276.got.cif
#   From: 2010.06.25/outbox.cif.g09.slc.cpg/sg11_26_cif.got.tgz:51276.got - 2010.06.27 23:14:04.
