data_PCOD8072592
_publ_section_title
;
Structure prediction by ZEFSAII (Michael W. Deem and Ramdas Pophale) SiO2 
 PCOD8072592
Probable space group: P 21/M
;
_chemical_formula_sum "Si O2"
_cell_formula_units_Z 20
_cell_length_a 5.218905
_cell_length_b 12.736519
_cell_length_c 16.438301
_cell_angle_alpha 90.000000
_cell_angle_beta 69.807366
_cell_angle_gamma 90.000000
_cell_volume 1025.507060
_symmetry_space_group_name_H-M "P 21/M"
_symmetry_group_IT_number 11
_symmetry_cell_setting 'monoclinic'
loop_
_space_group_symop_operation_xyz
x,y,z
-x,1/2+y,-z
-x,-y,-z
x,1/2-y,z
loop_
_atom_site_type_symbol
_atom_site_label
_atom_site_fract_x
_atom_site_fract_y
_atom_site_fract_z
Si Si1 0.984241 0.132668 0.080140
Si Si2 0.300925 0.126663 0.450954
Si Si3 0.317062 0.432358 0.899181
Si Si4 0.869212 0.021975 0.387364
Si Si5 0.923982 0.033716 0.808180
O O1 0.873718 0.250000 0.107106
O O2 0.095661 0.085092 0.153348
O O3 0.226632 0.135201 0.986951
O O4 0.739620 0.056712 0.074603
O O5 0.294319 0.250000 0.466401
O O6 0.605260 0.090948 0.394291
O O7 0.100074 0.096984 0.399526
O O8 0.204847 0.072338 0.544315
O O9 0.631628 0.410080 0.846161
O O10 0.139956 0.399740 0.838784
O O11 0.983051 0.967500 0.294607
#
# Coordination Sequence:
#
# PCOD8072592 Si02
#       5
#     4   4   4   4   4
#     4   9  20  34  54  78 105 144 180 215 265 314
#     4  10  21  38  57  82 111 145 180 219 277 336
#     4   9  20  36  52  73 112 141 167 226 261 309
#     4  10  21  37  59  81 111 145 177 229 275 318
#     4  10  19  37  53  78 107 139 176 223 266 303
#
# _framework density 19.502548000000001
#
# number of rings (size 3 to 8) (size 9 to 14) (size 15 to 20)
#    1.200    1.200    0.000    2.400    0.000    2.400 
#    0.000    2.000    0.000    0.000    0.000    0.000 
#    0.000    0.000    0.000    0.000    0.000    0.000 
#
# Total GULP energy -247897.564814 kJ/mol
# GULP energy per Si atom -12394.878241 kJ/mol
# Density = 1.945816 g / cm^3
# Si number density = 19.502548 Si / 1000 Ang^3
#
#
#
# Elastic Constant Matrix: (Units=GPa)
#
#
# Indices 1 2 3 4 5 6 
#
# 1 115.6092 6.0043 28.1188 0.0000 -22.2611 0.0000
# 2 6.0043 32.9108 -16.8982 0.0000 -5.6836 0.0000
# 3 28.1188 -16.8982 96.9278 0.0000 4.6248 0.0000
# 4 0.0000 0.0000 0.0000 7.0467 0.0000 -2.3450
# 5 -22.2611 -5.6836 4.6248 0.0000 23.2492 0.0000
# 6 0.0000 0.0000 0.0000 -2.3450 0.0000 10.1675
#
#
#
# Elastic Compliance Matrix: (Units=1/GPa)
#
#
# Indices 1 2 3 4 5 6 
#
# 1 0.012187 -0.002488 -0.004540 0.000000 0.011964 0.000000
# 2 -0.002488 0.035072 0.006604 0.000000 0.004878 0.000000
# 3 -0.004540 0.006604 0.013039 0.000000 -0.005327 0.000000
# 4 0.000000 0.000000 0.000000 0.153707 0.000000 0.035450
# 5 0.011964 0.004878 -0.005327 0.000000 0.056720 0.000000
# 6 0.000000 0.000000 0.000000 0.035450 0.000000 0.106529
#
#
# Mechanical properties :
#
#
# Convention : Reuss Voigt Hill
#
# Bulk Modulus (GPa) = 16.82125 31.09974 23.96049
# Shear Modulus (GPa) = 12.56535 23.30754 17.93644
#
# Velocity S-wave (km/s) = 2.54105 3.46078 3.03594
# Velocity P-wave (km/s) = 4.15368 5.65247 4.96002
#
# Compressibility (1/GPa) = 0.05944861
#
# Stress axis : x y z
#
# Youngs Moduli (GPa) = 82.05429 28.51265 76.69032
#
# Poissons Ratio (x) = 0.07095 0.34818
# Poissons Ratio (y) = 0.20419 -0.50643
# Poissons Ratio (z) = 0.37254 -0.18829
#
# Static dielectric constant tensor:
#      x y z
#    x 3.691450 0.000000 -0.008450 
#    y 0.000000 3.126700 0.000000 
#    z -0.008450 0.000000 3.409420 
# 
# 
# High freq. dielectric constant tensor:
#      x y z
#    x 1.764020 0.000000 -0.000590 
#    y 0.000000 1.727250 0.000000 
#    z -0.000590 0.000000 1.758870 
# 
# From -- ./inp_files/56858.got.cif
#   From: 2010.06.25/outbox.cif.g09.slc.cpg/sg11_29_cif.got.tgz:56858.got - 2010.06.27 23:14:04.
