data_PCOD8072281
_publ_section_title
;
Structure prediction by ZEFSAII (Michael W. Deem and Ramdas Pophale) SiO2 
 PCOD8072281
Probable space group: P 21/M
;
_chemical_formula_sum "Si O2"
_cell_formula_units_Z 32
_cell_length_a 19.661760
_cell_length_b 8.924904
_cell_length_c 19.660822
_cell_angle_alpha 90.000000
_cell_angle_beta 29.508960
_cell_angle_gamma 90.000000
_cell_volume 1699.364171
_symmetry_space_group_name_H-M "P 21/M"
_symmetry_group_IT_number 11
_symmetry_cell_setting 'monoclinic'
loop_
_space_group_symop_operation_xyz
x,y,z
-x,1/2+y,-z
-x,-y,-z
x,1/2-y,z
loop_
_atom_site_type_symbol
_atom_site_label
_atom_site_fract_x
_atom_site_fract_y
_atom_site_fract_z
Si Si1 0.878388 0.073137 0.691662
Si Si2 0.260339 0.928166 0.050020
Si Si3 0.073230 0.928043 0.088342
Si Si4 0.793152 0.072129 0.304380
Si Si5 0.443368 0.427896 0.251700
Si Si6 0.450178 0.072024 0.401153
Si Si7 0.185139 0.426817 0.390516
Si Si8 0.252412 0.572632 0.807851
O O1 0.861179 0.250000 0.700687
O O2 0.806309 0.009844 0.822397
O O3 0.040145 0.027803 0.551817
O O4 0.800954 0.999571 0.695560
O O5 0.260838 0.750000 0.050183
O O6 0.169053 0.984582 0.066406
O O7 0.416514 0.989609 0.905455
O O8 0.055198 0.750000 0.105517
O O9 0.925747 0.004380 0.226119
O O10 0.140072 0.985904 0.959697
O O11 0.798698 0.250000 0.301881
O O12 0.786428 0.011432 0.232728
O O13 0.660380 0.014838 0.458711
O O14 0.445146 0.250000 0.248236
O O15 0.435823 0.481516 0.335937
O O16 0.309736 0.490312 0.328205
O O17 0.429976 0.250000 0.426069
O O18 0.597095 0.016061 0.301137
O O19 0.196332 0.250000 0.371929
O O20 0.253581 0.750000 0.808058
#
# Coordination Sequence:
#
# PCOD8072281 Si02
#       8
#     4   4   4   4   4   4   4   4
#     4   9  18  32  51  76 105 134 165 204 251 302
#     4   9  17  31  54  80 102 128 171 223 260 291
#     4  10  19  35  58  80 101 135 182 224 260 307
#     4  11  23  35  49  77 114 143 170 214 269 321
#     4   9  17  31  54  80 102 128 171 223 260 291
#     4  10  19  35  58  80 101 135 182 224 260 307
#     4   9  18  32  51  76 105 134 165 204 251 302
#     4   9  18  35  57  79 104 135 177 224 266 309
#
# _framework density 18.830572
#
# number of rings (size 3 to 8) (size 9 to 14) (size 15 to 20)
#    0.000    2.500    1.250    1.125    1.750    0.500 
#    0.000    3.125    0.000    1.500    0.000    0.000 
#    0.000    0.000    0.000    0.000    0.000    0.000 
#
# Total GULP energy -396809.170499 kJ/mol
# GULP energy per Si atom -12400.286578 kJ/mol
# Density = 1.878771 g / cm^3
# Si number density = 18.830572 Si / 1000 Ang^3
#
#
#
# Elastic Constant Matrix: (Units=GPa)
#
#
# Indices 1 2 3 4 5 6 
#
# 1 111.8948 17.6969 25.2248 0.0000 -1.1612 0.0000
# 2 17.6969 22.0874 15.8874 0.0000 -0.1205 0.0000
# 3 25.2248 15.8874 61.8338 0.0000 10.2511 0.0000
# 4 0.0000 0.0000 0.0000 15.8575 0.0000 6.9804
# 5 -1.1612 -0.1205 10.2511 0.0000 41.6734 0.0000
# 6 0.0000 0.0000 0.0000 6.9804 0.0000 20.7460
#
#
#
# Elastic Compliance Matrix: (Units=1/GPa)
#
#
# Indices 1 2 3 4 5 6 
#
# 1 0.010606 -0.006458 -0.002829 0.000000 0.000973 0.000000
# 2 -0.006458 0.060063 -0.013341 0.000000 0.003275 0.000000
# 3 -0.002829 -0.013341 0.021657 0.000000 -0.005445 0.000000
# 4 0.000000 0.000000 0.000000 0.074026 0.000000 -0.024907
# 5 0.000973 0.003275 -0.005445 0.000000 0.025372 0.000000
# 6 0.000000 0.000000 0.000000 -0.024907 0.000000 0.056583
#
#
# Mechanical properties :
#
#
# Convention : Reuss Voigt Hill
#
# Bulk Modulus (GPa) = 21.24462 34.82604 28.03533
# Shear Modulus (GPa) = 16.16808 24.78916 20.47862
#
# Velocity S-wave (km/s) = 2.93338 3.63220 3.30133
# Velocity P-wave (km/s) = 4.77278 6.01042 5.42699
#
# Compressibility (1/GPa) = 0.04707075
#
# Stress axis : x y z
#
# Youngs Moduli (GPa) = 94.28532 16.64919 46.17494
#
# Poissons Ratio (x) = 0.10752 0.13061
# Poissons Ratio (y) = 0.60888 0.61602
# Poissons Ratio (z) = 0.26670 0.22212
#
# Static dielectric constant tensor:
#      x y z
#    x 3.714990 0.000000 0.004310 
#    y 0.000000 2.967660 0.000000 
#    z 0.004310 0.000000 3.656570 
# 
# 
# High freq. dielectric constant tensor:
#      x y z
#    x 1.742780 0.000000 -0.001270 
#    y 0.000000 1.684140 0.000000 
#    z -0.001270 0.000000 1.745300 
# 
# From -- ./inp_files/60956.got.cif
#   From: 2010.06.25/outbox.cif.g09.slc.cpg/sg11_31_cif.got.tgz:60956.got - 2010.06.27 23:14:04.
