data_PCOD8072362
_publ_section_title
;
Structure prediction by ZEFSAII (Michael W. Deem and Ramdas Pophale) SiO2 
 PCOD8072362
Probable space group: P 21/M
;
_chemical_formula_sum "Si O2"
_cell_formula_units_Z 28
_cell_length_a 10.025966
_cell_length_b 32.173779
_cell_length_c 5.033303
_cell_angle_alpha 90.000000
_cell_angle_beta 60.067083
_cell_angle_gamma 90.000000
_cell_volume 1407.035916
_symmetry_space_group_name_H-M "P 21/M"
_symmetry_group_IT_number 11
_symmetry_cell_setting 'monoclinic'
loop_
_space_group_symop_operation_xyz
x,y,z
-x,1/2+y,-z
-x,-y,-z
x,1/2-y,z
loop_
_atom_site_type_symbol
_atom_site_label
_atom_site_fract_x
_atom_site_fract_y
_atom_site_fract_z
Si Si1 0.585440 0.204105 0.120336
Si Si2 0.919010 0.116809 0.316377
Si Si3 0.572665 0.876481 0.751382
Si Si4 0.389673 0.001981 0.860297
Si Si5 0.208351 0.703357 0.585697
Si Si6 0.247617 0.915391 0.021259
Si Si7 0.738683 0.590923 0.078625
O O1 0.514627 0.250000 0.225799
O O2 0.653148 0.197642 0.759431
O O3 0.446193 0.172012 0.304752
O O4 0.724005 0.196945 0.188136
O O5 0.918312 0.167341 0.336551
O O6 0.883878 0.096580 0.637179
O O7 0.792308 0.102081 0.229549
O O8 0.083080 0.100684 0.057271
O O9 0.654741 0.901434 0.438378
O O10 0.405219 0.895568 0.970129
O O11 0.671578 0.879135 0.919785
O O12 0.286875 0.043229 0.974455
O O13 0.500000 0.000000 0.500000
O O14 0.500000 0.000000 0.000000
O O15 0.266115 0.964876 0.983280
O O16 0.135731 0.750000 0.628859
#
# Coordination Sequence:
#
# PCOD8072362 Si02
#       7
#     4   4   4   4   4   4   4
#     4  10  20  34  61  92 115 147 207 255 285 348
#     4  12  24  41  59  95 121 159 199 249 308 358
#     4  12  21  41  64  90 116 165 199 244 304 356
#     4  12  23  40  62  92 118 157 210 250 299 356
#     4  10  19  35  59  87 117 153 196 245 291 358
#     4  12  23  39  69  84 121 162 208 245 290 366
#     4  12  26  40  62  90 130 157 197 256 309 356
#
# _framework density 19.899989000000001
#
# number of rings (size 3 to 8) (size 9 to 14) (size 15 to 20)
#    0.000    0.571    5.714    3.429    0.000    1.143 
#    0.000    1.429    0.000    0.000    0.000    0.000 
#    0.000    0.000    0.000    0.000    0.000    0.000 
#
# Total GULP energy -347338.484731 kJ/mol
# GULP energy per Si atom -12404.945883 kJ/mol
# Density = 1.985470 g / cm^3
# Si number density = 19.899989 Si / 1000 Ang^3
#
#
#
# Elastic Constant Matrix: (Units=GPa)
#
#
# Indices 1 2 3 4 5 6 
#
# 1 49.8003 -13.1100 48.0856 0.0000 -31.4275 0.0000
# 2 -13.1100 25.1393 103.3953 0.0000 -121.3828 0.0000
# 3 48.0856 103.3953 23.4503 0.0000 70.7822 0.0000
# 4 0.0000 0.0000 0.0000 3.7947 0.0000 12.5321
# 5 -31.4275 -121.3828 70.7822 0.0000 -46.7916 0.0000
# 6 0.0000 0.0000 0.0000 12.5321 0.0000 22.9990
#
#
#
# Elastic Compliance Matrix: (Units=1/GPa)
#
#
# Indices 1 2 3 4 5 6 
#
# 1 0.018299 -0.004328 -0.002736 0.000000 -0.005203 0.000000
# 2 -0.004328 0.004463 0.002761 0.000000 -0.004495 0.000000
# 3 -0.002736 0.002761 0.009370 0.000000 0.008849 0.000000
# 4 0.000000 0.000000 0.000000 -0.329602 0.000000 0.179599
# 5 -0.005203 -0.004495 0.008849 0.000000 0.007169 0.000000
# 6 0.000000 0.000000 0.000000 0.179599 0.000000 -0.054382
#
#
# Mechanical properties :
#
#
# Convention : Reuss Voigt Hill
#
# Bulk Modulus (GPa) = 42.50377 41.68131 42.09254
# Shear Modulus (GPa) = -15.23295 -6.66499 -10.94897
#
# Velocity S-wave (km/s) = -2.76972 -1.83208 -2.34818
# Velocity P-wave (km/s) = 3.34314 4.06393 3.72103
#
# Compressibility (1/GPa) = 0.02352733
#
# Stress axis : x y z
#
# Youngs Moduli (GPa) = 54.64714 224.05226 106.72357
#
# Poissons Ratio (x) = 0.96961 0.29202
# Poissons Ratio (y) = 0.23649 -0.29469
# Poissons Ratio (z) = 0.14953 -0.61866
#
# Static dielectric constant tensor:
#      x y z
#    x 3.356400 0.000000 0.193010 
#    y 0.000000 4.149180 0.000000 
#    z 0.193010 0.000000 3.530490 
# 
# 
# High freq. dielectric constant tensor:
#      x y z
#    x 1.757640 0.000000 0.028380 
#    y 0.000000 1.797040 0.000000 
#    z 0.028380 0.000000 1.777750 
# 
# From -- ./inp_files/3328.got.cif
#   From: 2010.06.25/outbox.cif.g09.slc.cpg/sg11_2_cif.got.tgz:3328.got - 2010.06.27 23:14:04.
