data_PCOD8072993
_publ_section_title
;
Structure prediction by ZEFSAII (Michael W. Deem and Ramdas Pophale) SiO2 
 PCOD8072993
Probable space group: P 21/M
;
_chemical_formula_sum "Si O2"
_cell_formula_units_Z 32
_cell_length_a 27.692023
_cell_length_b 8.992900
_cell_length_c 22.697087
_cell_angle_alpha 90.000000
_cell_angle_beta 162.381828
_cell_angle_gamma 90.000000
_cell_volume 1710.791525
_symmetry_space_group_name_H-M "P 21/M"
_symmetry_group_IT_number 11
_symmetry_cell_setting 'monoclinic'
loop_
_space_group_symop_operation_xyz
x,y,z
-x,1/2+y,-z
-x,-y,-z
x,1/2-y,z
loop_
_atom_site_type_symbol
_atom_site_label
_atom_site_fract_x
_atom_site_fract_y
_atom_site_fract_z
Si Si1 0.396880 0.423745 0.462757
Si Si2 0.483540 0.417826 0.793331
Si Si3 0.389437 0.417962 0.952958
Si Si4 0.135884 0.082177 0.445716
Si Si5 0.644994 0.419505 0.463076
Si Si6 0.008588 0.919505 0.190546
Si Si7 0.265293 0.576244 0.199376
Si Si8 0.737614 0.417969 0.301093
O O1 0.359582 0.250000 0.419490
O O2 0.359499 0.489231 0.482521
O O3 0.279593 0.499975 0.279554
O O4 0.579620 0.458313 0.659353
O O5 0.541538 0.250000 0.848453
O O6 0.608745 0.497003 0.982554
O O7 0.311064 0.417173 0.622224
O O8 0.479054 0.507608 0.726968
O O9 0.330300 0.250000 0.894439
O O10 0.563752 0.418541 0.127478
O O11 0.265969 0.500022 0.766003
O O12 0.072124 0.250000 0.379073
O O13 0.138813 0.003010 0.512686
O O14 0.016622 0.992309 0.264609
O O15 0.592523 0.250000 0.413274
O O16 0.821890 0.428222 0.643636
O O17 0.950740 0.750000 0.130001
O O18 0.886320 0.010908 0.009437
O O19 0.240009 0.750000 0.180109
O O20 0.797983 0.250000 0.362082
#
# Coordination Sequence:
#
# PCOD8072993 Si02
#       8
#     4   4   4   4   4   4   4   4
#     4  10  21  37  56  76  98 126 160 198 241 288
#     4   9  16  26  40  59  86 120 156 195 239 284
#     4   9  15  22  33  51  78 114 155 195 235 282
#     4   9  16  26  40  59  86 120 156 195 239 284
#     4  10  20  33  50  73 100 130 163 199 241 289
#     4  10  20  33  50  73 100 130 163 199 241 289
#     4  10  21  37  56  76  98 126 160 198 241 288
#     4   9  15  22  33  51  78 114 155 195 235 282
#
# _framework density 18.704792000000001
#
# number of rings (size 3 to 8) (size 9 to 14) (size 15 to 20)
#    0.000    2.500    0.000    3.000    0.000    9.500 
#    0.000    0.000    0.000    0.000    0.000    0.000 
#    0.000    1.000    0.000    3.750    0.000    8.250 
#
# Total GULP energy -396843.567739 kJ/mol
# GULP energy per Si atom -12401.361492 kJ/mol
# Density = 1.866222 g / cm^3
# Si number density = 18.704792 Si / 1000 Ang^3
#
#
#
# Elastic Constant Matrix: (Units=GPa)
#
#
# Indices 1 2 3 4 5 6 
#
# 1 40.1038 45.7445 65.9026 0.0000 -38.4925 0.0000
# 2 45.7445 150.2850 50.4242 0.0000 -31.3871 0.0000
# 3 65.9026 50.4242 52.3304 0.0000 -45.2665 0.0000
# 4 0.0000 0.0000 0.0000 31.8457 0.0000 -15.7642
# 5 -38.4925 -31.3871 -45.2665 0.0000 36.5834 0.0000
# 6 0.0000 0.0000 0.0000 -15.7642 0.0000 29.6247
#
#
#
# Elastic Compliance Matrix: (Units=1/GPa)
#
#
# Indices 1 2 3 4 5 6 
#
# 1 0.016817 -0.007392 0.060234 0.000000 0.085883 0.000000
# 2 -0.007392 0.009505 -0.006777 0.000000 -0.008008 0.000000
# 3 0.060234 -0.006777 0.006027 0.000000 0.065020 0.000000
# 4 0.000000 0.000000 0.000000 0.042631 0.000000 0.022685
# 5 0.085883 -0.008008 0.065020 0.000000 0.191281 0.000000
# 6 0.000000 0.000000 0.000000 0.022685 0.000000 0.045827
#
#
# Mechanical properties :
#
#
# Convention : Reuss Voigt Hill
#
# Bulk Modulus (GPa) = 8.03349 62.98463 35.50906
# Shear Modulus (GPa) = 19.12393 24.98729 22.05561
#
# Velocity S-wave (km/s) = 3.20098 3.65893 3.43759
# Velocity P-wave (km/s) = 4.23862 7.18307 5.89756
#
# Compressibility (1/GPa) = 0.12447897
#
# Stress axis : x y z
#
# Youngs Moduli (GPa) = 59.46297 105.20336 165.92138
#
# Poissons Ratio (x) = 0.77767 -9.99405
# Poissons Ratio (y) = 0.43955 1.12444
# Poissons Ratio (z) = -3.58167 0.71295
#
# Static dielectric constant tensor:
#      x y z
#    x 3.194780 0.000000 -0.433220 
#    y 0.000000 3.816540 0.000000 
#    z -0.433220 0.000000 3.255580 
# 
# 
# High freq. dielectric constant tensor:
#      x y z
#    x 1.697090 0.000000 -0.045910 
#    y 0.000000 1.749510 0.000000 
#    z -0.045910 0.000000 1.703550 
# 
# From -- ./inp_files/67035.got.cif
#   From: 2010.06.25/outbox.cif.g09.slc.cpg/sg11_34_cif.got.tgz:67035.got - 2010.06.27 23:14:04.
