data_PCOD8072486
_publ_section_title
;
Structure prediction by ZEFSAII (Michael W. Deem and Ramdas Pophale) SiO2 
 PCOD8072486
Probable space group: P 21/M
;
_chemical_formula_sum "Si O2"
_cell_formula_units_Z 28
_cell_length_a 9.588522
_cell_length_b 8.353521
_cell_length_c 26.988083
_cell_angle_alpha 90.000000
_cell_angle_beta 41.038623
_cell_angle_gamma 90.000000
_cell_volume 1419.295224
_symmetry_space_group_name_H-M "P 21/M"
_symmetry_group_IT_number 11
_symmetry_cell_setting 'monoclinic'
loop_
_space_group_symop_operation_xyz
x,y,z
-x,1/2+y,-z
-x,-y,-z
x,1/2-y,z
loop_
_atom_site_type_symbol
_atom_site_label
_atom_site_fract_x
_atom_site_fract_y
_atom_site_fract_z
Si Si1 0.062655 0.565823 0.429688
Si Si2 0.271875 0.569992 0.552523
Si Si3 0.096919 0.071318 0.690521
Si Si4 0.525817 0.057988 0.741659
Si Si5 0.359927 0.940953 0.082464
Si Si6 0.351381 0.063136 0.186934
Si Si7 0.118880 0.066140 0.793924
O O1 0.107834 0.750000 0.425115
O O2 0.273753 0.493642 0.345606
O O3 0.000000 0.500000 0.500000
O O4 0.859067 0.538679 0.449919
O O5 0.500000 0.500000 0.500000
O O6 0.279097 0.750000 0.529979
O O7 0.167282 0.566902 0.634523
O O8 0.150513 0.250000 0.655865
O O9 0.205402 0.045238 0.714645
O O10 0.846553 0.056441 0.762977
O O11 0.534121 0.250000 0.741969
O O12 0.304431 0.990842 0.778143
O O13 0.520779 0.983850 0.798014
O O14 0.363075 0.750000 0.086516
O O15 0.118162 0.008016 0.137406
O O16 0.464566 0.020861 0.104151
O O17 0.500000 0.000000 0.000000
O O18 0.291981 0.250000 0.204990
O O19 0.097920 0.250000 0.814141
#
# Coordination Sequence:
#
# PCOD8072486 Si02
#       7
#     4   4   4   4   4   4   4
#     4  11  24  40  60  85 119 159 201 250 307 362
#     4  12  25  40  58  82 114 151 199 252 305 361
#     4  10  19  36  59  83 111 148 194 244 296 349
#     4  10  20  38  61  84 115 157 197 240 294 353
#     4  10  20  38  63  90 121 153 191 240 292 351
#     4  11  21  35  58  87 117 154 195 235 284 346
#     4   8  18  35  59  87 114 148 190 236 288 345
#
# _framework density 19.728102
#
# number of rings (size 3 to 8) (size 9 to 14) (size 15 to 20)
#    0.000    1.714    1.429    4.714    2.000    0.571 
#    0.000    5.000    0.000    0.000    0.000    0.000 
#    0.000    0.000    0.000    0.000    0.000    0.000 
#
# Total GULP energy -346962.241973 kJ/mol
# GULP energy per Si atom -12391.508642 kJ/mol
# Density = 1.968320 g / cm^3
# Si number density = 19.728102 Si / 1000 Ang^3
#
#
#
# Elastic Constant Matrix: (Units=GPa)
#
#
# Indices 1 2 3 4 5 6 
#
# 1 166.1904 29.0503 69.0036 0.0000 7.1266 0.0000
# 2 29.0503 62.3268 21.6096 0.0000 6.6951 0.0000
# 3 69.0036 21.6096 105.0417 0.0000 17.9168 0.0000
# 4 0.0000 0.0000 0.0000 27.7467 0.0000 7.7942
# 5 7.1266 6.6951 17.9168 0.0000 32.0096 0.0000
# 6 0.0000 0.0000 0.0000 7.7942 0.0000 26.9967
#
#
#
# Elastic Compliance Matrix: (Units=1/GPa)
#
#
# Indices 1 2 3 4 5 6 
#
# 1 0.008618 -0.002296 -0.005466 0.000000 0.001621 0.000000
# 2 -0.002296 0.017982 -0.001809 0.000000 -0.002237 0.000000
# 3 -0.005466 -0.001809 0.014605 0.000000 -0.006580 0.000000
# 4 0.000000 0.000000 0.000000 0.039221 0.000000 -0.011324
# 5 0.001621 -0.002237 -0.006580 0.000000 0.035030 0.000000
# 6 0.000000 0.000000 0.000000 -0.011324 0.000000 0.040311
#
#
# Mechanical properties :
#
#
# Convention : Reuss Voigt Hill
#
# Bulk Modulus (GPa) = 45.32406 63.65399 54.48903
# Shear Modulus (GPa) = 27.43254 31.61029 29.52141
#
# Velocity S-wave (km/s) = 3.73303 4.00721 3.87255
# Velocity P-wave (km/s) = 6.45019 7.33117 6.90474
#
# Compressibility (1/GPa) = 0.02206333
#
# Stress axis : x y z
#
# Youngs Moduli (GPa) = 116.03004 55.61006 68.46942
#
# Poissons Ratio (x) = 0.12769 0.37423
# Poissons Ratio (y) = 0.26642 0.12389
# Poissons Ratio (z) = 0.63418 0.10062
#
# Static dielectric constant tensor:
#      x y z
#    x -7.773820 0.000000 -8.517340 
#    y 0.000000 3.491840 0.000000 
#    z -8.517340 0.000000 -2.742650 
# 
# 
# High freq. dielectric constant tensor:
#      x y z
#    x 1.778060 0.000000 0.011770 
#    y 0.000000 1.757730 0.000000 
#    z 0.011770 0.000000 1.756400 
# 
# From -- ./inp_files/72703.got.cif
#   From: 2010.06.25/outbox.cif.g09.slc.cpg/sg11_37_cif.got.tgz:72703.got - 2010.06.27 23:14:04.
