data_PCOD8072544
_publ_section_title
;
Structure prediction by ZEFSAII (Michael W. Deem and Ramdas Pophale) SiO2 
 PCOD8072544
Probable space group: P 21/M
;
_chemical_formula_sum "Si O2"
_cell_formula_units_Z 28
_cell_length_a 16.419701
_cell_length_b 8.898540
_cell_length_c 22.686087
_cell_angle_alpha 90.000000
_cell_angle_beta 25.563429
_cell_angle_gamma 90.000000
_cell_volume 1430.324227
_symmetry_space_group_name_H-M "P 21/M"
_symmetry_group_IT_number 11
_symmetry_cell_setting 'monoclinic'
loop_
_space_group_symop_operation_xyz
x,y,z
-x,1/2+y,-z
-x,-y,-z
x,1/2-y,z
loop_
_atom_site_type_symbol
_atom_site_label
_atom_site_fract_x
_atom_site_fract_y
_atom_site_fract_z
Si Si1 0.199402 0.572236 0.387152
Si Si2 0.254935 0.419537 0.128494
Si Si3 0.569377 0.576408 0.862470
Si Si4 0.192696 0.427575 0.851813
Si Si5 0.592053 0.072093 0.632652
Si Si6 0.162113 0.577789 0.635013
Si Si7 0.693296 0.573277 0.352615
O O1 0.169802 0.750000 0.409311
O O2 0.355731 0.529925 0.237495
O O3 0.285702 0.508021 0.392394
O O4 0.000000 0.500000 0.500000
O O5 0.319220 0.250000 0.071410
O O6 0.306321 0.460289 0.161584
O O7 0.033366 0.439443 0.270725
O O8 0.354019 0.531264 0.017441
O O9 0.580802 0.750000 0.835931
O O10 0.164838 0.250000 0.871132
O O11 0.370257 0.475690 0.777835
O O12 0.238114 0.484096 0.755974
O O13 0.000000 0.500000 0.000000
O O14 0.608178 0.250000 0.624584
O O15 0.679263 0.016603 0.513668
O O16 0.203338 0.750000 0.626100
O O17 0.152378 0.476663 0.699979
O O18 0.500000 0.500000 0.500000
O O19 0.665682 0.750000 0.369155
#
# Coordination Sequence:
#
# PCOD8072544 Si02
#       7
#     4   4   4   4   4   4   4
#     4  11  22  37  59  84 114 152 196 239 290 353
#     4   9  19  35  57  82 110 151 193 233 288 350
#     4  10  20  36  56  79 114 152 191 240 289 339
#     4  10  22  41  62  85 118 156 197 241 292 351
#     4   9  19  38  60  81 112 156 195 234 287 355
#     4  10  19  36  61  85 112 147 194 240 286 348
#     4  11  22  38  61  87 116 149 189 240 293 347
#
# _framework density 19.575980999999999
#
# number of rings (size 3 to 8) (size 9 to 14) (size 15 to 20)
#    0.000    2.000    1.429    2.143    0.000    5.714 
#    0.000    8.571    0.000    0.000    0.000    0.000 
#    0.000    0.000    0.000    0.000    0.000    0.000 
#
# Total GULP energy -347145.233062 kJ/mol
# GULP energy per Si atom -12398.044038 kJ/mol
# Density = 1.953143 g / cm^3
# Si number density = 19.575981 Si / 1000 Ang^3
#
#
#
# Elastic Constant Matrix: (Units=GPa)
#
#
# Indices 1 2 3 4 5 6 
#
# 1 125.7102 32.6947 63.8240 0.0000 0.5899 0.0000
# 2 32.6947 49.5801 35.9809 0.0000 3.8924 0.0000
# 3 63.8240 35.9809 125.8142 0.0000 1.0162 0.0000
# 4 0.0000 0.0000 0.0000 36.3577 0.0000 -0.0911
# 5 0.5899 3.8924 1.0162 0.0000 29.5907 0.0000
# 6 0.0000 0.0000 0.0000 -0.0911 0.0000 29.5205
#
#
#
# Elastic Compliance Matrix: (Units=1/GPa)
#
#
# Indices 1 2 3 4 5 6 
#
# 1 0.011367 -0.004223 -0.004563 0.000000 0.000486 0.000000
# 2 -0.004223 0.027308 -0.005641 0.000000 -0.003314 0.000000
# 3 -0.004563 -0.005641 0.011873 0.000000 0.000425 0.000000
# 4 0.000000 0.000000 0.000000 0.027505 0.000000 0.000085
# 5 0.000486 -0.003314 0.000425 0.000000 0.034206 0.000000
# 6 0.000000 0.000000 0.000000 0.000085 0.000000 0.033875
#
#
# Mechanical properties :
#
#
# Convention : Reuss Voigt Hill
#
# Bulk Modulus (GPa) = 46.09322 62.90040 54.49681
# Shear Modulus (GPa) = 27.43972 30.33411 28.88692
#
# Velocity S-wave (km/s) = 3.74799 3.94071 3.84556
# Velocity P-wave (km/s) = 6.50591 7.27371 6.90050
#
# Compressibility (1/GPa) = 0.02169516
#
# Stress axis : x y z
#
# Youngs Moduli (GPa) = 87.97119 36.61969 84.22781
#
# Poissons Ratio (x) = 0.15464 0.38431
# Poissons Ratio (y) = 0.37149 0.47510
# Poissons Ratio (z) = 0.40139 0.20656
#
# Static dielectric constant tensor:
#      x y z
#    x 3.975070 0.000000 0.008920 
#    y 0.000000 3.517270 0.000000 
#    z 0.008920 0.000000 3.612520 
# 
# 
# High freq. dielectric constant tensor:
#      x y z
#    x 1.771410 0.000000 -0.004190 
#    y 0.000000 1.743360 0.000000 
#    z -0.004190 0.000000 1.767220 
# 
# From -- ./inp_files/65392.got.cif
#   From: 2010.06.25/outbox.cif.g09.slc.cpg/sg11_33_cif.got.tgz:65392.got - 2010.06.27 23:14:04.
