data_PCOD8072984
_publ_section_title
;
Structure prediction by ZEFSAII (Michael W. Deem and Ramdas Pophale) SiO2 
 PCOD8072984
Probable space group: P 21/M
;
_chemical_formula_sum "Si O2"
_cell_formula_units_Z 32
_cell_length_a 23.005377
_cell_length_b 9.055994
_cell_length_c 14.074039
_cell_angle_alpha 90.000000
_cell_angle_beta 36.827736
_cell_angle_gamma 90.000000
_cell_volume 1757.555500
_symmetry_space_group_name_H-M "P 21/M"
_symmetry_group_IT_number 11
_symmetry_cell_setting 'monoclinic'
loop_
_space_group_symop_operation_xyz
x,y,z
-x,1/2+y,-z
-x,-y,-z
x,1/2-y,z
loop_
_atom_site_type_symbol
_atom_site_label
_atom_site_fract_x
_atom_site_fract_y
_atom_site_fract_z
Si Si1 0.296143 0.079740 0.419066
Si Si2 0.534804 0.914583 0.670303
Si Si3 0.650642 0.923802 0.044069
Si Si4 0.757677 0.422562 0.058926
Si Si5 0.400843 0.417227 0.613968
Si Si6 0.928586 0.078867 0.971545
Si Si7 0.598806 0.922662 0.902202
Si Si8 0.122898 0.923276 0.751438
O O1 0.269749 0.250000 0.472964
O O2 0.402124 0.039213 0.321636
O O3 0.311378 0.046677 0.287242
O O4 0.214191 0.981568 0.573585
O O5 0.490093 0.750000 0.740980
O O6 0.611263 0.915614 0.483834
O O7 0.445847 0.028253 0.771249
O O8 0.665570 0.750000 0.029611
O O9 0.743092 0.000257 0.974927
O O10 0.637305 0.980977 0.953799
O O11 0.736677 0.250000 0.076101
O O12 0.685297 0.490144 0.229942
O O13 0.864088 0.452813 0.962545
O O14 0.500000 0.500000 0.500000
O O15 0.401444 0.250000 0.654589
O O16 0.956971 0.250000 0.941190
O O17 0.873293 0.032049 0.141697
O O18 0.025983 0.986581 0.830426
O O19 0.574772 0.750000 0.939181
O O20 0.500000 0.000000 0.000000
O O21 0.121931 0.750000 0.739868
#
# Coordination Sequence:
#
# PCOD8072984 Si02
#       8
#     4   4   4   4   4   4   4   4
#     4  10  20  35  55  78 108 143 178 220 273 329
#     4  10  20  33  50  72 103 143 181 216 262 320
#     4  11  22  34  51  76 106 141 182 227 270 313
#     4  11  22  36  54  75 105 147 186 220 267 326
#     4  11  21  31  46  72 105 141 179 218 260 312
#     4   9  20  38  58  81 111 145 178 217 268 327
#     4  10  21  36  55  79 107 144 185 228 276 323
#     4  10  20  35  58  87 112 137 175 224 272 322
#
# _framework density 18.207107000000001
#
# number of rings (size 3 to 8) (size 9 to 14) (size 15 to 20)
#    0.000    1.750    2.500    2.250    0.000    3.500 
#    0.000    0.000    0.000    0.750    0.000    0.000 
#    0.000    0.000    0.000    0.000    0.000    0.000 
#
# Total GULP energy -396723.043696 kJ/mol
# GULP energy per Si atom -12397.595115 kJ/mol
# Density = 1.816567 g / cm^3
# Si number density = 18.207107 Si / 1000 Ang^3
#
#
#
# Elastic Constant Matrix: (Units=GPa)
#
#
# Indices 1 2 3 4 5 6 
#
# 1 123.5162 52.5225 31.9339 0.0000 2.8558 0.0000
# 2 52.5225 82.4974 28.4230 0.0000 -8.8242 0.0000
# 3 31.9339 28.4230 54.3080 0.0000 -0.8873 0.0000
# 4 0.0000 0.0000 0.0000 29.2089 0.0000 -2.8810
# 5 2.8558 -8.8242 -0.8873 0.0000 22.7203 0.0000
# 6 0.0000 0.0000 0.0000 -2.8810 0.0000 28.9414
#
#
#
# Elastic Compliance Matrix: (Units=1/GPa)
#
#
# Indices 1 2 3 4 5 6 
#
# 1 0.012053 -0.006919 -0.003537 0.000000 -0.004341 0.000000
# 2 -0.006919 0.019466 -0.005985 0.000000 0.008196 0.000000
# 3 -0.003537 -0.005985 0.023610 0.000000 -0.000958 0.000000
# 4 0.000000 0.000000 0.000000 0.034576 0.000000 0.003442
# 5 -0.004341 0.008196 -0.000958 0.000000 0.047705 0.000000
# 6 0.000000 0.000000 0.000000 0.003442 0.000000 0.034895
#
#
# Mechanical properties :
#
#
# Convention : Reuss Voigt Hill
#
# Bulk Modulus (GPa) = 44.95195 54.00893 49.48044
# Shear Modulus (GPa) = 23.51802 26.00359 24.76081
#
# Velocity S-wave (km/s) = 3.59791 3.78327 3.69175
# Velocity P-wave (km/s) = 6.48096 6.98657 6.73851
#
# Compressibility (1/GPa) = 0.02224597
#
# Stress axis : x y z
#
# Youngs Moduli (GPa) = 82.96510 51.37261 42.35490
#
# Poissons Ratio (x) = 0.35547 0.14981
# Poissons Ratio (y) = 0.57407 0.25349
# Poissons Ratio (z) = 0.29345 0.30747
#
# Static dielectric constant tensor:
#      x y z
#    x 3.638360 0.000000 0.249400 
#    y 0.000000 3.392280 0.000000 
#    z 0.249400 0.000000 3.177890 
# 
# 
# High freq. dielectric constant tensor:
#      x y z
#    x 1.711890 0.000000 0.009760 
#    y 0.000000 1.711990 0.000000 
#    z 0.009760 0.000000 1.676000 
# 
# From -- ./inp_files/55614.got.cif
#   From: 2010.06.25/outbox.cif.g09.slc.cpg/sg11_28_cif.got.tgz:55614.got - 2010.06.27 23:14:04.
