data_PCOD8072414
_publ_section_title
;
Structure prediction by ZEFSAII (Michael W. Deem and Ramdas Pophale) SiO2 
 PCOD8072414
Probable space group: P 21/M
;
_chemical_formula_sum "Si O2"
_cell_formula_units_Z 32
_cell_length_a 11.509446
_cell_length_b 14.470367
_cell_length_c 8.926513
_cell_angle_alpha 90.000000
_cell_angle_beta 88.507264
_cell_angle_gamma 90.000000
_cell_volume 1486.169685
_symmetry_space_group_name_H-M "P 21/M"
_symmetry_group_IT_number 11
_symmetry_cell_setting 'monoclinic'
loop_
_space_group_symop_operation_xyz
x,y,z
-x,1/2+y,-z
-x,-y,-z
x,1/2-y,z
loop_
_atom_site_type_symbol
_atom_site_label
_atom_site_fract_x
_atom_site_fract_y
_atom_site_fract_z
Si Si1 0.947092 0.146595 0.866578
Si Si2 0.570340 0.976016 0.143425
Si Si3 0.489095 0.856067 0.404911
Si Si4 0.735456 0.647688 0.515785
Si Si5 0.922548 0.977252 0.646207
Si Si6 0.654851 0.350100 0.318226
Si Si7 0.114627 0.896862 0.800718
Si Si8 0.194590 0.400448 0.806145
O O1 0.912641 0.250000 0.812904
O O2 0.086378 0.145203 0.897656
O O3 0.906339 0.070806 0.745790
O O4 0.881650 0.126251 0.023946
O O5 0.486466 0.922304 0.261061
O O6 0.684212 0.911399 0.104832
O O7 0.609382 0.074422 0.205127
O O8 0.500000 0.000000 0.000000
O O9 0.492297 0.750000 0.349179
O O10 0.599713 0.878965 0.507703
O O11 0.375306 0.877798 0.509244
O O12 0.751477 0.750000 0.588150
O O13 0.798232 0.566559 0.607276
O O14 0.784590 0.656159 0.345738
O O15 0.984467 0.893885 0.738119
O O16 0.000000 0.000000 0.500000
O O17 0.595478 0.250000 0.287316
O O18 0.793686 0.334677 0.293415
O O19 0.153838 0.999373 0.759631
#
# Coordination Sequence:
#
# PCOD8072414 Si02
#       8
#     4   4   4   4   4   4   4   4
#     4  11  22  39  60  89 128 173 212 252 312 379
#     4  10  21  38  62  95 119 156 201 258 320 373
#     4   9  20  40  66  91 121 165 211 257 312 370
#     4  10  19  35  62  94 125 158 203 262 317 369
#     4  11  21  37  63  93 127 157 206 266 310 374
#     4  10  21  41  62  84 122 166 211 255 304 368
#     4  10  21  39  60  84 122 172 205 249 314 370
#     4   9  18  36  60  83 118 159 202 245 311 370
#
# _framework density 21.531862
#
# number of rings (size 3 to 8) (size 9 to 14) (size 15 to 20)
#    0.000    2.000    2.500    2.625    0.000    2.000 
#    6.750    0.000    0.000    3.000    0.000    0.000 
#    0.000    0.000    0.000    0.000    0.000    0.000 
#
# Total GULP energy -396467.680676 kJ/mol
# GULP energy per Si atom -12389.615021 kJ/mol
# Density = 2.148285 g / cm^3
# Si number density = 21.531862 Si / 1000 Ang^3
#
#
#
# Elastic Constant Matrix: (Units=GPa)
#
#
# Indices 1 2 3 4 5 6 
#
# 1 79.9373 32.6667 63.4488 0.0000 -8.8815 0.0000
# 2 32.6667 120.0345 57.4608 0.0000 6.5929 0.0000
# 3 63.4488 57.4608 111.1876 0.0000 -0.4039 0.0000
# 4 0.0000 0.0000 0.0000 0.3967 0.0000 1.4743
# 5 -8.8815 6.5929 -0.4039 0.0000 40.9749 0.0000
# 6 0.0000 0.0000 0.0000 1.4743 0.0000 21.6305
#
#
#
# Elastic Compliance Matrix: (Units=1/GPa)
#
#
# Indices 1 2 3 4 5 6 
#
# 1 0.023875 -0.000351 -0.013424 0.000000 0.005099 0.000000
# 2 -0.000351 0.011215 -0.005602 0.000000 -0.001936 0.000000
# 3 -0.013424 -0.005602 0.019543 0.000000 -0.001816 0.000000
# 4 0.000000 0.000000 0.000000 3.375619 0.000000 -0.230083
# 5 0.005099 -0.001936 -0.001816 0.000000 0.025804 0.000000
# 6 0.000000 0.000000 0.000000 -0.230083 0.000000 0.061913
#
#
# Mechanical properties :
#
#
# Convention : Reuss Voigt Hill
#
# Bulk Modulus (GPa) = 62.98327 68.70132 65.84230
# Shear Modulus (GPa) = 1.40370 23.10598 12.25484
#
# Velocity S-wave (km/s) = 0.80829 3.27938 2.38827
# Velocity P-wave (km/s) = 5.49416 6.80553 6.18470
#
# Compressibility (1/GPa) = 0.01587723
#
# Stress axis : x y z
#
# Youngs Moduli (GPa) = 41.88456 89.16903 51.16976
#
# Poissons Ratio (x) = 0.03133 0.68691
# Poissons Ratio (y) = 0.01472 0.28666
# Poissons Ratio (z) = 0.56226 0.49954
#
# Static dielectric constant tensor:
#      x y z
#    x 4.445830 0.000000 -0.132700 
#    y 0.000000 4.171890 0.000000 
#    z -0.132700 0.000000 3.581980 
# 
# 
# High freq. dielectric constant tensor:
#      x y z
#    x 1.841050 0.000000 -0.021230 
#    y 0.000000 1.855600 0.000000 
#    z -0.021230 0.000000 1.815290 
# 
# From -- ./inp_files/18074.got.cif
#   From: 2010.06.25/outbox.cif.g09.slc.cpg/sg11_10_cif.got.tgz:18074.got - 2010.06.27 23:14:04.
