data_PCOD8072865
_publ_section_title
;
Structure prediction by ZEFSAII (Michael W. Deem and Ramdas Pophale) SiO2 
 PCOD8072865
Probable space group: P 21/M
;
_chemical_formula_sum "Si O2"
_cell_formula_units_Z 28
_cell_length_a 12.512793
_cell_length_b 9.103765
_cell_length_c 15.747613
_cell_angle_alpha 90.000000
_cell_angle_beta 55.729476
_cell_angle_gamma 90.000000
_cell_volume 1482.429617
_symmetry_space_group_name_H-M "P 21/M"
_symmetry_group_IT_number 11
_symmetry_cell_setting 'monoclinic'
loop_
_space_group_symop_operation_xyz
x,y,z
-x,1/2+y,-z
-x,-y,-z
x,1/2-y,z
loop_
_atom_site_type_symbol
_atom_site_label
_atom_site_fract_x
_atom_site_fract_y
_atom_site_fract_z
Si Si1 0.192537 0.080631 0.904034
Si Si2 0.184829 0.082309 0.508473
Si Si3 0.011550 0.920685 0.861333
Si Si4 0.513745 0.919300 0.233799
Si Si5 0.728828 0.578277 0.716371
Si Si6 0.422860 0.920037 0.461798
Si Si7 0.063015 0.920298 0.275247
O O1 0.181124 0.250000 0.880070
O O2 0.340531 0.037443 0.856164
O O3 0.115070 0.051592 0.025109
O O4 0.138044 0.980133 0.852972
O O5 0.228644 0.250000 0.503302
O O6 0.197277 0.040021 0.404127
O O7 0.038207 0.056735 0.602886
O O8 0.277202 0.980616 0.523727
O O9 0.032064 0.750000 0.831849
O O10 0.995916 0.009197 0.782217
O O11 0.483209 0.750000 0.226898
O O12 0.495483 0.951820 0.341295
O O13 0.417524 0.018461 0.221131
O O14 0.725307 0.750000 0.737375
O O15 0.803832 0.499256 0.759221
O O16 0.416063 0.750000 0.487157
O O17 0.500000 0.000000 0.500000
O O18 0.091176 0.750000 0.245649
#
# Coordination Sequence:
#
# PCOD8072865 Si02
#       7
#     4   4   4   4   4   4   4
#     4   9  19  38  60  80 108 143 178 220 273 327
#     4   9  20  36  53  75 106 145 182 219 265 316
#     4  10  21  36  56  84 111 137 178 228 272 318
#     4   9  19  36  57  77 103 144 181 213 266 326
#     4  10  20  36  56  81 110 139 179 227 268 314
#     4  10  20  32  49  76 110 142 177 219 261 316
#     4  11  22  36  56  79 109 146 183 221 268 324
#
# _framework density 18.887910999999999
#
# number of rings (size 3 to 8) (size 9 to 14) (size 15 to 20)
#    0.000    2.286    0.000    2.143    2.000    3.429 
#    0.000    0.714    0.000    0.000    0.000    0.000 
#    0.000    0.000    0.000    0.000    0.000    0.000 
#
# Total GULP energy -347321.232796 kJ/mol
# GULP energy per Si atom -12404.329743 kJ/mol
# Density = 1.884492 g / cm^3
# Si number density = 18.887911 Si / 1000 Ang^3
#
#
#
# Elastic Constant Matrix: (Units=GPa)
#
#
# Indices 1 2 3 4 5 6 
#
# 1 89.5961 53.4551 27.5381 0.0000 -9.3606 0.0000
# 2 53.4551 100.7242 25.2074 0.0000 -1.1962 0.0000
# 3 27.5381 25.2074 45.0930 0.0000 -8.7117 0.0000
# 4 0.0000 0.0000 0.0000 25.7429 0.0000 1.9139
# 5 -9.3606 -1.1962 -8.7117 0.0000 27.0652 0.0000
# 6 0.0000 0.0000 0.0000 1.9139 0.0000 41.8034
#
#
#
# Elastic Compliance Matrix: (Units=1/GPa)
#
#
# Indices 1 2 3 4 5 6 
#
# 1 0.018252 -0.008192 -0.005776 0.000000 0.004091 0.000000
# 2 -0.008192 0.015291 -0.004225 0.000000 -0.003517 0.000000
# 3 -0.005776 -0.004225 0.029476 0.000000 0.007303 0.000000
# 4 0.000000 0.000000 0.000000 0.038978 0.000000 -0.001785
# 5 0.004091 -0.003517 0.007303 0.000000 0.040558 0.000000
# 6 0.000000 0.000000 0.000000 -0.001785 0.000000 0.024003
#
#
# Mechanical properties :
#
#
# Convention : Reuss Voigt Hill
#
# Bulk Modulus (GPa) = 37.54699 49.75717 43.65208
# Shear Modulus (GPa) = 23.60467 27.53650 25.57059
#
# Velocity S-wave (km/s) = 3.53898 3.82237 3.68340
# Velocity P-wave (km/s) = 6.05154 6.77357 6.42271
#
# Compressibility (1/GPa) = 0.02663330
#
# Stress axis : x y z
#
# Youngs Moduli (GPa) = 54.78968 65.39726 33.92535
#
# Poissons Ratio (x) = 0.53574 0.19597
# Poissons Ratio (y) = 0.44884 0.14332
# Poissons Ratio (z) = 0.31649 0.27627
#
# Static dielectric constant tensor:
#      x y z
#    x 3.447360 0.000000 -0.118060 
#    y 0.000000 3.540860 0.000000 
#    z -0.118060 0.000000 3.362910 
# 
# 
# High freq. dielectric constant tensor:
#      x y z
#    x 1.737710 0.000000 -0.004510 
#    y 0.000000 1.742970 0.000000 
#    z -0.004510 0.000000 1.716460 
# 
# From -- ./inp_files/37210.got.cif
#   From: 2010.06.25/outbox.cif.g09.slc.cpg/sg11_19_cif.got.tgz:37210.got - 2010.06.27 23:14:04.
