data_PCOD8072108
_publ_section_title
;
Structure prediction by ZEFSAII (Michael W. Deem and Ramdas Pophale) SiO2 
 PCOD8072108
Probable space group: P 21/M
;
_chemical_formula_sum "Si O2"
_cell_formula_units_Z 32
_cell_length_a 11.133501
_cell_length_b 9.346208
_cell_length_c 20.903825
_cell_angle_alpha 90.000000
_cell_angle_beta 133.686938
_cell_angle_gamma 90.000000
_cell_volume 1572.918100
_symmetry_space_group_name_H-M "P 21/M"
_symmetry_group_IT_number 11
_symmetry_cell_setting 'monoclinic'
loop_
_space_group_symop_operation_xyz
x,y,z
-x,1/2+y,-z
-x,-y,-z
x,1/2-y,z
loop_
_atom_site_type_symbol
_atom_site_label
_atom_site_fract_x
_atom_site_fract_y
_atom_site_fract_z
Si Si1 0.021651 0.917584 0.734778
Si Si2 0.598281 0.409798 0.139579
Si Si3 0.747922 0.585223 0.406030
Si Si4 0.826290 0.037407 0.904007
Si Si5 0.004398 0.408360 0.847402
Si Si6 0.297608 0.594691 0.011316
Si Si7 0.499961 0.594069 0.754747
Si Si8 0.045955 0.583530 0.419033
O O1 0.973261 0.750000 0.713280
O O2 0.217854 0.939201 0.818671
O O3 0.934296 0.994886 0.763316
O O4 0.962678 0.997529 0.649915
O O5 0.538666 0.250000 0.099163
O O6 0.476618 0.525724 0.062706
O O7 0.599726 0.426449 0.216188
O O8 0.732495 0.750000 0.421831
O O9 0.567065 0.527409 0.318106
O O10 0.806771 0.489072 0.486760
O O11 0.873639 0.567802 0.393217
O O12 0.726981 0.126082 0.921537
O O13 0.864378 0.114321 0.850778
O O14 0.699424 0.909140 0.839560
O O15 0.000000 0.000000 0.000000
O O16 0.053917 0.250000 0.840820
O O17 0.160903 0.486805 0.935787
O O18 0.287738 0.750000 0.973025
O O19 0.457723 0.750000 0.710501
O O20 0.087718 0.750000 0.421741
#
# Coordination Sequence:
#
# PCOD8072108 Si02
#       8
#     4   4   4   4   4   4   4   4
#     4  11  22  37  56  79 112 149 188 231 276 338
#     4   9  19  34  52  77 110 146 181 225 282 335
#     4  10  20  33  55  87 119 150 186 229 280 336
#     4   9  21  38  58  84 112 146 189 240 285 332
#     4  11  23  38  55  77 108 148 191 232 282 339
#     4  10  20  35  57  81 106 139 184 238 286 333
#     4  10  19  34  58  86 116 148 187 236 287 336
#     4  10  20  35  56  83 117 153 188 228 278 337
#
# _framework density 20.344353999999999
#
# number of rings (size 3 to 8) (size 9 to 14) (size 15 to 20)
#    0.000    2.000    1.250    2.250    0.000   10.500 
#    0.000    0.000    0.000    0.750    0.000    0.000 
#    0.000    0.000    0.000    0.000    0.000    0.000 
#
# Total GULP energy -396514.973538 kJ/mol
# GULP energy per Si atom -12391.092923 kJ/mol
# Density = 2.029805 g / cm^3
# Si number density = 20.344354 Si / 1000 Ang^3
#
#
#
# Elastic Constant Matrix: (Units=GPa)
#
#
# Indices 1 2 3 4 5 6 
#
# 1 55.8923 28.5894 37.7806 0.0000 -12.5599 0.0000
# 2 28.5894 161.9863 53.0982 0.0000 -9.9255 0.0000
# 3 37.7806 53.0982 80.3696 0.0000 -8.0033 0.0000
# 4 0.0000 0.0000 0.0000 36.3478 0.0000 -0.3068
# 5 -12.5599 -9.9255 -8.0033 0.0000 33.7614 0.0000
# 6 0.0000 0.0000 0.0000 -0.3068 0.0000 8.8360
#
#
#
# Elastic Compliance Matrix: (Units=1/GPa)
#
#
# Indices 1 2 3 4 5 6 
#
# 1 0.027981 -0.000530 -0.012067 0.000000 0.007393 0.000000
# 2 -0.000530 0.007931 -0.004893 0.000000 0.000974 0.000000
# 3 -0.012067 -0.004893 0.021260 0.000000 -0.000888 0.000000
# 4 0.000000 0.000000 0.000000 0.027520 0.000000 0.000956
# 5 0.007393 0.000974 -0.000888 0.000000 0.032446 0.000000
# 6 0.000000 0.000000 0.000000 0.000956 0.000000 0.113207
#
#
# Mechanical properties :
#
#
# Convention : Reuss Voigt Hill
#
# Bulk Modulus (GPa) = 45.06499 59.68716 52.37608
# Shear Modulus (GPa) = 18.33374 27.70770 23.02072
#
# Velocity S-wave (km/s) = 3.00521 3.69444 3.36751
# Velocity P-wave (km/s) = 5.85157 6.89933 6.39694
#
# Compressibility (1/GPa) = 0.02219017
#
# Stress axis : x y z
#
# Youngs Moduli (GPa) = 35.73902 126.09339 47.03764
#
# Poissons Ratio (x) = 0.06681 0.56760
# Poissons Ratio (y) = 0.01894 0.23018
# Poissons Ratio (z) = 0.43126 0.61703
#
# Static dielectric constant tensor:
#      x y z
#    x 3.744010 0.000000 -0.206190 
#    y 0.000000 3.795250 0.000000 
#    z -0.206190 0.000000 3.581870 
# 
# 
# High freq. dielectric constant tensor:
#      x y z
#    x 1.770110 0.000000 -0.012490 
#    y 0.000000 1.804330 0.000000 
#    z -0.012490 0.000000 1.783070 
# 
# From -- ./inp_files/64462.got.cif
#   From: 2010.06.25/outbox.cif.g09.slc.cpg/sg11_33_cif.got.tgz:64462.got - 2010.06.27 23:14:04.
