data_PCOD8072869
_publ_section_title
;
Structure prediction by ZEFSAII (Michael W. Deem and Ramdas Pophale) SiO2 
 PCOD8072869
Probable space group: P 21/M
;
_chemical_formula_sum "Si O2"
_cell_formula_units_Z 32
_cell_length_a 12.435600
_cell_length_b 9.052408
_cell_length_c 32.915113
_cell_angle_alpha 90.000000
_cell_angle_beta 31.071915
_cell_angle_gamma 90.000000
_cell_volume 1912.368017
_symmetry_space_group_name_H-M "P 21/M"
_symmetry_group_IT_number 11
_symmetry_cell_setting 'monoclinic'
loop_
_space_group_symop_operation_xyz
x,y,z
-x,1/2+y,-z
-x,-y,-z
x,1/2-y,z
loop_
_atom_site_type_symbol
_atom_site_label
_atom_site_fract_x
_atom_site_fract_y
_atom_site_fract_z
Si Si1 0.274299 0.077692 0.334584
Si Si2 0.613444 0.577853 0.072101
Si Si3 0.649674 0.079899 0.920518
Si Si4 0.901590 0.578878 0.202025
Si Si5 0.075660 0.421242 0.515802
Si Si6 0.962872 0.923892 0.088787
Si Si7 0.496334 0.419741 0.344797
Si Si8 0.594210 0.075146 0.161586
O O1 0.226979 0.250000 0.353436
O O2 0.404087 0.022083 0.331744
O O3 0.401746 0.037463 0.253155
O O4 0.049743 0.994000 0.405890
O O5 0.662071 0.750000 0.064749
O O6 0.425781 0.559104 0.101027
O O7 0.536489 0.495713 0.137313
O O8 0.814571 0.498297 0.988949
O O9 0.651417 0.250000 0.933387
O O10 0.883201 0.014630 0.849236
O O11 0.500000 0.000000 0.000000
O O12 0.885315 0.750000 0.216803
O O13 0.887877 0.544950 0.158617
O O14 0.707315 0.504410 0.287670
O O15 0.018331 0.250000 0.531984
O O16 0.327060 0.443059 0.435946
O O17 0.000000 0.500000 0.500000
O O18 0.978521 0.750000 0.074210
O O19 0.804787 0.999841 0.108965
O O20 0.556392 0.250000 0.320289
O O21 0.631524 0.250000 0.145887
#
# Coordination Sequence:
#
# PCOD8072869 Si02
#       8
#     4   4   4   4   4   4   4   4
#     4   9  18  31  47  69  98 132 164 197 242 292
#     4  11  23  37  53  72  97 132 171 210 254 297
#     4  10  21  37  54  73  97 126 166 212 254 296
#     4  10  20  32  50  75  99 128 165 205 247 293
#     4   9  17  28  44  68  99 132 163 196 237 290
#     4  11  21  34  52  74 101 131 169 208 248 299
#     4   9  17  30  46  70 101 130 161 196 241 293
#     4  11  22  36  52  72 103 135 169 208 247 297
#
# _framework density 16.733181999999999
#
# number of rings (size 3 to 8) (size 9 to 14) (size 15 to 20)
#    0.000    2.000    2.500    2.625    0.000    5.000 
#    0.000    0.000    0.000    0.000    0.000    0.875 
#    0.000    0.000    0.000    0.000    0.000    0.000 
#
# Total GULP energy -396755.198831 kJ/mol
# GULP energy per Si atom -12398.599963 kJ/mol
# Density = 1.669510 g / cm^3
# Si number density = 16.733182 Si / 1000 Ang^3
#
#
#
# Elastic Constant Matrix: (Units=GPa)
#
#
# Indices 1 2 3 4 5 6 
#
# 1 65.9944 31.2297 31.7048 0.0000 -14.6665 0.0000
# 2 31.2297 77.8133 51.5606 0.0000 -9.6015 0.0000
# 3 31.7048 51.5606 113.4763 0.0000 -25.2966 0.0000
# 4 0.0000 0.0000 0.0000 34.7445 0.0000 -1.5917
# 5 -14.6665 -9.6015 -25.2966 0.0000 18.1611 0.0000
# 6 0.0000 0.0000 0.0000 -1.5917 0.0000 20.2532
#
#
#
# Elastic Compliance Matrix: (Units=1/GPa)
#
#
# Indices 1 2 3 4 5 6 
#
# 1 0.021480 -0.007136 0.000387 0.000000 0.014113 0.000000
# 2 -0.007136 0.020855 -0.009150 0.000000 -0.007482 0.000000
# 3 0.000387 -0.009150 0.017191 0.000000 0.019421 0.000000
# 4 0.000000 0.000000 0.000000 0.028886 0.000000 0.002270
# 5 0.014113 -0.007482 0.019421 0.000000 0.089556 0.000000
# 6 0.000000 0.000000 0.000000 0.002270 0.000000 0.049553
#
#
# Mechanical properties :
#
#
# Convention : Reuss Voigt Hill
#
# Bulk Modulus (GPa) = 36.06413 54.03049 45.04731
# Shear Modulus (GPa) = 18.61767 24.15103 21.38435
#
# Velocity S-wave (km/s) = 3.33921 3.80320 3.57874
# Velocity P-wave (km/s) = 6.03874 7.18647 6.63746
#
# Compressibility (1/GPa) = 0.02772839
#
# Stress axis : x y z
#
# Youngs Moduli (GPa) = 46.55448 47.94991 58.16920
#
# Poissons Ratio (x) = 0.34217 -0.02252
# Poissons Ratio (y) = 0.33221 0.53226
# Poissons Ratio (z) = -0.01802 0.43875
#
# Static dielectric constant tensor:
#      x y z
#    x 3.023900 0.000000 -0.105660 
#    y 0.000000 3.387750 0.000000 
#    z -0.105660 0.000000 3.566140 
# 
# 
# High freq. dielectric constant tensor:
#      x y z
#    x 1.605970 0.000000 -0.009700 
#    y 0.000000 1.654810 0.000000 
#    z -0.009700 0.000000 1.652410 
# 
# From -- ./inp_files/43792.got.cif
#   From: 2010.06.25/outbox.cif.g09.slc.cpg/sg11_22_cif.got.tgz:43792.got - 2010.06.27 23:14:04.
