data_PCOD8072333
_publ_section_title
;
Structure prediction by ZEFSAII (Michael W. Deem and Ramdas Pophale) SiO2 
 PCOD8072333
Probable space group: P 21/M
;
_chemical_formula_sum "Si O2"
_cell_formula_units_Z 32
_cell_length_a 9.509434
_cell_length_b 8.991982
_cell_length_c 27.019907
_cell_angle_alpha 90.000000
_cell_angle_beta 44.879381
_cell_angle_gamma 90.000000
_cell_volume 1630.282046
_symmetry_space_group_name_H-M "P 21/M"
_symmetry_group_IT_number 11
_symmetry_cell_setting 'monoclinic'
loop_
_space_group_symop_operation_xyz
x,y,z
-x,1/2+y,-z
-x,-y,-z
x,1/2-y,z
loop_
_atom_site_type_symbol
_atom_site_label
_atom_site_fract_x
_atom_site_fract_y
_atom_site_fract_z
Si Si1 0.769565 0.579447 0.348022
Si Si2 0.315362 0.579932 0.440347
Si Si3 0.296744 0.073462 0.806798
Si Si4 0.788411 0.573731 0.061562
Si Si5 0.017933 0.573598 0.193363
Si Si6 0.899346 0.073773 0.410024
Si Si7 0.462754 0.573542 0.061860
Si Si8 0.714574 0.072444 0.660512
O O1 0.817058 0.750000 0.350941
O O2 0.551635 0.564204 0.380017
O O3 0.770852 0.474630 0.395225
O O4 0.924334 0.518707 0.268436
O O5 0.251533 0.750000 0.458565
O O6 0.209333 0.504275 0.514094
O O7 0.243772 0.513166 0.405781
O O8 0.295097 0.250000 0.804854
O O9 0.284293 0.019029 0.866486
O O10 0.502611 0.012911 0.732675
O O11 0.110552 0.010286 0.821067
O O12 0.813875 0.750000 0.053434
O O13 0.628184 0.520580 0.060377
O O14 0.000000 0.500000 0.000000
O O15 0.006229 0.750000 0.194703
O O16 0.245577 0.518318 0.134137
O O17 0.914351 0.250000 0.407954
O O18 0.115724 0.001072 0.348381
O O19 0.467496 0.750000 0.054374
O O20 0.500000 0.500000 0.000000
O O21 0.724041 0.250000 0.661752
#
# Coordination Sequence:
#
# PCOD8072333 Si02
#       8
#     4   4   4   4   4   4   4   4
#     4  10  19  35  59  82 103 139 189 231 269 320
#     4   9  18  35  57  81 106 137 184 234 275 321
#     4   9  17  32  57  84 107 135 180 234 274 308
#     4  10  21  36  57  86 116 144 177 219 267 320
#     4   9  17  32  57  84 107 135 180 234 274 308
#     4  11  23  35  49  77 118 149 174 222 281 331
#     4  10  21  36  57  86 116 144 177 219 267 320
#     4  10  19  35  59  82 103 139 189 231 269 320
#
# _framework density 19.628504
#
# number of rings (size 3 to 8) (size 9 to 14) (size 15 to 20)
#    0.000    2.250    1.250    1.875    1.750    1.500 
#    0.000    3.125    0.000    1.500    0.000    0.000 
#    0.000    0.000    0.000    0.000    0.000    0.000 
#
# Total GULP energy -396733.060739 kJ/mol
# GULP energy per Si atom -12397.908148 kJ/mol
# Density = 1.958383 g / cm^3
# Si number density = 19.628504 Si / 1000 Ang^3
#
#
#
# Elastic Constant Matrix: (Units=GPa)
#
#
# Indices 1 2 3 4 5 6 
#
# 1 90.7513 20.8154 46.5397 0.0000 9.1503 0.0000
# 2 20.8154 26.1968 22.1884 0.0000 0.9305 0.0000
# 3 46.5397 22.1884 128.6131 0.0000 3.1486 0.0000
# 4 0.0000 0.0000 0.0000 24.4150 0.0000 1.7898
# 5 9.1503 0.9305 3.1486 0.0000 36.0036 0.0000
# 6 0.0000 0.0000 0.0000 1.7898 0.0000 26.5682
#
#
#
# Elastic Compliance Matrix: (Units=1/GPa)
#
#
# Indices 1 2 3 4 5 6 
#
# 1 0.015405 -0.008748 -0.003984 0.000000 -0.003341 0.000000
# 2 -0.008748 0.049681 -0.005440 0.000000 0.001415 0.000000
# 3 -0.003984 -0.005440 0.010149 0.000000 0.000265 0.000000
# 4 0.000000 0.000000 0.000000 0.041162 0.000000 -0.002773
# 5 -0.003341 0.001415 0.000265 0.000000 0.028564 0.000000
# 6 0.000000 0.000000 0.000000 -0.002773 0.000000 0.037826
#
#
# Mechanical properties :
#
#
# Convention : Reuss Voigt Hill
#
# Bulk Modulus (GPa) = 25.71241 47.18313 36.44777
# Shear Modulus (GPa) = 21.54299 27.79855 24.67077
#
# Velocity S-wave (km/s) = 3.31650 3.76737 3.54910
# Velocity P-wave (km/s) = 5.27196 6.55853 5.95012
#
# Compressibility (1/GPa) = 0.03889172
#
# Stress axis : x y z
#
# Youngs Moduli (GPa) = 64.91250 20.12844 98.53427
#
# Poissons Ratio (x) = 0.17608 0.39252
# Poissons Ratio (y) = 0.56786 0.53603
# Poissons Ratio (z) = 0.25858 0.10950
#
# Static dielectric constant tensor:
#      x y z
#    x 3.732990 0.000000 0.030540 
#    y 0.000000 3.076960 0.000000 
#    z 0.030540 0.000000 3.908480 
# 
# 
# High freq. dielectric constant tensor:
#      x y z
#    x 1.779750 0.000000 0.000570 
#    y 0.000000 1.711270 0.000000 
#    z 0.000570 0.000000 1.780550 
# 
# From -- ./inp_files/67948.got.cif
#   From: 2010.06.25/outbox.cif.g09.slc.cpg/sg11_34_cif.got.tgz:67948.got - 2010.06.27 23:14:04.
