data_PCOD8072877
_publ_section_title
;
Structure prediction by ZEFSAII (Michael W. Deem and Ramdas Pophale) SiO2 
 PCOD8072877
Probable space group: P 21/M
;
_chemical_formula_sum "Si O2"
_cell_formula_units_Z 32
_cell_length_a 13.738212
_cell_length_b 14.227487
_cell_length_c 16.759963
_cell_angle_alpha 90.000000
_cell_angle_beta 149.043965
_cell_angle_gamma 90.000000
_cell_volume 1685.061287
_symmetry_space_group_name_H-M "P 21/M"
_symmetry_group_IT_number 11
_symmetry_cell_setting 'monoclinic'
loop_
_space_group_symop_operation_xyz
x,y,z
-x,1/2+y,-z
-x,-y,-z
x,1/2-y,z
loop_
_atom_site_type_symbol
_atom_site_label
_atom_site_fract_x
_atom_site_fract_y
_atom_site_fract_z
Si Si1 0.115094 0.354912 0.903732
Si Si2 0.855536 0.359515 0.867434
Si Si3 0.494421 0.639265 0.751689
Si Si4 0.109941 0.644574 0.928671
Si Si5 0.176094 0.500932 0.566071
Si Si6 0.113097 0.009964 0.338638
Si Si7 0.477967 0.520364 0.350933
Si Si8 0.533298 0.643411 0.238623
O O1 0.078902 0.250000 0.848456
O O2 0.034832 0.370102 0.936433
O O3 0.004988 0.416358 0.762222
O O4 0.339746 0.376086 0.066076
O O5 0.783053 0.250000 0.818592
O O6 0.698447 0.435200 0.724092
O O7 0.913459 0.393709 0.997184
O O8 0.473102 0.750000 0.715240
O O9 0.295311 0.599032 0.646241
O O10 0.558423 0.579536 0.718780
O O11 0.037599 0.750000 0.876827
O O12 0.980637 0.593855 0.774564
O O13 0.327544 0.635234 0.052986
O O14 0.104076 0.473944 0.427172
O O15 0.313786 0.420649 0.699521
O O16 0.000000 0.500000 0.500000
O O17 0.332377 0.004850 0.463069
O O18 0.519762 0.604298 0.318338
O O19 0.605633 0.750000 0.290808
#
# Coordination Sequence:
#
# PCOD8072877 Si02
#       8
#     4   4   4   4   4   4   4   4
#     4  10  20  35  55  77 105 145 184 215 252 299
#     4   9  18  33  53  77 107 146 187 216 244 296
#     4   9  19  36  55  75 104 141 175 210 260 320
#     4   9  17  31  52  78 106 134 168 211 255 301
#     4  10  22  38  56  76  98 131 172 213 265 326
#     4  10  20  32  51  77 105 133 166 219 271 307
#     4   9  18  30  50  77 108 143 174 211 257 300
#     4   8  15  31  53  74 100 133 165 204 261 317
#
# _framework density 18.990407999999999
#
# number of rings (size 3 to 8) (size 9 to 14) (size 15 to 20)
#    0.000    3.000    0.000    3.375    0.000    7.500 
#    0.000    3.750    0.000    9.000    0.000    0.000 
#    0.000    0.000    0.000    0.000    0.000    0.000 
#
# Total GULP energy -396441.896348 kJ/mol
# GULP energy per Si atom -12388.809261 kJ/mol
# Density = 1.894718 g / cm^3
# Si number density = 18.990408 Si / 1000 Ang^3
#
#
#
# Elastic Constant Matrix: (Units=GPa)
#
#
# Indices 1 2 3 4 5 6 
#
# 1 48.1273 9.0643 19.4980 0.0000 5.4046 0.0000
# 2 9.0643 107.4838 37.9405 0.0000 -0.0419 0.0000
# 3 19.4980 37.9405 108.7710 0.0000 -4.4643 0.0000
# 4 0.0000 0.0000 0.0000 23.0489 0.0000 7.0855
# 5 5.4046 -0.0419 -4.4643 0.0000 21.2574 0.0000
# 6 0.0000 0.0000 0.0000 7.0855 0.0000 14.8479
#
#
#
# Elastic Compliance Matrix: (Units=1/GPa)
#
#
# Indices 1 2 3 4 5 6 
#
# 1 0.023381 -0.000451 -0.004315 0.000000 -0.006851 0.000000
# 2 -0.000451 0.010631 -0.003653 0.000000 -0.000632 0.000000
# 3 -0.004315 -0.003653 0.011384 0.000000 0.003481 0.000000
# 4 0.000000 0.000000 0.000000 0.050845 0.000000 -0.024264
# 5 -0.006851 -0.000632 0.003481 0.000000 0.049514 0.000000
# 6 0.000000 0.000000 0.000000 -0.024264 0.000000 0.078929
#
#
# Mechanical properties :
#
#
# Convention : Reuss Voigt Hill
#
# Bulk Modulus (GPa) = 35.01755 44.15417 39.58586
# Shear Modulus (GPa) = 19.91700 25.02278 22.46989
#
# Velocity S-wave (km/s) = 3.24202 3.63389 3.44353
# Velocity P-wave (km/s) = 5.70034 6.39594 6.05814
#
# Compressibility (1/GPa) = 0.02855711
#
# Stress axis : x y z
#
# Youngs Moduli (GPa) = 42.77020 94.06369 87.84052
#
# Poissons Ratio (x) = 0.04245 0.37903
# Poissons Ratio (y) = 0.01930 0.32090
# Poissons Ratio (z) = 0.18455 0.34364
#
# Static dielectric constant tensor:
#      x y z
#    x 3.131150 0.000000 0.347500 
#    y 0.000000 3.797380 0.000000 
#    z 0.347500 0.000000 3.727220 
# 
# 
# High freq. dielectric constant tensor:
#      x y z
#    x 1.688430 0.000000 0.019310 
#    y 0.000000 1.751850 0.000000 
#    z 0.019310 0.000000 1.743120 
# 
# From -- ./inp_files/60499.got.cif
#   From: 2010.06.25/outbox.cif.g09.slc.cpg/sg11_31_cif.got.tgz:60499.got - 2010.06.27 23:14:04.
