data_PCOD8072425
_publ_section_title
;
Structure prediction by ZEFSAII (Michael W. Deem and Ramdas Pophale) SiO2 
 PCOD8072425
Probable space group: P 21/M
;
_chemical_formula_sum "Si O2"
_cell_formula_units_Z 28
_cell_length_a 13.602018
_cell_length_b 18.868571
_cell_length_c 8.208268
_cell_angle_alpha 90.000000
_cell_angle_beta 42.827532
_cell_angle_gamma 90.000000
_cell_volume 1432.092542
_symmetry_space_group_name_H-M "P 21/M"
_symmetry_group_IT_number 11
_symmetry_cell_setting 'monoclinic'
loop_
_space_group_symop_operation_xyz
x,y,z
-x,1/2+y,-z
-x,-y,-z
x,1/2-y,z
loop_
_atom_site_type_symbol
_atom_site_label
_atom_site_fract_x
_atom_site_fract_y
_atom_site_fract_z
Si Si1 0.551657 0.475112 0.208288
Si Si2 0.026643 0.421953 0.908219
Si Si3 0.121755 0.669667 0.665598
Si Si4 0.899096 0.551659 0.519848
Si Si5 0.324258 0.416401 0.715883
Si Si6 0.330943 0.559534 0.274557
Si Si7 0.183451 0.329794 0.140971
O O1 0.465241 0.419221 0.428186
O O2 0.674945 0.512019 0.171878
O O3 0.455917 0.540277 0.252185
O O4 0.616768 0.432468 0.976422
O O5 0.006604 0.413178 0.738407
O O6 0.189335 0.405614 0.762514
O O7 0.000000 0.500000 0.000000
O O8 0.908663 0.368820 0.126517
O O9 0.166511 0.750000 0.645766
O O10 0.256309 0.633504 0.410670
O O11 0.977347 0.663875 0.734860
O O12 0.780593 0.504551 0.573226
O O13 0.813742 0.613005 0.718326
O O14 0.000000 0.500000 0.500000
O O15 0.309807 0.349606 0.857543
O O16 0.213401 0.250000 0.167728
#
# Coordination Sequence:
#
# PCOD8072425 Si02
#       7
#     4   4   4   4   4   4   4
#     4  10  21  33  59  82 113 149 194 236 262 328
#     4  11  20  33  59  86 111 142 188 234 287 342
#     4  10  21  38  58  83 117 147 180 240 301 339
#     4  12  20  34  59  89 112 145 190 237 289 335
#     4  10  19  36  54  83 112 145 188 234 282 326
#     4  11  20  36  56  86 114 148 195 232 274 340
#     4  10  21  36  57  83 115 147 184 239 297 340
#
# _framework density 19.551808000000001
#
# number of rings (size 3 to 8) (size 9 to 14) (size 15 to 20)
#    0.000    1.429    5.714    0.857    0.000    0.571 
#    0.000    1.429    0.000    0.000    0.000    0.000 
#    0.000    0.000    0.000    0.000    0.000    0.000 
#
# Total GULP energy -347023.969741 kJ/mol
# GULP energy per Si atom -12393.713205 kJ/mol
# Density = 1.950731 g / cm^3
# Si number density = 19.551808 Si / 1000 Ang^3
#
#
#
# Elastic Constant Matrix: (Units=GPa)
#
#
# Indices 1 2 3 4 5 6 
#
# 1 49.1642 15.8363 27.6106 0.0000 17.2535 0.0000
# 2 15.8363 129.9654 63.3981 0.0000 12.1794 0.0000
# 3 27.6106 63.3981 139.1998 0.0000 24.9378 0.0000
# 4 0.0000 0.0000 0.0000 35.9593 0.0000 3.0933
# 5 17.2535 12.1794 24.9378 0.0000 32.8171 0.0000
# 6 0.0000 0.0000 0.0000 3.0933 0.0000 15.6768
#
#
#
# Elastic Compliance Matrix: (Units=1/GPa)
#
#
# Indices 1 2 3 4 5 6 
#
# 1 0.026136 -0.000751 -0.002813 0.000000 -0.011324 0.000000
# 2 -0.000751 0.009916 -0.004374 0.000000 0.000039 0.000000
# 3 -0.002813 -0.004374 0.010625 0.000000 -0.004971 0.000000
# 4 0.000000 0.000000 0.000000 0.028289 0.000000 -0.005582
# 5 -0.011324 0.000039 -0.004971 0.000000 0.040189 0.000000
# 6 0.000000 0.000000 0.000000 -0.005582 0.000000 0.064890
#
#
# Mechanical properties :
#
#
# Convention : Reuss Voigt Hill
#
# Bulk Modulus (GPa) = 32.46786 59.11328 45.79057
# Shear Modulus (GPa) = 24.24961 30.98960 27.61960
#
# Velocity S-wave (km/s) = 3.52557 3.98552 3.76258
# Velocity P-wave (km/s) = 5.76325 7.17489 6.50746
#
# Compressibility (1/GPa) = 0.03079969
#
# Stress axis : x y z
#
# Youngs Moduli (GPa) = 38.26136 100.84714 94.11983
#
# Poissons Ratio (x) = 0.07575 0.26479
# Poissons Ratio (y) = 0.02874 0.41170
# Poissons Ratio (z) = 0.10764 0.44112
#
# Static dielectric constant tensor:
#      x y z
#    x 3.176090 0.000000 -0.373130 
#    y 0.000000 3.344010 0.000000 
#    z -0.373130 0.000000 5.200930 
# 
# 
# High freq. dielectric constant tensor:
#      x y z
#    x 1.754160 0.000000 0.012250 
#    y 0.000000 1.727530 0.000000 
#    z 0.012250 0.000000 1.775550 
# 
# From -- ./inp_files/22697.got.cif
#   From: 2010.06.25/outbox.cif.g09.slc.cpg/sg11_12_cif.got.tgz:22697.got - 2010.06.27 23:14:04.
