data_PCOD8072819
_publ_section_title
;
Structure prediction by ZEFSAII (Michael W. Deem and Ramdas Pophale) SiO2 
 PCOD8072819
Probable space group: P 21/M
;
_chemical_formula_sum "Si O2"
_cell_formula_units_Z 32
_cell_length_a 27.702750
_cell_length_b 9.132120
_cell_length_c 21.695034
_cell_angle_alpha 90.000000
_cell_angle_beta 18.944419
_cell_angle_gamma 90.000000
_cell_volume 1781.850566
_symmetry_space_group_name_H-M "P 21/M"
_symmetry_group_IT_number 11
_symmetry_cell_setting 'monoclinic'
loop_
_space_group_symop_operation_xyz
x,y,z
-x,1/2+y,-z
-x,-y,-z
x,1/2-y,z
loop_
_atom_site_type_symbol
_atom_site_label
_atom_site_fract_x
_atom_site_fract_y
_atom_site_fract_z
Si Si1 0.913009 0.420274 0.516626
Si Si2 0.804709 0.420853 0.783448
Si Si3 0.520384 0.577201 0.794047
Si Si4 0.413018 0.920275 0.516617
Si Si5 0.979606 0.922796 0.205963
Si Si6 0.790761 0.576855 0.548929
Si Si7 0.695305 0.079146 0.216535
Si Si8 0.290782 0.423147 0.548903
O O1 0.933620 0.250000 0.478280
O O2 0.829561 0.450064 0.681420
O O3 0.810865 0.491737 0.588027
O O4 0.074838 0.494374 0.321177
O O5 0.818559 0.250000 0.783024
O O6 0.643675 0.486761 0.995790
O O7 0.515537 0.750000 0.805933
O O8 0.635743 0.521190 0.706567
O O9 0.576039 0.533625 0.658713
O O10 0.433609 0.750000 0.478294
O O11 0.329564 0.950063 0.681418
O O12 0.574849 0.994372 0.321164
O O13 0.310878 0.991743 0.588013
O O14 0.984504 0.750000 0.194006
O O15 0.923941 0.966354 0.341310
O O16 0.864233 0.978807 0.293465
O O17 0.143662 0.986774 0.995804
O O18 0.789463 0.750000 0.563101
O O19 0.681465 0.250000 0.216944
O O20 0.289487 0.250000 0.563065
#
# Coordination Sequence:
#
# PCOD8072819 Si02
#       8
#     4   4   4   4   4   4   4   4
#     4  10  20  32  47  71 100 126 155 193 236 280
#     4   9  18  34  52  68  92 127 163 195 228 274
#     4   8  16  32  53  73  91 120 163 199 227 272
#     4  10  20  32  47  71 100 126 155 193 236 280
#     4   8  16  32  53  73  91 120 163 199 227 272
#     4   9  17  32  53  73  94 121 156 197 236 277
#     4   9  18  34  52  68  92 127 163 195 228 274
#     4   9  17  32  53  73  94 121 156 197 236 277
#
# _framework density 17.958856999999998
#
# number of rings (size 3 to 8) (size 9 to 14) (size 15 to 20)
#    0.000    3.000    0.000    2.250    0.000    3.000 
#    0.000   10.000    0.000    0.000    0.000    0.000 
#    0.000    0.000    0.000    0.000    0.000    0.000 
#
# Total GULP energy -396768.020488 kJ/mol
# GULP energy per Si atom -12399.000640 kJ/mol
# Density = 1.791798 g / cm^3
# Si number density = 17.958857 Si / 1000 Ang^3
#
#
#
# Elastic Constant Matrix: (Units=GPa)
#
#
# Indices 1 2 3 4 5 6 
#
# 1 58.3880 22.6085 -13.4650 0.0000 -3.4001 0.0000
# 2 22.6085 46.0318 10.2821 0.0000 -1.1645 0.0000
# 3 -13.4650 10.2821 84.2079 0.0000 -7.8346 0.0000
# 4 0.0000 0.0000 0.0000 14.8295 0.0000 -1.4721
# 5 -3.4001 -1.1645 -7.8346 0.0000 14.8714 0.0000
# 6 0.0000 0.0000 0.0000 -1.4721 0.0000 33.0161
#
#
#
# Elastic Compliance Matrix: (Units=1/GPa)
#
#
# Indices 1 2 3 4 5 6 
#
# 1 0.024015 -0.012972 0.006141 0.000000 0.007710 0.000000
# 2 -0.012972 0.029341 -0.006014 0.000000 -0.003836 0.000000
# 3 0.006141 -0.006014 0.014384 0.000000 0.008511 0.000000
# 4 0.000000 0.000000 0.000000 0.067733 0.000000 0.003020
# 5 0.007710 -0.003836 0.008511 0.000000 0.073189 0.000000
# 6 0.000000 0.000000 0.000000 0.003020 0.000000 0.030423
#
#
# Mechanical properties :
#
#
# Convention : Reuss Voigt Hill
#
# Bulk Modulus (GPa) = 23.78044 25.27544 24.52794
# Shear Modulus (GPa) = 17.93463 23.82353 20.87908
#
# Velocity S-wave (km/s) = 3.16357 3.64615 3.41340
# Velocity P-wave (km/s) = 5.15894 5.64185 5.40579
#
# Compressibility (1/GPa) = 0.04205137
#
# Stress axis : x y z
#
# Youngs Moduli (GPa) = 41.64109 34.08165 69.52411
#
# Poissons Ratio (x) = 0.44209 -0.42696
# Poissons Ratio (y) = 0.54015 0.41810
# Poissons Ratio (z) = -0.25573 0.20496
#
# Static dielectric constant tensor:
#      x y z
#    x 3.251520 0.000000 -0.118790 
#    y 0.000000 3.039480 0.000000 
#    z -0.118790 0.000000 3.756330 
# 
# 
# High freq. dielectric constant tensor:
#      x y z
#    x 1.697840 0.000000 -0.005360 
#    y 0.000000 1.667080 0.000000 
#    z -0.005360 0.000000 1.698610 
# 
# From -- ./inp_files/66966.got.cif
#   From: 2010.06.25/outbox.cif.g09.slc.cpg/sg11_34_cif.got.tgz:66966.got - 2010.06.27 23:14:04.
