data_PCOD8072251
_publ_section_title
;
Structure prediction by ZEFSAII (Michael W. Deem and Ramdas Pophale) SiO2 
 PCOD8072251
Probable space group: P 21/M
;
_chemical_formula_sum "Si O2"
_cell_formula_units_Z 28
_cell_length_a 9.295594
_cell_length_b 8.631576
_cell_length_c 29.455158
_cell_angle_alpha 90.000000
_cell_angle_beta 37.938490
_cell_angle_gamma 90.000000
_cell_volume 1453.025256
_symmetry_space_group_name_H-M "P 21/M"
_symmetry_group_IT_number 11
_symmetry_cell_setting 'monoclinic'
loop_
_space_group_symop_operation_xyz
x,y,z
-x,1/2+y,-z
-x,-y,-z
x,1/2-y,z
loop_
_atom_site_type_symbol
_atom_site_label
_atom_site_fract_x
_atom_site_fract_y
_atom_site_fract_z
Si Si1 0.754942 0.068057 0.932641
Si Si2 0.009662 0.434871 0.362140
Si Si3 0.315758 0.934015 0.638018
Si Si4 0.137740 0.565451 0.778763
Si Si5 0.470513 0.930020 0.774605
Si Si6 0.154182 0.433836 0.502087
Si Si7 0.050349 0.931354 0.938895
O O1 0.740248 0.250000 0.931214
O O2 0.889056 0.022808 0.944600
O O3 0.884923 0.999731 0.855989
O O4 0.500000 0.000000 0.000000
O O5 0.999812 0.250000 0.367763
O O6 0.269037 0.498704 0.285061
O O7 0.832568 0.497489 0.367728
O O8 0.942748 0.506642 0.426506
O O9 0.312277 0.750000 0.639016
O O10 0.199907 0.996268 0.713251
O O11 0.580608 0.995452 0.569042
O O12 0.125268 0.750000 0.783941
O O13 0.334066 0.500295 0.764910
O O14 0.498536 0.750000 0.758115
O O15 0.321782 0.960426 0.857513
O O16 0.144779 0.250000 0.502640
O O17 0.000000 0.500000 0.500000
O O18 0.989292 0.750000 0.952212
O O19 0.000000 0.000000 0.000000
#
# Coordination Sequence:
#
# PCOD8072251 Si02
#       7
#     4   4   4   4   4   4   4
#     4  11  22  37  56  81 111 146 184 229 278 328
#     4  10  19  35  57  82 108 140 178 220 268 324
#     4   9  19  34  56  82 111 143 178 219 272 330
#     4   9  17  34  55  76 104 143 184 223 264 322
#     4   8  16  31  53  76 105 143 182 217 262 323
#     4  11  22  37  55  79 108 144 184 224 267 318
#     4  10  20  36  56  82 112 145 183 228 277 333
#
# _framework density 19.270140000000001
#
# number of rings (size 3 to 8) (size 9 to 14) (size 15 to 20)
#    0.000    2.286    0.000    4.286    0.000    3.429 
#    0.000   12.143    0.000    0.000    0.000    0.000 
#    0.000    0.000    0.000    0.000    0.000    0.000 
#
# Total GULP energy -347162.407538 kJ/mol
# GULP energy per Si atom -12398.657412 kJ/mol
# Density = 1.922628 g / cm^3
# Si number density = 19.270140 Si / 1000 Ang^3
#
#
#
# Elastic Constant Matrix: (Units=GPa)
#
#
# Indices 1 2 3 4 5 6 
#
# 1 139.3795 27.9665 97.3212 0.0000 -4.6222 0.0000
# 2 27.9665 52.2658 35.9605 0.0000 -2.4540 0.0000
# 3 97.3212 35.9605 185.2882 0.0000 -4.4777 0.0000
# 4 0.0000 0.0000 0.0000 31.4506 0.0000 3.7744
# 5 -4.6222 -2.4540 -4.4777 0.0000 44.6434 0.0000
# 6 0.0000 0.0000 0.0000 3.7744 0.0000 25.3415
#
#
#
# Elastic Compliance Matrix: (Units=1/GPa)
#
#
# Indices 1 2 3 4 5 6 
#
# 1 0.011580 -0.002304 -0.005623 0.000000 0.000508 0.000000
# 2 -0.002304 0.022567 -0.003153 0.000000 0.000686 0.000000
# 3 -0.005623 -0.003153 0.008966 0.000000 0.000144 0.000000
# 4 0.000000 0.000000 0.000000 0.032375 0.000000 -0.004822
# 5 0.000508 0.000686 0.000144 0.000000 0.022504 0.000000
# 6 0.000000 0.000000 0.000000 -0.004822 0.000000 0.040179
#
#
# Mechanical properties :
#
#
# Convention : Reuss Voigt Hill
#
# Bulk Modulus (GPa) = 47.72479 77.71443 62.71961
# Shear Modulus (GPa) = 29.88369 34.66613 32.27491
#
# Velocity S-wave (km/s) = 3.94226 4.24601 4.09695
# Velocity P-wave (km/s) = 6.74847 8.02836 7.41608
#
# Compressibility (1/GPa) = 0.02095347
#
# Stress axis : x y z
#
# Youngs Moduli (GPa) = 86.35665 44.31177 111.53451
#
# Poissons Ratio (x) = 0.10208 0.62714
# Poissons Ratio (y) = 0.19893 0.35170
# Poissons Ratio (z) = 0.48557 0.13973
#
# Static dielectric constant tensor:
#      x y z
#    x 3.739710 0.000000 -0.142020 
#    y 0.000000 3.402060 0.000000 
#    z -0.142020 0.000000 3.842570 
# 
# 
# High freq. dielectric constant tensor:
#      x y z
#    x 1.751660 0.000000 -0.002350 
#    y 0.000000 1.722830 0.000000 
#    z -0.002350 0.000000 1.769210 
# 
# From -- ./inp_files/70835.got.cif
#   From: 2010.06.25/outbox.cif.g09.slc.cpg/sg11_36_cif.got.tgz:70835.got - 2010.06.27 23:14:04.
