data_PCOD8072106
_publ_section_title
;
Structure prediction by ZEFSAII (Michael W. Deem and Ramdas Pophale) SiO2 
 PCOD8072106
Probable space group: P 21/M
;
_chemical_formula_sum "Si O2"
_cell_formula_units_Z 32
_cell_length_a 30.281325
_cell_length_b 8.537213
_cell_length_c 11.763521
_cell_angle_alpha 90.000000
_cell_angle_beta 145.239163
_cell_angle_gamma 90.000000
_cell_volume 1733.880240
_symmetry_space_group_name_H-M "P 21/M"
_symmetry_group_IT_number 11
_symmetry_cell_setting 'monoclinic'
loop_
_space_group_symop_operation_xyz
x,y,z
-x,1/2+y,-z
-x,-y,-z
x,1/2-y,z
loop_
_atom_site_type_symbol
_atom_site_label
_atom_site_fract_x
_atom_site_fract_y
_atom_site_fract_z
Si Si1 0.334863 0.421255 0.897921
Si Si2 0.233922 0.064707 0.875430
Si Si3 0.179093 0.423541 0.425399
Si Si4 0.907249 0.432990 0.557613
Si Si5 0.417877 0.063770 0.862461
Si Si6 0.273249 0.932072 0.433534
Si Si7 0.207685 0.431937 0.074585
Si Si8 0.961495 0.065765 0.305247
O O1 0.368855 0.250000 0.996666
O O2 0.310469 0.499187 0.967456
O O3 0.255772 0.409187 0.661206
O O4 0.396156 0.507162 0.943117
O O5 0.221621 0.250000 0.824323
O O6 0.246535 0.032628 0.034579
O O7 0.158730 0.973091 0.673790
O O8 0.146707 0.250000 0.329435
O O9 0.115532 0.520206 0.362059
O O10 0.199604 0.509801 0.351121
O O11 0.925008 0.250000 0.589819
O O12 0.983956 0.528801 0.686764
O O13 0.419513 0.250000 0.872912
O O14 0.353297 0.016402 0.634891
O O15 0.500000 0.000000 0.000000
O O16 0.285013 0.750000 0.479192
O O17 0.256163 0.966785 0.266238
O O18 0.214249 0.250000 0.120272
O O19 0.118760 0.479671 0.885671
O O20 0.947781 0.250000 0.288081
O O21 0.000000 0.000000 0.500000
#
# Coordination Sequence:
#
# PCOD8072106 Si02
#       8
#     4   4   4   4   4   4   4   4
#     4   7  13  27  49  77 104 133 169 215 262 310
#     4   9  17  31  52  75 103 140 183 225 270 320
#     4   9  17  33  54  75 103 139 179 223 272 322
#     4  11  20  31  51  78 106 137 180 231 280 324
#     4  10  19  34  58  86 115 143 176 218 269 322
#     4  11  22  37  56  81 112 144 181 221 268 328
#     4  11  22  36  55  78 107 145 184 225 276 330
#     4  12  23  36  52  75 107 143 185 233 280 325
#
# _framework density 18.455715999999999
#
# number of rings (size 3 to 8) (size 9 to 14) (size 15 to 20)
#    0.000    2.000    1.250    6.000    0.000    0.500 
#    0.000    1.250    0.000    0.750    0.000    0.000 
#    0.000    0.000    0.000    0.000    0.000    0.000 
#
# Total GULP energy -396614.647857 kJ/mol
# GULP energy per Si atom -12394.207746 kJ/mol
# Density = 1.841371 g / cm^3
# Si number density = 18.455716 Si / 1000 Ang^3
#
#
#
# Elastic Constant Matrix: (Units=GPa)
#
#
# Indices 1 2 3 4 5 6 
#
# 1 156.8141 22.0053 48.9755 0.0000 5.6054 0.0000
# 2 22.0053 67.4651 5.6269 0.0000 -2.8927 0.0000
# 3 48.9755 5.6269 58.5015 0.0000 -0.0123 0.0000
# 4 0.0000 0.0000 0.0000 24.6522 0.0000 0.9830
# 5 5.6054 -2.8927 -0.0123 0.0000 25.1486 0.0000
# 6 0.0000 0.0000 0.0000 0.9830 0.0000 28.4909
#
#
#
# Elastic Compliance Matrix: (Units=1/GPa)
#
#
# Indices 1 2 3 4 5 6 
#
# 1 0.009114 -0.002455 -0.007394 0.000000 -0.002317 0.000000
# 2 -0.002455 0.015678 0.000548 0.000000 0.002351 0.000000
# 3 -0.007394 0.000548 0.023231 0.000000 0.001722 0.000000
# 4 0.000000 0.000000 0.000000 0.040620 0.000000 -0.001402
# 5 -0.002317 0.002351 0.001722 0.000000 0.040551 0.000000
# 6 0.000000 0.000000 0.000000 -0.001402 0.000000 0.035147
#
#
# Mechanical properties :
#
#
# Convention : Reuss Voigt Hill
#
# Bulk Modulus (GPa) = 33.98966 48.44401 41.21684
# Shear Modulus (GPa) = 25.94012 29.40320 27.67166
#
# Velocity S-wave (km/s) = 3.75311 3.99579 3.87635
# Velocity P-wave (km/s) = 6.10229 6.89886 6.51276
#
# Compressibility (1/GPa) = 0.02942071
#
# Stress axis : x y z
#
# Youngs Moduli (GPa) = 109.72610 63.78186 43.04555
#
# Poissons Ratio (x) = 0.15660 0.31828
# Poissons Ratio (y) = 0.26941 -0.02359
# Poissons Ratio (z) = 0.81131 -0.03495
#
# Static dielectric constant tensor:
#      x y z
#    x 3.075890 0.000000 -0.235130 
#    y 0.000000 3.539770 0.000000 
#    z -0.235130 0.000000 2.873760 
# 
# 
# High freq. dielectric constant tensor:
#      x y z
#    x 1.740020 0.000000 -0.001200 
#    y 0.000000 1.715070 0.000000 
#    z -0.001200 0.000000 1.662290 
# 
# From -- ./inp_files/45380.got.cif
#   From: 2010.06.25/outbox.cif.g09.slc.cpg/sg11_23_cif.got.tgz:45380.got - 2010.06.27 23:14:04.
