data_PCOD8072588
_publ_section_title
;
Structure prediction by ZEFSAII (Michael W. Deem and Ramdas Pophale) SiO2 
 PCOD8072588
Probable space group: P 21/M
;
_chemical_formula_sum "Si O2"
_cell_formula_units_Z 24
_cell_length_a 15.172729
_cell_length_b 13.434316
_cell_length_c 11.858660
_cell_angle_alpha 90.000000
_cell_angle_beta 150.897567
_cell_angle_gamma 90.000000
_cell_volume 1175.665773
_symmetry_space_group_name_H-M "P 21/M"
_symmetry_group_IT_number 11
_symmetry_cell_setting 'monoclinic'
loop_
_space_group_symop_operation_xyz
x,y,z
-x,1/2+y,-z
-x,-y,-z
x,1/2-y,z
loop_
_atom_site_type_symbol
_atom_site_label
_atom_site_fract_x
_atom_site_fract_y
_atom_site_fract_z
Si Si1 0.179086 0.863952 0.434173
Si Si2 0.675749 0.634871 0.494354
Si Si3 0.497700 0.017166 0.128519
Si Si4 0.796604 0.468087 0.768390
Si Si5 0.901866 0.138556 0.093801
Si Si6 0.097597 0.012480 0.728005
O O1 0.132805 0.750000 0.401126
O O2 0.210436 0.886005 0.337817
O O3 0.012981 0.923305 0.304768
O O4 0.366473 0.891714 0.702645
O O5 0.613386 0.750000 0.445748
O O6 0.559741 0.583311 0.264931
O O7 0.663088 0.562912 0.592084
O O8 0.886940 0.631170 0.700177
O O9 0.500000 0.000000 0.000000
O O10 0.298802 0.056504 0.940146
O O11 0.762407 0.418643 0.852579
O O12 0.000000 0.500000 0.000000
O O13 0.831069 0.250000 0.015226
O O14 0.877876 0.097298 0.192716
O O15 0.000000 0.000000 0.500000
#
# Coordination Sequence:
#
# PCOD8072588 Si02
#       6
#     4   4   4   4   4   4
#     4  11  23  41  64  94 126 163 205 255 312 366
#     4   9  18  34  59  90 122 161 205 248 306 364
#     4  11  22  41  63  86 127 166 207 258 307 365
#     4   9  16  36  63  91 122 164 203 254 310 362
#     4  10  19  36  64  94 123 166 211 251 306 373
#     4  12  23  41  65  91 126 163 208 258 308 365
#
# _framework density 20.413965000000001
#
# number of rings (size 3 to 8) (size 9 to 14) (size 15 to 20)
#    0.000    1.667    6.667    0.500    0.000    3.333 
#    0.000    3.333    0.000    2.000    0.000    0.000 
#    0.000    0.000    0.000    0.000    0.000    0.000 
#
# Total GULP energy -297347.778413 kJ/mol
# GULP energy per Si atom -12389.490767 kJ/mol
# Density = 2.036750 g / cm^3
# Si number density = 20.413965 Si / 1000 Ang^3
#
#
#
# Elastic Constant Matrix: (Units=GPa)
#
#
# Indices 1 2 3 4 5 6 
#
# 1 73.9802 38.9221 42.6393 0.0000 -22.9293 0.0000
# 2 38.9221 140.8526 46.9056 0.0000 -24.0226 0.0000
# 3 42.6393 46.9056 118.0912 0.0000 -17.1679 0.0000
# 4 0.0000 0.0000 0.0000 21.1920 0.0000 -1.5414
# 5 -22.9293 -24.0226 -17.1679 0.0000 55.2285 0.0000
# 6 0.0000 0.0000 0.0000 -1.5414 0.0000 15.2544
#
#
#
# Elastic Compliance Matrix: (Units=1/GPa)
#
#
# Indices 1 2 3 4 5 6 
#
# 1 0.019633 -0.002783 -0.005210 0.000000 0.005321 0.000000
# 2 -0.002783 0.008970 -0.002261 0.000000 0.002044 0.000000
# 3 -0.005210 -0.002261 0.011301 0.000000 0.000366 0.000000
# 4 0.000000 0.000000 0.000000 0.047537 0.000000 0.004803
# 5 0.005321 0.002044 0.000366 0.000000 0.021319 0.000000
# 6 0.000000 0.000000 0.000000 0.004803 0.000000 0.066040
#
#
# Mechanical properties :
#
#
# Convention : Reuss Voigt Hill
#
# Bulk Modulus (GPa) = 51.55662 65.53976 58.54819
# Shear Modulus (GPa) = 24.78032 31.96544 28.37288
#
# Velocity S-wave (km/s) = 3.48787 3.96139 3.73215
# Velocity P-wave (km/s) = 6.44443 7.28687 6.87856
#
# Compressibility (1/GPa) = 0.01939615
#
# Stress axis : x y z
#
# Youngs Moduli (GPa) = 50.93376 111.48195 88.49102
#
# Poissons Ratio (x) = 0.31023 0.46105
# Poissons Ratio (y) = 0.14174 0.20008
# Poissons Ratio (z) = 0.26537 0.25206
#
# Static dielectric constant tensor:
#      x y z
#    x 3.970310 0.000000 -0.189980 
#    y 0.000000 4.162730 0.000000 
#    z -0.189980 0.000000 4.018100 
# 
# 
# High freq. dielectric constant tensor:
#      x y z
#    x 1.785520 0.000000 -0.012040 
#    y 0.000000 1.787480 0.000000 
#    z -0.012040 0.000000 1.814340 
# 
# From -- ./inp_files/39709.got.cif
#   From: 2010.06.25/outbox.cif.g09.slc.cpg/sg11_20_cif.got.tgz:39709.got - 2010.06.27 23:14:04.
