data_PCOD8072797
_publ_section_title
;
Structure prediction by ZEFSAII (Michael W. Deem and Ramdas Pophale) SiO2 
 PCOD8072797
Probable space group: P 21/M
;
_chemical_formula_sum "Si O2"
_cell_formula_units_Z 32
_cell_length_a 28.290406
_cell_length_b 9.139571
_cell_length_c 22.351844
_cell_angle_alpha 90.000000
_cell_angle_beta 161.424997
_cell_angle_gamma 90.000000
_cell_volume 1840.984847
_symmetry_space_group_name_H-M "P 21/M"
_symmetry_group_IT_number 11
_symmetry_cell_setting 'monoclinic'
loop_
_space_group_symop_operation_xyz
x,y,z
-x,1/2+y,-z
-x,-y,-z
x,1/2-y,z
loop_
_atom_site_type_symbol
_atom_site_label
_atom_site_fract_x
_atom_site_fract_y
_atom_site_fract_z
Si Si1 0.524995 0.423305 0.208281
Si Si2 0.296315 0.421450 0.216950
Si Si3 0.684813 0.077618 0.518595
Si Si4 0.812546 0.075649 0.487468
Si Si5 0.903402 0.077888 0.466898
Si Si6 0.974602 0.077065 0.797365
Si Si7 0.431193 0.079044 0.505742
Si Si8 0.215285 0.077991 0.787351
O O1 0.524487 0.250000 0.205494
O O2 0.568161 0.471519 0.327251
O O3 0.647976 0.480478 0.308267
O O4 0.362867 0.484405 0.996594
O O5 0.308379 0.250000 0.217259
O O6 0.408858 0.503971 0.308183
O O7 0.332338 0.455309 0.329008
O O8 0.133291 0.486486 0.007673
O O9 0.672099 0.250000 0.516510
O O10 0.849869 0.032894 0.695795
O O11 0.654921 0.987332 0.541946
O O12 0.815780 0.250000 0.490453
O O13 0.858925 0.014275 0.478386
O O14 0.929610 0.017741 0.677560
O O15 0.874839 0.250000 0.428022
O O16 0.075713 0.039551 0.662046
O O17 0.798978 0.000016 0.293491
O O18 0.984613 0.250000 0.806607
O O19 0.455240 0.250000 0.544173
O O20 0.226580 0.250000 0.789086
#
# Coordination Sequence:
#
# PCOD8072797 Si02
#       8
#     4   4   4   4   4   4   4   4
#     4   8  15  28  46  67  88 112 146 185 220 259
#     4   9  18  33  51  69  92 124 160 194 227 269
#     4   9  17  31  51  72  93 119 153 192 233 277
#     4   8  14  26  45  68  90 110 141 187 226 258
#     4   9  17  28  43  64  88 114 144 179 220 262
#     4   8  15  29  50  73  92 115 154 198 232 268
#     4  10  20  32  46  69  99 126 154 190 231 274
#     4   9  17  29  44  63  88 116 146 180 217 260
#
# _framework density 17.382000000000001
#
# number of rings (size 3 to 8) (size 9 to 14) (size 15 to 20)
#    0.000    3.250    0.000    1.875    0.000    2.500 
#    0.000    5.000    0.000    6.750    0.000    0.000 
#    0.000    0.000    0.000    0.000    0.000    0.000 
#
# Total GULP energy -396686.769844 kJ/mol
# GULP energy per Si atom -12396.461558 kJ/mol
# Density = 1.734244 g / cm^3
# Si number density = 17.382000 Si / 1000 Ang^3
#
#
#
# Elastic Constant Matrix: (Units=GPa)
#
#
# Indices 1 2 3 4 5 6 
#
# 1 104.2373 24.7595 27.5656 0.0000 0.5609 0.0000
# 2 24.7595 26.3474 19.8435 0.0000 -0.0103 0.0000
# 3 27.5656 19.8435 120.9767 0.0000 4.9343 0.0000
# 4 0.0000 0.0000 0.0000 16.0755 0.0000 -2.9228
# 5 0.5609 -0.0103 4.9343 0.0000 14.8658 0.0000
# 6 0.0000 0.0000 0.0000 -2.9228 0.0000 25.6330
#
#
#
# Elastic Compliance Matrix: (Units=1/GPa)
#
#
# Indices 1 2 3 4 5 6 
#
# 1 0.012466 -0.010930 -0.001042 0.000000 -0.000132 0.000000
# 2 -0.010930 0.052973 -0.006302 0.000000 0.002541 0.000000
# 3 -0.001042 -0.006302 0.009667 0.000000 -0.003174 0.000000
# 4 0.000000 0.000000 0.000000 0.063523 0.000000 0.007243
# 5 -0.000132 0.002541 -0.003174 0.000000 0.068329 0.000000
# 6 0.000000 0.000000 0.000000 0.007243 0.000000 0.039838
#
#
# Mechanical properties :
#
#
# Convention : Reuss Voigt Hill
#
# Bulk Modulus (GPa) = 25.93554 43.98873 34.96213
# Shear Modulus (GPa) = 16.88066 23.27436 20.07751
#
# Velocity S-wave (km/s) = 3.11972 3.66319 3.40233
# Velocity P-wave (km/s) = 5.28490 6.57678 5.96591
#
# Compressibility (1/GPa) = 0.03855714
#
# Stress axis : x y z
#
# Youngs Moduli (GPa) = 80.21822 18.87755 103.44747
#
# Poissons Ratio (x) = 0.20633 0.10783
# Poissons Ratio (y) = 0.87676 0.65195
# Poissons Ratio (z) = 0.08361 0.11897
#
# Static dielectric constant tensor:
#      x y z
#    x 3.317850 0.000000 0.009790 
#    y 0.000000 2.836050 0.000000 
#    z 0.009790 0.000000 3.684810 
# 
# 
# High freq. dielectric constant tensor:
#      x y z
#    x 1.675640 0.000000 0.001380 
#    y 0.000000 1.629270 0.000000 
#    z 0.001380 0.000000 1.677830 
# 
# From -- ./inp_files/26392.got.cif
#   From: 2010.06.25/outbox.cif.g09.slc.cpg/sg11_14_cif.got.tgz:26392.got - 2010.06.27 23:14:04.
