data_PCOD8072338
_publ_section_title
;
Structure prediction by ZEFSAII (Michael W. Deem and Ramdas Pophale) SiO2 
 PCOD8072338
Probable space group: P 21/M
;
_chemical_formula_sum "Si O2"
_cell_formula_units_Z 32
_cell_length_a 22.125887
_cell_length_b 9.168639
_cell_length_c 10.394070
_cell_angle_alpha 90.000000
_cell_angle_beta 47.408817
_cell_angle_gamma 90.000000
_cell_volume 1552.343206
_symmetry_space_group_name_H-M "P 21/M"
_symmetry_group_IT_number 11
_symmetry_cell_setting 'monoclinic'
loop_
_space_group_symop_operation_xyz
x,y,z
-x,1/2+y,-z
-x,-y,-z
x,1/2-y,z
loop_
_atom_site_type_symbol
_atom_site_label
_atom_site_fract_x
_atom_site_fract_y
_atom_site_fract_z
Si Si1 0.845843 0.908005 0.275108
Si Si2 0.446203 0.074057 0.188843
Si Si3 0.726282 0.591940 0.675305
Si Si4 0.116940 0.584929 0.134844
Si Si5 0.262672 0.911462 0.750776
Si Si6 0.450070 0.577055 0.458520
Si Si7 0.026721 0.581071 0.775086
Si Si8 0.851176 0.418851 0.633161
O O1 0.872903 0.750000 0.182062
O O2 0.804425 0.889758 0.472115
O O3 0.775520 0.973903 0.289767
O O4 0.927612 0.006550 0.169018
O O5 0.459453 0.250000 0.176740
O O6 0.352604 0.031208 0.287453
O O7 0.467688 0.001151 0.295746
O O8 0.500000 0.000000 0.000000
O O9 0.703400 0.750000 0.768203
O O10 0.760676 0.486097 0.736443
O O11 0.082004 0.750000 0.179627
O O12 0.113239 0.519268 0.283825
O O13 0.063652 0.486137 0.114345
O O14 0.212371 0.580660 0.956237
O O15 0.254693 0.750000 0.700626
O O16 0.356956 0.949746 0.637484
O O17 0.500000 0.500000 0.500000
O O18 0.471018 0.750000 0.417848
O O19 0.018774 0.750000 0.817598
O O20 0.079541 0.549646 0.571650
O O21 0.832618 0.250000 0.675708
#
# Coordination Sequence:
#
# PCOD8072338 Si02
#       8
#     4   4   4   4   4   4   4   4
#     4  10  19  35  59  83 110 149 193 240 293 346
#     4  11  23  41  64  95 128 161 206 260 315 378
#     4   9  19  35  57  84 113 145 189 239 290 351
#     4  10  21  37  54  79 115 154 195 242 293 352
#     4  10  22  39  60  84 114 152 197 243 295 357
#     4  11  24  43  67  95 129 169 208 257 318 384
#     4  10  20  34  54  83 114 150 196 245 294 352
#     4   9  19  34  55  81 113 152 194 238 294 355
#
# _framework density 20.613996
#
# number of rings (size 3 to 8) (size 9 to 14) (size 15 to 20)
#    0.000    2.000    1.250    1.875    0.000    5.000 
#    0.000    1.250    0.000    0.000    0.000    0.000 
#    0.000    0.000    0.000    0.000    0.000    0.000 
#
# Total GULP energy -396647.501856 kJ/mol
# GULP energy per Si atom -12395.234433 kJ/mol
# Density = 2.056708 g / cm^3
# Si number density = 20.613996 Si / 1000 Ang^3
#
#
#
# Elastic Constant Matrix: (Units=GPa)
#
#
# Indices 1 2 3 4 5 6 
#
# 1 136.9282 69.4208 33.3127 0.0000 -12.6996 0.0000
# 2 69.4208 119.9860 38.9173 0.0000 -5.4649 0.0000
# 3 33.3127 38.9173 66.2075 0.0000 -16.0182 0.0000
# 4 0.0000 0.0000 0.0000 20.1126 0.0000 -2.4368
# 5 -12.6996 -5.4649 -16.0182 0.0000 21.5665 0.0000
# 6 0.0000 0.0000 0.0000 -2.4368 0.0000 41.8434
#
#
#
# Elastic Compliance Matrix: (Units=1/GPa)
#
#
# Indices 1 2 3 4 5 6 
#
# 1 0.010863 -0.005743 -0.001090 0.000000 0.004132 0.000000
# 2 -0.005743 0.013429 -0.006094 0.000000 -0.004505 0.000000
# 3 -0.001090 -0.006094 0.022803 0.000000 0.014751 0.000000
# 4 0.000000 0.000000 0.000000 0.050073 0.000000 0.002916
# 5 0.004132 -0.004505 0.014751 0.000000 0.058616 0.000000
# 6 0.000000 0.000000 0.000000 0.002916 0.000000 0.024068
#
#
# Mechanical properties :
#
#
# Convention : Reuss Voigt Hill
#
# Bulk Modulus (GPa) = 47.07971 67.38038 57.23004
# Shear Modulus (GPa) = 23.49765 28.80257 26.15011
#
# Velocity S-wave (km/s) = 3.37989 3.74201 3.56555
# Velocity P-wave (km/s) = 6.17412 7.17132 6.69133
#
# Compressibility (1/GPa) = 0.02124057
#
# Stress axis : x y z
#
# Youngs Moduli (GPa) = 92.05197 74.46816 43.85354
#
# Poissons Ratio (x) = 0.42771 0.04781
# Poissons Ratio (y) = 0.52870 0.26722
# Poissons Ratio (z) = 0.10036 0.45377
#
# Static dielectric constant tensor:
#      x y z
#    x 3.713190 0.000000 0.011960 
#    y 0.000000 4.017220 0.000000 
#    z 0.011960 0.000000 3.774360 
# 
# 
# High freq. dielectric constant tensor:
#      x y z
#    x 1.805410 0.000000 -0.002480 
#    y 0.000000 1.811890 0.000000 
#    z -0.002480 0.000000 1.804350 
# 
# From -- ./inp_files/42829.got.cif
#   From: 2010.06.25/outbox.cif.g09.slc.cpg/sg11_22_cif.got.tgz:42829.got - 2010.06.27 23:14:04.
