data_PCOD8072296
_publ_section_title
;
Structure prediction by ZEFSAII (Michael W. Deem and Ramdas Pophale) SiO2 
 PCOD8072296
Probable space group: P 21/M
;
_chemical_formula_sum "Si O2"
_cell_formula_units_Z 24
_cell_length_a 11.451059
_cell_length_b 14.824524
_cell_length_c 19.320545
_cell_angle_alpha 90.000000
_cell_angle_beta 21.164916
_cell_angle_gamma 90.000000
_cell_volume 1184.179330
_symmetry_space_group_name_H-M "P 21/M"
_symmetry_group_IT_number 11
_symmetry_cell_setting 'monoclinic'
loop_
_space_group_symop_operation_xyz
x,y,z
-x,1/2+y,-z
-x,-y,-z
x,1/2-y,z
loop_
_atom_site_type_symbol
_atom_site_label
_atom_site_fract_x
_atom_site_fract_y
_atom_site_fract_z
Si Si1 0.807635 0.563514 0.436834
Si Si2 0.795743 0.555137 0.868501
Si Si3 0.664620 0.447174 0.183028
Si Si4 0.939252 0.750000 0.804229
Si Si5 0.394312 0.937738 0.216949
Si Si6 0.574220 0.750000 0.530270
Si Si7 0.569759 0.750000 0.151823
Si Si8 0.806777 0.250000 0.117943
O O1 0.474686 0.545698 0.661717
O O2 0.807416 0.662648 0.402278
O O3 0.870070 0.494182 0.338637
O O4 0.091771 0.547620 0.334931
O O5 0.826437 0.659532 0.825583
O O6 0.500000 0.500000 0.000000
O O7 0.733157 0.555909 0.985998
O O8 0.411983 0.488870 0.268014
O O9 0.707793 0.342930 0.134421
O O10 0.000000 0.500000 0.000000
O O11 0.330244 0.750000 0.599381
O O12 0.766381 0.750000 0.972785
O O13 0.350792 0.839453 0.276106
O O14 0.360690 0.750000 0.716005
O O15 0.806771 0.750000 0.086642
#
# Coordination Sequence:
#
# PCOD8072296 Si02
#       8
#     4   4   4   2   4   2   2   2
#     4  10  21  37  57  85 114 145 192 231 283 336
#     4   9  20  37  59  84 114 151 191 232 283 342
#     4  11  21  36  57  81 113 147 191 232 282 336
#     4   9  18  34  55  85 117 149 186 235 289 322
#     4  10  19  35  58  83 108 150 184 234 279 332
#     4   9  19  34  57  84 111 146 192 244 266 335
#     4   9  15  30  57  78 103 143 193 221 272 328
#     4   9  18  34  51  79 111 144 179 238 279 325
#
# _framework density 20.267201
#
# number of rings (size 3 to 8) (size 9 to 14) (size 15 to 20)
#    0.000    2.333    1.667    1.000    2.333    2.667 
#    0.000    5.833    0.000    0.000    0.000    0.000 
#    0.000    0.000    0.000    0.000    0.000    0.000 
#
# Total GULP energy -297357.753035 kJ/mol
# GULP energy per Si atom -12389.906376 kJ/mol
# Density = 2.022107 g / cm^3
# Si number density = 20.267201 Si / 1000 Ang^3
#
#
#
# Elastic Constant Matrix: (Units=GPa)
#
#
# Indices 1 2 3 4 5 6 
#
# 1 36.4948 39.2258 9.0545 0.0000 -8.8493 0.0000
# 2 39.2258 190.9899 41.8023 0.0000 3.6127 0.0000
# 3 9.0545 41.8023 70.4423 0.0000 3.5722 0.0000
# 4 0.0000 0.0000 0.0000 31.4178 0.0000 -3.1111
# 5 -8.8493 3.6127 3.5722 0.0000 30.5635 0.0000
# 6 0.0000 0.0000 0.0000 -3.1111 0.0000 34.1594
#
#
#
# Elastic Compliance Matrix: (Units=1/GPa)
#
#
# Indices 1 2 3 4 5 6 
#
# 1 0.039382 -0.008134 -0.000867 0.000000 0.012465 0.000000
# 2 -0.008134 0.007700 -0.003378 0.000000 -0.002871 0.000000
# 3 -0.000867 -0.003378 0.016402 0.000000 -0.001769 0.000000
# 4 0.000000 0.000000 0.000000 0.032119 0.000000 0.002925
# 5 0.012465 -0.002871 -0.001769 0.000000 0.036874 0.000000
# 6 0.000000 0.000000 0.000000 0.002925 0.000000 0.029541
#
#
# Mechanical properties :
#
#
# Convention : Reuss Voigt Hill
#
# Bulk Modulus (GPa) = 25.82338 53.12136 39.47237
# Shear Modulus (GPa) = 25.03935 33.08445 29.06190
#
# Velocity S-wave (km/s) = 3.51873 4.04470 3.79084
# Velocity P-wave (km/s) = 5.41089 6.93399 6.21924
#
# Compressibility (1/GPa) = 0.03872459
#
# Stress axis : x y z
#
# Youngs Moduli (GPa) = 25.39233 129.86582 60.96824
#
# Poissons Ratio (x) = 1.05637 0.05286
# Poissons Ratio (y) = 0.20655 0.20597
# Poissons Ratio (z) = 0.02202 0.43874
#
# Static dielectric constant tensor:
#      x y z
#    x 3.489250 0.000000 0.171720 
#    y 0.000000 4.295550 0.000000 
#    z 0.171720 0.000000 3.859510 
# 
# 
# High freq. dielectric constant tensor:
#      x y z
#    x 1.752280 0.000000 -0.011320 
#    y 0.000000 1.809260 0.000000 
#    z -0.011320 0.000000 1.779650 
# 
# From -- ./inp_files/22368.got.cif
#   From: 2010.06.25/outbox.cif.g09.slc.cpg/sg11_12_cif.got.tgz:22368.got - 2010.06.27 23:14:04.
