data_PCOD8072154
_publ_section_title
;
Structure prediction by ZEFSAII (Michael W. Deem and Ramdas Pophale) SiO2 
 PCOD8072154
Probable space group: P 21/M
;
_chemical_formula_sum "Si O2"
_cell_formula_units_Z 28
_cell_length_a 11.494936
_cell_length_b 14.442799
_cell_length_c 10.012239
_cell_angle_alpha 90.000000
_cell_angle_beta 55.830263
_cell_angle_gamma 90.000000
_cell_volume 1375.285164
_symmetry_space_group_name_H-M "P 21/M"
_symmetry_group_IT_number 11
_symmetry_cell_setting 'monoclinic'
loop_
_space_group_symop_operation_xyz
x,y,z
-x,1/2+y,-z
-x,-y,-z
x,1/2-y,z
loop_
_atom_site_type_symbol
_atom_site_label
_atom_site_fract_x
_atom_site_fract_y
_atom_site_fract_z
Si Si1 0.437934 0.520877 0.894395
Si Si2 0.267583 0.144498 0.940015
Si Si3 0.176715 0.855858 0.129516
Si Si4 0.290084 0.044404 0.421897
Si Si5 0.194548 0.648055 0.433042
Si Si6 0.122852 0.354293 0.308675
Si Si7 0.868487 0.856746 0.251378
O O1 0.401245 0.423212 0.847173
O O2 0.554386 0.573154 0.728433
O O3 0.500000 0.500000 0.000000
O O4 0.301058 0.585147 0.984133
O O5 0.322881 0.250000 0.909636
O O6 0.163520 0.129708 0.883371
O O7 0.183849 0.116325 0.126970
O O8 0.196337 0.750000 0.070177
O O9 0.181031 0.865289 0.284443
O O10 0.025605 0.894596 0.177445
O O11 0.175578 0.075703 0.387042
O O12 0.250858 0.088529 0.588900
O O13 0.290713 0.932472 0.432436
O O14 0.258464 0.750000 0.424248
O O15 0.043243 0.638723 0.598212
O O16 0.169147 0.250000 0.318267
O O17 0.860161 0.750000 0.301806
#
# Coordination Sequence:
#
# PCOD8072154 Si02
#       7
#     4   4   4   4   4   4   4
#     4  12  24  38  58  95 126 159 206 245 302 361
#     4  10  23  42  63  88 124 162 201 249 304 361
#     4  10  21  39  62  90 124 157 198 255 307 357
#     4  12  22  36  62  90 124 158 203 251 296 360
#     4  10  20  34  57  90 122 156 203 254 305 351
#     4  10  19  34  60  92 118 151 206 258 297 345
#     4  10  23  43  66  89 117 160 206 250 307 362
#
# _framework density 20.359414000000001
#
# number of rings (size 3 to 8) (size 9 to 14) (size 15 to 20)
#    0.000    1.429    4.286    0.857    2.000    3.429 
#    0.000    0.000    0.000    0.000    0.000    0.000 
#    0.000    0.000    0.000    0.000    0.000    0.000 
#
# Total GULP energy -347244.606625 kJ/mol
# GULP energy per Si atom -12401.593094 kJ/mol
# Density = 2.031308 g / cm^3
# Si number density = 20.359414 Si / 1000 Ang^3
#
#
#
# Elastic Constant Matrix: (Units=GPa)
#
#
# Indices 1 2 3 4 5 6 
#
# 1 55.2941 28.0581 19.2081 0.0000 -14.4819 0.0000
# 2 28.0581 89.2982 22.7142 0.0000 -3.6636 0.0000
# 3 19.2081 22.7142 64.9702 0.0000 -8.5210 0.0000
# 4 0.0000 0.0000 0.0000 27.2665 0.0000 -2.0083
# 5 -14.4819 -3.6636 -8.5210 0.0000 31.9497 0.0000
# 6 0.0000 0.0000 0.0000 -2.0083 0.0000 29.4181
#
#
#
# Elastic Compliance Matrix: (Units=1/GPa)
#
#
# Indices 1 2 3 4 5 6 
#
# 1 0.025309 -0.006558 -0.003921 0.000000 0.009674 0.000000
# 2 -0.006558 0.013993 -0.003246 0.000000 -0.002234 0.000000
# 3 -0.003921 -0.003246 0.018035 0.000000 0.002660 0.000000
# 4 0.000000 0.000000 0.000000 0.036860 0.000000 0.002516
# 5 0.009674 -0.002234 0.002660 0.000000 0.036138 0.000000
# 6 0.000000 0.000000 0.000000 0.002516 0.000000 0.034165
#
#
# Mechanical properties :
#
#
# Convention : Reuss Voigt Hill
#
# Bulk Modulus (GPa) = 33.46023 38.83594 36.14808
# Shear Modulus (GPa) = 24.76341 27.03232 25.89787
#
# Velocity S-wave (km/s) = 3.49135 3.64779 3.57043
# Velocity P-wave (km/s) = 5.72042 6.07111 5.89837
#
# Compressibility (1/GPa) = 0.02988623
#
# Stress axis : x y z
#
# Youngs Moduli (GPa) = 39.51237 71.46398 55.44861
#
# Poissons Ratio (x) = 0.46865 0.21741
# Poissons Ratio (y) = 0.25912 0.18000
# Poissons Ratio (z) = 0.15492 0.23199
#
# Static dielectric constant tensor:
#      x y z
#    x 3.475840 0.000000 -0.145160 
#    y 0.000000 4.029420 0.000000 
#    z -0.145160 0.000000 3.678900 
# 
# 
# High freq. dielectric constant tensor:
#      x y z
#    x 1.770440 0.000000 -0.014400 
#    y 0.000000 1.807540 0.000000 
#    z -0.014400 0.000000 1.792860 
# 
# From -- ./inp_files/17928.got.cif
#   From: 2010.06.25/outbox.cif.g09.slc.cpg/sg11_9_cif.got.tgz:17928.got - 2010.06.27 23:14:04.
