data_PCOD8072279
_publ_section_title
;
Structure prediction by ZEFSAII (Michael W. Deem and Ramdas Pophale) SiO2 
 PCOD8072279
Probable space group: P 21/M
;
_chemical_formula_sum "Si O2"
_cell_formula_units_Z 32
_cell_length_a 21.737915
_cell_length_b 8.588194
_cell_length_c 14.458374
_cell_angle_alpha 90.000000
_cell_angle_beta 35.508177
_cell_angle_gamma 90.000000
_cell_volume 1567.761893
_symmetry_space_group_name_H-M "P 21/M"
_symmetry_group_IT_number 11
_symmetry_cell_setting 'monoclinic'
loop_
_space_group_symop_operation_xyz
x,y,z
-x,1/2+y,-z
-x,-y,-z
x,1/2-y,z
loop_
_atom_site_type_symbol
_atom_site_label
_atom_site_fract_x
_atom_site_fract_y
_atom_site_fract_z
Si Si1 0.943487 0.935104 0.788644
Si Si2 0.742113 0.427204 0.351237
Si Si3 0.672480 0.431234 0.631538
Si Si4 0.920416 0.929818 0.023942
Si Si5 0.784367 0.932325 0.826785
Si Si6 0.159873 0.934456 0.433177
Si Si7 0.448563 0.434246 0.834056
Si Si8 0.526369 0.933011 0.565818
O O1 0.944766 0.750000 0.792085
O O2 0.929830 0.003991 0.909599
O O3 0.844112 0.989441 0.846926
O O4 0.052721 0.000064 0.611443
O O5 0.773588 0.250000 0.288530
O O6 0.754498 0.460425 0.445673
O O7 0.620396 0.457856 0.483848
O O8 0.804723 0.542878 0.207679
O O9 0.654680 0.250000 0.668115
O O10 0.734891 0.502793 0.643369
O O11 0.552829 0.499163 0.762602
O O12 0.946067 0.750000 0.984630
O O13 0.000000 0.000000 0.000000
O O14 0.801917 0.750000 0.791951
O O15 0.838878 0.017571 0.674530
O O16 0.659594 0.974244 0.979876
O O17 0.159831 0.750000 0.441929
O O18 0.457165 0.250000 0.803975
O O19 0.436576 0.528128 0.751697
O O20 0.552311 0.750000 0.530105
O O21 0.500000 0.000000 0.500000
#
# Coordination Sequence:
#
# PCOD8072279 Si02
#       8
#     4   4   4   4   4   4   4   4
#     4   9  20  37  56  78 108 149 188 229 289 349
#     4  10  20  37  58  84 116 152 191 235 286 345
#     4   8  16  33  56  79 108 147 185 225 282 346
#     4  11  22  37  58  85 115 152 195 240 291 350
#     4  10  21  37  56  80 111 145 184 235 292 346
#     4  10  19  35  58  79 104 144 191 234 282 345
#     4   9  19  36  56  79 111 149 188 231 286 344
#     4  11  22  36  56  83 115 151 191 234 281 339
#
# _framework density 20.411261
#
# number of rings (size 3 to 8) (size 9 to 14) (size 15 to 20)
#    0.000    2.250    0.000    3.750    1.750    3.000 
#    0.000    6.875    0.000    0.000    0.000    0.000 
#    0.000    0.000    0.000    0.000    0.000    0.000 
#
# Total GULP energy -396573.635801 kJ/mol
# GULP energy per Si atom -12392.926119 kJ/mol
# Density = 2.036480 g / cm^3
# Si number density = 20.411261 Si / 1000 Ang^3
#
#
#
# Elastic Constant Matrix: (Units=GPa)
#
#
# Indices 1 2 3 4 5 6 
#
# 1 133.3630 25.4871 52.6180 0.0000 9.7740 0.0000
# 2 25.4871 26.3982 21.8908 0.0000 3.0267 0.0000
# 3 52.6180 21.8908 116.4076 0.0000 1.7764 0.0000
# 4 0.0000 0.0000 0.0000 28.4022 0.0000 4.6404
# 5 9.7740 3.0267 1.7764 0.0000 31.8688 0.0000
# 6 0.0000 0.0000 0.0000 4.6404 0.0000 23.4861
#
#
#
# Elastic Compliance Matrix: (Units=1/GPa)
#
#
# Indices 1 2 3 4 5 6 
#
# 1 0.010301 -0.006929 -0.003318 0.000000 -0.002316 0.000000
# 2 -0.006929 0.050004 -0.006237 0.000000 -0.002276 0.000000
# 3 -0.003318 -0.006237 0.011248 0.000000 0.000983 0.000000
# 4 0.000000 0.000000 0.000000 0.036383 0.000000 -0.007189
# 5 -0.002316 -0.002276 0.000983 0.000000 0.032251 0.000000
# 6 0.000000 0.000000 0.000000 -0.007189 0.000000 0.043999
#
#
# Mechanical properties :
#
#
# Convention : Reuss Voigt Hill
#
# Bulk Modulus (GPa) = 25.91599 52.90675 39.41137
# Shear Modulus (GPa) = 21.73773 28.49626 25.11699
#
# Velocity S-wave (km/s) = 3.26695 3.74050 3.51172
# Velocity P-wave (km/s) = 5.19183 6.68070 5.98276
#
# Compressibility (1/GPa) = 0.03858622
#
# Stress axis : x y z
#
# Youngs Moduli (GPa) = 97.07425 19.99850 88.90349
#
# Poissons Ratio (x) = 0.13856 0.29499
# Poissons Ratio (y) = 0.67260 0.55447
# Poissons Ratio (z) = 0.32210 0.12473
#
# Static dielectric constant tensor:
#      x y z
#    x 4.308620 0.000000 0.065350 
#    y 0.000000 5.130450 0.000000 
#    z 0.065350 0.000000 4.563840 
# 
# 
# High freq. dielectric constant tensor:
#      x y z
#    x 1.808260 0.000000 0.000210 
#    y 0.000000 1.761350 0.000000 
#    z 0.000210 0.000000 1.802510 
# 
# From -- ./inp_files/55543.got.cif
#   From: 2010.06.25/outbox.cif.g09.slc.cpg/sg11_28_cif.got.tgz:55543.got - 2010.06.27 23:14:04.
