data_PCOD8072655
_publ_section_title
;
Structure prediction by ZEFSAII (Michael W. Deem and Ramdas Pophale) SiO2 
 PCOD8072655
Probable space group: P 21/M
;
_chemical_formula_sum "Si O2"
_cell_formula_units_Z 32
_cell_length_a 16.310088
_cell_length_b 17.354700
_cell_length_c 12.275023
_cell_angle_alpha 90.000000
_cell_angle_beta 26.188484
_cell_angle_gamma 90.000000
_cell_volume 1533.397509
_symmetry_space_group_name_H-M "P 21/M"
_symmetry_group_IT_number 11
_symmetry_cell_setting 'monoclinic'
loop_
_space_group_symop_operation_xyz
x,y,z
-x,1/2+y,-z
-x,-y,-z
x,1/2-y,z
loop_
_atom_site_type_symbol
_atom_site_label
_atom_site_fract_x
_atom_site_fract_y
_atom_site_fract_z
Si Si1 0.957350 0.901113 0.840596
Si Si2 0.096079 0.579306 0.087109
Si Si3 0.531983 0.597959 0.847571
Si Si4 0.362802 0.925561 0.276716
Si Si5 0.112679 0.163035 0.487304
Si Si6 0.713170 0.660291 0.942037
Si Si7 0.554357 0.160417 0.276218
Si Si8 0.866961 0.838521 0.177739
O O1 0.810863 0.857801 0.938959
O O2 0.163305 0.893081 0.547534
O O3 0.889929 0.988095 0.935178
O O4 0.959882 0.858624 0.952773
O O5 0.033688 0.605808 0.282451
O O6 0.950798 0.608420 0.171438
O O7 0.298815 0.615611 0.822281
O O8 0.632584 0.516509 0.706119
O O9 0.690294 0.660434 0.684990
O O10 0.422694 0.626625 0.872582
O O11 0.387463 0.591716 0.119264
O O12 0.521334 0.886128 0.160901
O O13 0.035696 0.250000 0.585562
O O14 0.146505 0.135999 0.322639
O O15 0.664032 0.750000 0.992222
O O16 0.604517 0.250000 0.216071
O O17 0.352117 0.144633 0.566919
O O18 0.906950 0.750000 0.160166
#
# Coordination Sequence:
#
# PCOD8072655 Si02
#       8
#     4   4   4   4   4   4   4   4
#     4  12  25  42  67  95 129 173 214 257 320 393
#     4  12  24  40  66  97 126 164 214 268 321 376
#     4  10  19  38  63  93 130 164 207 261 318 378
#     4  10  22  40  62  93 129 170 210 256 320 383
#     4  10  19  37  62  91 130 165 205 265 318 366
#     4  10  24  41  60  92 132 171 213 263 315 378
#     4  11  23  39  63  93 123 164 213 265 324 374
#     4  11  25  45  64  88 127 167 216 273 318 375
#
# _framework density 20.868690999999998
#
# number of rings (size 3 to 8) (size 9 to 14) (size 15 to 20)
#    0.000    1.250    2.500    3.000    1.750    3.500 
#    0.000    0.000    0.000    0.000    0.000    0.000 
#    0.000    0.000    0.000    0.000    0.000    0.000 
#
# Total GULP energy -396994.805259 kJ/mol
# GULP energy per Si atom -12406.087664 kJ/mol
# Density = 2.082119 g / cm^3
# Si number density = 20.868691 Si / 1000 Ang^3
#
#
#
# Elastic Constant Matrix: (Units=GPa)
#
#
# Indices 1 2 3 4 5 6 
#
# 1 52.6374 19.1491 21.5088 0.0000 6.5777 0.0000
# 2 19.1491 56.2760 23.1480 0.0000 0.2401 0.0000
# 3 21.5088 23.1480 91.2933 0.0000 -1.4047 0.0000
# 4 0.0000 0.0000 0.0000 24.1916 0.0000 3.4520
# 5 6.5777 0.2401 -1.4047 0.0000 27.0522 0.0000
# 6 0.0000 0.0000 0.0000 3.4520 0.0000 28.1835
#
#
#
# Elastic Compliance Matrix: (Units=1/GPa)
#
#
# Indices 1 2 3 4 5 6 
#
# 1 0.023717 -0.006374 -0.004063 0.000000 -0.005921 0.000000
# 2 -0.006374 0.021557 -0.003946 0.000000 0.001154 0.000000
# 3 -0.004063 -0.003946 0.012938 0.000000 0.001695 0.000000
# 4 0.000000 0.000000 0.000000 0.042072 0.000000 -0.005153
# 5 -0.005921 0.001154 0.001695 0.000000 0.038483 0.000000
# 6 0.000000 0.000000 0.000000 -0.005153 0.000000 0.036113
#
#
# Mechanical properties :
#
#
# Convention : Reuss Voigt Hill
#
# Bulk Modulus (GPa) = 33.96128 36.42426 35.19277
# Shear Modulus (GPa) = 23.42363 24.97884 24.20123
#
# Velocity S-wave (km/s) = 3.35390 3.46345 3.40912
# Velocity P-wave (km/s) = 5.59530 5.78670 5.69180
#
# Compressibility (1/GPa) = 0.02944530
#
# Stress axis : x y z
#
# Youngs Moduli (GPa) = 42.16452 46.38922 77.29409
#
# Poissons Ratio (x) = 0.29567 0.31402
# Poissons Ratio (y) = 0.26874 0.30504
# Poissons Ratio (z) = 0.17130 0.18307
#
# Static dielectric constant tensor:
#      x y z
#    x 3.700060 0.000000 0.057160 
#    y 0.000000 3.777240 0.000000 
#    z 0.057160 0.000000 3.738510 
# 
# 
# High freq. dielectric constant tensor:
#      x y z
#    x 1.813080 0.000000 -0.002120 
#    y 0.000000 1.824150 0.000000 
#    z -0.002120 0.000000 1.817460 
# 
# From -- ./inp_files/39969.got.cif
#   From: 2010.06.25/outbox.cif.g09.slc.cpg/sg11_20_cif.got.tgz:39969.got - 2010.06.27 23:14:04.
