data_PCOD8072696
_publ_section_title
;
Structure prediction by ZEFSAII (Michael W. Deem and Ramdas Pophale) SiO2 
 PCOD8072696
Probable space group: P 21/M
;
_chemical_formula_sum "Si O2"
_cell_formula_units_Z 20
_cell_length_a 8.800434
_cell_length_b 14.011065
_cell_length_c 7.637963
_cell_angle_alpha 90.000000
_cell_angle_beta 86.141472
_cell_angle_gamma 90.000000
_cell_volume 939.652413
_symmetry_space_group_name_H-M "P 21/M"
_symmetry_group_IT_number 11
_symmetry_cell_setting 'monoclinic'
loop_
_space_group_symop_operation_xyz
x,y,z
-x,1/2+y,-z
-x,-y,-z
x,1/2-y,z
loop_
_atom_site_type_symbol
_atom_site_label
_atom_site_fract_x
_atom_site_fract_y
_atom_site_fract_z
Si Si1 0.688318 0.558451 0.236350
Si Si2 0.171392 0.482643 0.431403
Si Si3 0.088873 0.089135 0.071762
Si Si4 0.644436 0.359100 0.736506
Si Si5 0.769480 0.352348 0.109335
O O1 0.747975 0.582908 0.427027
O O2 0.516579 0.589793 0.226621
O O3 0.702737 0.443034 0.217297
O O4 0.786433 0.617577 0.084647
O O5 0.180350 0.429856 0.244174
O O6 0.257893 0.584439 0.415780
O O7 0.000000 0.500000 0.500000
O O8 0.952695 0.163052 0.117442
O O9 0.000000 0.000000 0.000000
O O10 0.623844 0.250000 0.676378
O O11 0.735848 0.367952 0.908572
O O12 0.697635 0.250000 0.177411
#
# Coordination Sequence:
#
# PCOD8072696 Si02
#       5
#     4   4   4   4   4
#     4  11  22  40  66  90 127 168 205 257 315 369
#     4  12  21  40  67  89 118 169 208 256 317 369
#     4  10  19  38  63  90 119 157 211 256 306 367
#     4  11  24  41  63  94 127 167 207 256 318 373
#     4  10  20  37  63  91 122 165 210 251 307 367
#
# _framework density 21.284466999999999
#
# number of rings (size 3 to 8) (size 9 to 14) (size 15 to 20)
#    0.000    1.200    8.000    1.200    0.000    1.600 
#    0.000    2.000    0.000    1.200    0.000    0.000 
#    0.000    0.000    0.000    0.000    0.000    0.000 
#
# Total GULP energy -247860.700824 kJ/mol
# GULP energy per Si atom -12393.035041 kJ/mol
# Density = 2.123602 g / cm^3
# Si number density = 21.284467 Si / 1000 Ang^3
#
#
#
# Elastic Constant Matrix: (Units=GPa)
#
#
# Indices 1 2 3 4 5 6 
#
# 1 131.9405 51.0879 33.5597 0.0000 -22.3489 0.0000
# 2 51.0879 76.1768 29.2747 0.0000 -4.2600 0.0000
# 3 33.5597 29.2747 128.8624 0.0000 8.1958 0.0000
# 4 0.0000 0.0000 0.0000 10.0212 0.0000 -5.9040
# 5 -22.3489 -4.2600 8.1958 0.0000 30.2281 0.0000
# 6 0.0000 0.0000 0.0000 -5.9040 0.0000 19.4462
#
#
#
# Elastic Compliance Matrix: (Units=1/GPa)
#
#
# Indices 1 2 3 4 5 6 
#
# 1 0.012285 -0.006914 -0.002182 0.000000 0.008700 0.000000
# 2 -0.006914 0.018540 -0.002292 0.000000 -0.001877 0.000000
# 3 -0.002182 -0.002292 0.009130 0.000000 -0.004412 0.000000
# 4 0.000000 0.000000 0.000000 0.121526 0.000000 0.036896
# 5 0.008700 -0.001877 -0.004412 0.000000 0.040446 0.000000
# 6 0.000000 0.000000 0.000000 0.036896 0.000000 0.062626
#
#
# Mechanical properties :
#
#
# Convention : Reuss Voigt Hill
#
# Bulk Modulus (GPa) = 58.21029 62.75828 60.48428
# Shear Modulus (GPa) = 17.06173 26.80960 21.93567
#
# Velocity S-wave (km/s) = 2.83433 3.55291 3.21377
# Velocity P-wave (km/s) = 6.17409 6.81032 6.49999
#
# Compressibility (1/GPa) = 0.01717909
#
# Stress axis : x y z
#
# Youngs Moduli (GPa) = 81.40094 53.93787 109.53225
#
# Poissons Ratio (x) = 0.37291 0.23900
# Poissons Ratio (y) = 0.56279 0.25104
# Poissons Ratio (z) = 0.17762 0.12362
#
# Static dielectric constant tensor:
#      x y z
#    x 4.285460 0.000000 -0.051630 
#    y 0.000000 4.412690 0.000000 
#    z -0.051630 0.000000 4.292090 
# 
# 
# High freq. dielectric constant tensor:
#      x y z
#    x 1.840050 0.000000 0.010280 
#    y 0.000000 1.807980 0.000000 
#    z 0.010280 0.000000 1.841190 
# 
# From -- ./inp_files/12331.got.cif
#   From: 2010.06.25/outbox.cif.g09.slc.cpg/sg11_7_cif.got.tgz:12331.got - 2010.06.27 23:14:04.
