data_PCOD8072365
_publ_section_title
;
Structure prediction by ZEFSAII (Michael W. Deem and Ramdas Pophale) SiO2 
 PCOD8072365
Probable space group: P 21/M
;
_chemical_formula_sum "Si O2"
_cell_formula_units_Z 32
_cell_length_a 14.520783
_cell_length_b 14.130647
_cell_length_c 21.276298
_cell_angle_alpha 90.000000
_cell_angle_beta 22.467979
_cell_angle_gamma 90.000000
_cell_volume 1668.404599
_symmetry_space_group_name_H-M "P 21/M"
_symmetry_group_IT_number 11
_symmetry_cell_setting 'monoclinic'
loop_
_space_group_symop_operation_xyz
x,y,z
-x,1/2+y,-z
-x,-y,-z
x,1/2-y,z
loop_
_atom_site_type_symbol
_atom_site_label
_atom_site_fract_x
_atom_site_fract_y
_atom_site_fract_z
Si Si1 0.509847 0.529957 0.920780
Si Si2 0.931269 0.855352 0.668067
Si Si3 0.835604 0.139325 0.944985
Si Si4 0.483401 0.638029 0.334418
Si Si5 0.735781 0.649798 0.928479
Si Si6 0.831212 0.356138 0.257881
Si Si7 0.854902 0.519835 0.029525
Si Si8 0.383414 0.360243 0.611803
O O1 0.771709 0.566821 0.730326
O O2 0.500000 0.500000 0.000000
O O3 0.310988 0.608204 0.024973
O O4 0.433535 0.431724 0.934607
O O5 0.928514 0.750000 0.639187
O O6 0.769110 0.853794 0.832919
O O7 0.202266 0.890078 0.506738
O O8 0.786432 0.250000 0.991203
O O9 0.117408 0.121162 0.753137
O O10 0.765708 0.075576 0.049951
O O11 0.523154 0.750000 0.300794
O O12 0.621522 0.583856 0.191578
O O13 0.585422 0.600439 0.336896
O O14 0.615189 0.750000 0.023930
O O15 0.006631 0.644375 0.782363
O O16 0.801754 0.250000 0.248470
O O17 0.575728 0.402392 0.440527
O O18 0.950790 0.423145 0.132490
O O19 0.000000 0.500000 0.000000
O O20 0.448169 0.250000 0.575393
#
# Coordination Sequence:
#
# PCOD8072365 Si02
#       8
#     4   4   4   4   4   4   4   4
#     4  10  20  36  58  89 116 150 202 249 305 355
#     4   9  17  32  58  86 114 151 195 244 294 352
#     4  11  23  40  60  86 125 164 203 247 306 374
#     4  10  19  36  60  89 121 154 204 254 297 355
#     4   9  16  30  55  86 116 145 185 243 301 348
#     4  10  19  35  59  88 121 150 194 250 300 351
#     4  12  24  37  55  92 122 165 203 239 304 361
#     4   9  18  35  61  89 119 157 194 244 305 363
#
# _framework density 19.180001000000001
#
# number of rings (size 3 to 8) (size 9 to 14) (size 15 to 20)
#    0.000    2.000    3.750    0.750    0.000    1.500 
#    4.500    0.625    0.000    0.750    0.000    0.000 
#    0.000    0.000    0.000    0.000    0.000    0.000 
#
# Total GULP energy -396463.110685 kJ/mol
# GULP energy per Si atom -12389.472209 kJ/mol
# Density = 1.913635 g / cm^3
# Si number density = 19.180001 Si / 1000 Ang^3
#
#
#
# Elastic Constant Matrix: (Units=GPa)
#
#
# Indices 1 2 3 4 5 6 
#
# 1 75.6661 38.7542 46.2831 0.0000 -13.4861 0.0000
# 2 38.7542 113.5440 62.8009 0.0000 -7.4728 0.0000
# 3 46.2831 62.8009 109.9935 0.0000 -11.2012 0.0000
# 4 0.0000 0.0000 0.0000 24.7015 0.0000 -3.8406
# 5 -13.4861 -7.4728 -11.2012 0.0000 32.4762 0.0000
# 6 0.0000 0.0000 0.0000 -3.8406 0.0000 27.3225
#
#
#
# Elastic Compliance Matrix: (Units=1/GPa)
#
#
# Indices 1 2 3 4 5 6 
#
# 1 0.019278 -0.002986 -0.005868 0.000000 0.005295 0.000000
# 2 -0.002986 0.013341 -0.006399 0.000000 -0.000377 0.000000
# 3 -0.005868 -0.006399 0.015355 0.000000 0.001387 0.000000
# 4 0.000000 0.000000 0.000000 0.041388 0.000000 0.005818
# 5 0.005295 -0.000377 0.001387 0.000000 0.033382 0.000000
# 6 0.000000 0.000000 0.000000 0.005818 0.000000 0.037418
#
#
# Mechanical properties :
#
#
# Convention : Reuss Voigt Hill
#
# Bulk Modulus (GPa) = 57.24531 66.09777 61.67154
# Shear Modulus (GPa) = 25.44664 26.99109 26.21886
#
# Velocity S-wave (km/s) = 3.64638 3.75541 3.70129
# Velocity P-wave (km/s) = 6.90212 7.30347 7.10563
#
# Compressibility (1/GPa) = 0.01746868
#
# Stress axis : x y z
#
# Youngs Moduli (GPa) = 51.87219 74.95881 65.12454
#
# Poissons Ratio (x) = 0.22382 0.38214
# Poissons Ratio (y) = 0.15489 0.41672
# Poissons Ratio (z) = 0.30438 0.47965
#
# Static dielectric constant tensor:
#      x y z
#    x 2.940160 0.000000 -0.231240 
#    y 0.000000 4.016010 0.000000 
#    z -0.231240 0.000000 3.454470 
# 
# 
# High freq. dielectric constant tensor:
#      x y z
#    x 1.730800 0.000000 -0.021450 
#    y 0.000000 1.757850 0.000000 
#    z -0.021450 0.000000 1.725800 
# 
# From -- ./inp_files/65751.got.cif
#   From: 2010.06.25/outbox.cif.g09.slc.cpg/sg11_33_cif.got.tgz:65751.got - 2010.06.27 23:14:04.
