data_PCOD8072289
_publ_section_title
;
Structure prediction by ZEFSAII (Michael W. Deem and Ramdas Pophale) SiO2 
 PCOD8072289
Probable space group: P 21/M
;
_chemical_formula_sum "Si O2"
_cell_formula_units_Z 28
_cell_length_a 27.601172
_cell_length_b 10.264420
_cell_length_c 9.012181
_cell_angle_alpha 90.000000
_cell_angle_beta 35.426178
_cell_angle_gamma 90.000000
_cell_volume 1479.995292
_symmetry_space_group_name_H-M "P 21/M"
_symmetry_group_IT_number 11
_symmetry_cell_setting 'monoclinic'
loop_
_space_group_symop_operation_xyz
x,y,z
-x,1/2+y,-z
-x,-y,-z
x,1/2-y,z
loop_
_atom_site_type_symbol
_atom_site_label
_atom_site_fract_x
_atom_site_fract_y
_atom_site_fract_z
Si Si1 0.585819 0.396835 0.139714
Si Si2 0.990163 0.014289 0.274881
Si Si3 0.885143 0.398815 0.796977
Si Si4 0.896232 0.891453 0.256396
Si Si5 0.753992 0.100023 0.560031
Si Si6 0.288702 0.902647 0.665527
Si Si7 0.549898 0.099990 0.572723
O O1 0.560203 0.250000 0.152028
O O2 0.528316 0.504552 0.202715
O O3 0.579860 0.410099 0.329779
O O4 0.681784 0.424236 0.859715
O O5 0.917173 0.087136 0.548709
O O6 0.947307 0.902486 0.282743
O O7 0.054113 0.960185 0.234590
O O8 0.039085 0.110222 0.042390
O O9 0.878413 0.250000 0.859219
O O10 0.792375 0.461353 0.046153
O O11 0.851284 0.750000 0.368966
O O12 0.831698 0.009350 0.405348
O O13 0.785182 0.250000 0.483693
O O14 0.717324 0.061622 0.491876
O O15 0.293297 0.750000 0.683147
O O16 0.375072 0.958954 0.514832
O O17 0.525731 0.250000 0.673044
#
# Coordination Sequence:
#
# PCOD8072289 Si02
#       7
#     4   4   4   4   4   4   4
#     4   9  19  35  56  81 109 140 180 223 271 331
#     4  10  22  36  56  79 112 152 189 232 281 334
#     4  10  19  35  58  82 108 146 192 233 275 329
#     4  11  23  38  55  83 118 151 189 234 282 332
#     4  10  21  37  57  81 111 148 188 229 273 329
#     4   9  18  33  55  81 108 141 182 226 270 324
#     4   9  18  34  57  81 108 139 179 224 273 329
#
# _framework density 18.918980000000001
#
# number of rings (size 3 to 8) (size 9 to 14) (size 15 to 20)
#    0.000    2.286    1.429    0.857    2.000    4.000 
#    0.000    0.714    0.000    0.000    0.000    0.000 
#    0.000    0.000    0.000    0.000    0.000    0.000 
#
# Total GULP energy -347086.613056 kJ/mol
# GULP energy per Si atom -12395.950466 kJ/mol
# Density = 1.887592 g / cm^3
# Si number density = 18.918980 Si / 1000 Ang^3
#
#
#
# Elastic Constant Matrix: (Units=GPa)
#
#
# Indices 1 2 3 4 5 6 
#
# 1 84.3698 34.6055 16.4491 0.0000 -8.3918 0.0000
# 2 34.6055 86.6305 29.0348 0.0000 -13.5999 0.0000
# 3 16.4491 29.0348 68.9435 0.0000 -3.5554 0.0000
# 4 0.0000 0.0000 0.0000 23.0376 0.0000 -9.0975
# 5 -8.3918 -13.5999 -3.5554 0.0000 23.4885 0.0000
# 6 0.0000 0.0000 0.0000 -9.0975 0.0000 17.7873
#
#
#
# Elastic Compliance Matrix: (Units=1/GPa)
#
#
# Indices 1 2 3 4 5 6 
#
# 1 0.014344 -0.005003 -0.001210 0.000000 0.002045 0.000000
# 2 -0.005003 0.016426 -0.005367 0.000000 0.006910 0.000000
# 3 -0.001210 -0.005367 0.017004 0.000000 -0.000966 0.000000
# 4 0.000000 0.000000 0.000000 0.054393 0.000000 0.027820
# 5 0.002045 0.006910 -0.000966 0.000000 0.047159 0.000000
# 6 0.000000 0.000000 0.000000 0.027820 0.000000 0.070449
#
#
# Mechanical properties :
#
#
# Convention : Reuss Voigt Hill
#
# Bulk Modulus (GPa) = 40.62977 44.45809 42.54393
# Shear Modulus (GPa) = 19.90920 23.51965 21.71442
#
# Velocity S-wave (km/s) = 3.24750 3.52970 3.39153
# Velocity P-wave (km/s) = 5.96523 6.33734 6.15410
#
# Compressibility (1/GPa) = 0.02461249
#
# Stress axis : x y z
#
# Youngs Moduli (GPa) = 69.71539 60.88009 58.81019
#
# Poissons Ratio (x) = 0.30461 0.07114
# Poissons Ratio (y) = 0.34882 0.31566
# Poissons Ratio (z) = 0.08434 0.32677
#
# Static dielectric constant tensor:
#      x y z
#    x 3.523030 0.000000 -0.008700 
#    y 0.000000 3.346170 0.000000 
#    z -0.008700 0.000000 3.719340 
# 
# 
# High freq. dielectric constant tensor:
#      x y z
#    x 1.737390 0.000000 0.003070 
#    y 0.000000 1.711640 0.000000 
#    z 0.003070 0.000000 1.742030 
# 
# From -- ./inp_files/21203.got.cif
#   From: 2010.06.25/outbox.cif.g09.slc.cpg/sg11_11_cif.got.tgz:21203.got - 2010.06.27 23:14:04.
