data_PCOD8072699
_publ_section_title
;
Structure prediction by ZEFSAII (Michael W. Deem and Ramdas Pophale) SiO2 
 PCOD8072699
Probable space group: P 21/M
;
_chemical_formula_sum "Si O2"
_cell_formula_units_Z 24
_cell_length_a 14.518679
_cell_length_b 13.531884
_cell_length_c 9.116754
_cell_angle_alpha 90.000000
_cell_angle_beta 138.873319
_cell_angle_gamma 90.000000
_cell_volume 1178.068852
_symmetry_space_group_name_H-M "P 21/M"
_symmetry_group_IT_number 11
_symmetry_cell_setting 'monoclinic'
loop_
_space_group_symop_operation_xyz
x,y,z
-x,1/2+y,-z
-x,-y,-z
x,1/2-y,z
loop_
_atom_site_type_symbol
_atom_site_label
_atom_site_fract_x
_atom_site_fract_y
_atom_site_fract_z
Si Si1 0.454774 0.863538 0.310840
Si Si2 0.278766 0.008924 0.290557
Si Si3 0.452854 0.890504 0.969898
Si Si4 0.248780 0.144067 0.739779
Si Si5 0.107594 0.135190 0.869861
Si Si6 0.807615 0.052034 0.501958
O O1 0.459918 0.750000 0.371832
O O2 0.603389 0.914472 0.516550
O O3 0.335758 0.922834 0.254063
O O4 0.417831 0.866008 0.095299
O O5 0.210920 0.953634 0.346546
O O6 0.157543 0.070760 0.066770
O O7 0.311103 0.874861 0.706954
O O8 0.585504 0.829764 0.070976
O O9 0.500000 0.000000 0.000000
O O10 0.173845 0.250000 0.612669
O O11 0.213019 0.112887 0.862597
O O12 0.199212 0.059302 0.569997
O O13 0.107119 0.250000 0.913661
O O14 0.954073 0.101097 0.636714
#
# Coordination Sequence:
#
# PCOD8072699 Si02
#       6
#     4   4   4   4   4   4
#     4  11  23  39  65  97 126 165 214 263 318 375
#     4  11  23  41  64  89 132 168 208 260 318 378
#     4  10  19  38  63  91 121 155 212 265 313 360
#     4  10  21  38  63  92 122 163 213 258 313 374
#     4  11  25  42  61  90 128 172 210 254 317 383
#     4  11  23  41  65  92 126 165 208 262 317 368
#
# _framework density 20.372323999999999
#
# number of rings (size 3 to 8) (size 9 to 14) (size 15 to 20)
#    0.000    1.333    3.333    4.000    2.333    2.667 
#    0.000    2.500    0.000    0.000    0.000    0.000 
#    0.000    0.000    0.000    0.000    0.000    0.000 
#
# Total GULP energy -297535.921558 kJ/mol
# GULP energy per Si atom -12397.330065 kJ/mol
# Density = 2.032596 g / cm^3
# Si number density = 20.372324 Si / 1000 Ang^3
#
#
#
# Elastic Constant Matrix: (Units=GPa)
#
#
# Indices 1 2 3 4 5 6 
#
# 1 120.1120 39.1051 60.0340 0.0000 -16.4388 0.0000
# 2 39.1051 103.1531 18.2608 0.0000 -3.6182 0.0000
# 3 60.0340 18.2608 105.4637 0.0000 -4.1178 0.0000
# 4 0.0000 0.0000 0.0000 18.3919 0.0000 3.8250
# 5 -16.4388 -3.6182 -4.1178 0.0000 24.5074 0.0000
# 6 0.0000 0.0000 0.0000 3.8250 0.0000 -49.1337
#
#
#
# Elastic Compliance Matrix: (Units=1/GPa)
#
#
# Indices 1 2 3 4 5 6 
#
# 1 0.014195 -0.003850 -0.007111 0.000000 0.007758 0.000000
# 2 -0.003850 0.011080 0.000238 0.000000 -0.000907 0.000000
# 3 -0.007111 0.000238 0.013391 0.000000 -0.002484 0.000000
# 4 0.000000 0.000000 0.000000 0.053506 0.000000 0.004165
# 5 0.007758 -0.000907 -0.002484 0.000000 0.045457 0.000000
# 6 0.000000 0.000000 0.000000 0.004165 0.000000 -0.020028
#
#
# Mechanical properties :
#
#
# Convention : Reuss Voigt Hill
#
# Bulk Modulus (GPa) = 58.07177 62.61428 60.34302
# Shear Modulus (GPa) = 34.53348 12.84169 23.68759
#
# Velocity S-wave (km/s) = 4.12165 2.51340 3.41359
# Velocity P-wave (km/s) = 7.15666 6.26296 6.72467
#
# Compressibility (1/GPa) = 0.01722007
#
# Stress axis : x y z
#
# Youngs Moduli (GPa) = 70.44710 90.25202 74.67443
#
# Poissons Ratio (x) = 0.34751 0.53099
# Poissons Ratio (y) = 0.27125 -0.01776
# Poissons Ratio (z) = 0.50093 -0.02147
#
# Static dielectric constant tensor:
#      x y z
#    x 3.917800 0.000000 0.233240 
#    y 0.000000 4.875170 0.000000 
#    z 0.233240 0.000000 3.959320 
# 
# 
# High freq. dielectric constant tensor:
#      x y z
#    x 1.804410 0.000000 -0.002150 
#    y 0.000000 1.809510 0.000000 
#    z -0.002150 0.000000 1.784160 
# 
# From -- ./inp_files/22306.got.cif
#   From: 2010.06.25/outbox.cif.g09.slc.cpg/sg11_12_cif.got.tgz:22306.got - 2010.06.27 23:14:04.
