data_PCOD8072343
_publ_section_title
;
Structure prediction by ZEFSAII (Michael W. Deem and Ramdas Pophale) SiO2 
 PCOD8072343
Probable space group: P 21/M
;
_chemical_formula_sum "Si O2"
_cell_formula_units_Z 32
_cell_length_a 30.411401
_cell_length_b 10.842614
_cell_length_c 10.297519
_cell_angle_alpha 90.000000
_cell_angle_beta 151.424874
_cell_angle_gamma 90.000000
_cell_volume 1624.101169
_symmetry_space_group_name_H-M "P 21/M"
_symmetry_group_IT_number 11
_symmetry_cell_setting 'monoclinic'
loop_
_space_group_symop_operation_xyz
x,y,z
-x,1/2+y,-z
-x,-y,-z
x,1/2-y,z
loop_
_atom_site_type_symbol
_atom_site_label
_atom_site_fract_x
_atom_site_fract_y
_atom_site_fract_z
Si Si1 0.710907 0.524747 0.357517
Si Si2 0.652932 0.393432 0.672036
Si Si3 0.098021 0.382469 0.180451
Si Si4 0.074637 0.524293 0.376234
Si Si5 0.271172 0.608798 0.867581
Si Si6 0.982857 0.392690 0.351409
Si Si7 0.517804 0.608470 0.941688
Si Si8 0.774262 0.390690 0.761227
O O1 0.799750 0.610712 0.614068
O O2 0.708094 0.472863 0.204444
O O3 0.619898 0.602597 0.148979
O O4 0.721078 0.417179 0.489668
O O5 0.675594 0.250000 0.746304
O O6 0.724586 0.457353 0.755442
O O7 0.666801 0.446937 0.853768
O O8 0.550024 0.417015 0.354849
O O9 0.085155 0.250000 0.213358
O O10 0.088568 0.485049 0.264525
O O11 0.019644 0.395998 0.865732
O O12 0.165596 0.601352 0.646278
O O13 0.058750 0.411175 0.434980
O O14 0.294191 0.750000 0.892611
O O15 0.990644 0.250000 0.423749
O O16 0.000000 0.500000 0.500000
O O17 0.882192 0.418585 0.031042
O O18 0.502332 0.750000 0.955760
O O19 0.500000 0.500000 0.000000
O O20 0.755579 0.250000 0.739897
#
# Coordination Sequence:
#
# PCOD8072343 Si02
#       8
#     4   4   4   4   4   4   4   4
#     4  11  21  36  58  90 118 153 200 248 302 350
#     4   9  19  37  59  85 117 156 194 245 305 357
#     4  10  20  34  53  80 115 150 191 243 296 350
#     4  10  20  35  55  81 112 156 199 241 296 347
#     4  10  21  36  60  89 121 158 205 249 294 364
#     4  11  23  38  57  85 120 162 208 251 302 357
#     4  11  23  40  66  92 122 159 200 250 307 369
#     4  10  19  35  59  84 119 160 202 247 299 357
#
# _framework density 19.703206999999999
#
# number of rings (size 3 to 8) (size 9 to 14) (size 15 to 20)
#    0.000    1.750    2.500    2.250    0.000    3.000 
#    0.000    0.000    0.000    3.750    0.000    0.000 
#    0.000    0.000    0.000    0.000    0.000    0.000 
#
# Total GULP energy -396460.693465 kJ/mol
# GULP energy per Si atom -12389.396671 kJ/mol
# Density = 1.965836 g / cm^3
# Si number density = 19.703207 Si / 1000 Ang^3
#
#
#
# Elastic Constant Matrix: (Units=GPa)
#
#
# Indices 1 2 3 4 5 6 
#
# 1 85.5395 25.3346 40.0386 0.0000 -1.9406 0.0000
# 2 25.3346 79.1976 40.3917 0.0000 -0.1602 0.0000
# 3 40.0386 40.3917 119.6541 0.0000 -8.4413 0.0000
# 4 0.0000 0.0000 0.0000 23.3539 0.0000 -0.5980
# 5 -1.9406 -0.1602 -8.4413 0.0000 36.1419 0.0000
# 6 0.0000 0.0000 0.0000 -0.5980 0.0000 26.4747
#
#
#
# Elastic Compliance Matrix: (Units=1/GPa)
#
#
# Indices 1 2 3 4 5 6 
#
# 1 0.014284 -0.002568 -0.003924 0.000000 -0.000161 0.000000
# 2 -0.002568 0.015762 -0.004541 0.000000 -0.001129 0.000000
# 3 -0.003924 -0.004541 0.011375 0.000000 0.002426 0.000000
# 4 0.000000 0.000000 0.000000 0.042844 0.000000 0.000968
# 5 -0.000161 -0.001129 0.002426 0.000000 0.028222 0.000000
# 6 0.000000 0.000000 0.000000 0.000968 0.000000 0.037794
#
#
# Mechanical properties :
#
#
# Convention : Reuss Voigt Hill
#
# Bulk Modulus (GPa) = 51.66942 55.10233 53.38588
# Shear Modulus (GPa) = 27.96441 29.10251 28.53346
#
# Velocity S-wave (km/s) = 3.77142 3.84740 3.80960
# Velocity P-wave (km/s) = 6.72649 6.91112 6.81943
#
# Compressibility (1/GPa) = 0.01935381
#
# Stress axis : x y z
#
# Youngs Moduli (GPa) = 70.00677 63.44407 87.91558
#
# Poissons Ratio (x) = 0.16295 0.34499
# Poissons Ratio (y) = 0.17980 0.39922
# Poissons Ratio (z) = 0.27472 0.28810
#
# Static dielectric constant tensor:
#      x y z
#    x 3.621800 0.000000 0.124380 
#    y 0.000000 3.367360 0.000000 
#    z 0.124380 0.000000 3.829370 
# 
# 
# High freq. dielectric constant tensor:
#      x y z
#    x 1.765810 0.000000 0.004910 
#    y 0.000000 1.742420 0.000000 
#    z 0.004910 0.000000 1.775880 
# 
# From -- ./inp_files/29269.got.cif
#   From: 2010.06.25/outbox.cif.g09.slc.cpg/sg11_15_cif.got.tgz:29269.got - 2010.06.27 23:14:04.
