data_PCOD8072823
_publ_section_title
;
Structure prediction by ZEFSAII (Michael W. Deem and Ramdas Pophale) SiO2 
 PCOD8072823
Probable space group: P 21/M
;
_chemical_formula_sum "Si O2"
_cell_formula_units_Z 32
_cell_length_a 20.987564
_cell_length_b 9.353019
_cell_length_c 20.994056
_cell_angle_alpha 90.000000
_cell_angle_beta 153.077594
_cell_angle_gamma 90.000000
_cell_volume 1865.953069
_symmetry_space_group_name_H-M "P 21/M"
_symmetry_group_IT_number 11
_symmetry_cell_setting 'monoclinic'
loop_
_space_group_symop_operation_xyz
x,y,z
-x,1/2+y,-z
-x,-y,-z
x,1/2-y,z
loop_
_atom_site_type_symbol
_atom_site_label
_atom_site_fract_x
_atom_site_fract_y
_atom_site_fract_z
Si Si1 0.302959 0.081846 0.500676
Si Si2 0.618640 0.917779 0.568353
Si Si3 0.407357 0.912322 0.843485
Si Si4 0.238878 0.083282 0.938783
Si Si5 0.929008 0.914424 0.880915
Si Si6 0.441700 0.589373 0.736249
Si Si7 0.009133 0.583731 0.810423
Si Si8 0.682468 0.413978 0.105697
O O1 0.313116 0.250000 0.516877
O O2 0.380468 0.034118 0.504761
O O3 0.139335 0.036526 0.352917
O O4 0.381744 0.014792 0.630265
O O5 0.590583 0.750000 0.548788
O O6 0.766725 0.959844 0.731633
O O7 0.500000 0.000000 0.500000
O O8 0.472787 0.750000 0.907559
O O9 0.350661 0.929397 0.720510
O O10 0.285439 0.929691 0.789170
O O11 0.522119 0.035113 0.955857
O O12 0.206328 0.250000 0.903176
O O13 0.217910 0.010597 0.850290
O O14 0.395734 0.052867 0.103951
O O15 0.131138 0.014293 0.891703
O O16 0.941357 0.750000 0.910019
O O17 0.006647 0.944799 0.883594
O O18 0.000000 0.000000 0.000000
O O19 0.428555 0.750000 0.698183
O O20 0.039664 0.750000 0.823297
O O21 0.697341 0.250000 0.096694
#
# Coordination Sequence:
#
# PCOD8072823 Si02
#       8
#     4   4   4   4   4   4   4   4
#     4   9  19  35  52  70  95 127 162 197 234 281
#     4   9  19  35  52  72  98 126 157 195 237 281
#     4   8  15  27  42  65  97 127 157 197 241 283
#     4  10  20  32  47  72 102 127 158 202 244 284
#     4   9  19  35  53  73  98 126 158 197 239 284
#     4   9  18  31  47  71 101 127 155 195 240 283
#     4   9  19  36  53  69  94 129 164 197 237 285
#     4   9  15  25  44  67  93 127 161 195 239 286
#
# _framework density 17.149412999999999
#
# number of rings (size 3 to 8) (size 9 to 14) (size 15 to 20)
#    0.000    3.000    0.000    3.000    0.000    6.000 
#    0.000    7.500    0.000    0.750    0.000    0.000 
#    0.000    0.000    0.000    0.000    0.000    0.000 
#
# Total GULP energy -396552.165858 kJ/mol
# GULP energy per Si atom -12392.255183 kJ/mol
# Density = 1.711038 g / cm^3
# Si number density = 17.149413 Si / 1000 Ang^3
#
#
#
# Elastic Constant Matrix: (Units=GPa)
#
#
# Indices 1 2 3 4 5 6 
#
# 1 125.3739 61.3382 63.0171 0.0000 -12.4237 0.0000
# 2 61.3382 73.8626 40.3849 0.0000 -5.0837 0.0000
# 3 63.0171 40.3849 67.2355 0.0000 -13.4513 0.0000
# 4 0.0000 0.0000 0.0000 29.0966 0.0000 -2.0753
# 5 -12.4237 -5.0837 -13.4513 0.0000 19.8570 0.0000
# 6 0.0000 0.0000 0.0000 -2.0753 0.0000 35.0253
#
#
#
# Elastic Compliance Matrix: (Units=1/GPa)
#
#
# Indices 1 2 3 4 5 6 
#
# 1 0.018149 -0.008673 -0.011537 0.000000 0.001319 0.000000
# 2 -0.008673 0.024518 -0.007436 0.000000 -0.004186 0.000000
# 3 -0.011537 -0.007436 0.032768 0.000000 0.013076 0.000000
# 4 0.000000 0.000000 0.000000 0.034514 0.000000 0.002045
# 5 0.001319 -0.004186 0.013076 0.000000 0.058972 0.000000
# 6 0.000000 0.000000 0.000000 0.002045 0.000000 0.028672
#
#
# Mechanical properties :
#
#
# Convention : Reuss Voigt Hill
#
# Bulk Modulus (GPa) = 49.64090 66.21694 57.92892
# Shear Modulus (GPa) = 19.26050 23.57789 21.41920
#
# Velocity S-wave (km/s) = 3.35490 3.71192 3.53792
# Velocity P-wave (km/s) = 6.63447 7.55425 7.10925
#
# Compressibility (1/GPa) = 0.02014468
#
# Stress axis : x y z
#
# Youngs Moduli (GPa) = 55.10027 40.78604 30.51723
#
# Poissons Ratio (x) = 0.35372 0.35207
# Poissons Ratio (y) = 0.47787 0.22692
# Poissons Ratio (z) = 0.63568 0.30328
#
# Static dielectric constant tensor:
#      x y z
#    x 3.436840 0.000000 -0.122710 
#    y 0.000000 3.182600 0.000000 
#    z -0.122710 0.000000 2.905790 
# 
# 
# High freq. dielectric constant tensor:
#      x y z
#    x 1.678530 0.000000 -0.012760 
#    y 0.000000 1.666880 0.000000 
#    z -0.012760 0.000000 1.622060 
# 
# From -- ./inp_files/66398.got.cif
#   From: 2010.06.25/outbox.cif.g09.slc.cpg/sg11_34_cif.got.tgz:66398.got - 2010.06.27 23:14:04.
