data_PCOD8072356
_publ_section_title
;
Structure prediction by ZEFSAII (Michael W. Deem and Ramdas Pophale) SiO2 
 PCOD8072356
Probable space group: P 21/M
;
_chemical_formula_sum "Si O2"
_cell_formula_units_Z 24
_cell_length_a 9.738803
_cell_length_b 13.192862
_cell_length_c 9.838097
_cell_angle_alpha 90.000000
_cell_angle_beta 118.774533
_cell_angle_gamma 90.000000
_cell_volume 1107.944204
_symmetry_space_group_name_H-M "P 21/M"
_symmetry_group_IT_number 11
_symmetry_cell_setting 'monoclinic'
loop_
_space_group_symop_operation_xyz
x,y,z
-x,1/2+y,-z
-x,-y,-z
x,1/2-y,z
loop_
_atom_site_type_symbol
_atom_site_label
_atom_site_fract_x
_atom_site_fract_y
_atom_site_fract_z
Si Si1 0.324458 0.630953 0.469729
Si Si2 0.178552 0.366257 0.308659
Si Si3 0.556899 0.629740 0.362392
Si Si4 0.000705 0.968633 0.344788
Si Si5 0.329739 0.129410 0.868611
Si Si6 0.425512 0.132543 0.202982
O O1 0.353002 0.750000 0.495558
O O2 0.394886 0.594163 0.356996
O O3 0.142235 0.609611 0.390127
O O4 0.430521 0.580438 0.643348
O O5 0.131441 0.250000 0.311323
O O6 0.295357 0.411912 0.480280
O O7 0.023349 0.434272 0.255072
O O8 0.259431 0.380690 0.201089
O O9 0.573229 0.750000 0.379446
O O10 0.563570 0.594519 0.208647
O O11 0.842710 0.915106 0.226623
O O12 0.000000 0.000000 0.500000
O O13 0.312150 0.250000 0.866152
O O14 0.410613 0.086411 0.044365
O O15 0.465774 0.250000 0.207942
#
# Coordination Sequence:
#
# PCOD8072356 Si02
#       6
#     4   4   4   4   4   4
#     4   9  19  37  60  84 111 143 188 230 271 329
#     4   9  18  35  55  76 109 150 191 226 277 341
#     4   8  15  31  56  79 105 145 182 222 269 325
#     4  12  23  33  55  90 112 147 188 234 283 320
#     4  10  19  35  59  86 116 144 183 229 279 336
#     4   8  17  35  60  82 107 152 188 222 279 336
#
# _framework density 21.661742
#
# number of rings (size 3 to 8) (size 9 to 14) (size 15 to 20)
#    0.000    2.667    1.667    2.500    0.000    4.000 
#    0.000    0.833    3.667    0.000    0.000    1.167 
#    0.000    0.000    0.000    0.000    0.000    0.000 
#
# Total GULP energy -297490.606650 kJ/mol
# GULP energy per Si atom -12395.441944 kJ/mol
# Density = 2.161244 g / cm^3
# Si number density = 21.661742 Si / 1000 Ang^3
#
#
#
# Elastic Constant Matrix: (Units=GPa)
#
#
# Indices 1 2 3 4 5 6 
#
# 1 131.5897 19.6596 77.7875 0.0000 -15.9506 0.0000
# 2 19.6596 23.5764 30.1125 0.0000 -4.1249 0.0000
# 3 77.7875 30.1125 147.3100 0.0000 -27.7095 0.0000
# 4 0.0000 0.0000 0.0000 19.2492 0.0000 0.7934
# 5 -15.9506 -4.1249 -27.7095 0.0000 35.6874 0.0000
# 6 0.0000 0.0000 0.0000 0.7934 0.0000 28.5224
#
#
#
# Elastic Compliance Matrix: (Units=1/GPa)
#
#
# Indices 1 2 3 4 5 6 
#
# 1 0.011159 -0.002461 -0.005275 0.000000 0.000607 0.000000
# 2 -0.002461 0.058202 -0.011171 0.000000 -0.003046 0.000000
# 3 -0.005275 -0.011171 0.013082 0.000000 0.006508 0.000000
# 4 0.000000 0.000000 0.000000 0.052010 0.000000 -0.001447
# 5 0.000607 -0.003046 0.006508 0.000000 0.032994 0.000000
# 6 0.000000 0.000000 0.000000 -0.001447 0.000000 0.035100
#
#
# Mechanical properties :
#
#
# Convention : Reuss Voigt Hill
#
# Bulk Modulus (GPa) = 22.40718 61.95503 42.18110
# Shear Modulus (GPa) = 19.58953 28.35289 23.97121
#
# Velocity S-wave (km/s) = 3.01048 3.62179 3.33019
# Velocity P-wave (km/s) = 4.73821 6.79360 5.85677
#
# Compressibility (1/GPa) = 0.04462856
#
# Stress axis : x y z
#
# Youngs Moduli (GPa) = 89.61310 17.18140 76.44222
#
# Poissons Ratio (x) = 0.04229 0.40325
# Poissons Ratio (y) = 0.22056 0.85393
# Poissons Ratio (z) = 0.47273 0.19193
#
# Static dielectric constant tensor:
#      x y z
#    x 3.929540 0.000000 -0.379940 
#    y 0.000000 3.929180 0.000000 
#    z -0.379940 0.000000 4.131710 
# 
# 
# High freq. dielectric constant tensor:
#      x y z
#    x 1.844820 0.000000 -0.026110 
#    y 0.000000 1.870370 0.000000 
#    z -0.026110 0.000000 1.826650 
# 
# From -- ./inp_files/31569.got.cif
#   From: 2010.06.25/outbox.cif.g09.slc.cpg/sg11_16_cif.got.tgz:31569.got - 2010.06.27 23:14:04.
