data_PCOD8072860
_publ_section_title
;
Structure prediction by ZEFSAII (Michael W. Deem and Ramdas Pophale) SiO2 
 PCOD8072860
Probable space group: P 21/M
;
_chemical_formula_sum "Si O2"
_cell_formula_units_Z 24
_cell_length_a 23.534096
_cell_length_b 9.411027
_cell_length_c 17.935134
_cell_angle_alpha 90.000000
_cell_angle_beta 19.638729
_cell_angle_gamma 90.000000
_cell_volume 1335.034621
_symmetry_space_group_name_H-M "P 21/M"
_symmetry_group_IT_number 11
_symmetry_cell_setting 'monoclinic'
loop_
_space_group_symop_operation_xyz
x,y,z
-x,1/2+y,-z
-x,-y,-z
x,1/2-y,z
loop_
_atom_site_type_symbol
_atom_site_label
_atom_site_fract_x
_atom_site_fract_y
_atom_site_fract_z
Si Si1 0.636653 0.583896 0.111866
Si Si2 0.970777 0.583286 0.611321
Si Si3 0.171201 0.592404 0.504251
Si Si4 0.827258 0.592828 0.020712
Si Si5 0.668644 0.588574 0.575410
Si Si6 0.986729 0.411756 0.941552
O O1 0.595362 0.750000 0.153574
O O2 0.681496 0.548540 0.142538
O O3 0.474725 0.492298 0.292400
O O4 0.790377 0.538730 0.868252
O O5 0.974694 0.750000 0.590185
O O6 0.000000 0.500000 0.500000
O O7 0.121638 0.542049 0.482212
O O8 0.253458 0.750000 0.400729
O O9 0.303181 0.483862 0.378537
O O10 0.001408 0.599331 0.761336
O O11 0.789808 0.750000 0.100217
O O12 0.838438 0.479538 0.073805
O O13 0.612549 0.750000 0.658983
O O14 0.836612 0.580347 0.319097
O O15 0.935792 0.250000 0.022755
O O16 0.000000 0.500000 0.000000
#
# Coordination Sequence:
#
# PCOD8072860 Si02
#       6
#     4   4   4   4   4   4
#     4   9  18  33  52  73  98 129 162 195 238 292
#     4   9  18  32  51  75  99 126 162 200 239 286
#     4   8  15  30  50  69  93 127 162 194 235 288
#     4   8  15  30  51  71  92 123 162 198 234 282
#     4  10  20  32  49  75 100 123 159 203 240 279
#     4  10  20  33  50  73  99 126 159 198 239 285
#
# _framework density 17.977060999999999
#
# number of rings (size 3 to 8) (size 9 to 14) (size 15 to 20)
#    0.000    3.000    0.000    3.000    0.000    4.000 
#    0.000    5.000    0.000    0.000    0.000    0.000 
#    0.000    0.000    0.000    0.000    0.000    0.000 
#
# Total GULP energy -297520.358404 kJ/mol
# GULP energy per Si atom -12396.681600 kJ/mol
# Density = 1.793614 g / cm^3
# Si number density = 17.977061 Si / 1000 Ang^3
#
#
#
# Elastic Constant Matrix: (Units=GPa)
#
#
# Indices 1 2 3 4 5 6 
#
# 1 154.1157 90.7048 25.2251 0.0000 -12.1627 0.0000
# 2 90.7048 122.9240 27.0468 0.0000 -11.6825 0.0000
# 3 25.2251 27.0468 20.3944 0.0000 -11.5724 0.0000
# 4 0.0000 0.0000 0.0000 25.3597 0.0000 0.2745
# 5 -12.1627 -11.6825 -11.5724 0.0000 30.9958 0.0000
# 6 0.0000 0.0000 0.0000 0.2745 0.0000 37.4520
#
#
#
# Elastic Compliance Matrix: (Units=1/GPa)
#
#
# Indices 1 2 3 4 5 6 
#
# 1 0.011729 -0.007719 -0.004199 0.000000 0.000125 0.000000
# 2 -0.007719 0.016640 -0.013551 0.000000 -0.001817 0.000000
# 3 -0.004199 -0.013551 0.086742 0.000000 0.025630 0.000000
# 4 0.000000 0.000000 0.000000 0.039436 0.000000 -0.000289
# 5 0.000125 -0.001817 0.025630 0.000000 0.041196 0.000000
# 6 0.000000 0.000000 0.000000 -0.000289 0.000000 0.026703
#
#
# Mechanical properties :
#
#
# Convention : Reuss Voigt Hill
#
# Bulk Modulus (GPa) = 15.58319 64.82084 40.20202
# Shear Modulus (GPa) = 16.96219 29.05867 23.01043
#
# Velocity S-wave (km/s) = 3.07505 4.02485 3.58157
# Velocity P-wave (km/s) = 4.61466 7.59836 6.28610
#
# Compressibility (1/GPa) = 0.06417169
#
# Stress axis : x y z
#
# Youngs Moduli (GPa) = 85.26147 60.09758 11.52849
#
# Poissons Ratio (x) = 0.46387 0.04841
# Poissons Ratio (y) = 0.65810 0.15622
# Poissons Ratio (z) = 0.35804 0.81439
#
# Static dielectric constant tensor:
#      x y z
#    x 3.583880 0.000000 -0.125240 
#    y 0.000000 4.079930 0.000000 
#    z -0.125240 0.000000 2.933120 
# 
# 
# High freq. dielectric constant tensor:
#      x y z
#    x 1.709930 0.000000 -0.010770 
#    y 0.000000 1.699410 0.000000 
#    z -0.010770 0.000000 1.653530 
# 
# From -- ./inp_files/20505.got.cif
#   From: 2010.06.25/outbox.cif.g09.slc.cpg/sg11_11_cif.got.tgz:20505.got - 2010.06.27 23:14:04.
