data_PCOD8072783
_publ_section_title
;
Structure prediction by ZEFSAII (Michael W. Deem and Ramdas Pophale) SiO2 
 PCOD8072783
Probable space group: P 21/M
;
_chemical_formula_sum "Si O2"
_cell_formula_units_Z 32
_cell_length_a 15.215740
_cell_length_b 8.977718
_cell_length_c 14.799428
_cell_angle_alpha 90.000000
_cell_angle_beta 97.129338
_cell_angle_gamma 90.000000
_cell_volume 2006.010404
_symmetry_space_group_name_H-M "P 21/M"
_symmetry_group_IT_number 11
_symmetry_cell_setting 'monoclinic'
loop_
_space_group_symop_operation_xyz
x,y,z
-x,1/2+y,-z
-x,-y,-z
x,1/2-y,z
loop_
_atom_site_type_symbol
_atom_site_label
_atom_site_fract_x
_atom_site_fract_y
_atom_site_fract_z
Si Si1 0.750558 0.082464 0.867137
Si Si2 0.884674 0.914386 0.554973
Si Si3 0.878326 0.574465 0.752577
Si Si4 0.431969 0.579926 0.092078
Si Si5 0.379383 0.080343 0.909383
Si Si6 0.064595 0.426462 0.789003
Si Si7 0.907269 0.085022 0.388199
Si Si8 0.209355 0.578668 0.917916
O O1 0.778554 0.250000 0.843117
O O2 0.644159 0.059802 0.841275
O O3 0.799472 0.965222 0.809983
O O4 0.775837 0.051974 0.974251
O O5 0.846927 0.750000 0.529858
O O6 0.848935 0.973578 0.647183
O O7 0.990108 0.907571 0.575231
O O8 0.854963 0.019834 0.468556
O O9 0.898430 0.750000 0.757584
O O10 0.966803 0.489576 0.793389
O O11 0.422745 0.750000 0.051664
O O12 0.532736 0.557595 0.143217
O O13 0.413940 0.457081 0.013811
O O14 0.345675 0.250000 0.901407
O O15 0.296418 0.975847 0.873158
O O16 0.059944 0.250000 0.787240
O O17 0.108061 0.482449 0.701003
O O18 0.124696 0.482191 0.879144
O O19 0.870090 0.250000 0.363297
O O20 0.192057 0.750000 0.891867
#
# Coordination Sequence:
#
# PCOD8072783 Si02
#       8
#     4   4   4   4   4   4   4   4
#     4   9  18  31  45  61  84 116 149 180 214 251
#     4   8  15  27  42  61  83 107 136 171 213 256
#     4  10  20  32  45  62  86 115 147 183 216 248
#     4   8  15  27  42  61  85 110 137 174 217 257
#     4   9  15  25  43  64  83 106 139 176 216 259
#     4  11  21  32  46  62  83 114 149 181 214 255
#     4   9  16  27  44  64  84 106 134 172 216 256
#     4  10  20  33  45  60  86 116 147 183 218 253
#
# _framework density 15.952061
#
# number of rings (size 3 to 8) (size 9 to 14) (size 15 to 20)
#    0.000    2.750    0.000    4.125    0.000    7.000 
#    0.000    0.000    0.000    0.000    0.000    0.000 
#    0.000    1.000    0.000    3.000    0.000    5.125 
#
# Total GULP energy -396544.994318 kJ/mol
# GULP energy per Si atom -12392.031072 kJ/mol
# Density = 1.591575 g / cm^3
# Si number density = 15.952061 Si / 1000 Ang^3
#
#
#
# Elastic Constant Matrix: (Units=GPa)
#
#
# Indices 1 2 3 4 5 6 
#
# 1 70.5663 34.8672 32.2162 0.0000 -21.1959 0.0000
# 2 34.8672 92.3088 29.9288 0.0000 -13.4909 0.0000
# 3 32.2162 29.9288 52.3898 0.0000 -18.2731 0.0000
# 4 0.0000 0.0000 0.0000 23.0801 0.0000 -1.6324
# 5 -21.1959 -13.4909 -18.2731 0.0000 9.2903 0.0000
# 6 0.0000 0.0000 0.0000 -1.6324 0.0000 23.3856
#
#
#
# Elastic Compliance Matrix: (Units=1/GPa)
#
#
# Indices 1 2 3 4 5 6 
#
# 1 0.061559 -0.005165 0.036522 0.000000 0.204782 0.000000
# 2 -0.005165 0.014319 -0.005929 0.000000 -0.002652 0.000000
# 3 0.036522 -0.005929 0.083055 0.000000 0.238075 0.000000
# 4 0.000000 0.000000 0.000000 0.043542 0.000000 0.003039
# 5 0.204782 -0.002652 0.238075 0.000000 1.039266 0.000000
# 6 0.000000 0.000000 0.000000 0.003039 0.000000 0.042974
#
#
# Mechanical properties :
#
#
# Convention : Reuss Voigt Hill
#
# Bulk Modulus (GPa) = 4.76669 45.47660 25.12165
# Shear Modulus (GPa) = 3.83498 19.03472 11.43485
#
# Velocity S-wave (km/s) = 1.55219 3.45809 2.68027
# Velocity P-wave (km/s) = 2.49139 6.67193 5.03595
#
# Compressibility (1/GPa) = 0.20978911
#
# Stress axis : x y z
#
# Youngs Moduli (GPa) = 16.24451 69.83840 12.04027
#
# Poissons Ratio (x) = 0.36070 -0.43973
# Poissons Ratio (y) = 0.08390 0.07139
# Poissons Ratio (z) = -0.59328 0.41406
#
# Static dielectric constant tensor:
#      x y z
#    x 3.043080 0.000000 -0.142900 
#    y 0.000000 3.183260 0.000000 
#    z -0.142900 0.000000 2.865540 
# 
# 
# High freq. dielectric constant tensor:
#      x y z
#    x 1.589660 0.000000 -0.013600 
#    y 0.000000 1.627830 0.000000 
#    z -0.013600 0.000000 1.573630 
# 
# From -- ./inp_files/51274.got.cif
#   From: 2010.06.25/outbox.cif.g09.slc.cpg/sg11_26_cif.got.tgz:51274.got - 2010.06.27 23:14:04.
