data_PCOD8072572
_publ_section_title
;
Structure prediction by ZEFSAII (Michael W. Deem and Ramdas Pophale) SiO2 
 PCOD8072572
Probable space group: P 21/M
;
_chemical_formula_sum "Si O2"
_cell_formula_units_Z 32
_cell_length_a 11.856798
_cell_length_b 8.750462
_cell_length_c 14.904798
_cell_angle_alpha 90.000000
_cell_angle_beta 86.295333
_cell_angle_gamma 90.000000
_cell_volume 1543.178022
_symmetry_space_group_name_H-M "P 21/M"
_symmetry_group_IT_number 11
_symmetry_cell_setting 'monoclinic'
loop_
_space_group_symop_operation_xyz
x,y,z
-x,1/2+y,-z
-x,-y,-z
x,1/2-y,z
loop_
_atom_site_type_symbol
_atom_site_label
_atom_site_fract_x
_atom_site_fract_y
_atom_site_fract_z
Si Si1 0.217979 0.575164 0.470939
Si Si2 0.484872 0.571588 0.226937
Si Si3 0.068548 0.924091 0.316759
Si Si4 0.269054 0.074069 0.834219
Si Si5 0.748055 0.429349 0.837459
Si Si6 0.556240 0.571593 0.584349
Si Si7 0.875292 0.069598 0.004880
Si Si8 0.162891 0.572421 0.674927
O O1 0.261488 0.750000 0.465678
O O2 0.104239 0.557878 0.418578
O O3 0.311509 0.466768 0.422633
O O4 0.191637 0.522359 0.572646
O O5 0.466782 0.750000 0.248482
O O6 0.596787 0.544051 0.160891
O O7 0.377630 0.504853 0.176493
O O8 0.499920 0.489533 0.321653
O O9 0.030846 0.750000 0.297859
O O10 0.174012 0.972184 0.250381
O O11 0.967858 0.038140 0.298626
O O12 0.238651 0.250000 0.854137
O O13 0.240400 0.030787 0.733805
O O14 0.194571 0.969382 0.902645
O O15 0.737786 0.250000 0.851717
O O16 0.803799 0.498988 0.924753
O O17 0.500000 0.500000 0.500000
O O18 0.534882 0.750000 0.582157
O O19 0.889802 0.250000 0.996287
O O20 0.000000 0.000000 0.000000
O O21 0.186773 0.750000 0.691180
#
# Coordination Sequence:
#
# PCOD8072572 Si02
#       8
#     4   4   4   4   4   4   4   4
#     4  10  21  38  59  85 120 162 203 252 311 369
#     4  10  21  42  66  88 120 161 207 255 308 373
#     4  10  19  36  62  87 121 162 201 248 307 377
#     4  11  24  41  63  89 120 162 207 252 309 370
#     4   9  19  38  65  91 119 160 203 247 311 369
#     4  12  24  37  58  87 121 163 210 260 307 364
#     4  11  23  41  67  97 128 162 202 252 307 372
#     4  11  23  37  57  87 123 160 206 260 308 363
#
# _framework density 20.736429000000001
#
# number of rings (size 3 to 8) (size 9 to 14) (size 15 to 20)
#    0.000    1.500    1.250    4.125    0.000    6.000 
#    0.000    1.875    0.000    0.000    0.000    0.000 
#    0.000    0.000    0.000    0.000    0.000    0.000 
#
# Total GULP energy -396892.956486 kJ/mol
# GULP energy per Si atom -12402.904890 kJ/mol
# Density = 2.068923 g / cm^3
# Si number density = 20.736429 Si / 1000 Ang^3
#
#
#
# Elastic Constant Matrix: (Units=GPa)
#
#
# Indices 1 2 3 4 5 6 
#
# 1 122.0096 32.9218 45.3016 0.0000 0.5562 0.0000
# 2 32.9218 69.8900 25.5764 0.0000 -0.0357 0.0000
# 3 45.3016 25.5764 113.9604 0.0000 7.7369 0.0000
# 4 0.0000 0.0000 0.0000 25.4803 0.0000 -1.6826
# 5 0.5562 -0.0357 7.7369 0.0000 33.9412 0.0000
# 6 0.0000 0.0000 0.0000 -1.6826 0.0000 28.9212
#
#
#
# Elastic Compliance Matrix: (Units=1/GPa)
#
#
# Indices 1 2 3 4 5 6 
#
# 1 0.010436 -0.003685 -0.003362 0.000000 0.000591 0.000000
# 2 -0.003685 0.016913 -0.002373 0.000000 0.000619 0.000000
# 3 -0.003362 -0.002373 0.010807 0.000000 -0.002411 0.000000
# 4 0.000000 0.000000 0.000000 0.039397 0.000000 0.002292
# 5 0.000591 0.000619 -0.002411 0.000000 0.030003 0.000000
# 6 0.000000 0.000000 0.000000 0.002292 0.000000 0.034710
#
#
# Mechanical properties :
#
#
# Convention : Reuss Voigt Hill
#
# Bulk Modulus (GPa) = 51.76837 57.05107 54.40972
# Shear Modulus (GPa) = 29.84267 31.13922 30.49095
#
# Velocity S-wave (km/s) = 3.79772 3.87934 3.83875
# Velocity P-wave (km/s) = 6.65202 6.90202 6.77817
#
# Compressibility (1/GPa) = 0.01931681
#
# Stress axis : x y z
#
# Youngs Moduli (GPa) = 95.82276 59.12658 92.52857
#
# Poissons Ratio (x) = 0.21791 0.31104
# Poissons Ratio (y) = 0.35315 0.21955
# Poissons Ratio (z) = 0.32211 0.14030
#
# Static dielectric constant tensor:
#      x y z
#    x 3.924560 0.000000 0.159260 
#    y 0.000000 3.607270 0.000000 
#    z 0.159260 0.000000 3.854180 
# 
# 
# High freq. dielectric constant tensor:
#      x y z
#    x 1.824120 0.000000 0.004870 
#    y 0.000000 1.792720 0.000000 
#    z 0.004870 0.000000 1.814670 
# 
# From -- ./inp_files/49291.got.cif
#   From: 2010.06.25/outbox.cif.g09.slc.cpg/sg11_25_cif.got.tgz:49291.got - 2010.06.27 23:14:04.
