data_PCOD8072018
_publ_section_title
;
Structure prediction by ZEFSAII (Michael W. Deem and Ramdas Pophale) SiO2 
 PCOD8072018
Probable space group: P 21/M
;
_chemical_formula_sum "Si O2"
_cell_formula_units_Z 28
_cell_length_a 15.935836
_cell_length_b 13.417984
_cell_length_c 19.264283
_cell_angle_alpha 90.000000
_cell_angle_beta 158.664097
_cell_angle_gamma 90.000000
_cell_volume 1498.716272
_symmetry_space_group_name_H-M "P 21/M"
_symmetry_group_IT_number 11
_symmetry_cell_setting 'monoclinic'
loop_
_space_group_symop_operation_xyz
x,y,z
-x,1/2+y,-z
-x,-y,-z
x,1/2-y,z
loop_
_atom_site_type_symbol
_atom_site_label
_atom_site_fract_x
_atom_site_fract_y
_atom_site_fract_z
Si Si1 0.606792 0.635648 0.812531
Si Si2 0.519356 0.367323 0.521996
Si Si3 0.354854 0.555120 0.748968
Si Si4 0.069508 0.637547 0.252786
Si Si5 0.782024 0.633053 0.154765
Si Si6 0.131778 0.363478 0.619196
Si Si7 0.265903 0.020534 0.222921
O O1 0.535040 0.750000 0.742347
O O2 0.425245 0.588911 0.726384
O O3 0.600088 0.573818 0.736660
O O4 0.861910 0.629333 0.038818
O O5 0.513037 0.250000 0.529661
O O6 0.594241 0.418006 0.652557
O O7 0.281752 0.407174 0.303947
O O8 0.708420 0.410605 0.612064
O O9 0.297817 0.436820 0.703816
O O10 0.133413 0.617186 0.604591
O O11 0.550834 0.575075 0.956636
O O12 0.142658 0.750000 0.322774
O O13 0.991208 0.591859 0.266869
O O14 0.742545 0.750000 0.108126
O O15 0.842205 0.611101 0.279737
O O16 0.201394 0.250000 0.655556
O O17 0.000000 0.000000 0.000000
#
# Coordination Sequence:
#
# PCOD8072018 Si02
#       7
#     4   4   4   4   4   4   4
#     4  10  19  34  57  82 109 139 179 228 276 321
#     4  10  21  36  54  79 111 145 182 227 276 332
#     4  10  20  34  52  80 110 141 180 227 270 321
#     4   8  15  29  50  78 108 136 172 221 269 314
#     4   9  17  30  51  79 108 138 174 220 268 316
#     4  10  20  33  52  77 108 144 183 222 269 322
#     4  11  22  35  55  84 112 144 181 225 280 334
#
# _framework density 18.682656999999999
#
# number of rings (size 3 to 8) (size 9 to 14) (size 15 to 20)
#    0.000    2.286    1.429    3.000    2.000    0.571 
#    0.000    0.714    0.000    0.000    0.000    0.000 
#    0.000    0.000    0.000    0.000    0.000    0.000 
#
# Total GULP energy -347005.746780 kJ/mol
# GULP energy per Si atom -12393.062385 kJ/mol
# Density = 1.864013 g / cm^3
# Si number density = 18.682657 Si / 1000 Ang^3
#
#
#
# Elastic Constant Matrix: (Units=GPa)
#
#
# Indices 1 2 3 4 5 6 
#
# 1 66.7831 44.7822 21.6960 0.0000 -3.5318 0.0000
# 2 44.7822 128.6134 33.0049 0.0000 -6.0877 0.0000
# 3 21.6960 33.0049 64.5133 0.0000 -5.6312 0.0000
# 4 0.0000 0.0000 0.0000 23.5955 0.0000 -3.8458
# 5 -3.5318 -6.0877 -5.6312 0.0000 21.8133 0.0000
# 6 0.0000 0.0000 0.0000 -3.8458 0.0000 33.9389
#
#
#
# Elastic Compliance Matrix: (Units=1/GPa)
#
#
# Indices 1 2 3 4 5 6 
#
# 1 0.020279 -0.006095 -0.003646 0.000000 0.000641 0.000000
# 2 -0.006095 0.010821 -0.003385 0.000000 0.001159 0.000000
# 3 -0.003646 -0.003385 0.018747 0.000000 0.003305 0.000000
# 4 0.000000 0.000000 0.000000 0.043179 0.000000 0.004893
# 5 0.000641 0.001159 0.003305 0.000000 0.047124 0.000000
# 6 0.000000 0.000000 0.000000 0.004893 0.000000 0.030019
#
#
# Mechanical properties :
#
#
# Convention : Reuss Voigt Hill
#
# Bulk Modulus (GPa) = 42.38096 50.98623 46.68359
# Shear Modulus (GPa) = 24.47545 26.56463 25.52004
#
# Velocity S-wave (km/s) = 3.62341 3.77488 3.69992
# Velocity P-wave (km/s) = 6.34345 6.80805 6.57985
#
# Compressibility (1/GPa) = 0.02359550
#
# Stress axis : x y z
#
# Youngs Moduli (GPa) = 49.31116 92.41213 53.34197
#
# Poissons Ratio (x) = 0.56327 0.19447
# Poissons Ratio (y) = 0.30056 0.18056
# Poissons Ratio (z) = 0.17978 0.31282
#
# Static dielectric constant tensor:
#      x y z
#    x 3.438250 0.000000 -0.021860 
#    y 0.000000 3.378200 0.000000 
#    z -0.021860 0.000000 3.519550 
# 
# 
# High freq. dielectric constant tensor:
#      x y z
#    x 1.706310 0.000000 -0.010370 
#    y 0.000000 1.709620 0.000000 
#    z -0.010370 0.000000 1.741040 
# 
# From -- ./inp_files/61523.got.cif
#   From: 2010.06.25/outbox.cif.g09.slc.cpg/sg11_31_cif.got.tgz:61523.got - 2010.06.27 23:14:04.
