data_PCOD8072724
_publ_section_title
;
Structure prediction by ZEFSAII (Michael W. Deem and Ramdas Pophale) SiO2 
 PCOD8072724
Probable space group: P 21/M
;
_chemical_formula_sum "Si O2"
_cell_formula_units_Z 22
_cell_length_a 9.002136
_cell_length_b 14.298175
_cell_length_c 9.142926
_cell_angle_alpha 90.000000
_cell_angle_beta 75.494814
_cell_angle_gamma 90.000000
_cell_volume 1139.312353
_symmetry_space_group_name_H-M "P 21/M"
_symmetry_group_IT_number 11
_symmetry_cell_setting 'monoclinic'
loop_
_space_group_symop_operation_xyz
x,y,z
-x,1/2+y,-z
-x,-y,-z
x,1/2-y,z
loop_
_atom_site_type_symbol
_atom_site_label
_atom_site_fract_x
_atom_site_fract_y
_atom_site_fract_z
Si Si1 0.826932 0.354072 0.426734
Si Si2 0.604380 0.250000 0.298076
Si Si3 0.430304 0.750000 0.040298
Si Si4 0.951787 0.750000 0.270453
Si Si5 0.135545 0.099042 0.223372
Si Si6 0.214470 0.893959 0.238768
Si Si7 0.261245 0.250000 0.400208
Si Si8 0.209637 0.250000 0.987516
O O1 0.894609 0.250000 0.448960
O O2 0.691754 0.342474 0.339490
O O3 0.762926 0.399445 0.591183
O O4 0.963158 0.416309 0.326667
O O5 0.605070 0.250000 0.123165
O O6 0.436387 0.250000 0.409648
O O7 0.609800 0.750000 0.026714
O O8 0.358968 0.842435 0.130815
O O9 0.852331 0.750000 0.438541
O O10 0.057159 0.841882 0.236367
O O11 0.827532 0.750000 0.172913
O O12 0.238512 0.156367 0.311893
O O13 0.130944 0.157237 0.074220
O O14 0.210489 0.998446 0.176416
#
# Coordination Sequence:
#
# PCOD8072724 Si02
#       8
#     4   2   2   2   4   4   2   2
#     4  10  19  39  64  87 115 159 197 247 293 347
#     4  10  21  39  65  83 122 163 197 237 307 346
#     4  11  23  42  58  85 128 160 193 243 304 356
#     4  11  23  39  61  93 115 157 205 246 296 347
#     4  11  21  42  64  86 121 158 202 244 295 352
#     4  11  23  39  64  91 119 156 198 252 296 349
#     4  11  20  41  63  86 119 162 198 244 296 356
#     4  11  25  41  59  87 126 162 193 246 297 359
#
# _framework density 19.309892999999999
#
# number of rings (size 3 to 8) (size 9 to 14) (size 15 to 20)
#    0.545    0.727    7.273    0.545    7.636    1.455 
#    0.000    0.909    0.000    0.000    0.000    0.000 
#    0.000    0.000    0.000    0.000    0.000    0.000 
#
# Total GULP energy -272800.719631 kJ/mol
# GULP energy per Si atom -12400.032711 kJ/mol
# Density = 1.926594 g / cm^3
# Si number density = 19.309893 Si / 1000 Ang^3
#
#
#
# Elastic Constant Matrix: (Units=GPa)
#
#
# Indices 1 2 3 4 5 6 
#
# 1 106.9793 17.9352 34.5368 0.0000 7.3640 0.0000
# 2 17.9352 120.5688 24.1973 0.0000 -0.3179 0.0000
# 3 34.5368 24.1973 80.3285 0.0000 6.3534 0.0000
# 4 0.0000 0.0000 0.0000 5.9000 0.0000 0.0204
# 5 7.3640 -0.3179 6.3534 0.0000 36.1480 0.0000
# 6 0.0000 0.0000 0.0000 0.0204 0.0000 10.0679
#
#
#
# Elastic Compliance Matrix: (Units=1/GPa)
#
#
# Indices 1 2 3 4 5 6 
#
# 1 0.010991 -0.000760 -0.004380 0.000000 -0.001476 0.000000
# 2 -0.000760 0.008891 -0.002403 0.000000 0.000655 0.000000
# 3 -0.004380 -0.002403 0.015198 0.000000 -0.001800 0.000000
# 4 0.000000 0.000000 0.000000 0.169493 0.000000 -0.000343
# 5 -0.001476 0.000655 -0.001800 0.000000 0.028287 0.000000
# 6 0.000000 0.000000 0.000000 -0.000343 0.000000 0.099326
#
#
# Mechanical properties :
#
#
# Convention : Reuss Voigt Hill
#
# Bulk Modulus (GPa) = 50.01492 51.24611 50.63051
# Shear Modulus (GPa) = 14.12683 25.83700 19.98191
#
# Velocity S-wave (km/s) = 2.70772 3.66186 3.22032
# Velocity P-wave (km/s) = 5.97771 6.66899 6.33279
#
# Compressibility (1/GPa) = 0.01999403
#
# Stress axis : x y z
#
# Youngs Moduli (GPa) = 90.98761 112.47169 65.79691
#
# Poissons Ratio (x) = 0.08546 0.28817
# Poissons Ratio (y) = 0.06913 0.15814
# Poissons Ratio (z) = 0.39850 0.27032
#
# Static dielectric constant tensor:
#      x y z
#    x 3.477610 0.000000 -0.022560 
#    y 0.000000 3.280430 0.000000 
#    z -0.022560 0.000000 3.563890 
# 
# 
# High freq. dielectric constant tensor:
#      x y z
#    x 1.749170 0.000000 -0.004710 
#    y 0.000000 1.730570 0.000000 
#    z -0.004710 0.000000 1.757990 
# 
# From -- ./inp_files/12508.got.cif
#   From: 2010.06.25/outbox.cif.g09.slc.cpg/sg11_7_cif.got.tgz:12508.got - 2010.06.27 23:14:04.
