data_PCOD8072399
_publ_section_title
;
Structure prediction by ZEFSAII (Michael W. Deem and Ramdas Pophale) SiO2 
 PCOD8072399
Probable space group: P 21/M
;
_chemical_formula_sum "Si O2"
_cell_formula_units_Z 32
_cell_length_a 9.269038
_cell_length_b 13.901079
_cell_length_c 12.984341
_cell_angle_alpha 90.000000
_cell_angle_beta 94.555366
_cell_angle_gamma 90.000000
_cell_volume 1667.742520
_symmetry_space_group_name_H-M "P 21/M"
_symmetry_group_IT_number 11
_symmetry_cell_setting 'monoclinic'
loop_
_space_group_symop_operation_xyz
x,y,z
-x,1/2+y,-z
-x,-y,-z
x,1/2-y,z
loop_
_atom_site_type_symbol
_atom_site_label
_atom_site_fract_x
_atom_site_fract_y
_atom_site_fract_z
Si Si1 0.903006 0.639629 0.053558
Si Si2 0.792388 0.053925 0.966533
Si Si3 0.677837 0.352583 0.380010
Si Si4 0.402777 0.446130 0.410929
Si Si5 0.256002 0.139842 0.741954
Si Si6 0.549256 0.475223 0.799100
Si Si7 0.160102 0.469283 0.537829
Si Si8 0.361497 0.640386 0.851825
O O1 0.881076 0.750000 0.011638
O O2 0.845815 0.630697 0.165745
O O3 0.071041 0.612442 0.067329
O O4 0.822130 0.561394 0.976179
O O5 0.662917 0.076386 0.880057
O O6 0.752171 0.097261 0.074533
O O7 0.731469 0.250000 0.424249
O O8 0.502298 0.356577 0.380567
O O9 0.756992 0.430453 0.451791
O O10 0.719739 0.364921 0.262574
O O11 0.500000 0.500000 0.500000
O O12 0.375252 0.510223 0.307429
O O13 0.247430 0.414172 0.450549
O O14 0.287783 0.250000 0.714822
O O15 0.407746 0.089275 0.773628
O O16 0.169652 0.091342 0.642614
O O17 0.505107 0.574679 0.853949
O O18 0.000000 0.500000 0.500000
O O19 0.405437 0.750000 0.882865
#
# Coordination Sequence:
#
# PCOD8072399 Si02
#       8
#     4   4   4   4   4   4   4   4
#     4  10  23  41  58  86 127 164 199 246 299 358
#     4  11  22  37  63  87 122 161 205 243 297 359
#     4   9  18  36  61  83 112 151 195 243 294 348
#     4   9  18  38  58  82 114 149 192 240 293 348
#     4  11  23  41  61  87 122 158 197 244 301 359
#     4  11  21  39  60  92 117 152 200 249 302 342
#     4  11  22  38  62  85 119 155 195 245 300 358
#     4  10  19  35  61  86 116 152 196 245 295 352
#
# _framework density 19.187614
#
# number of rings (size 3 to 8) (size 9 to 14) (size 15 to 20)
#    0.000    1.750    5.000    0.750    1.750    2.500 
#    0.000    0.000    0.000    0.000    0.000    0.000 
#    0.000    0.000    0.000    0.000    0.000    0.000 
#
# Total GULP energy -396575.768102 kJ/mol
# GULP energy per Si atom -12392.992753 kJ/mol
# Density = 1.914394 g / cm^3
# Si number density = 19.187614 Si / 1000 Ang^3
#
#
#
# Elastic Constant Matrix: (Units=GPa)
#
#
# Indices 1 2 3 4 5 6 
#
# 1 113.7026 27.3890 52.2221 0.0000 1.8186 0.0000
# 2 27.3890 99.3347 30.8231 0.0000 4.8771 0.0000
# 3 52.2221 30.8231 82.2675 0.0000 -8.0745 0.0000
# 4 0.0000 0.0000 0.0000 18.6858 0.0000 -2.3945
# 5 1.8186 4.8771 -8.0745 0.0000 31.3607 0.0000
# 6 0.0000 0.0000 0.0000 -2.3945 0.0000 14.0644
#
#
#
# Elastic Compliance Matrix: (Units=1/GPa)
#
#
# Indices 1 2 3 4 5 6 
#
# 1 0.012730 -0.000895 -0.008007 0.000000 -0.002661 0.000000
# 2 -0.000895 0.011726 -0.004103 0.000000 -0.002828 0.000000
# 3 -0.008007 -0.004103 0.019373 0.000000 0.006090 0.000000
# 4 0.000000 0.000000 0.000000 0.054710 0.000000 0.009315
# 5 -0.002661 -0.002828 0.006090 0.000000 0.034049 0.000000
# 6 0.000000 0.000000 0.000000 0.009315 0.000000 0.072687
#
#
# Mechanical properties :
#
#
# Convention : Reuss Voigt Hill
#
# Bulk Modulus (GPa) = 56.11669 57.35258 56.73463
# Shear Modulus (GPa) = 21.07703 25.14689 23.11196
#
# Velocity S-wave (km/s) = 3.31791 3.62412 3.47439
# Velocity P-wave (km/s) = 6.63234 6.88968 6.76223
#
# Compressibility (1/GPa) = 0.01782001
#
# Stress axis : x y z
#
# Youngs Moduli (GPa) = 78.55162 85.28326 51.61812
#
# Poissons Ratio (x) = 0.07633 0.41330
# Poissons Ratio (y) = 0.07030 0.21177
# Poissons Ratio (z) = 0.62896 0.34989
#
# Static dielectric constant tensor:
#      x y z
#    x 3.751330 0.000000 -0.458870 
#    y 0.000000 3.848030 0.000000 
#    z -0.458870 0.000000 3.657830 
# 
# 
# High freq. dielectric constant tensor:
#      x y z
#    x 1.734640 0.000000 -0.020590 
#    y 0.000000 1.745970 0.000000 
#    z -0.020590 0.000000 1.749350 
# 
# From -- ./inp_files/31908.got.cif
#   From: 2010.06.25/outbox.cif.g09.slc.cpg/sg11_16_cif.got.tgz:31908.got - 2010.06.27 23:14:04.
