data_PCOD8072551
_publ_section_title
;
Structure prediction by ZEFSAII (Michael W. Deem and Ramdas Pophale) SiO2 
 PCOD8072551
Probable space group: P 21/M
;
_chemical_formula_sum "Si O2"
_cell_formula_units_Z 28
_cell_length_a 27.786383
_cell_length_b 8.610898
_cell_length_c 9.797456
_cell_angle_alpha 90.000000
_cell_angle_beta 37.983291
_cell_angle_gamma 90.000000
_cell_volume 1442.691945
_symmetry_space_group_name_H-M "P 21/M"
_symmetry_group_IT_number 11
_symmetry_cell_setting 'monoclinic'
loop_
_space_group_symop_operation_xyz
x,y,z
-x,1/2+y,-z
-x,-y,-z
x,1/2-y,z
loop_
_atom_site_type_symbol
_atom_site_label
_atom_site_fract_x
_atom_site_fract_y
_atom_site_fract_z
Si Si1 0.194192 0.068033 0.319363
Si Si2 0.050450 0.573697 0.770312
Si Si3 0.369697 0.432492 0.937991
Si Si4 0.051685 0.073418 0.268340
Si Si5 0.368831 0.067332 0.632133
Si Si6 0.499017 0.566838 0.153738
Si Si7 0.796700 0.068931 0.989809
O O1 0.189562 0.250000 0.295289
O O2 0.281082 0.023967 0.178454
O O3 0.131187 0.021667 0.574142
O O4 0.175316 0.970639 0.225933
O O5 0.072519 0.750000 0.756279
O O6 0.997117 0.561161 0.758417
O O7 0.000000 0.500000 0.000000
O O8 0.381291 0.250000 0.909002
O O9 0.388169 0.493457 0.742847
O O10 0.429037 0.503946 0.917188
O O11 0.071951 0.250000 0.261680
O O12 0.132492 0.978706 0.068729
O O13 0.000000 0.000000 0.500000
O O14 0.383537 0.250000 0.584564
O O15 0.419716 0.976887 0.407873
O O16 0.278908 0.030344 0.799893
O O17 0.506252 0.750000 0.125081
O O18 0.500000 0.500000 0.000000
O O19 0.777827 0.250000 0.045716
#
# Coordination Sequence:
#
# PCOD8072551 Si02
#       7
#     4   4   4   4   4   4   4
#     4  10  19  36  61  86 115 151 193 243 293 344
#     4  11  24  40  58  84 117 156 198 242 292 346
#     4   8  18  36  61  88 113 147 191 236 286 341
#     4  11  22  37  60  87 117 155 197 239 288 343
#     4  10  20  38  62  88 115 149 192 241 291 343
#     4  11  22  39  59  85 120 156 191 233 286 348
#     4  11  21  35  58  90 120 150 192 242 292 343
#
# _framework density 19.408163999999999
#
# number of rings (size 3 to 8) (size 9 to 14) (size 15 to 20)
#    0.000    1.714    1.429    4.714    0.000    1.714 
#    2.571    7.857    0.000    0.000    0.000    0.000 
#    0.000    0.000    0.000    0.000    0.000    0.000 
#
# Total GULP energy -347228.357250 kJ/mol
# GULP energy per Si atom -12401.012759 kJ/mol
# Density = 1.936399 g / cm^3
# Si number density = 19.408164 Si / 1000 Ang^3
#
#
#
# Elastic Constant Matrix: (Units=GPa)
#
#
# Indices 1 2 3 4 5 6 
#
# 1 85.3604 30.7850 55.6810 0.0000 -8.6434 0.0000
# 2 30.7850 76.7704 24.1894 0.0000 4.3151 0.0000
# 3 55.6810 24.1894 139.7522 0.0000 -2.3490 0.0000
# 4 0.0000 0.0000 0.0000 35.4930 0.0000 -1.7163
# 5 -8.6434 4.3151 -2.3490 0.0000 27.6791 0.0000
# 6 0.0000 0.0000 0.0000 -1.7163 0.0000 26.4893
#
#
#
# Elastic Compliance Matrix: (Units=1/GPa)
#
#
# Indices 1 2 3 4 5 6 
#
# 1 0.018520 -0.005796 -0.006272 0.000000 0.006155 0.000000
# 2 -0.005796 0.015746 -0.000488 0.000000 -0.004306 0.000000
# 3 -0.006272 -0.000488 0.009721 0.000000 -0.001057 0.000000
# 4 0.000000 0.000000 0.000000 0.028263 0.000000 0.001831
# 5 0.006155 -0.004306 -0.001057 0.000000 0.038632 0.000000
# 6 0.000000 0.000000 0.000000 0.001831 0.000000 0.037870
#
#
# Mechanical properties :
#
#
# Convention : Reuss Voigt Hill
#
# Bulk Modulus (GPa) = 52.98374 58.13263 55.55819
# Shear Modulus (GPa) = 27.75359 30.68079 29.21719
#
# Velocity S-wave (km/s) = 3.78563 3.98026 3.88417
# Velocity P-wave (km/s) = 6.81667 7.15130 6.98599
#
# Compressibility (1/GPa) = 0.01887371
#
# Stress axis : x y z
#
# Youngs Moduli (GPa) = 53.99581 63.50784 102.86703
#
# Poissons Ratio (x) = 0.36810 0.64520
# Poissons Ratio (y) = 0.31297 0.05025
# Poissons Ratio (z) = 0.33867 0.03102
#
# Static dielectric constant tensor:
#      x y z
#    x 3.726450 0.000000 -0.264790 
#    y 0.000000 3.575420 0.000000 
#    z -0.264790 0.000000 3.502130 
# 
# 
# High freq. dielectric constant tensor:
#      x y z
#    x 1.752000 0.000000 -0.018430 
#    y 0.000000 1.755980 0.000000 
#    z -0.018430 0.000000 1.755620 
# 
# From -- ./inp_files/28387.got.cif
#   From: 2010.06.25/outbox.cif.g09.slc.cpg/sg11_15_cif.got.tgz:28387.got - 2010.06.27 23:14:04.
