data_PCOD8072271
_publ_section_title
;
Structure prediction by ZEFSAII (Michael W. Deem and Ramdas Pophale) SiO2 
 PCOD8072271
Probable space group: P 21/M
;
_chemical_formula_sum "Si O2"
_cell_formula_units_Z 28
_cell_length_a 8.992315
_cell_length_b 9.965781
_cell_length_c 22.988654
_cell_angle_alpha 90.000000
_cell_angle_beta 138.469784
_cell_angle_gamma 90.000000
_cell_volume 1365.902513
_symmetry_space_group_name_H-M "P 21/M"
_symmetry_group_IT_number 11
_symmetry_cell_setting 'monoclinic'
loop_
_space_group_symop_operation_xyz
x,y,z
-x,1/2+y,-z
-x,-y,-z
x,1/2-y,z
loop_
_atom_site_type_symbol
_atom_site_label
_atom_site_fract_x
_atom_site_fract_y
_atom_site_fract_z
Si Si1 0.308895 0.032556 0.640061
Si Si2 0.434627 0.099788 0.061055
Si Si3 0.897819 0.405257 0.659525
Si Si4 0.158297 0.593375 0.906178
Si Si5 0.214828 0.897550 0.246545
Si Si6 0.713794 0.100530 0.248559
Si Si7 0.185075 0.895807 0.487992
O O1 0.326420 0.917236 0.694301
O O2 0.295716 0.982591 0.570106
O O3 0.540400 0.113984 0.711162
O O4 0.086283 0.118230 0.586305
O O5 0.340258 0.250000 0.019560
O O6 0.670778 0.080120 0.097049
O O7 0.482585 0.085378 0.144140
O O8 0.260468 0.984204 0.991937
O O9 0.967906 0.250000 0.671602
O O10 0.752451 0.426704 0.674919
O O11 0.762215 0.452918 0.561590
O O12 0.121360 0.492004 0.730786
O O13 0.110107 0.750000 0.907330
O O14 0.928242 0.517372 0.823216
O O15 0.099956 0.750000 0.204470
O O16 0.812784 0.250000 0.268224
O O17 0.292356 0.750000 0.526400
#
# Coordination Sequence:
#
# PCOD8072271 Si02
#       7
#     4   4   4   4   4   4   4
#     4  10  21  34  56  81 111 150 189 227 278 334
#     4   9  18  34  56  82 113 146 183 228 276 331
#     4   9  19  34  56  82 112 147 188 232 278 329
#     4  10  20  34  56  85 114 144 184 231 280 331
#     4  11  22  37  56  83 117 151 185 231 285 333
#     4  10  19  35  57  84 112 147 189 230 275 331
#     4   9  18  36  55  77 107 146 192 234 273 327
#
# _framework density 20.499265000000001
#
# number of rings (size 3 to 8) (size 9 to 14) (size 15 to 20)
#    0.000    2.286    1.429    1.286    0.000    3.429 
#    0.000    1.429    0.000    0.000    0.000    0.000 
#    0.000    0.000    0.000    0.000    0.000    0.000 
#
# Total GULP energy -346915.772357 kJ/mol
# GULP energy per Si atom -12389.849013 kJ/mol
# Density = 2.045261 g / cm^3
# Si number density = 20.499265 Si / 1000 Ang^3
#
#
#
# Elastic Constant Matrix: (Units=GPa)
#
#
# Indices 1 2 3 4 5 6 
#
# 1 48.1014 19.8308 25.3634 0.0000 -2.2181 0.0000
# 2 19.8308 108.1002 43.0001 0.0000 -10.0976 0.0000
# 3 25.3634 43.0001 85.0185 0.0000 -16.4061 0.0000
# 4 0.0000 0.0000 0.0000 9.6955 0.0000 -9.9123
# 5 -2.2181 -10.0976 -16.4061 0.0000 30.8404 0.0000
# 6 0.0000 0.0000 0.0000 -9.9123 0.0000 18.2029
#
#
#
# Elastic Compliance Matrix: (Units=1/GPa)
#
#
# Indices 1 2 3 4 5 6 
#
# 1 0.025202 -0.002097 -0.006954 0.000000 -0.002574 0.000000
# 2 -0.002097 0.011771 -0.005141 0.000000 0.000968 0.000000
# 3 -0.006954 -0.005141 0.017848 0.000000 0.007311 0.000000
# 4 0.000000 0.000000 0.000000 0.232676 0.000000 0.126702
# 5 -0.002574 0.000968 0.007311 0.000000 0.036446 0.000000
# 6 0.000000 0.000000 0.000000 0.126702 0.000000 0.123931
#
#
# Mechanical properties :
#
#
# Convention : Reuss Voigt Hill
#
# Bulk Modulus (GPa) = 37.82752 46.40095 42.11423
# Shear Modulus (GPa) = 10.30777 21.94949 16.12863
#
# Velocity S-wave (km/s) = 2.24483 3.27577 2.80802
# Velocity P-wave (km/s) = 5.02118 6.08212 5.57693
#
# Compressibility (1/GPa) = 0.02643578
#
# Stress axis : x y z
#
# Youngs Moduli (GPa) = 39.67870 84.95610 56.02961
#
# Poissons Ratio (x) = 0.17819 0.38965
# Poissons Ratio (y) = 0.08322 0.28803
# Poissons Ratio (z) = 0.27594 0.43674
#
# Static dielectric constant tensor:
#      x y z
#    x 3.571500 0.000000 -0.332840 
#    y 0.000000 3.668630 0.000000 
#    z -0.332840 0.000000 3.591710 
# 
# 
# High freq. dielectric constant tensor:
#      x y z
#    x 1.781740 0.000000 -0.025850 
#    y 0.000000 1.802010 0.000000 
#    z -0.025850 0.000000 1.791910 
# 
# From -- ./inp_files/70917.got.cif
#   From: 2010.06.25/outbox.cif.g09.slc.cpg/sg11_36_cif.got.tgz:70917.got - 2010.06.27 23:14:04.
