data_PCOD8072997
_publ_section_title
;
Structure prediction by ZEFSAII (Michael W. Deem and Ramdas Pophale) SiO2 
 PCOD8072997
Probable space group: P 21/M
;
_chemical_formula_sum "Si O2"
_cell_formula_units_Z 28
_cell_length_a 8.796154
_cell_length_b 13.729611
_cell_length_c 15.368474
_cell_angle_alpha 90.000000
_cell_angle_beta 124.914138
_cell_angle_gamma 90.000000
_cell_volume 1521.953234
_symmetry_space_group_name_H-M "P 21/M"
_symmetry_group_IT_number 11
_symmetry_cell_setting 'monoclinic'
loop_
_space_group_symop_operation_xyz
x,y,z
-x,1/2+y,-z
-x,-y,-z
x,1/2-y,z
loop_
_atom_site_type_symbol
_atom_site_label
_atom_site_fract_x
_atom_site_fract_y
_atom_site_fract_z
Si Si1 0.893115 0.545907 0.620343
Si Si2 0.658995 0.861263 0.880555
Si Si3 0.240784 0.499999 0.240781
Si Si4 0.897895 0.861263 0.119447
Si Si5 0.347568 0.454094 0.620344
Si Si6 0.737990 0.139501 0.310492
Si Si7 0.116998 0.139501 0.689506
O O1 0.799862 0.558122 0.683576
O O2 0.750431 0.582172 0.499999
O O3 0.075922 0.613064 0.680447
O O4 0.944872 0.433155 0.617134
O O5 0.711939 0.750000 0.878383
O O6 0.749738 0.923364 0.833686
O O7 0.436520 0.874478 0.811674
O O8 0.741103 0.895623 0.000001
O O9 0.432714 0.558122 0.316422
O O10 0.082370 0.576632 0.166311
O O11 0.955185 0.750000 0.121620
O O12 0.813186 0.874477 0.188330
O O13 0.289393 0.566846 0.617136
O O14 0.284964 0.386936 0.680446
O O15 0.749037 0.250000 0.349478
O O16 0.050074 0.250000 0.650519
#
# Coordination Sequence:
#
# PCOD8072997 Si02
#       7
#     4   4   4   4   4   4   4
#     4  10  20  33  50  73 101 133 166 202 245 291
#     4   9  18  34  54  74  99 131 165 204 249 293
#     4  10  20  34  50  74 104 134 164 200 242 296
#     4   9  18  34  54  74  99 131 165 204 249 293
#     4  10  20  33  50  73 101 133 166 202 245 291
#     4   9  18  33  52  73  97 127 167 209 246 289
#     4   9  18  33  52  73  97 127 167 209 246 289
#
# _framework density 18.397411999999999
#
# number of rings (size 3 to 8) (size 9 to 14) (size 15 to 20)
#    0.000    2.571    0.000    2.571    0.000    3.429 
#    0.000   12.857    0.000    8.571    0.000    0.000 
#    0.000    0.000    0.000    0.000    0.000    0.000 
#
# Total GULP energy -347160.115032 kJ/mol
# GULP energy per Si atom -12398.575537 kJ/mol
# Density = 1.835554 g / cm^3
# Si number density = 18.397412 Si / 1000 Ang^3
#
#
#
# Elastic Constant Matrix: (Units=GPa)
#
#
# Indices 1 2 3 4 5 6 
#
# 1 88.8342 21.1033 65.7654 0.0000 -0.6103 0.0000
# 2 21.1033 75.6152 37.6043 0.0000 -0.4341 0.0000
# 3 65.7654 37.6043 152.7971 0.0000 -1.0731 0.0000
# 4 0.0000 0.0000 0.0000 22.9227 0.0000 -0.0084
# 5 -0.6103 -0.4341 -1.0731 0.0000 23.1369 0.0000
# 6 0.0000 0.0000 0.0000 -0.0084 0.0000 22.6062
#
#
#
# Elastic Compliance Matrix: (Units=1/GPa)
#
#
# Indices 1 2 3 4 5 6 
#
# 1 0.016622 -0.001232 -0.006850 0.000000 0.000098 0.000000
# 2 -0.001232 0.015161 -0.003200 0.000000 0.000104 0.000000
# 3 -0.006850 -0.003200 0.010282 0.000000 0.000236 0.000000
# 4 0.000000 0.000000 0.000000 0.043625 0.000000 0.000016
# 5 0.000098 0.000104 0.000236 0.000000 0.043236 0.000000
# 6 0.000000 0.000000 0.000000 0.000016 0.000000 0.044236
#
#
# Mechanical properties :
#
#
# Convention : Reuss Voigt Hill
#
# Bulk Modulus (GPa) = 51.28154 62.91028 57.09591
# Shear Modulus (GPa) = 24.72480 26.58473 25.65477
#
# Velocity S-wave (km/s) = 3.66994 3.80547 3.73832
# Velocity P-wave (km/s) = 6.77442 7.31972 7.05234
#
# Compressibility (1/GPa) = 0.01950020
#
# Stress axis : x y z
#
# Youngs Moduli (GPa) = 60.16284 65.95990 97.25410
#
# Poissons Ratio (x) = 0.08124 0.66622
# Poissons Ratio (y) = 0.07410 0.31125
# Poissons Ratio (z) = 0.41213 0.21109
#
# Static dielectric constant tensor:
#      x y z
#    x 3.308600 0.000000 -0.004810 
#    y 0.000000 3.389520 0.000000 
#    z -0.004810 0.000000 3.491650 
# 
# 
# High freq. dielectric constant tensor:
#      x y z
#    x 1.704310 0.000000 -0.000350 
#    y 0.000000 1.707610 0.000000 
#    z -0.000350 0.000000 1.717520 
# 
# From -- ./inp_files/22094.got.cif
#   From: 2010.06.25/outbox.cif.g09.slc.cpg/sg11_12_cif.got.tgz:22094.got - 2010.06.27 23:14:04.
