data_PCOD8072034
_publ_section_title
;
Structure prediction by ZEFSAII (Michael W. Deem and Ramdas Pophale) SiO2 
 PCOD8072034
Probable space group: P 21/M
;
_chemical_formula_sum "Si O2"
_cell_formula_units_Z 28
_cell_length_a 14.342452
_cell_length_b 8.459113
_cell_length_c 12.967150
_cell_angle_alpha 90.000000
_cell_angle_beta 55.256307
_cell_angle_gamma 90.000000
_cell_volume 1292.739943
_symmetry_space_group_name_H-M "P 21/M"
_symmetry_group_IT_number 11
_symmetry_cell_setting 'monoclinic'
loop_
_space_group_symop_operation_xyz
x,y,z
-x,1/2+y,-z
-x,-y,-z
x,1/2-y,z
loop_
_atom_site_type_symbol
_atom_site_label
_atom_site_fract_x
_atom_site_fract_y
_atom_site_fract_z
Si Si1 0.530795 0.570297 0.874068
Si Si2 0.254609 0.065072 0.478143
Si Si3 0.767565 0.065159 0.716328
Si Si4 0.134447 0.936669 0.127281
Si Si5 0.735757 0.434604 0.154126
Si Si6 0.114960 0.062832 0.765976
Si Si7 0.502981 0.930824 0.308269
O O1 0.488820 0.750000 0.888017
O O2 0.664332 0.557178 0.778194
O O3 0.469454 0.460478 0.829292
O O4 0.500000 0.500000 0.000000
O O5 0.240695 0.250000 0.465944
O O6 0.192948 0.013098 0.620922
O O7 0.187024 0.969851 0.428438
O O8 0.389371 0.026997 0.408931
O O9 0.732546 0.250000 0.747423
O O10 0.841639 0.013190 0.768436
O O11 0.129309 0.750000 0.125501
O O12 0.011342 0.003387 0.175018
O O13 0.229617 0.994613 0.984184
O O14 0.712182 0.250000 0.166194
O O15 0.841644 0.474905 0.159760
O O16 0.623630 0.513107 0.278940
O O17 0.117482 0.250000 0.782799
O O18 0.480429 0.750000 0.350445
#
# Coordination Sequence:
#
# PCOD8072034 Si02
#       7
#     4   4   4   4   4   4   4
#     4  11  20  32  51  79 115 151 190 235 286 343
#     4  10  21  38  59  85 118 153 191 237 287 342
#     4  10  19  34  57  83 114 151 190 234 286 344
#     4   9  20  38  60  86 116 151 189 236 291 342
#     4  11  22  38  61  88 117 149 191 241 292 345
#     4  10  22  41  61  82 114 155 196 238 286 340
#     4  11  22  37  58  83 114 151 191 237 289 346
#
# _framework density 21.659421999999999
#
# number of rings (size 3 to 8) (size 9 to 14) (size 15 to 20)
#    0.000    1.714    0.000    6.857    0.000    3.429 
#    0.000    4.286    0.000    0.000    0.000    0.000 
#    0.000    0.000    0.000    0.000    0.000    0.000 
#
# Total GULP energy -346904.346710 kJ/mol
# GULP energy per Si atom -12389.440954 kJ/mol
# Density = 2.161012 g / cm^3
# Si number density = 21.659422 Si / 1000 Ang^3
#
#
#
# Elastic Constant Matrix: (Units=GPa)
#
#
# Indices 1 2 3 4 5 6 
#
# 1 110.6706 16.0982 19.8980 0.0000 -4.4329 0.0000
# 2 16.0982 61.3516 18.5180 0.0000 1.2126 0.0000
# 3 19.8980 18.5180 84.5536 0.0000 1.0265 0.0000
# 4 0.0000 0.0000 0.0000 22.6272 0.0000 2.7755
# 5 -4.4329 1.2126 1.0265 0.0000 31.8881 0.0000
# 6 0.0000 0.0000 0.0000 2.7755 0.0000 31.7221
#
#
#
# Elastic Compliance Matrix: (Units=1/GPa)
#
#
# Indices 1 2 3 4 5 6 
#
# 1 0.009724 -0.002018 -0.001864 0.000000 0.001489 0.000000
# 2 -0.002018 0.017881 -0.003431 0.000000 -0.000850 0.000000
# 3 -0.001864 -0.003431 0.013024 0.000000 -0.000548 0.000000
# 4 0.000000 0.000000 0.000000 0.044674 0.000000 -0.003909
# 5 0.001489 -0.000850 -0.000548 0.000000 0.031617 0.000000
# 6 0.000000 0.000000 0.000000 -0.003909 0.000000 0.031866
#
#
# Mechanical properties :
#
#
# Convention : Reuss Voigt Hill
#
# Bulk Modulus (GPa) = 38.45848 40.62269 39.54058
# Shear Modulus (GPa) = 29.05620 30.71826 29.88723
#
# Velocity S-wave (km/s) = 3.66663 3.77004 3.71869
# Velocity P-wave (km/s) = 5.97663 6.14385 6.06081
#
# Compressibility (1/GPa) = 0.02600207
#
# Stress axis : x y z
#
# Youngs Moduli (GPa) = 102.83582 55.92390 76.78349
#
# Poissons Ratio (x) = 0.11287 0.14316
# Poissons Ratio (y) = 0.20755 0.26344
# Poissons Ratio (z) = 0.19173 0.19187
#
# Static dielectric constant tensor:
#      x y z
#    x 4.139270 0.000000 0.040090 
#    y 0.000000 3.735740 0.000000 
#    z 0.040090 0.000000 3.399490 
# 
# 
# High freq. dielectric constant tensor:
#      x y z
#    x 1.855310 0.000000 0.007020 
#    y 0.000000 1.832710 0.000000 
#    z 0.007020 0.000000 1.852010 
# 
# From -- ./inp_files/51576.got.cif
#   From: 2010.06.25/outbox.cif.g09.slc.cpg/sg11_26_cif.got.tgz:51576.got - 2010.06.27 23:14:04.
