data_PCOD8072919
_publ_section_title
;
Structure prediction by ZEFSAII (Michael W. Deem and Ramdas Pophale) SiO2 
 PCOD8072919
Probable space group: P 21/M
;
_chemical_formula_sum "Si O2"
_cell_formula_units_Z 24
_cell_length_a 12.091592
_cell_length_b 9.346756
_cell_length_c 14.295395
_cell_angle_alpha 90.000000
_cell_angle_beta 110.204493
_cell_angle_gamma 90.000000
_cell_volume 1516.208987
_symmetry_space_group_name_H-M "P 21/M"
_symmetry_group_IT_number 11
_symmetry_cell_setting 'monoclinic'
loop_
_space_group_symop_operation_xyz
x,y,z
-x,1/2+y,-z
-x,-y,-z
x,1/2-y,z
loop_
_atom_site_type_symbol
_atom_site_label
_atom_site_fract_x
_atom_site_fract_y
_atom_site_fract_z
Si Si1 0.927508 0.917512 0.555936
Si Si2 0.545302 0.914817 0.649642
Si Si3 0.757506 0.915478 0.824872
Si Si4 0.093940 0.417687 0.964831
Si Si5 0.340524 0.414440 0.517375
Si Si6 0.985606 0.918032 0.782513
O O1 0.933772 0.750000 0.537006
O O2 0.792764 0.971207 0.513913
O O3 0.985203 0.952406 0.672975
O O4 0.000000 0.000000 0.500000
O O5 0.512365 0.750000 0.655734
O O6 0.630335 0.978478 0.756803
O O7 0.616602 0.939536 0.575161
O O8 0.422715 0.000090 0.613989
O O9 0.751410 0.750000 0.795205
O O10 0.864589 0.977466 0.793431
O O11 0.781462 0.937274 0.943184
O O12 0.062561 0.250000 0.947032
O O13 0.093460 0.493298 0.862652
O O14 0.000000 0.500000 0.000000
O O15 0.348229 0.250000 0.548309
O O16 0.003282 0.750000 0.807982
#
# Coordination Sequence:
#
# PCOD8072919 Si02
#       6
#     4   4   4   4   4   4
#     4  10  20  33  48  64  88 122 155 187 224 264
#     4   9  15  26  45  64  86 117 147 174 212 267
#     4   8  13  24  42  62  86 117 144 167 212 269
#     4   9  16  25  40  62  88 117 147 178 215 264
#     4   9  17  29  43  62  88 117 146 180 223 261
#     4   9  16  29  44  59  86 120 148 180 222 263
#
# _framework density 15.828951
#
# number of rings (size 3 to 8) (size 9 to 14) (size 15 to 20)
#    0.000    3.000    1.667    1.500    0.000    1.333 
#    0.000    4.167    0.000    0.000    0.000    1.167 
#    0.000    0.000    0.000    0.000    0.000    0.000 
#
# Total GULP energy -297377.612681 kJ/mol
# GULP energy per Si atom -12390.733862 kJ/mol
# Density = 1.579292 g / cm^3
# Si number density = 15.828951 Si / 1000 Ang^3
#
#
#
# Elastic Constant Matrix: (Units=GPa)
#
#
# Indices 1 2 3 4 5 6 
#
# 1 57.0879 33.0300 47.9555 0.0000 9.5313 0.0000
# 2 33.0300 59.7567 57.5873 0.0000 11.1401 0.0000
# 3 47.9555 57.5873 136.9399 0.0000 25.1875 0.0000
# 4 0.0000 0.0000 0.0000 29.0426 0.0000 2.1488
# 5 9.5313 11.1401 25.1875 0.0000 25.1009 0.0000
# 6 0.0000 0.0000 0.0000 2.1488 0.0000 21.1826
#
#
#
# Elastic Compliance Matrix: (Units=1/GPa)
#
#
# Indices 1 2 3 4 5 6 
#
# 1 0.028070 -0.010149 -0.005433 0.000000 -0.000703 0.000000
# 2 -0.010149 0.031819 -0.009735 0.000000 -0.000499 0.000000
# 3 -0.005433 -0.009735 0.014869 0.000000 -0.008537 0.000000
# 4 0.000000 0.000000 0.000000 0.034693 0.000000 -0.003519
# 5 -0.000703 -0.000499 -0.008537 0.000000 0.048894 0.000000
# 6 0.000000 0.000000 0.000000 -0.003519 0.000000 0.047566
#
#
# Mechanical properties :
#
#
# Convention : Reuss Voigt Hill
#
# Bulk Modulus (GPa) = 41.45106 58.99224 50.22165
# Shear Modulus (GPa) = 18.89761 22.74599 20.82180
#
# Velocity S-wave (km/s) = 3.45898 3.79487 3.63081
# Velocity P-wave (km/s) = 6.49588 7.52003 7.02664
#
# Compressibility (1/GPa) = 0.02412483
#
# Stress axis : x y z
#
# Youngs Moduli (GPa) = 35.62563 31.42811 67.25422
#
# Poissons Ratio (x) = 0.31896 0.36537
# Poissons Ratio (y) = 0.36156 0.65471
# Poissons Ratio (z) = 0.19354 0.30595
#
# Static dielectric constant tensor:
#      x y z
#    x 2.722790 0.000000 0.388250 
#    y 0.000000 2.996220 0.000000 
#    z 0.388250 0.000000 3.456080 
# 
# 
# High freq. dielectric constant tensor:
#      x y z
#    x 1.557860 0.000000 0.030080 
#    y 0.000000 1.595530 0.000000 
#    z 0.030080 0.000000 1.617070 
# 
# From -- ./inp_files/36977.got.cif
#   From: 2010.06.25/outbox.cif.g09.slc.cpg/sg11_19_cif.got.tgz:36977.got - 2010.06.27 23:14:04.
