data_PCOD8072656
_publ_section_title
;
Structure prediction by ZEFSAII (Michael W. Deem and Ramdas Pophale) SiO2 
 PCOD8072656
Probable space group: P 21/M
;
_chemical_formula_sum "Si O2"
_cell_formula_units_Z 28
_cell_length_a 26.117965
_cell_length_b 9.205290
_cell_length_c 10.021990
_cell_angle_alpha 90.000000
_cell_angle_beta 141.698643
_cell_angle_gamma 90.000000
_cell_volume 1493.415583
_symmetry_space_group_name_H-M "P 21/M"
_symmetry_group_IT_number 11
_symmetry_cell_setting 'monoclinic'
loop_
_space_group_symop_operation_xyz
x,y,z
-x,1/2+y,-z
-x,-y,-z
x,1/2-y,z
loop_
_atom_site_type_symbol
_atom_site_label
_atom_site_fract_x
_atom_site_fract_y
_atom_site_fract_z
Si Si1 0.749447 0.578614 0.990120
Si Si2 0.437397 0.420570 0.468974
Si Si3 0.150484 0.419519 0.056488
Si Si4 0.442940 0.083435 0.781598
Si Si5 0.801316 0.422187 0.363268
Si Si6 0.261600 0.082115 0.519955
Si Si7 0.019013 0.580803 0.174846
O O1 0.761377 0.750000 0.039689
O O2 0.809523 0.517154 0.996347
O O3 0.774066 0.490208 0.169649
O O4 0.655894 0.540429 0.761087
O O5 0.500000 0.500000 0.500000
O O6 0.452542 0.250000 0.487963
O O7 0.454720 0.474923 0.655085
O O8 0.170979 0.250000 0.097673
O O9 0.052870 0.453892 0.863924
O O10 0.193571 0.481553 0.278148
O O11 0.469136 0.250000 0.842627
O O12 0.348730 0.061494 0.628322
O O13 0.500000 0.000000 0.000000
O O14 0.791592 0.250000 0.336932
O O15 0.741175 0.485222 0.353368
O O16 0.895200 0.471076 0.585952
O O17 0.244985 0.250000 0.524232
O O18 0.020917 0.750000 0.143958
O O19 0.000000 0.500000 0.000000
#
# Coordination Sequence:
#
# PCOD8072656 Si02
#       7
#     4   4   4   4   4   4   4
#     4  10  21  40  62  82 109 153 199 232 273 340
#     4  10  22  40  60  84 114 148 188 233 282 336
#     4   9  17  35  63  84 105 146 195 237 275 328
#     4  10  22  39  60  88 116 145 189 238 283 336
#     4  11  24  37  53  87 125 150 182 237 291 336
#     4  10  19  37  63  84 108 151 199 234 273 336
#     4  10  20  35  57  85 116 148 187 235 288 338
#
# _framework density 18.748967
#
# number of rings (size 3 to 8) (size 9 to 14) (size 15 to 20)
#    0.000    2.000    2.857    0.429    2.000    2.857 
#    0.000    1.429    0.000    0.000    0.000    0.000 
#    0.000    0.000    0.000    0.000    0.000    0.000 
#
# Total GULP energy -347227.491139 kJ/mol
# GULP energy per Si atom -12400.981826 kJ/mol
# Density = 1.870629 g / cm^3
# Si number density = 18.748967 Si / 1000 Ang^3
#
#
#
# Elastic Constant Matrix: (Units=GPa)
#
#
# Indices 1 2 3 4 5 6 
#
# 1 146.9646 50.8157 66.2754 0.0000 -20.0811 0.0000
# 2 50.8157 54.7182 54.3618 0.0000 -7.2924 0.0000
# 3 66.2754 54.3618 134.8536 0.0000 -20.7874 0.0000
# 4 0.0000 0.0000 0.0000 28.6253 0.0000 1.6562
# 5 -20.0811 -7.2924 -20.7874 0.0000 35.3151 0.0000
# 6 0.0000 0.0000 0.0000 1.6562 0.0000 24.8590
#
#
#
# Elastic Compliance Matrix: (Units=1/GPa)
#
#
# Indices 1 2 3 4 5 6 
#
# 1 0.010736 -0.008005 -0.001499 0.000000 0.003569 0.000000
# 2 -0.008005 0.036488 -0.011344 0.000000 -0.003695 0.000000
# 3 -0.001499 -0.011344 0.013453 0.000000 0.004724 0.000000
# 4 0.000000 0.000000 0.000000 0.035069 0.000000 -0.002336
# 5 0.003569 -0.003695 0.004724 0.000000 0.032364 0.000000
# 6 0.000000 0.000000 0.000000 -0.002336 0.000000 0.040383
#
#
# Mechanical properties :
#
#
# Convention : Reuss Voigt Hill
#
# Bulk Modulus (GPa) = 52.68670 75.49359 64.09014
# Shear Modulus (GPa) = 23.09295 28.76545 25.92920
#
# Velocity S-wave (km/s) = 3.51335 3.92119 3.72286
# Velocity P-wave (km/s) = 6.67985 7.80089 7.26203
#
# Compressibility (1/GPa) = 0.01898012
#
# Stress axis : x y z
#
# Youngs Moduli (GPa) = 93.14375 27.40662 74.33094
#
# Poissons Ratio (x) = 0.21940 0.11143
# Poissons Ratio (y) = 0.74565 0.84321
# Poissons Ratio (z) = 0.13963 0.31090
#
# Static dielectric constant tensor:
#      x y z
#    x 3.716510 0.000000 0.101490 
#    y 0.000000 3.253200 0.000000 
#    z 0.101490 0.000000 3.440380 
# 
# 
# High freq. dielectric constant tensor:
#      x y z
#    x 1.744600 0.000000 0.001370 
#    y 0.000000 1.705820 0.000000 
#    z 0.001370 0.000000 1.734450 
# 
# From -- ./inp_files/28607.got.cif
#   From: 2010.06.25/outbox.cif.g09.slc.cpg/sg11_15_cif.got.tgz:28607.got - 2010.06.27 23:14:04.
