data_PCOD8072536
_publ_section_title
;
Structure prediction by ZEFSAII (Michael W. Deem and Ramdas Pophale) SiO2 
 PCOD8072536
Probable space group: P 21/M
;
_chemical_formula_sum "Si O2"
_cell_formula_units_Z 24
_cell_length_a 8.744084
_cell_length_b 15.918705
_cell_length_c 14.195007
_cell_angle_alpha 90.000000
_cell_angle_beta 39.894495
_cell_angle_gamma 90.000000
_cell_volume 1267.273393
_symmetry_space_group_name_H-M "P 21/M"
_symmetry_group_IT_number 11
_symmetry_cell_setting 'monoclinic'
loop_
_space_group_symop_operation_xyz
x,y,z
-x,1/2+y,-z
-x,-y,-z
x,1/2-y,z
loop_
_atom_site_type_symbol
_atom_site_label
_atom_site_fract_x
_atom_site_fract_y
_atom_site_fract_z
Si Si1 0.784259 0.028262 0.732467
Si Si2 0.631900 0.847343 0.103014
Si Si3 0.427844 0.655125 0.579229
Si Si4 0.650505 0.912598 0.296548
Si Si5 0.700428 0.553442 0.586983
Si Si6 0.990106 0.953951 0.815987
O O1 0.606567 0.107119 0.820775
O O2 0.032296 0.063850 0.576303
O O3 0.689210 0.955666 0.705745
O O4 0.805118 0.987059 0.825196
O O5 0.625294 0.750000 0.074950
O O6 0.658027 0.851510 0.203444
O O7 0.858066 0.894411 0.952105
O O8 0.341244 0.750000 0.623033
O O9 0.623505 0.641329 0.404608
O O10 0.547963 0.633224 0.623566
O O11 0.197266 0.598698 0.667283
O O12 0.416773 0.970911 0.403051
O O13 0.893769 0.966780 0.184771
#
# Coordination Sequence:
#
# PCOD8072536 Si02
#       6
#     4   4   4   4   4   4
#     4  10  19  36  61  78 112 152 186 221 270 343
#     4  11  24  37  53  84 118 146 182 231 283 324
#     4  11  20  34  58  86 114 139 184 246 279 308
#     4  10  19  38  60  80 107 147 191 226 273 337
#     4   9  18  35  58  84 106 143 192 226 270 336
#     4  11  20  39  60  82 107 153 192 223 270 340
#
# _framework density 18.938298
#
# number of rings (size 3 to 8) (size 9 to 14) (size 15 to 20)
#    0.000    1.667    3.333    3.000    0.000    0.667 
#    0.000    1.667    0.000    0.000    0.000    0.000 
#    0.000    0.000    0.000    0.000    0.000    0.000 
#
# Total GULP energy -297601.611374 kJ/mol
# GULP energy per Si atom -12400.067141 kJ/mol
# Density = 1.889519 g / cm^3
# Si number density = 18.938298 Si / 1000 Ang^3
#
#
#
# Elastic Constant Matrix: (Units=GPa)
#
#
# Indices 1 2 3 4 5 6 
#
# 1 113.7832 42.2187 26.6367 0.0000 -0.1281 0.0000
# 2 42.2187 89.6312 25.9379 0.0000 -0.9696 0.0000
# 3 26.6367 25.9379 74.0645 0.0000 -7.5345 0.0000
# 4 0.0000 0.0000 0.0000 23.8957 0.0000 1.8683
# 5 -0.1281 -0.9696 -7.5345 0.0000 19.6214 0.0000
# 6 0.0000 0.0000 0.0000 1.8683 0.0000 14.9519
#
#
#
# Elastic Compliance Matrix: (Units=1/GPa)
#
#
# Indices 1 2 3 4 5 6 
#
# 1 0.011040 -0.004485 -0.002513 0.000000 -0.001115 0.000000
# 2 -0.004485 0.014260 -0.003447 0.000000 -0.000648 0.000000
# 3 -0.002513 -0.003447 0.016228 0.000000 0.006045 0.000000
# 4 0.000000 0.000000 0.000000 0.042261 0.000000 -0.005281
# 5 -0.001115 -0.000648 0.006045 0.000000 0.053246 0.000000
# 6 0.000000 0.000000 0.000000 -0.005281 0.000000 0.067541
#
#
# Mechanical properties :
#
#
# Convention : Reuss Voigt Hill
#
# Bulk Modulus (GPa) = 48.45556 51.89616 50.17586
# Shear Modulus (GPa) = 21.51975 23.87285 22.69630
#
# Velocity S-wave (km/s) = 3.37457 3.55429 3.46560
# Velocity P-wave (km/s) = 6.38946 6.65629 6.52424
#
# Compressibility (1/GPa) = 0.02063747
#
# Stress axis : x y z
#
# Youngs Moduli (GPa) = 90.58145 70.12733 61.62343
#
# Poissons Ratio (x) = 0.31451 0.15487
# Poissons Ratio (y) = 0.40624 0.21241
# Poissons Ratio (z) = 0.22764 0.24172
#
# Static dielectric constant tensor:
#      x y z
#    x 3.666010 0.000000 0.040090 
#    y 0.000000 3.218010 0.000000 
#    z 0.040090 0.000000 3.400060 
# 
# 
# High freq. dielectric constant tensor:
#      x y z
#    x 1.743690 0.000000 -0.001040 
#    y 0.000000 1.711990 0.000000 
#    z -0.001040 0.000000 1.733500 
# 
# From -- ./inp_files/18546.got.cif
#   From: 2010.06.25/outbox.cif.g09.slc.cpg/sg11_10_cif.got.tgz:18546.got - 2010.06.27 23:14:04.
