data_PCOD8072805
_publ_section_title
;
Structure prediction by ZEFSAII (Michael W. Deem and Ramdas Pophale) SiO2 
 PCOD8072805
Probable space group: P 21/M
;
_chemical_formula_sum "Si O2"
_cell_formula_units_Z 32
_cell_length_a 13.513319
_cell_length_b 13.513250
_cell_length_c 17.010479
_cell_angle_alpha 90.000000
_cell_angle_beta 142.599739
_cell_angle_gamma 90.000000
_cell_volume 1886.681034
_symmetry_space_group_name_H-M "P 21/M"
_symmetry_group_IT_number 11
_symmetry_cell_setting 'monoclinic'
loop_
_space_group_symop_operation_xyz
x,y,z
-x,1/2+y,-z
-x,-y,-z
x,1/2-y,z
loop_
_atom_site_type_symbol
_atom_site_label
_atom_site_fract_x
_atom_site_fract_y
_atom_site_fract_z
Si Si1 0.726087 0.859698 0.858579
Si Si2 0.474498 0.974739 0.608181
Si Si3 0.082918 0.133683 0.608181
Si Si4 0.491070 0.640302 0.858578
Si Si5 0.998882 0.132491 0.858579
Si Si6 0.781721 0.632491 0.141420
Si Si7 0.366557 0.866317 0.391820
Si Si8 0.241863 0.525261 0.608180
O O1 0.746134 0.750000 0.833657
O O2 0.607293 0.851448 0.857293
O O3 0.649774 0.933401 0.746627
O O4 0.900801 0.900802 0.000000
O O5 0.503176 0.077644 0.580818
O O6 0.393695 0.893696 0.500000
O O7 0.354726 0.995748 0.604726
O O8 0.100471 0.250000 0.604726
O O9 0.180029 0.096852 0.746628
O O10 0.893696 0.106303 0.500002
O O11 0.158460 0.077644 0.580818
O O12 0.421178 0.750000 0.833656
O O13 0.343478 0.566599 0.746625
O O14 0.599196 0.599197 0.999999
O O15 0.005845 0.250000 0.857292
O O16 0.083658 0.087522 0.833658
O O17 0.813227 0.096851 0.746626
O O18 0.791257 0.750000 0.142705
O O19 0.391018 0.750000 0.395273
#
# Coordination Sequence:
#
# PCOD8072805 Si02
#       8
#     4   4   4   4   4   4   4   4
#     4   8  14  26  45  68  92 117 147 185 225 262
#     4  10  20  32  47  68  92 120 154 190 230 274
#     4  10  20  32  47  68  92 120 154 190 230 274
#     4   8  14  26  45  68  92 117 147 185 225 262
#     4   8  14  26  45  68  92 117 147 185 225 262
#     4   8  14  26  45  68  92 117 147 185 225 262
#     4  10  20  32  47  68  92 120 154 190 230 274
#     4  10  20  32  47  68  92 120 154 190 230 274
#
# _framework density 16.961002000000001
#
# number of rings (size 3 to 8) (size 9 to 14) (size 15 to 20)
#    0.000    3.000    0.000    3.000    0.000    4.000 
#    0.000    0.000    0.000    0.000    0.000    0.000 
#    0.000   12.000    0.000    0.000    0.000    0.000 
#
# Total GULP energy -396626.888667 kJ/mol
# GULP energy per Si atom -12394.590271 kJ/mol
# Density = 1.692240 g / cm^3
# Si number density = 16.961002 Si / 1000 Ang^3
#
#
#
# Elastic Constant Matrix: (Units=GPa)
#
#
# Indices 1 2 3 4 5 6 
#
# 1 65.6666 30.1284 33.4290 0.0000 -0.0102 0.0000
# 2 30.1284 65.6649 33.3756 0.0000 -0.0935 0.0000
# 3 33.4290 33.3756 127.3144 0.0000 -1.7648 0.0000
# 4 0.0000 0.0000 0.0000 16.2855 0.0000 -0.0695
# 5 -0.0102 -0.0935 -1.7648 0.0000 16.3384 0.0000
# 6 0.0000 0.0000 0.0000 -0.0695 0.0000 13.8647
#
#
#
# Elastic Compliance Matrix: (Units=1/GPa)
#
#
# Indices 1 2 3 4 5 6 
#
# 1 0.020465 -0.007680 -0.003366 0.000000 -0.000395 0.000000
# 2 -0.007680 0.020454 -0.003349 0.000000 -0.000250 0.000000
# 3 -0.003366 -0.003349 0.009630 0.000000 0.001019 0.000000
# 4 0.000000 0.000000 0.000000 0.061406 0.000000 0.000308
# 5 -0.000395 -0.000250 0.001019 0.000000 0.061314 0.000000
# 6 0.000000 0.000000 0.000000 0.000308 0.000000 0.072127
#
#
# Mechanical properties :
#
#
# Convention : Reuss Voigt Hill
#
# Bulk Modulus (GPa) = 45.95420 50.27913 48.11666
# Shear Modulus (GPa) = 17.76579 20.07858 18.92219
#
# Velocity S-wave (km/s) = 3.23994 3.44438 3.34373
# Velocity P-wave (km/s) = 6.41476 6.74735 6.58316
#
# Compressibility (1/GPa) = 0.02176079
#
# Stress axis : x y z
#
# Youngs Moduli (GPa) = 48.86310 48.88930 103.83748
#
# Poissons Ratio (x) = 0.37546 0.34950
# Poissons Ratio (y) = 0.37526 0.34776
# Poissons Ratio (z) = 0.16446 0.16374
#
# Static dielectric constant tensor:
#      x y z
#    x 2.867110 0.000000 -0.024020 
#    y 0.000000 2.866390 0.000000 
#    z -0.024020 0.000000 3.701930 
# 
# 
# High freq. dielectric constant tensor:
#      x y z
#    x 1.624870 0.000000 -0.001490 
#    y 0.000000 1.624820 0.000000 
#    z -0.001490 0.000000 1.676660 
# 
# From -- ./inp_files/21922.got.cif
#   From: 2010.06.25/outbox.cif.g09.slc.cpg/sg11_11_cif.got.tgz:21922.got - 2010.06.27 23:14:04.
