data_PCOD8072635
_publ_section_title
;
Structure prediction by ZEFSAII (Michael W. Deem and Ramdas Pophale) SiO2 
 PCOD8072635
Probable space group: P 21/M
;
_chemical_formula_sum "Si O2"
_cell_formula_units_Z 28
_cell_length_a 18.703630
_cell_length_b 9.445535
_cell_length_c 13.875649
_cell_angle_alpha 90.000000
_cell_angle_beta 144.461353
_cell_angle_gamma 90.000000
_cell_volume 1424.853452
_symmetry_space_group_name_H-M "P 21/M"
_symmetry_group_IT_number 11
_symmetry_cell_setting 'monoclinic'
loop_
_space_group_symop_operation_xyz
x,y,z
-x,1/2+y,-z
-x,-y,-z
x,1/2-y,z
loop_
_atom_site_type_symbol
_atom_site_label
_atom_site_fract_x
_atom_site_fract_y
_atom_site_fract_z
Si Si1 0.487870 0.412782 0.726385
Si Si2 0.336553 0.582283 0.248186
Si Si3 0.962826 0.407616 0.867426
Si Si4 0.323340 0.595269 0.443727
Si Si5 0.396183 0.584539 0.945458
Si Si6 0.901762 0.084340 0.125729
Si Si7 0.117305 0.915903 0.670631
O O1 0.450944 0.250000 0.685657
O O2 0.554991 0.464657 0.703111
O O3 0.363185 0.503495 0.581342
O O4 0.573546 0.447469 0.910398
O O5 0.328294 0.750000 0.245601
O O6 0.356624 0.519860 0.377311
O O7 0.211130 0.528939 0.062468
O O8 0.024467 0.250000 0.938770
O O9 0.819798 0.385063 0.710993
O O10 0.988081 0.489365 0.794584
O O11 0.000000 0.500000 0.000000
O O12 0.386358 0.750000 0.520556
O O13 0.411419 0.750000 0.937534
O O14 0.251681 0.539315 0.771667
O O15 0.500000 0.500000 0.000000
O O16 0.930175 0.250000 0.141948
O O17 0.876202 0.051751 0.209120
O O18 0.095626 0.750000 0.627320
O O19 0.000000 0.000000 0.500000
#
# Coordination Sequence:
#
# PCOD8072635 Si02
#       7
#     4   4   4   4   4   4   4
#     4  10  20  36  59  83 110 147 194 236 278 343
#     4   9  16  33  58  80 108 147 187 226 273 333
#     4  11  22  36  55  81 116 156 195 238 284 340
#     4  10  21  35  53  81 118 153 185 230 285 334
#     4  10  22  41  64  89 118 157 200 247 306 365
#     4  10  19  37  62  83 110 152 192 234 291 348
#     4  10  22  41  66  91 119 156 200 253 311 369
#
# _framework density 19.651143000000001
#
# number of rings (size 3 to 8) (size 9 to 14) (size 15 to 20)
#    0.000    2.000    2.857    0.857    0.000    4.000 
#    0.000    6.429    0.000    0.000    0.000    0.000 
#    0.000    0.000    0.000    0.000    0.000    0.000 
#
# Total GULP energy -346907.907168 kJ/mol
# GULP energy per Si atom -12389.568113 kJ/mol
# Density = 1.960642 g / cm^3
# Si number density = 19.651143 Si / 1000 Ang^3
#
#
#
# Elastic Constant Matrix: (Units=GPa)
#
#
# Indices 1 2 3 4 5 6 
#
# 1 96.2641 48.8024 35.7279 0.0000 8.8186 0.0000
# 2 48.8024 84.6883 57.1717 0.0000 1.6906 0.0000
# 3 35.7279 57.1717 109.6583 0.0000 4.7514 0.0000
# 4 0.0000 0.0000 0.0000 32.9623 0.0000 -0.7505
# 5 8.8186 1.6906 4.7514 0.0000 19.2903 0.0000
# 6 0.0000 0.0000 0.0000 -0.7505 0.0000 31.0539
#
#
#
# Elastic Compliance Matrix: (Units=1/GPa)
#
#
# Indices 1 2 3 4 5 6 
#
# 1 0.015403 -0.008558 -0.000287 0.000000 -0.006221 0.000000
# 2 -0.008558 0.022987 -0.009379 0.000000 0.004208 0.000000
# 3 -0.000287 -0.009379 0.014213 0.000000 -0.002548 0.000000
# 4 0.000000 0.000000 0.000000 0.030354 0.000000 0.000734
# 5 -0.006221 0.004208 -0.002548 0.000000 0.054942 0.000000
# 6 0.000000 0.000000 0.000000 0.000734 0.000000 0.032220
#
#
# Mechanical properties :
#
#
# Convention : Reuss Voigt Hill
#
# Bulk Modulus (GPa) = 61.89898 63.77942 62.83920
# Shear Modulus (GPa) = 23.59018 26.58853 25.08936
#
# Velocity S-wave (km/s) = 3.46851 3.68234 3.57702
# Velocity P-wave (km/s) = 6.89986 7.11378 7.00763
#
# Compressibility (1/GPa) = 0.01615535
#
# Stress axis : x y z
#
# Youngs Moduli (GPa) = 64.92128 43.50256 70.35928
#
# Poissons Ratio (x) = 0.37231 0.02019
# Poissons Ratio (y) = 0.55562 0.65987
# Poissons Ratio (z) = 0.01863 0.40799
#
# Static dielectric constant tensor:
#      x y z
#    x 3.793400 0.000000 0.043380 
#    y 0.000000 3.325540 0.000000 
#    z 0.043380 0.000000 3.621260 
# 
# 
# High freq. dielectric constant tensor:
#      x y z
#    x 1.765840 0.000000 0.003050 
#    y 0.000000 1.750510 0.000000 
#    z 0.003050 0.000000 1.768550 
# 
# From -- ./inp_files/54610.got.cif
#   From: 2010.06.25/outbox.cif.g09.slc.cpg/sg11_28_cif.got.tgz:54610.got - 2010.06.27 23:14:04.
