data_PCOD8072335
_publ_section_title
;
Structure prediction by ZEFSAII (Michael W. Deem and Ramdas Pophale) SiO2 
 PCOD8072335
Probable space group: P 21/M
;
_chemical_formula_sum "Si O2"
_cell_formula_units_Z 28
_cell_length_a 9.419889
_cell_length_b 8.781947
_cell_length_c 29.677686
_cell_angle_alpha 90.000000
_cell_angle_beta 37.811010
_cell_angle_gamma 90.000000
_cell_volume 1505.112004
_symmetry_space_group_name_H-M "P 21/M"
_symmetry_group_IT_number 11
_symmetry_cell_setting 'monoclinic'
loop_
_space_group_symop_operation_xyz
x,y,z
-x,1/2+y,-z
-x,-y,-z
x,1/2-y,z
loop_
_atom_site_type_symbol
_atom_site_label
_atom_site_fract_x
_atom_site_fract_y
_atom_site_fract_z
Si Si1 0.245214 0.923430 0.438929
Si Si2 0.040265 0.925505 0.120275
Si Si3 0.938869 0.423405 0.288315
Si Si4 0.580585 0.571990 0.433880
Si Si5 0.335610 0.070233 0.125819
Si Si6 0.838332 0.569312 0.002422
Si Si7 0.333501 0.422389 0.718541
O O1 0.189821 0.750000 0.462031
O O2 0.405399 0.986639 0.439135
O O3 0.387674 0.947656 0.355880
O O4 0.000000 0.000000 0.500000
O O5 0.100910 0.750000 0.093550
O O6 0.772665 0.939229 0.204809
O O7 0.219202 0.982424 0.113248
O O8 0.055611 0.029660 0.072689
O O9 0.915255 0.250000 0.309350
O O10 0.842753 0.522467 0.354316
O O11 0.787574 0.452467 0.281836
O O12 0.201075 0.461915 0.206854
O O13 0.500000 0.500000 0.500000
O O14 0.577572 0.750000 0.440671
O O15 0.338872 0.250000 0.113983
O O16 0.589362 0.006676 0.069706
O O17 0.820814 0.750000 0.012481
O O18 0.000000 0.500000 0.000000
O O19 0.279401 0.250000 0.713777
#
# Coordination Sequence:
#
# PCOD8072335 Si02
#       7
#     4   4   4   4   4   4   4
#     4   9  18  32  50  75 104 135 171 211 254 303
#     4  10  19  35  59  83 106 137 177 220 263 311
#     4   9  17  30  52  79 105 133 170 216 262 305
#     4  10  20  34  52  75 105 139 177 218 262 312
#     4  10  20  36  58  84 109 136 175 220 262 312
#     4  12  25  40  56  77 108 143 176 215 266 321
#     4   8  16  31  51  75 104 135 171 214 257 304
#
# _framework density 18.603266999999999
#
# number of rings (size 3 to 8) (size 9 to 14) (size 15 to 20)
#    0.000    2.286    0.000    4.286    0.000    5.143 
#    0.000    1.429    0.000    3.429    0.000    0.000 
#    0.000    0.000    0.000    0.000    0.000    0.000 
#
# Total GULP energy -346972.314653 kJ/mol
# GULP energy per Si atom -12391.868380 kJ/mol
# Density = 1.856093 g / cm^3
# Si number density = 18.603267 Si / 1000 Ang^3
#
#
#
# Elastic Constant Matrix: (Units=GPa)
#
#
# Indices 1 2 3 4 5 6 
#
# 1 65.1734 24.8648 54.7870 0.0000 -2.5561 0.0000
# 2 24.8648 70.0881 47.8904 0.0000 0.8687 0.0000
# 3 54.7870 47.8904 170.0603 0.0000 -1.7833 0.0000
# 4 0.0000 0.0000 0.0000 34.3308 0.0000 0.9645
# 5 -2.5561 0.8687 -1.7833 0.0000 26.9817 0.0000
# 6 0.0000 0.0000 0.0000 0.9645 0.0000 28.9135
#
#
#
# Elastic Compliance Matrix: (Units=1/GPa)
#
#
# Indices 1 2 3 4 5 6 
#
# 1 0.021849 -0.003686 -0.005982 0.000000 0.001793 0.000000
# 2 -0.003686 0.018311 -0.003982 0.000000 -0.001202 0.000000
# 3 -0.005982 -0.003982 0.008930 0.000000 0.000152 0.000000
# 4 0.000000 0.000000 0.000000 0.029156 0.000000 -0.000973
# 5 0.001793 -0.001202 0.000152 0.000000 0.037281 0.000000
# 6 0.000000 0.000000 0.000000 -0.000973 0.000000 0.034618
#
#
# Mechanical properties :
#
#
# Convention : Reuss Voigt Hill
#
# Bulk Modulus (GPa) = 45.89087 62.26735 54.07911
# Shear Modulus (GPa) = 27.06970 29.89716 28.48343
#
# Velocity S-wave (km/s) = 3.81872 4.01320 3.91717
# Velocity P-wave (km/s) = 6.64569 7.41743 7.04214
#
# Compressibility (1/GPa) = 0.02179083
#
# Stress axis : x y z
#
# Youngs Moduli (GPa) = 45.76849 54.61224 111.97789
#
# Poissons Ratio (x) = 0.20130 0.66987
# Poissons Ratio (y) = 0.16870 0.44585
# Poissons Ratio (z) = 0.27379 0.21745
#
# Static dielectric constant tensor:
#      x y z
#    x 3.072410 0.000000 0.001880 
#    y 0.000000 3.720930 0.000000 
#    z 0.001880 0.000000 3.925500 
# 
# 
# High freq. dielectric constant tensor:
#      x y z
#    x 1.668420 0.000000 0.001940 
#    y 0.000000 1.733940 0.000000 
#    z 0.001940 0.000000 1.752020 
# 
# From -- ./inp_files/72709.got.cif
#   From: 2010.06.25/outbox.cif.g09.slc.cpg/sg11_37_cif.got.tgz:72709.got - 2010.06.27 23:14:04.
