data_PCOD8072543
_publ_section_title
;
Structure prediction by ZEFSAII (Michael W. Deem and Ramdas Pophale) SiO2 
 PCOD8072543
Probable space group: P 21/M
;
_chemical_formula_sum "Si O2"
_cell_formula_units_Z 32
_cell_length_a 28.201312
_cell_length_b 9.221094
_cell_length_c 12.271778
_cell_angle_alpha 90.000000
_cell_angle_beta 31.424540
_cell_angle_gamma 90.000000
_cell_volume 1663.832455
_symmetry_space_group_name_H-M "P 21/M"
_symmetry_group_IT_number 11
_symmetry_cell_setting 'monoclinic'
loop_
_space_group_symop_operation_xyz
x,y,z
-x,1/2+y,-z
-x,-y,-z
x,1/2-y,z
loop_
_atom_site_type_symbol
_atom_site_label
_atom_site_fract_x
_atom_site_fract_y
_atom_site_fract_z
Si Si1 0.497049 0.085265 0.337255
Si Si2 0.450138 0.086949 0.189907
Si Si3 0.781992 0.416606 0.626141
Si Si4 0.700768 0.581740 0.215700
Si Si5 0.278062 0.583949 0.492639
Si Si6 0.677361 0.580915 0.019470
Si Si7 0.973130 0.083211 0.161913
Si Si8 0.837242 0.916755 0.130182
O O1 0.507299 0.250000 0.361987
O O2 0.509421 0.085732 0.182712
O O3 0.399087 0.015540 0.561331
O O4 0.576993 0.986648 0.227998
O O5 0.433815 0.250000 0.180491
O O6 0.354644 0.011105 0.401298
O O7 0.500000 0.000000 0.000000
O O8 0.786932 0.250000 0.655476
O O9 0.717842 0.430815 0.645860
O O10 0.881996 0.477284 0.398529
O O11 0.739713 0.509921 0.805489
O O12 0.690334 0.750000 0.262748
O O13 0.726642 0.554332 0.039005
O O14 0.783356 0.521877 0.129309
O O15 0.288950 0.750000 0.506860
O O16 0.185035 0.517567 0.721790
O O17 0.666631 0.750000 0.013918
O O18 0.955112 0.250000 0.163657
O O19 0.053548 0.070441 0.094819
O O20 0.000000 0.000000 0.000000
O O21 0.809973 0.750000 0.207453
#
# Coordination Sequence:
#
# PCOD8072543 Si02
#       8
#     4   4   4   4   4   4   4   4
#     4  10  20  37  58  78 109 150 186 230 286 336
#     4  11  22  35  52  77 112 151 188 227 280 338
#     4  10  22  39  55  80 119 153 181 224 285 340
#     4   9  19  38  59  82 112 146 189 235 281 329
#     4  11  21  34  54  80 114 148 181 227 278 330
#     4  11  23  37  57  83 110 146 194 241 275 323
#     4  10  20  35  60  88 114 147 184 227 279 338
#     4  10  19  36  61  85 110 144 183 226 281 339
#
# _framework density 19.232706
#
# number of rings (size 3 to 8) (size 9 to 14) (size 15 to 20)
#    0.000    1.750    2.500    2.250    0.000    5.500 
#    0.000    2.500    0.000    0.000    0.000    0.000 
#    0.000    0.000    0.000    0.000    0.000    0.000 
#
# Total GULP energy -396728.275070 kJ/mol
# GULP energy per Si atom -12397.758596 kJ/mol
# Density = 1.918893 g / cm^3
# Si number density = 19.232706 Si / 1000 Ang^3
#
#
#
# Elastic Constant Matrix: (Units=GPa)
#
#
# Indices 1 2 3 4 5 6 
#
# 1 91.1980 36.5129 39.5352 0.0000 -2.4898 0.0000
# 2 36.5129 89.9488 30.5384 0.0000 1.6248 0.0000
# 3 39.5352 30.5384 73.8106 0.0000 -2.7699 0.0000
# 4 0.0000 0.0000 0.0000 25.7962 0.0000 0.5485
# 5 -2.4898 1.6248 -2.7699 0.0000 29.8189 0.0000
# 6 0.0000 0.0000 0.0000 0.5485 0.0000 21.5603
#
#
#
# Elastic Compliance Matrix: (Units=1/GPa)
#
#
# Indices 1 2 3 4 5 6 
#
# 1 0.015464 -0.004064 -0.006568 0.000000 0.000903 0.000000
# 2 -0.004064 0.014046 -0.003689 0.000000 -0.001447 0.000000
# 3 -0.006568 -0.003689 0.018644 0.000000 0.001384 0.000000
# 4 0.000000 0.000000 0.000000 0.038786 0.000000 -0.000987
# 5 0.000903 -0.001447 0.001384 0.000000 0.033819 0.000000
# 6 0.000000 0.000000 0.000000 -0.000987 0.000000 0.046407
#
#
# Mechanical properties :
#
#
# Convention : Reuss Voigt Hill
#
# Bulk Modulus (GPa) = 51.24776 52.01449 51.63113
# Shear Modulus (GPa) = 24.71445 25.32645 25.02045
#
# Velocity S-wave (km/s) = 3.58861 3.63277 3.61076
# Velocity P-wave (km/s) = 6.62381 6.68577 6.65486
#
# Compressibility (1/GPa) = 0.01951305
#
# Stress axis : x y z
#
# Youngs Moduli (GPa) = 64.66632 71.19677 53.63576
#
# Poissons Ratio (x) = 0.28933 0.35227
# Poissons Ratio (y) = 0.26279 0.19785
# Poissons Ratio (z) = 0.42471 0.26263
#
# Static dielectric constant tensor:
#      x y z
#    x 3.574400 0.000000 -0.080780 
#    y 0.000000 3.414290 0.000000 
#    z -0.080780 0.000000 3.265120 
# 
# 
# High freq. dielectric constant tensor:
#      x y z
#    x 1.749140 0.000000 -0.007330 
#    y 0.000000 1.737100 0.000000 
#    z -0.007330 0.000000 1.742280 
# 
# From -- ./inp_files/45119.got.cif
#   From: 2010.06.25/outbox.cif.g09.slc.cpg/sg11_23_cif.got.tgz:45119.got - 2010.06.27 23:14:04.
