data_PCOD8072712
_publ_section_title
;
Structure prediction by ZEFSAII (Michael W. Deem and Ramdas Pophale) SiO2 
 PCOD8072712
Probable space group: P 21/M
;
_chemical_formula_sum "Si O2"
_cell_formula_units_Z 28
_cell_length_a 8.982566
_cell_length_b 27.953991
_cell_length_c 5.392553
_cell_angle_alpha 90.000000
_cell_angle_beta 114.723097
_cell_angle_gamma 90.000000
_cell_volume 1229.948519
_symmetry_space_group_name_H-M "P 21/M"
_symmetry_group_IT_number 11
_symmetry_cell_setting 'monoclinic'
loop_
_space_group_symop_operation_xyz
x,y,z
-x,1/2+y,-z
-x,-y,-z
x,1/2-y,z
loop_
_atom_site_type_symbol
_atom_site_label
_atom_site_fract_x
_atom_site_fract_y
_atom_site_fract_z
Si Si1 0.654694 0.571564 0.088843
Si Si2 0.898271 0.489854 0.182269
Si Si3 0.894194 0.646765 0.150540
Si Si4 0.498462 0.394183 0.536027
Si Si5 0.161785 0.888441 0.020932
Si Si6 0.708713 0.803279 0.634490
Si Si7 0.933282 0.303559 0.346468
O O1 0.731333 0.520333 0.079647
O O2 0.547424 0.570211 0.266026
O O3 0.798483 0.609586 0.258542
O O4 0.556615 0.587469 0.772331
O O5 0.000000 0.500000 0.500000
O O6 0.838206 0.435029 0.153219
O O7 0.000000 0.500000 0.000000
O O8 0.978470 0.612737 0.004365
O O9 0.050739 0.676037 0.365181
O O10 0.762348 0.684343 0.952313
O O11 0.695399 0.391143 0.673769
O O12 0.425230 0.341666 0.547693
O O13 0.186325 0.838837 0.885729
O O14 0.631772 0.750000 0.571193
O O15 0.874928 0.805745 0.592242
O O16 0.860898 0.250000 0.283060
#
# Coordination Sequence:
#
# PCOD8072712 Si02
#       7
#     4   4   4   4   4   4   4
#     4  11  23  43  66  93 131 175 220 262 324 397
#     4  12  25  42  72 101 128 174 227 278 324 389
#     4  10  19  38  65  91 123 171 222 271 314 386
#     4  11  25  42  64  95 137 172 211 274 332 394
#     4  11  26  40  65  98 134 170 218 278 333 388
#     4   9  19  36  60  89 122 168 217 263 320 389
#     4  10  20  38  66  94 126 170 224 271 320 390
#
# _framework density 22.765179
#
# number of rings (size 3 to 8) (size 9 to 14) (size 15 to 20)
#    0.000    1.429    2.857    2.143    4.000    2.286 
#    0.000    0.000    0.000    0.000    0.000    0.000 
#    0.000    0.000    0.000    0.000    0.000    0.000 
#
# Total GULP energy -346941.537330 kJ/mol
# GULP energy per Si atom -12390.769190 kJ/mol
# Density = 2.271336 g / cm^3
# Si number density = 22.765179 Si / 1000 Ang^3
#
#
#
# Elastic Constant Matrix: (Units=GPa)
#
#
# Indices 1 2 3 4 5 6 
#
# 1 34.3504 6.3936 15.7864 0.0000 0.9777 0.0000
# 2 6.3936 136.3979 40.1477 0.0000 15.8167 0.0000
# 3 15.7864 40.1477 130.4591 0.0000 6.2779 0.0000
# 4 0.0000 0.0000 0.0000 30.1847 0.0000 1.6303
# 5 0.9777 15.8167 6.2779 0.0000 35.9733 0.0000
# 6 0.0000 0.0000 0.0000 1.6303 0.0000 16.4822
#
#
#
# Elastic Compliance Matrix: (Units=1/GPa)
#
#
# Indices 1 2 3 4 5 6 
#
# 1 0.030844 -0.000377 -0.003614 0.000000 -0.000042 0.000000
# 2 -0.000377 0.008434 -0.002392 0.000000 -0.003280 0.000000
# 3 -0.003614 -0.002392 0.008858 0.000000 -0.000396 0.000000
# 4 0.000000 0.000000 0.000000 0.033307 0.000000 -0.003294
# 5 -0.000042 -0.003280 -0.000396 0.000000 0.029311 0.000000
# 6 0.000000 0.000000 0.000000 -0.003294 0.000000 0.060998
#
#
# Mechanical properties :
#
#
# Convention : Reuss Voigt Hill
#
# Bulk Modulus (GPa) = 28.27345 47.31810 37.79577
# Shear Modulus (GPa) = 25.47026 32.45335 28.96180
#
# Velocity S-wave (km/s) = 3.34851 3.77977 3.57066
# Velocity P-wave (km/s) = 5.23418 6.31500 5.79982
#
# Compressibility (1/GPa) = 0.03536887
#
# Stress axis : x y z
#
# Youngs Moduli (GPa) = 32.42108 118.57341 112.89595
#
# Poissons Ratio (x) = 0.04472 0.40804
# Poissons Ratio (y) = 0.01223 0.27003
# Poissons Ratio (z) = 0.11718 0.28361
#
# Static dielectric constant tensor:
#      x y z
#    x 3.845780 0.000000 -0.103770 
#    y 0.000000 4.302430 0.000000 
#    z -0.103770 0.000000 4.021810 
# 
# 
# High freq. dielectric constant tensor:
#      x y z
#    x 1.872550 0.000000 -0.004560 
#    y 0.000000 1.907320 0.000000 
#    z -0.004560 0.000000 1.898770 
# 
# From -- ./inp_files/3452.got.cif
#   From: 2010.06.25/outbox.cif.g09.slc.cpg/sg11_2_cif.got.tgz:3452.got - 2010.06.27 23:14:04.
