data_PCOD8072336
_publ_section_title
;
Structure prediction by ZEFSAII (Michael W. Deem and Ramdas Pophale) SiO2 
 PCOD8072336
Probable space group: P 21/M
;
_chemical_formula_sum "Si O2"
_cell_formula_units_Z 28
_cell_length_a 29.148051
_cell_length_b 9.167899
_cell_length_c 5.249669
_cell_angle_alpha 90.000000
_cell_angle_beta 70.504269
_cell_angle_gamma 90.000000
_cell_volume 1322.419581
_symmetry_space_group_name_H-M "P 21/M"
_symmetry_group_IT_number 11
_symmetry_cell_setting 'monoclinic'
loop_
_space_group_symop_operation_xyz
x,y,z
-x,1/2+y,-z
-x,-y,-z
x,1/2-y,z
loop_
_atom_site_type_symbol
_atom_site_label
_atom_site_fract_x
_atom_site_fract_y
_atom_site_fract_z
Si Si1 0.925837 0.908089 0.200524
Si Si2 0.522055 0.925452 0.209130
Si Si3 0.850799 0.080517 0.615586
Si Si4 0.973770 0.406801 0.754416
Si Si5 0.365333 0.078203 0.998093
Si Si6 0.209189 0.919977 0.778410
Si Si7 0.311148 0.424115 0.598339
O O1 0.900725 0.750000 0.196437
O O2 0.983395 0.879723 0.121149
O O3 0.900632 0.987460 0.489819
O O4 0.924742 0.016850 0.958440
O O5 0.513410 0.750000 0.225200
O O6 0.500000 0.000000 0.500000
O O7 0.578621 0.966485 0.104146
O O8 0.500000 0.000000 0.000000
O O9 0.864193 0.250000 0.594210
O O10 0.817697 0.041223 0.433487
O O11 0.824015 0.031805 0.922018
O O12 0.955852 0.250000 0.681493
O O13 0.000000 0.500000 0.500000
O O14 0.359894 0.250000 0.008924
O O15 0.339088 0.014742 0.297864
O O16 0.339701 0.015263 0.792533
O O17 0.222768 0.750000 0.770656
O O18 0.257288 0.014645 0.701743
O O19 0.308995 0.250000 0.601859
#
# Coordination Sequence:
#
# PCOD8072336 Si02
#       7
#     4   4   4   4   4   4   4
#     4  10  22  38  56  83 112 143 188 237 279 332
#     4  11  22  39  61  88 126 168 210 259 310 369
#     4  10  22  39  58  81 112 152 188 224 285 355
#     4  10  21  37  58  83 113 147 184 230 282 335
#     4   9  19  35  57  83 114 154 196 242 298 357
#     4  10  22  39  57  82 115 148 184 234 296 349
#     4  10  19  35  59  83 107 144 196 241 289 352
#
# _framework density 21.173311000000002
#
# number of rings (size 3 to 8) (size 9 to 14) (size 15 to 20)
#    0.000    2.000    0.000    3.000    2.000    5.143 
#    0.000    4.286    0.000    0.000    0.000    0.000 
#    0.000    0.000    0.000    0.000    0.000    0.000 
#
# Total GULP energy -347066.502730 kJ/mol
# GULP energy per Si atom -12395.232240 kJ/mol
# Density = 2.112512 g / cm^3
# Si number density = 21.173311 Si / 1000 Ang^3
#
#
#
# Elastic Constant Matrix: (Units=GPa)
#
#
# Indices 1 2 3 4 5 6 
#
# 1 96.6403 7.8802 43.3600 0.0000 -4.4285 0.0000
# 2 7.8802 98.9222 44.7602 0.0000 -12.0809 0.0000
# 3 43.3600 44.7602 162.1098 0.0000 -4.4544 0.0000
# 4 0.0000 0.0000 0.0000 30.6938 0.0000 -9.2975
# 5 -4.4285 -12.0809 -4.4544 0.0000 39.4980 0.0000
# 6 0.0000 0.0000 0.0000 -9.2975 0.0000 26.8447
#
#
#
# Elastic Compliance Matrix: (Units=1/GPa)
#
#
# Indices 1 2 3 4 5 6 
#
# 1 0.011837 0.000706 -0.003329 0.000000 0.001168 0.000000
# 2 0.000706 0.012008 -0.003412 0.000000 0.003367 0.000000
# 3 -0.003329 -0.003412 0.007987 0.000000 -0.000516 0.000000
# 4 0.000000 0.000000 0.000000 0.036399 0.000000 0.012606
# 5 0.001168 0.003367 -0.000516 0.000000 0.026420 0.000000
# 6 0.000000 0.000000 0.000000 0.012606 0.000000 0.041617
#
#
# Mechanical properties :
#
#
# Convention : Reuss Voigt Hill
#
# Bulk Modulus (GPa) = 50.60156 61.07478 55.83817
# Shear Modulus (GPa) = 32.27367 36.85209 34.56288
#
# Velocity S-wave (km/s) = 3.90842 4.17645 4.04466
# Velocity P-wave (km/s) = 6.65719 7.22252 6.94561
#
# Compressibility (1/GPa) = 0.01976224
#
# Stress axis : x y z
#
# Youngs Moduli (GPa) = 84.47928 83.28016 125.20495
#
# Poissons Ratio (x) = -0.05879 0.41680
# Poissons Ratio (y) = -0.05964 0.42717
# Poissons Ratio (z) = 0.28123 0.28413
#
# Static dielectric constant tensor:
#      x y z
#    x 4.183450 0.000000 0.091120 
#    y 0.000000 2.719690 0.000000 
#    z 0.091120 0.000000 4.140890 
# 
# 
# High freq. dielectric constant tensor:
#      x y z
#    x 1.828290 0.000000 0.003810 
#    y 0.000000 1.819820 0.000000 
#    z 0.003810 0.000000 1.847470 
# 
# From -- ./inp_files/9596.got.cif
#   From: 2010.06.25/outbox.cif.g09.slc.cpg/sg11_5_cif.got.tgz:9596.got - 2010.06.27 23:14:04.
