data_PCOD8072156
_publ_section_title
;
Structure prediction by ZEFSAII (Michael W. Deem and Ramdas Pophale) SiO2 
 PCOD8072156
Probable space group: P 21/M
;
_chemical_formula_sum "Si O2"
_cell_formula_units_Z 20
_cell_length_a 21.501689
_cell_length_b 8.391649
_cell_length_c 15.498590
_cell_angle_alpha 90.000000
_cell_angle_beta 158.703599
_cell_angle_gamma 90.000000
_cell_volume 1015.661976
_symmetry_space_group_name_H-M "P 21/M"
_symmetry_group_IT_number 11
_symmetry_cell_setting 'monoclinic'
loop_
_space_group_symop_operation_xyz
x,y,z
-x,1/2+y,-z
-x,-y,-z
x,1/2-y,z
loop_
_atom_site_type_symbol
_atom_site_label
_atom_site_fract_x
_atom_site_fract_y
_atom_site_fract_z
Si Si1 0.465545 0.750000 0.636082
Si Si2 0.846742 0.750000 0.180112
Si Si3 0.638056 0.250000 0.300963
Si Si4 0.899306 0.004441 0.567400
Si Si5 0.720889 0.932908 0.647856
Si Si6 0.744045 0.750000 0.244175
Si Si7 0.013063 0.576539 0.895047
O O1 0.389936 0.750000 0.633697
O O2 0.413473 0.581125 0.522337
O O3 0.669863 0.750000 0.899715
O O4 0.818792 0.750000 0.245515
O O5 0.954747 0.597436 0.294051
O O6 0.746775 0.098837 0.414591
O O7 0.460601 0.250000 0.020155
O O8 0.810948 0.901254 0.380837
O O9 0.994276 0.914283 0.767871
O O10 0.641777 0.750000 0.547186
O O11 0.829902 0.959763 0.701850
O O12 0.846956 0.946869 0.893797
O O13 0.077070 0.750000 0.010159
#
# Coordination Sequence:
#
# PCOD8072156 Si02
#       7
#     2   2   2   4   4   2   4
#     4  11  20  43  58  88 132 162 196 255 297 354
#     4  10  26  40  60  81 124 165 199 242 311 358
#     4  10  22  36  64  90 121 150 194 258 313 348
#     4  11  21  39  62  88 116 158 205 244 300 368
#     4  10  21  34  62  96 125 155 200 245 309 358
#     4  11  22  41  62  87 117 155 203 257 303 358
#     4  10  19  34  60  94 119 155 197 254 299 359
#
# _framework density 19.691590000000001
#
# number of rings (size 3 to 8) (size 9 to 14) (size 15 to 20)
#    0.000    1.600    4.000    1.200    4.200    0.000 
#    1.800    1.000    4.400    0.000    0.000    0.000 
#    0.000    0.000    0.000    0.000    0.000    0.000 
#
# Total GULP energy -247835.996518 kJ/mol
# GULP energy per Si atom -12391.799826 kJ/mol
# Density = 1.964677 g / cm^3
# Si number density = 19.691590 Si / 1000 Ang^3
#
#
#
# Elastic Constant Matrix: (Units=GPa)
#
#
# Indices 1 2 3 4 5 6 
#
# 1 56.3931 11.7470 35.3503 0.0000 -3.4355 0.0000
# 2 11.7470 131.9560 57.8910 0.0000 2.7803 0.0000
# 3 35.3503 57.8910 105.0198 0.0000 -1.0468 0.0000
# 4 0.0000 0.0000 0.0000 18.3087 0.0000 -33.0737
# 5 -3.4355 2.7803 -1.0468 0.0000 32.9813 0.0000
# 6 0.0000 0.0000 0.0000 -33.0737 0.0000 -13.7767
#
#
#
# Elastic Compliance Matrix: (Units=1/GPa)
#
#
# Indices 1 2 3 4 5 6 
#
# 1 0.022908 0.001706 -0.008632 0.000000 0.001968 0.000000
# 2 0.001706 0.010157 -0.006182 0.000000 -0.000875 0.000000
# 3 -0.008632 -0.006182 0.015836 0.000000 0.000125 0.000000
# 4 0.000000 0.000000 0.000000 0.010235 0.000000 -0.024570
# 5 0.001968 -0.000875 0.000125 0.000000 0.030603 0.000000
# 6 0.000000 0.000000 0.000000 -0.024570 0.000000 -0.013601
#
#
# Mechanical properties :
#
#
# Convention : Reuss Voigt Hill
#
# Bulk Modulus (GPa) = 44.07958 55.92727 50.00342
# Shear Modulus (GPa) = 45.48969 20.06137 32.77553
#
# Velocity S-wave (km/s) = 4.81157 3.19529 4.08418
# Velocity P-wave (km/s) = 7.30081 6.48664 6.90573
#
# Compressibility (1/GPa) = 0.02268624
#
# Stress axis : x y z
#
# Youngs Moduli (GPa) = 43.65266 98.45513 63.14536
#
# Poissons Ratio (x) = -0.16798 0.54506
# Poissons Ratio (y) = -0.07448 0.39036
# Poissons Ratio (z) = 0.37680 0.60864
#
# Static dielectric constant tensor:
#      x y z
#    x 3.419410 0.000000 -0.071970 
#    y 0.000000 3.667740 0.000000 
#    z -0.071970 0.000000 3.521310 
# 
# 
# High freq. dielectric constant tensor:
#      x y z
#    x 1.759150 0.000000 -0.013720 
#    y 0.000000 1.778030 0.000000 
#    z -0.013720 0.000000 1.762640 
# 
# From -- ./inp_files/16044.got.cif
#   From: 2010.06.25/outbox.cif.g09.slc.cpg/sg11_9_cif.got.tgz:16044.got - 2010.06.27 23:14:04.
