data_PCOD8072465
_publ_section_title
;
Structure prediction by ZEFSAII (Michael W. Deem and Ramdas Pophale) SiO2 
 PCOD8072465
Probable space group: P 21/M
;
_chemical_formula_sum "Si O2"
_cell_formula_units_Z 32
_cell_length_a 15.207152
_cell_length_b 8.966333
_cell_length_c 12.170772
_cell_angle_alpha 90.000000
_cell_angle_beta 87.122436
_cell_angle_gamma 90.000000
_cell_volume 1657.421341
_symmetry_space_group_name_H-M "P 21/M"
_symmetry_group_IT_number 11
_symmetry_cell_setting 'monoclinic'
loop_
_space_group_symop_operation_xyz
x,y,z
-x,1/2+y,-z
-x,-y,-z
x,1/2-y,z
loop_
_atom_site_type_symbol
_atom_site_label
_atom_site_fract_x
_atom_site_fract_y
_atom_site_fract_z
Si Si1 0.564289 0.923696 0.910084
Si Si2 0.916417 0.575615 0.059110
Si Si3 0.950687 0.573364 0.297208
Si Si4 0.633328 0.422147 0.462729
Si Si5 0.537318 0.577196 0.663127
Si Si6 0.148813 0.573197 0.306805
Si Si7 0.765802 0.923278 0.903235
Si Si8 0.193877 0.426960 0.527174
O O1 0.544161 0.750000 0.916674
O O2 0.545586 0.981434 0.787413
O O3 0.664709 0.959717 0.937937
O O4 0.500000 0.000000 0.000000
O O5 0.935244 0.750000 0.053397
O O6 0.908893 0.518967 0.184847
O O7 0.825367 0.534563 0.004551
O O8 0.000000 0.500000 0.000000
O O9 0.953145 0.750000 0.301204
O O10 0.890065 0.512409 0.399467
O O11 0.049323 0.510441 0.303215
O O12 0.658246 0.250000 0.475524
O O13 0.601134 0.480965 0.582815
O O14 0.562189 0.446071 0.371478
O O15 0.718034 0.515682 0.418384
O O16 0.566221 0.750000 0.652187
O O17 0.150894 0.750000 0.319353
O O18 0.204293 0.526436 0.198091
O O19 0.193993 0.497446 0.407365
O O20 0.777120 0.750000 0.869459
O O21 0.194663 0.250000 0.519882
#
# Coordination Sequence:
#
# PCOD8072465 Si02
#       8
#     4   4   4   4   4   4   4   4
#     4  10  22  39  57  82 115 150 187 232 281 334
#     4  10  19  36  58  82 112 146 187 233 278 329
#     4   9  20  36  54  78 111 149 186 230 281 331
#     4  10  20  35  57  85 111 143 188 235 279 334
#     4   9  19  37  59  81 113 150 185 230 284 337
#     4  11  21  36  58  82 111 146 189 238 278 329
#     4  10  21  36  59  87 114 148 189 231 283 343
#     4  11  22  36  54  79 114 151 184 226 284 343
#
# _framework density 19.307099000000001
#
# number of rings (size 3 to 8) (size 9 to 14) (size 15 to 20)
#    0.000    2.000    1.250    2.250    0.000    3.500 
#    0.000    4.375    0.000    0.000    0.000    0.000 
#    0.000    0.000    0.000    0.000    0.000    0.000 
#
# Total GULP energy -396867.249918 kJ/mol
# GULP energy per Si atom -12402.101560 kJ/mol
# Density = 1.926316 g / cm^3
# Si number density = 19.307099 Si / 1000 Ang^3
#
#
#
# Elastic Constant Matrix: (Units=GPa)
#
#
# Indices 1 2 3 4 5 6 
#
# 1 131.0000 39.9175 41.7499 0.0000 1.8893 0.0000
# 2 39.9175 60.3660 28.8226 0.0000 -1.1892 0.0000
# 3 41.7499 28.8226 74.1559 0.0000 12.2768 0.0000
# 4 0.0000 0.0000 0.0000 23.3616 0.0000 -4.2798
# 5 1.8893 -1.1892 12.2768 0.0000 31.7001 0.0000
# 6 0.0000 0.0000 0.0000 -4.2798 0.0000 31.8178
#
#
#
# Elastic Compliance Matrix: (Units=1/GPa)
#
#
# Indices 1 2 3 4 5 6 
#
# 1 0.010425 -0.004930 -0.004082 0.000000 0.000774 0.000000
# 2 -0.004930 0.023179 -0.006867 0.000000 0.003823 0.000000
# 3 -0.004082 -0.006867 0.019719 0.000000 -0.007651 0.000000
# 4 0.000000 0.000000 0.000000 0.043887 0.000000 0.005903
# 5 0.000774 0.003823 -0.007651 0.000000 0.034606 0.000000
# 6 0.000000 0.000000 0.000000 0.005903 0.000000 0.032223
#
#
# Mechanical properties :
#
#
# Convention : Reuss Voigt Hill
#
# Bulk Modulus (GPa) = 46.36657 54.05575 50.21116
# Shear Modulus (GPa) = 24.63246 27.71136 26.17191
#
# Velocity S-wave (km/s) = 3.57574 3.79264 3.68579
# Velocity P-wave (km/s) = 6.41213 6.87295 6.64653
#
# Compressibility (1/GPa) = 0.02156726
#
# Stress axis : x y z
#
# Youngs Moduli (GPa) = 95.91930 43.14187 50.71350
#
# Poissons Ratio (x) = 0.21268 0.20700
# Poissons Ratio (y) = 0.47286 0.34823
# Poissons Ratio (z) = 0.39151 0.29624
#
# Static dielectric constant tensor:
#      x y z
#    x 3.770100 0.000000 0.156370 
#    y 0.000000 3.385780 0.000000 
#    z 0.156370 0.000000 3.710460 
# 
# 
# High freq. dielectric constant tensor:
#      x y z
#    x 1.764190 0.000000 0.009530 
#    y 0.000000 1.738230 0.000000 
#    z 0.009530 0.000000 1.752140 
# 
# From -- ./inp_files/38223.got.cif
#   From: 2010.06.25/outbox.cif.g09.slc.cpg/sg11_20_cif.got.tgz:38223.got - 2010.06.27 23:14:04.
