data_PCOD8072162
_publ_section_title
;
Structure prediction by ZEFSAII (Michael W. Deem and Ramdas Pophale) SiO2 
 PCOD8072162
Probable space group: P 21/M
;
_chemical_formula_sum "Si O2"
_cell_formula_units_Z 32
_cell_length_a 9.421431
_cell_length_b 23.070600
_cell_length_c 16.010938
_cell_angle_alpha 90.000000
_cell_angle_beta 153.051246
_cell_angle_gamma 90.000000
_cell_volume 1577.161277
_symmetry_space_group_name_H-M "P 21/M"
_symmetry_group_IT_number 11
_symmetry_cell_setting 'monoclinic'
loop_
_space_group_symop_operation_xyz
x,y,z
-x,1/2+y,-z
-x,-y,-z
x,1/2-y,z
loop_
_atom_site_type_symbol
_atom_site_label
_atom_site_fract_x
_atom_site_fract_y
_atom_site_fract_z
Si Si1 0.128063 0.101934 0.531886
Si Si2 0.300739 0.586866 0.052488
Si Si3 0.719391 0.986138 0.515402
Si Si4 0.341432 0.110125 0.921168
Si Si5 0.908727 0.183839 0.278611
Si Si6 0.964573 0.014361 0.812223
Si Si7 0.219312 0.619109 0.483086
Si Si8 0.836870 0.816027 0.768056
O O1 0.470084 0.095431 0.750156
O O2 0.074867 0.042177 0.451189
O O3 0.106619 0.154933 0.456410
O O4 0.871204 0.113803 0.467345
O O5 0.477935 0.576384 0.057616
O O6 0.097757 0.527864 0.954917
O O7 0.094299 0.644602 0.947686
O O8 0.368910 0.958888 0.332770
O O9 0.680543 0.055102 0.491284
O O10 0.902248 0.973632 0.697751
O O11 0.208929 0.065745 0.920899
O O12 0.057672 0.142281 0.722959
O O13 0.566797 0.155240 0.085924
O O14 0.844511 0.250000 0.268863
O O15 0.128243 0.177928 0.313001
O O16 0.495590 0.664651 0.618417
O O17 0.892472 0.750000 0.825974
#
# Coordination Sequence:
#
# PCOD8072162 Si02
#       8
#     4   4   4   4   4   4   4   4
#     4  11  24  37  60  88 127 161 193 247 306 362
#     4  10  20  38  57  90 126 160 199 240 302 364
#     4  10  20  35  60  91 127 160 196 245 301 355
#     4   9  20  35  62  88 116 157 204 245 296 355
#     4  10  23  43  63  85 117 157 206 255 300 351
#     4  10  19  34  62  90 122 161 203 246 290 361
#     4  10  21  39  60  93 122 156 198 246 302 365
#     4  10  21  41  67  86 113 160 210 253 292 356
#
# _framework density 20.289618999999998
#
# number of rings (size 3 to 8) (size 9 to 14) (size 15 to 20)
#    0.000    2.000    1.250    2.250    3.500    5.000 
#    2.250    2.500    0.000    0.000    0.000    0.000 
#    0.000    0.000    0.000    0.000    0.000    0.000 
#
# Total GULP energy -396712.441257 kJ/mol
# GULP energy per Si atom -12397.263789 kJ/mol
# Density = 2.024344 g / cm^3
# Si number density = 20.289619 Si / 1000 Ang^3
#
#
#
# Elastic Constant Matrix: (Units=GPa)
#
#
# Indices 1 2 3 4 5 6 
#
# 1 85.4450 38.4723 43.9951 0.0000 5.1438 0.0000
# 2 38.4723 92.1485 34.2924 0.0000 -0.2210 0.0000
# 3 43.9951 34.2924 99.0041 0.0000 -0.3341 0.0000
# 4 0.0000 0.0000 0.0000 28.7418 0.0000 5.1619
# 5 5.1438 -0.2210 -0.3341 0.0000 29.2045 0.0000
# 6 0.0000 0.0000 0.0000 5.1619 0.0000 30.3451
#
#
#
# Elastic Compliance Matrix: (Units=1/GPa)
#
#
# Indices 1 2 3 4 5 6 
#
# 1 0.017182 -0.004977 -0.005922 0.000000 -0.003132 0.000000
# 2 -0.004977 0.013900 -0.002599 0.000000 0.000952 0.000000
# 3 -0.005922 -0.002599 0.013637 0.000000 0.001179 0.000000
# 4 0.000000 0.000000 0.000000 0.035889 0.000000 -0.006105
# 5 -0.003132 0.000952 0.001179 0.000000 0.034814 0.000000
# 6 0.000000 0.000000 0.000000 -0.006105 0.000000 0.033993
#
#
# Mechanical properties :
#
#
# Convention : Reuss Voigt Hill
#
# Bulk Modulus (GPa) = 56.43017 56.67967 56.55492
# Shear Modulus (GPa) = 27.42456 28.31412 27.86934
#
# Velocity S-wave (km/s) = 3.68047 3.73969 3.71020
# Velocity P-wave (km/s) = 6.77746 6.82957 6.80356
#
# Compressibility (1/GPa) = 0.01772102
#
# Stress axis : x y z
#
# Youngs Moduli (GPa) = 58.19977 71.94365 73.33250
#
# Poissons Ratio (x) = 0.35809 0.43427
# Poissons Ratio (y) = 0.28968 0.19063
# Poissons Ratio (z) = 0.34465 0.18702
#
# Static dielectric constant tensor:
#      x y z
#    x 3.676040 0.000000 0.062890 
#    y 0.000000 3.500400 0.000000 
#    z 0.062890 0.000000 3.884180 
# 
# 
# High freq. dielectric constant tensor:
#      x y z
#    x 1.787960 0.000000 0.006510 
#    y 0.000000 1.773240 0.000000 
#    z 0.006510 0.000000 1.799040 
# 
# From -- ./inp_files/48488.got.cif
#   From: 2010.06.25/outbox.cif.g09.slc.cpg/sg11_25_cif.got.tgz:48488.got - 2010.06.27 23:14:04.
