data_PCOD8072910
_publ_section_title
;
Structure prediction by ZEFSAII (Michael W. Deem and Ramdas Pophale) SiO2 
 PCOD8072910
Probable space group: P 21/M
;
_chemical_formula_sum "Si O2"
_cell_formula_units_Z 32
_cell_length_a 23.569332
_cell_length_b 9.185486
_cell_length_c 34.612579
_cell_angle_alpha 90.000000
_cell_angle_beta 164.118031
_cell_angle_gamma 90.000000
_cell_volume 2050.639000
_symmetry_space_group_name_H-M "P 21/M"
_symmetry_group_IT_number 11
_symmetry_cell_setting 'monoclinic'
loop_
_space_group_symop_operation_xyz
x,y,z
-x,1/2+y,-z
-x,-y,-z
x,1/2-y,z
loop_
_atom_site_type_symbol
_atom_site_label
_atom_site_fract_x
_atom_site_fract_y
_atom_site_fract_z
Si Si1 0.031551 0.417880 0.685496
Si Si2 0.602502 0.081314 0.431055
Si Si3 0.211947 0.084490 0.887704
Si Si4 0.406785 0.086352 0.499404
Si Si5 0.136974 0.423807 0.121741
Si Si6 0.014434 0.081100 0.194395
Si Si7 0.879518 0.420262 0.809060
Si Si8 0.390000 0.582841 0.893576
O O1 0.075417 0.250000 0.704982
O O2 0.102648 0.455641 0.775654
O O3 0.160799 0.512025 0.738674
O O4 0.785709 0.456132 0.520457
O O5 0.600435 0.250000 0.438665
O O6 0.375439 0.032818 0.267741
O O7 0.664194 0.012847 0.512036
O O8 0.155263 0.250000 0.862281
O O9 0.462738 0.067436 0.047612
O O10 0.140346 0.975455 0.874072
O O11 0.386094 0.250000 0.501178
O O12 0.253285 0.057725 0.363306
O O13 0.641778 0.054597 0.640685
O O14 0.102616 0.250000 0.099707
O O15 0.072477 0.491803 0.120442
O O16 0.000000 0.500000 0.000000
O O17 0.965454 0.250000 0.154412
O O18 0.979086 0.989099 0.132091
O O19 0.933414 0.250000 0.850025
O O20 0.362978 0.750000 0.887570
O O21 0.500000 0.500000 0.000000
#
# Coordination Sequence:
#
# PCOD8072910 Si02
#       8
#     4   4   4   4   4   4   4   4
#     4   9  16  27  42  61  85 114 151 188 222 260
#     4   9  17  29  46  66  88 117 150 184 223 267
#     4   9  17  28  40  56  83 120 155 183 219 260
#     4   9  18  29  41  61  87 116 150 186 220 257
#     4  10  20  35  53  70  90 115 145 184 229 273
#     4  11  20  28  41  63  89 117 152 188 220 258
#     4  10  20  33  47  63  86 116 149 184 224 266
#     4   9  17  27  39  56  81 115 153 188 222 259
#
# _framework density 15.604891
#
# number of rings (size 3 to 8) (size 9 to 14) (size 15 to 20)
#    0.000    2.500    1.250    2.625    0.000    4.500 
#    0.000    0.000    0.000    0.000    0.000    0.000 
#    0.000    1.000    0.000    3.000    0.000    4.625 
#
# Total GULP energy -396604.491364 kJ/mol
# GULP energy per Si atom -12393.890355 kJ/mol
# Density = 1.556937 g / cm^3
# Si number density = 15.604891 Si / 1000 Ang^3
#
#
#
# Elastic Constant Matrix: (Units=GPa)
#
#
# Indices 1 2 3 4 5 6 
#
# 1 72.6287 47.0292 39.8545 0.0000 9.1955 0.0000
# 2 47.0292 84.0509 38.0893 0.0000 5.3268 0.0000
# 3 39.8545 38.0893 57.6512 0.0000 5.1958 0.0000
# 4 0.0000 0.0000 0.0000 20.9691 0.0000 3.5808
# 5 9.1955 5.3268 5.1958 0.0000 17.7082 0.0000
# 6 0.0000 0.0000 0.0000 3.5808 0.0000 29.7555
#
#
#
# Elastic Compliance Matrix: (Units=1/GPa)
#
#
# Indices 1 2 3 4 5 6 
#
# 1 0.027486 -0.009407 -0.012074 0.000000 -0.007900 0.000000
# 2 -0.009407 0.020262 -0.006959 0.000000 0.000832 0.000000
# 3 -0.012074 -0.006959 0.030338 0.000000 -0.000539 0.000000
# 4 0.000000 0.000000 0.000000 0.048690 0.000000 -0.005859
# 5 -0.007900 0.000832 -0.000539 0.000000 0.060481 0.000000
# 6 0.000000 0.000000 0.000000 -0.005859 0.000000 0.034312
#
#
# Mechanical properties :
#
#
# Convention : Reuss Voigt Hill
#
# Bulk Modulus (GPa) = 47.15411 51.58632 49.37022
# Shear Modulus (GPa) = 17.51209 19.64374 18.57792
#
# Velocity S-wave (km/s) = 3.35359 3.55183 3.45413
# Velocity P-wave (km/s) = 6.72893 7.06755 6.90032
#
# Compressibility (1/GPa) = 0.02120706
#
# Stress axis : x y z
#
# Youngs Moduli (GPa) = 36.38266 49.35416 32.96149
#
# Poissons Ratio (x) = 0.46427 0.39797
# Poissons Ratio (y) = 0.34225 0.22936
# Poissons Ratio (z) = 0.43928 0.34343
#
# Static dielectric constant tensor:
#      x y z
#    x 2.934550 0.000000 0.439700 
#    y 0.000000 3.152850 0.000000 
#    z 0.439700 0.000000 3.095880 
# 
# 
# High freq. dielectric constant tensor:
#      x y z
#    x 1.575510 0.000000 0.032950 
#    y 0.000000 1.613560 0.000000 
#    z 0.032950 0.000000 1.563510 
# 
# From -- ./inp_files/40608.got.cif
#   From: 2010.06.25/outbox.cif.g09.slc.cpg/sg11_21_cif.got.tgz:40608.got - 2010.06.27 23:14:04.
