data_PCOD8072167
_publ_section_title
;
Structure prediction by ZEFSAII (Michael W. Deem and Ramdas Pophale) SiO2 
 PCOD8072167
Probable space group: P 21/M
;
_chemical_formula_sum "Si O2"
_cell_formula_units_Z 24
_cell_length_a 9.341642
_cell_length_b 12.982025
_cell_length_c 11.442097
_cell_angle_alpha 90.000000
_cell_angle_beta 98.627225
_cell_angle_gamma 90.000000
_cell_volume 1371.921701
_symmetry_space_group_name_H-M "P 21/M"
_symmetry_group_IT_number 11
_symmetry_cell_setting 'monoclinic'
loop_
_space_group_symop_operation_xyz
x,y,z
-x,1/2+y,-z
-x,-y,-z
x,1/2-y,z
loop_
_atom_site_type_symbol
_atom_site_label
_atom_site_fract_x
_atom_site_fract_y
_atom_site_fract_z
Si Si1 0.438442 0.131296 0.254189
Si Si2 0.275046 0.130883 0.468957
Si Si3 0.706916 0.989699 0.298531
Si Si4 0.988779 0.950849 0.701591
Si Si5 0.103837 0.129405 0.835401
Si Si6 0.151540 0.131607 0.098949
O O1 0.473325 0.250000 0.226895
O O2 0.397663 0.123146 0.385718
O O3 0.304915 0.085443 0.162127
O O4 0.575325 0.060919 0.242503
O O5 0.240312 0.250000 0.494069
O O6 0.333295 0.071146 0.588634
O O7 0.126356 0.075688 0.411621
O O8 0.741434 0.904461 0.202178
O O9 0.849231 0.063434 0.331302
O O10 0.968041 0.880115 0.814177
O O11 0.976631 0.069860 0.747639
O O12 0.075892 0.250000 0.820074
O O13 0.100627 0.086604 0.968258
O O14 0.181011 0.250000 0.079766
#
# Coordination Sequence:
#
# PCOD8072167 Si02
#       6
#     4   4   4   4   4   4
#     4   9  19  33  51  72  98 131 168 204 241 291
#     4  10  19  35  53  72 100 135 165 197 248 302
#     4  10  20  31  50  77 101 125 168 206 249 283
#     4   9  19  31  52  77  96 129 168 205 241 288
#     4   9  19  32  51  74 102 132 164 202 248 292
#     4   9  17  34  54  73 100 135 164 195 245 300
#
# _framework density 17.493708999999999
#
# number of rings (size 3 to 8) (size 9 to 14) (size 15 to 20)
#    1.000    1.667    0.000    3.500    0.000    2.000 
#    0.000    0.833    0.000    8.000    0.000    0.000 
#    0.000    0.000    0.000    0.000    0.000    0.000 
#
# Total GULP energy -297319.230398 kJ/mol
# GULP energy per Si atom -12388.301267 kJ/mol
# Density = 1.745389 g / cm^3
# Si number density = 17.493709 Si / 1000 Ang^3
#
#
#
# Elastic Constant Matrix: (Units=GPa)
#
#
# Indices 1 2 3 4 5 6 
#
# 1 47.2552 20.9422 -3.0248 0.0000 5.5709 0.0000
# 2 20.9422 62.7045 20.3332 0.0000 11.5082 0.0000
# 3 -3.0248 20.3332 41.3221 0.0000 -3.9178 0.0000
# 4 0.0000 0.0000 0.0000 22.8922 0.0000 -2.6570
# 5 5.5709 11.5082 -3.9178 0.0000 18.0411 0.0000
# 6 0.0000 0.0000 0.0000 -2.6570 0.0000 31.1908
#
#
#
# Elastic Compliance Matrix: (Units=1/GPa)
#
#
# Indices 1 2 3 4 5 6 
#
# 1 0.026686 -0.011566 0.007722 0.000000 0.000814 0.000000
# 2 -0.011566 0.028552 -0.016627 0.000000 -0.018252 0.000000
# 3 0.007722 -0.016627 0.034435 0.000000 0.015699 0.000000
# 4 0.000000 0.000000 0.000000 0.044119 0.000000 0.003758
# 5 0.000814 -0.018252 0.015699 0.000000 0.070229 0.000000
# 6 0.000000 0.000000 0.000000 0.003758 0.000000 0.032381
#
#
# Mechanical properties :
#
#
# Convention : Reuss Voigt Hill
#
# Bulk Modulus (GPa) = 20.52064 25.30923 22.91493
# Shear Modulus (GPa) = 17.03067 21.96024 19.49546
#
# Velocity S-wave (km/s) = 3.12353 3.54690 3.34192
# Velocity P-wave (km/s) = 4.97638 5.59223 5.29327
#
# Compressibility (1/GPa) = 0.04873142
#
# Stress axis : x y z
#
# Youngs Moduli (GPa) = 37.47326 35.02378 29.04005
#
# Poissons Ratio (x) = 0.40508 -0.22424
# Poissons Ratio (y) = 0.43342 0.48284
# Poissons Ratio (z) = -0.28936 0.58233
#
# Static dielectric constant tensor:
#      x y z
#    x 3.015890 0.000000 -0.120770 
#    y 0.000000 3.106810 0.000000 
#    z -0.120770 0.000000 3.333020 
# 
# 
# High freq. dielectric constant tensor:
#      x y z
#    x 1.656150 0.000000 -0.014030 
#    y 0.000000 1.666380 0.000000 
#    z -0.014030 0.000000 1.677010 
# 
# From -- ./inp_files/17531.got.cif
#   From: 2010.06.25/outbox.cif.g09.slc.cpg/sg11_9_cif.got.tgz:17531.got - 2010.06.27 23:14:04.
