data_PCOD8072630
_publ_section_title
;
Structure prediction by ZEFSAII (Michael W. Deem and Ramdas Pophale) SiO2 
 PCOD8072630
Probable space group: P 21/M
;
_chemical_formula_sum "Si O2"
_cell_formula_units_Z 28
_cell_length_a 22.240750
_cell_length_b 11.818377
_cell_length_c 12.156887
_cell_angle_alpha 90.000000
_cell_angle_beta 153.445757
_cell_angle_gamma 90.000000
_cell_volume 1428.501688
_symmetry_space_group_name_H-M "P 21/M"
_symmetry_group_IT_number 11
_symmetry_cell_setting 'monoclinic'
loop_
_space_group_symop_operation_xyz
x,y,z
-x,1/2+y,-z
-x,-y,-z
x,1/2-y,z
loop_
_atom_site_type_symbol
_atom_site_label
_atom_site_fract_x
_atom_site_fract_y
_atom_site_fract_z
Si Si1 0.236890 0.119514 0.790712
Si Si2 0.034284 0.621212 0.750320
Si Si3 0.645205 0.579679 0.365813
Si Si4 0.488653 0.125994 0.073541
Si Si5 0.707741 0.988527 0.900280
Si Si6 0.548427 0.623107 0.449608
Si Si7 0.043649 0.118896 0.131536
O O1 0.234412 0.250000 0.753090
O O2 0.099297 0.062967 0.520471
O O3 0.365008 0.066375 0.936704
O O4 0.249722 0.106739 0.942662
O O5 0.041553 0.750000 0.722987
O O6 0.033321 0.611083 0.879777
O O7 0.164534 0.563384 0.915474
O O8 0.623878 0.444400 0.320647
O O9 0.603194 0.623930 0.415930
O O10 0.797061 0.613976 0.589110
O O11 0.546484 0.633971 0.113168
O O12 0.519835 0.250000 0.171446
O O13 0.593389 0.061881 0.771793
O O14 0.659790 0.934566 0.708416
O O15 0.527746 0.750000 0.457484
O O16 0.013591 0.250000 0.033238
O O17 0.000000 0.000000 0.000000
#
# Coordination Sequence:
#
# PCOD8072630 Si02
#       7
#     4   4   4   4   4   4   4
#     4  10  19  37  61  86 115 151 196 243 296 357
#     4  10  21  38  60  84 115 157 200 242 297 361
#     4  11  21  38  61  88 118 153 197 244 301 357
#     4  10  20  36  61  89 118 151 195 248 300 359
#     4  11  22  38  56  85 115 152 192 241 286 350
#     4  11  23  37  56  82 115 151 188 236 291 345
#     4  11  23  40  63  89 123 165 204 248 300 363
#
# _framework density 19.600957000000001
#
# number of rings (size 3 to 8) (size 9 to 14) (size 15 to 20)
#    0.000    1.429    2.857    3.429    0.000    0.571 
#    0.000    1.429    0.000    1.714    0.000    0.000 
#    0.000    0.000    0.000    0.000    0.000    0.000 
#
# Total GULP energy -346979.472049 kJ/mol
# GULP energy per Si atom -12392.124002 kJ/mol
# Density = 1.955634 g / cm^3
# Si number density = 19.600957 Si / 1000 Ang^3
#
#
#
# Elastic Constant Matrix: (Units=GPa)
#
#
# Indices 1 2 3 4 5 6 
#
# 1 105.0920 17.0491 16.0017 0.0000 6.2833 0.0000
# 2 17.0491 103.6238 28.2886 0.0000 7.7460 0.0000
# 3 16.0017 28.2886 61.2053 0.0000 -11.0762 0.0000
# 4 0.0000 0.0000 0.0000 17.8937 0.0000 -4.9391
# 5 6.2833 7.7460 -11.0762 0.0000 47.2485 0.0000
# 6 0.0000 0.0000 0.0000 -4.9391 0.0000 20.1422
#
#
#
# Elastic Compliance Matrix: (Units=1/GPa)
#
#
# Indices 1 2 3 4 5 6 
#
# 1 0.010155 -0.000823 -0.002605 0.000000 -0.001826 0.000000
# 2 -0.000823 0.011575 -0.005700 0.000000 -0.003125 0.000000
# 3 -0.002605 -0.005700 0.020767 0.000000 0.006149 0.000000
# 4 0.000000 0.000000 0.000000 0.059943 0.000000 0.014699
# 5 -0.001826 -0.003125 0.006149 0.000000 0.023361 0.000000
# 6 0.000000 0.000000 0.000000 0.014699 0.000000 0.053251
#
#
# Mechanical properties :
#
#
# Convention : Reuss Voigt Hill
#
# Bulk Modulus (GPa) = 41.25335 43.62222 42.43779
# Shear Modulus (GPa) = 24.34395 30.96231 27.65313
#
# Velocity S-wave (km/s) = 3.52799 3.97877 3.76014
# Velocity P-wave (km/s) = 6.13905 6.58870 6.36784
#
# Compressibility (1/GPa) = 0.02424045
#
# Stress axis : x y z
#
# Youngs Moduli (GPa) = 98.47531 86.38987 48.15339
#
# Poissons Ratio (x) = 0.07111 0.12544
# Poissons Ratio (y) = 0.08106 0.27449
# Poissons Ratio (z) = 0.25652 0.49245
#
# Static dielectric constant tensor:
#      x y z
#    x 3.575650 0.000000 0.038500 
#    y 0.000000 3.783560 0.000000 
#    z 0.038500 0.000000 3.594380 
# 
# 
# High freq. dielectric constant tensor:
#      x y z
#    x 1.771650 0.000000 0.003230 
#    y 0.000000 1.763220 0.000000 
#    z 0.003230 0.000000 1.758760 
# 
# From -- ./inp_files/43256.got.cif
#   From: 2010.06.25/outbox.cif.g09.slc.cpg/sg11_22_cif.got.tgz:43256.got - 2010.06.27 23:14:04.
