data_PCOD8072087
_publ_section_title
;
Structure prediction by ZEFSAII (Michael W. Deem and Ramdas Pophale) SiO2 
 PCOD8072087
Probable space group: P 21/M
;
_chemical_formula_sum "Si O2"
_cell_formula_units_Z 32
_cell_length_a 29.416502
_cell_length_b 9.047277
_cell_length_c 11.243590
_cell_angle_alpha 90.000000
_cell_angle_beta 145.620324
_cell_angle_gamma 90.000000
_cell_volume 1689.709031
_symmetry_space_group_name_H-M "P 21/M"
_symmetry_group_IT_number 11
_symmetry_cell_setting 'monoclinic'
loop_
_space_group_symop_operation_xyz
x,y,z
-x,1/2+y,-z
-x,-y,-z
x,1/2-y,z
loop_
_atom_site_type_symbol
_atom_site_label
_atom_site_fract_x
_atom_site_fract_y
_atom_site_fract_z
Si Si1 0.071234 0.077846 0.086746
Si Si2 0.486056 0.913385 0.792120
Si Si3 0.446454 0.923340 0.285539
Si Si4 0.260989 0.923967 0.871681
Si Si5 0.880203 0.923058 0.309282
Si Si6 0.234589 0.074526 0.563863
Si Si7 0.380367 0.413276 0.722287
Si Si8 0.029564 0.078654 0.733731
O O1 0.058973 0.250000 0.078298
O O2 0.154103 0.025009 0.323470
O O3 0.071470 0.036094 0.948073
O O4 0.000000 0.000000 0.000000
O O5 0.468436 0.750000 0.700628
O O6 0.528055 0.016965 0.787166
O O7 0.402043 0.984934 0.655622
O O8 0.543587 0.898702 0.028354
O O9 0.462600 0.750000 0.323619
O O10 0.500000 0.000000 0.500000
O O11 0.352808 0.960594 0.105333
O O12 0.246038 0.750000 0.832090
O O13 0.203871 0.994301 0.848924
O O14 0.238270 0.994237 0.697079
O O15 0.868592 0.750000 0.307898
O O16 0.906029 0.958109 0.229929
O O17 0.948993 0.982157 0.546671
O O18 0.241140 0.250000 0.599181
O O19 0.306640 0.016502 0.635970
O O20 0.356558 0.250000 0.623430
O O21 0.003926 0.250000 0.672879
#
# Coordination Sequence:
#
# PCOD8072087 Si02
#       8
#     4   4   4   4   4   4   4   4
#     4  10  21  36  55  81 115 148 184 227 276 329
#     4  10  19  34  58  83 112 145 183 228 280 337
#     4  11  24  41  60  82 112 148 188 234 287 343
#     4  11  23  38  58  84 114 144 184 234 283 336
#     4  10  20  35  59  85 110 149 194 231 276 331
#     4  10  20  36  58  83 112 148 191 233 276 336
#     4   9  18  33  55  83 112 145 185 230 277 329
#     4   9  19  37  57  81 115 150 188 233 278 327
#
# _framework density 18.938172000000002
#
# number of rings (size 3 to 8) (size 9 to 14) (size 15 to 20)
#    0.000    2.000    1.250    2.250    0.000    6.000 
#    2.250    0.000    0.000    0.000    0.000    0.000 
#    0.000    0.000    0.000    0.000    0.000    0.000 
#
# Total GULP energy -396855.266104 kJ/mol
# GULP energy per Si atom -12401.727066 kJ/mol
# Density = 1.889507 g / cm^3
# Si number density = 18.938172 Si / 1000 Ang^3
#
#
#
# Elastic Constant Matrix: (Units=GPa)
#
#
# Indices 1 2 3 4 5 6 
#
# 1 120.1957 59.3203 54.2757 0.0000 23.9419 0.0000
# 2 59.3203 84.6499 51.3214 0.0000 0.2849 0.0000
# 3 54.2757 51.3214 98.5551 0.0000 2.4593 0.0000
# 4 0.0000 0.0000 0.0000 25.5239 0.0000 1.7172
# 5 23.9419 0.2849 2.4593 0.0000 25.2762 0.0000
# 6 0.0000 0.0000 0.0000 1.7172 0.0000 34.9922
#
#
#
# Elastic Compliance Matrix: (Units=1/GPa)
#
#
# Indices 1 2 3 4 5 6 
#
# 1 0.019070 -0.010526 -0.004585 0.000000 -0.017499 0.000000
# 2 -0.010526 0.023085 -0.006483 0.000000 0.010340 0.000000
# 3 -0.004585 -0.006483 0.015976 0.000000 0.002861 0.000000
# 4 0.000000 0.000000 0.000000 0.039309 0.000000 -0.001929
# 5 -0.017499 0.010340 0.002861 0.000000 0.055743 0.000000
# 6 0.000000 0.000000 0.000000 -0.001929 0.000000 0.028672
#
#
# Mechanical properties :
#
#
# Convention : Reuss Voigt Hill
#
# Bulk Modulus (GPa) = 66.91013 70.35952 68.63483
# Shear Modulus (GPa) = 21.73700 26.39067 24.06383
#
# Velocity S-wave (km/s) = 3.39158 3.73703 3.56849
# Velocity P-wave (km/s) = 7.12352 7.47352 7.30062
#
# Compressibility (1/GPa) = 0.01494542
#
# Stress axis : x y z
#
# Youngs Moduli (GPa) = 52.43765 43.31845 62.59479
#
# Poissons Ratio (x) = 0.45595 0.28697
# Poissons Ratio (y) = 0.55193 0.40578
# Poissons Ratio (z) = 0.24040 0.28082
#
# Static dielectric constant tensor:
#      x y z
#    x 3.358480 0.000000 0.172250 
#    y 0.000000 3.608420 0.000000 
#    z 0.172250 0.000000 3.397430 
# 
# 
# High freq. dielectric constant tensor:
#      x y z
#    x 1.747590 0.000000 0.009470 
#    y 0.000000 1.740760 0.000000 
#    z 0.009470 0.000000 1.721150 
# 
# From -- ./inp_files/45275.got.cif
#   From: 2010.06.25/outbox.cif.g09.slc.cpg/sg11_23_cif.got.tgz:45275.got - 2010.06.27 23:14:04.
