data_PCOD8072590
_publ_section_title
;
Structure prediction by ZEFSAII (Michael W. Deem and Ramdas Pophale) SiO2 
 PCOD8072590
Probable space group: P 21/M
;
_chemical_formula_sum "Si O2"
_cell_formula_units_Z 24
_cell_length_a 14.821057
_cell_length_b 17.661110
_cell_length_c 10.277606
_cell_angle_alpha 90.000000
_cell_angle_beta 28.284814
_cell_angle_gamma 90.000000
_cell_volume 1274.777664
_symmetry_space_group_name_H-M "P 21/M"
_symmetry_group_IT_number 11
_symmetry_cell_setting 'monoclinic'
loop_
_space_group_symop_operation_xyz
x,y,z
-x,1/2+y,-z
-x,-y,-z
x,1/2-y,z
loop_
_atom_site_type_symbol
_atom_site_label
_atom_site_fract_x
_atom_site_fract_y
_atom_site_fract_z
Si Si1 0.149914 0.659837 0.050311
Si Si2 0.950440 0.839851 0.044068
Si Si3 0.390320 0.161826 0.922070
Si Si4 0.444911 0.160149 0.560614
Si Si5 0.998269 0.910736 0.505202
Si Si6 0.202688 0.661827 0.484967
O O1 0.140510 0.750000 0.078539
O O2 0.364506 0.630896 0.750938
O O3 0.020005 0.630904 0.095504
O O4 0.076065 0.620547 0.271961
O O5 0.959287 0.750000 0.031525
O O6 0.089313 0.869825 0.754184
O O7 0.736567 0.869606 0.290311
O O8 0.335052 0.250000 0.986286
O O9 0.216524 0.116873 0.204197
O O10 0.432715 0.130174 0.723838
O O11 0.573312 0.148316 0.780076
O O12 0.450067 0.250000 0.559173
O O13 0.137170 0.883132 0.442184
O O14 0.000000 0.000000 0.500000
O O15 0.156371 0.750000 0.522317
#
# Coordination Sequence:
#
# PCOD8072590 Si02
#       6
#     4   4   4   4   4   4
#     4  10  20  36  58  88 116 140 186 254 298 328
#     4   9  16  30  59  91 112 135 181 245 301 342
#     4  10  19  36  65  90 109 147 200 248 293 347
#     4   9  16  30  59  91 112 135 181 245 301 342
#     4  12  26  40  54  82 127 170 195 230 287 352
#     4  10  19  36  65  90 109 147 200 248 293 347
#
# _framework density 18.826813000000001
#
# number of rings (size 3 to 8) (size 9 to 14) (size 15 to 20)
#    0.000    2.000    3.333    1.500    0.000    2.000 
#    0.000    5.000    0.000    0.000    0.000    0.000 
#    0.000    0.000    0.000    0.000    0.000    0.000 
#
# Total GULP energy -297614.464394 kJ/mol
# GULP energy per Si atom -12400.602683 kJ/mol
# Density = 1.878396 g / cm^3
# Si number density = 18.826813 Si / 1000 Ang^3
#
#
#
# Elastic Constant Matrix: (Units=GPa)
#
#
# Indices 1 2 3 4 5 6 
#
# 1 164.3270 51.6546 99.1587 0.0000 1.8705 0.0000
# 2 51.6546 61.8921 55.4865 0.0000 3.8049 0.0000
# 3 99.1587 55.4865 174.1955 0.0000 7.5990 0.0000
# 4 0.0000 0.0000 0.0000 -6.6694 0.0000 -9.4198
# 5 1.8705 3.8049 7.5990 0.0000 39.4265 0.0000
# 6 0.0000 0.0000 0.0000 -9.4198 0.0000 2.5916
#
#
#
# Elastic Compliance Matrix: (Units=1/GPa)
#
#
# Indices 1 2 3 4 5 6 
#
# 1 0.010149 -0.004632 -0.004337 0.000000 0.000801 0.000000
# 2 -0.004632 0.024754 -0.005197 0.000000 -0.001167 0.000000
# 3 -0.004337 -0.005197 0.009918 0.000000 -0.001204 0.000000
# 4 0.000000 0.000000 0.000000 -0.024445 0.000000 -0.088851
# 5 0.000801 -0.001167 -0.001204 0.000000 0.025670 0.000000
# 6 0.000000 0.000000 0.000000 -0.088851 0.000000 0.062908
#
#
# Mechanical properties :
#
#
# Convention : Reuss Voigt Hill
#
# Bulk Modulus (GPa) = 60.64788 90.33490 75.49139
# Shear Modulus (GPa) = 35.01823 20.01074 27.51448
#
# Velocity S-wave (km/s) = 4.31747 3.26373 3.82704
# Velocity P-wave (km/s) = 7.55894 7.89232 7.72743
#
# Compressibility (1/GPa) = 0.01648862
#
# Stress axis : x y z
#
# Youngs Moduli (GPa) = 98.52949 40.39757 100.83148
#
# Poissons Ratio (x) = 0.18711 0.43731
# Poissons Ratio (y) = 0.45635 0.52407
# Poissons Ratio (z) = 0.42732 0.20997
#
# Static dielectric constant tensor:
#      x y z
#    x 3.867300 0.000000 -0.214810 
#    y 0.000000 2.969890 0.000000 
#    z -0.214810 0.000000 3.655700 
# 
# 
# High freq. dielectric constant tensor:
#      x y z
#    x 1.748470 0.000000 -0.006370 
#    y 0.000000 1.679890 0.000000 
#    z -0.006370 0.000000 1.742180 
# 
# From -- ./inp_files/22666.got.cif
#   From: 2010.06.25/outbox.cif.g09.slc.cpg/sg11_12_cif.got.tgz:22666.got - 2010.06.27 23:14:04.
