data_PCOD8072826
_publ_section_title
;
Structure prediction by ZEFSAII (Michael W. Deem and Ramdas Pophale) SiO2 
 PCOD8072826
Probable space group: P 21/M
;
_chemical_formula_sum "Si O2"
_cell_formula_units_Z 32
_cell_length_a 12.620478
_cell_length_b 8.463504
_cell_length_c 23.439553
_cell_angle_alpha 90.000000
_cell_angle_beta 135.336796
_cell_angle_gamma 90.000000
_cell_volume 1759.917868
_symmetry_space_group_name_H-M "P 21/M"
_symmetry_group_IT_number 11
_symmetry_cell_setting 'monoclinic'
loop_
_space_group_symop_operation_xyz
x,y,z
-x,1/2+y,-z
-x,-y,-z
x,1/2-y,z
loop_
_atom_site_type_symbol
_atom_site_label
_atom_site_fract_x
_atom_site_fract_y
_atom_site_fract_z
Si Si1 0.903204 0.063630 0.838442
Si Si2 0.865697 0.436066 0.485236
Si Si3 0.680126 0.434751 0.313068
Si Si4 0.344671 0.935753 0.962828
Si Si5 0.353461 0.933493 0.181678
Si Si6 0.048799 0.436883 0.656665
Si Si7 0.197412 0.435162 0.014257
Si Si8 0.931343 0.562082 0.208136
O O1 0.910660 0.250000 0.846622
O O2 0.739005 0.006143 0.797503
O O3 0.934532 0.013128 0.784721
O O4 0.035258 0.999361 0.930656
O O5 0.870881 0.250000 0.489371
O O6 0.715845 0.490642 0.392943
O O7 0.000000 0.500000 0.500000
O O8 0.901589 0.497835 0.563502
O O9 0.706501 0.250000 0.317436
O O10 0.508082 0.472943 0.233657
O O11 0.792109 0.512123 0.309971
O O12 0.350872 0.750000 0.977790
O O13 0.219924 0.973391 0.867563
O O14 0.500000 0.000000 0.000000
O O15 0.315861 0.031795 0.009595
O O16 0.393494 0.750000 0.201524
O O17 0.244326 0.963906 0.086820
O O18 0.051920 0.250000 0.659619
O O19 0.027578 0.500250 0.712899
O O20 0.197167 0.250000 0.029201
O O21 0.903716 0.750000 0.195500
#
# Coordination Sequence:
#
# PCOD8072826 Si02
#       8
#     4   4   4   4   4   4   4   4
#     4   8  17  34  53  72  96 128 167 210 252 296
#     4   8  15  29  48  71  98 130 162 198 245 297
#     4  10  20  32  47  72 106 135 163 201 250 298
#     4  11  22  35  50  70 101 137 168 201 245 294
#     4  11  21  33  51  74 100 131 169 208 250 301
#     4   9  17  31  54  78 100 127 164 205 248 303
#     4  10  20  36  54  73  96 126 168 213 256 295
#     4   9  18  34  54  75  98 126 165 210 253 296
#
# _framework density 18.182666999999999
#
# number of rings (size 3 to 8) (size 9 to 14) (size 15 to 20)
#    0.000    2.500    0.000    3.375    1.750    1.000 
#    0.000    5.625    0.000    0.750    0.000    0.000 
#    0.000    0.000    0.000    0.000    0.000    0.750 
#
# Total GULP energy -396431.427836 kJ/mol
# GULP energy per Si atom -12388.482120 kJ/mol
# Density = 1.814128 g / cm^3
# Si number density = 18.182667 Si / 1000 Ang^3
#
#
#
# Elastic Constant Matrix: (Units=GPa)
#
#
# Indices 1 2 3 4 5 6 
#
# 1 83.6545 -3.9946 50.1259 0.0000 -14.5432 0.0000
# 2 -3.9946 15.4783 8.0172 0.0000 -2.2654 0.0000
# 3 50.1259 8.0172 101.2105 0.0000 -26.8938 0.0000
# 4 0.0000 0.0000 0.0000 18.8560 0.0000 -3.6246
# 5 -14.5432 -2.2654 -26.8938 0.0000 23.6140 0.0000
# 6 0.0000 0.0000 0.0000 -3.6246 0.0000 14.2876
#
#
#
# Elastic Compliance Matrix: (Units=1/GPa)
#
#
# Indices 1 2 3 4 5 6 
#
# 1 0.018365 0.009868 -0.009493 0.000000 0.001446 0.000000
# 2 0.009868 0.072678 -0.010291 0.000000 0.001329 0.000000
# 3 -0.009493 -0.010291 0.019475 0.000000 0.015346 0.000000
# 4 0.000000 0.000000 0.000000 0.055752 0.000000 0.014144
# 5 0.001446 0.001329 0.015346 0.000000 0.060843 0.000000
# 6 0.000000 0.000000 0.000000 0.014144 0.000000 0.073579
#
#
# Mechanical properties :
#
#
# Convention : Reuss Voigt Hill
#
# Bulk Modulus (GPa) = 11.02712 34.29338 22.66025
# Shear Modulus (GPa) = 14.25509 21.09785 17.67647
#
# Velocity S-wave (km/s) = 2.80303 3.41005 3.12133
# Velocity P-wave (km/s) = 4.06863 5.86567 5.04776
#
# Compressibility (1/GPa) = 0.09068548
#
# Stress axis : x y z
#
# Youngs Moduli (GPa) = 54.45269 13.75931 51.34835
#
# Poissons Ratio (x) = -0.13578 0.48744
# Poissons Ratio (y) = -0.53734 0.52843
# Poissons Ratio (z) = 0.51691 0.14160
#
# Static dielectric constant tensor:
#      x y z
#    x 3.439000 0.000000 -0.209870 
#    y 0.000000 3.369390 0.000000 
#    z -0.209870 0.000000 3.918670 
# 
# 
# High freq. dielectric constant tensor:
#      x y z
#    x 1.689650 0.000000 -0.011980 
#    y 0.000000 1.695270 0.000000 
#    z -0.011980 0.000000 1.703890 
# 
# From -- ./inp_files/54313.got.cif
#   From: 2010.06.25/outbox.cif.g09.slc.cpg/sg11_28_cif.got.tgz:54313.got - 2010.06.27 23:14:04.
