data_PCOD8072310
_publ_section_title
;
Structure prediction by ZEFSAII (Michael W. Deem and Ramdas Pophale) SiO2 
 PCOD8072310
Probable space group: P 21/M
;
_chemical_formula_sum "Si O2"
_cell_formula_units_Z 28
_cell_length_a 21.640992
_cell_length_b 13.941786
_cell_length_c 9.844994
_cell_angle_alpha 90.000000
_cell_angle_beta 28.252364
_cell_angle_gamma 90.000000
_cell_volume 1406.044060
_symmetry_space_group_name_H-M "P 21/M"
_symmetry_group_IT_number 11
_symmetry_cell_setting 'monoclinic'
loop_
_space_group_symop_operation_xyz
x,y,z
-x,1/2+y,-z
-x,-y,-z
x,1/2-y,z
loop_
_atom_site_type_symbol
_atom_site_label
_atom_site_fract_x
_atom_site_fract_y
_atom_site_fract_z
Si Si1 0.784802 0.551123 0.417273
Si Si2 0.024917 0.951639 0.123192
Si Si3 0.093961 0.642589 0.537190
Si Si4 0.149914 0.858037 0.126598
Si Si5 0.348649 0.018147 0.794885
Si Si6 0.620561 0.640038 0.510296
Si Si7 0.348132 0.961467 0.083799
O O1 0.726574 0.627499 0.424279
O O2 0.669004 0.519200 0.743005
O O3 0.904932 0.595466 0.272078
O O4 0.843713 0.458302 0.222638
O O5 0.046249 0.886343 0.212242
O O6 0.993217 0.062749 0.221092
O O7 0.054199 0.750000 0.662369
O O8 0.072158 0.632353 0.417987
O O9 0.247022 0.627131 0.275273
O O10 0.199952 0.750000 0.006355
O O11 0.276272 0.925328 0.874226
O O12 0.500000 0.000000 0.500000
O O13 0.317223 0.107358 0.755552
O O14 0.311095 0.031759 0.026927
O O15 0.580138 0.750000 0.576556
O O16 0.494614 0.576709 0.789970
#
# Coordination Sequence:
#
# PCOD8072310 Si02
#       7
#     4   4   4   4   4   4   4
#     4  10  21  37  58  79 118 156 191 231 287 340
#     4  10  20  36  56  81 117 155 191 236 285 339
#     4   9  18  33  58  87 112 145 193 240 286 343
#     4  10  19  35  58  84 114 151 196 240 283 336
#     4   9  19  36  59  84 114 147 188 241 289 332
#     4  11  21  36  60  86 117 152 192 240 293 344
#     4   9  19  37  61  82 112 154 193 240 285 340
#
# _framework density 19.914026
#
# number of rings (size 3 to 8) (size 9 to 14) (size 15 to 20)
#    0.000    2.286    1.429    1.286    0.000    4.571 
#    0.000    7.143    0.000    0.000    0.000    0.000 
#    0.000    0.000    0.000    0.000    0.000    0.000 
#
# Total GULP energy -347022.822955 kJ/mol
# GULP energy per Si atom -12393.672248 kJ/mol
# Density = 1.986870 g / cm^3
# Si number density = 19.914026 Si / 1000 Ang^3
#
#
#
# Elastic Constant Matrix: (Units=GPa)
#
#
# Indices 1 2 3 4 5 6 
#
# 1 126.5182 37.4954 26.9024 0.0000 7.2895 0.0000
# 2 37.4954 66.0413 28.9641 0.0000 9.1157 0.0000
# 3 26.9024 28.9641 74.3322 0.0000 6.6866 0.0000
# 4 0.0000 0.0000 0.0000 23.7661 0.0000 -0.7103
# 5 7.2895 9.1157 6.6866 0.0000 26.2032 0.0000
# 6 0.0000 0.0000 0.0000 -0.7103 0.0000 17.9327
#
#
#
# Elastic Compliance Matrix: (Units=1/GPa)
#
#
# Indices 1 2 3 4 5 6 
#
# 1 0.009676 -0.004697 -0.001614 0.000000 -0.000646 0.000000
# 2 -0.004697 0.021112 -0.006124 0.000000 -0.004475 0.000000
# 3 -0.001614 -0.006124 0.016572 0.000000 -0.001649 0.000000
# 4 0.000000 0.000000 0.000000 0.042127 0.000000 0.001669
# 5 -0.000646 -0.004475 -0.001649 0.000000 0.040321 0.000000
# 6 0.000000 0.000000 0.000000 0.001669 0.000000 0.055830
#
#
# Mechanical properties :
#
#
# Convention : Reuss Voigt Hill
#
# Bulk Modulus (GPa) = 44.46215 50.40171 47.43193
# Shear Modulus (GPa) = 22.93532 25.14908 24.04220
#
# Velocity S-wave (km/s) = 3.39738 3.55756 3.47839
# Velocity P-wave (km/s) = 6.14533 6.49920 6.32474
#
# Compressibility (1/GPa) = 0.02249104
#
# Stress axis : x y z
#
# Youngs Moduli (GPa) = 103.34467 47.36574 60.34323
#
# Poissons Ratio (x) = 0.22247 0.09738
# Poissons Ratio (y) = 0.48540 0.36955
# Poissons Ratio (z) = 0.16678 0.29007
#
# Static dielectric constant tensor:
#      x y z
#    x 4.007730 0.000000 0.260640 
#    y 0.000000 3.324000 0.000000 
#    z 0.260640 0.000000 3.718470 
# 
# 
# High freq. dielectric constant tensor:
#      x y z
#    x 1.797510 0.000000 0.007440 
#    y 0.000000 1.735740 0.000000 
#    z 0.007440 0.000000 1.776520 
# 
# From -- ./inp_files/22089.got.cif
#   From: 2010.06.25/outbox.cif.g09.slc.cpg/sg11_12_cif.got.tgz:22089.got - 2010.06.27 23:14:04.
