data_PCOD8072871
_publ_section_title
;
Structure prediction by ZEFSAII (Michael W. Deem and Ramdas Pophale) SiO2 
 PCOD8072871
Probable space group: P 21/M
;
_chemical_formula_sum "Si O2"
_cell_formula_units_Z 28
_cell_length_a 14.401256
_cell_length_b 9.251714
_cell_length_c 19.840685
_cell_angle_alpha 90.000000
_cell_angle_beta 33.107664
_cell_angle_gamma 90.000000
_cell_volume 1443.916462
_symmetry_space_group_name_H-M "P 21/M"
_symmetry_group_IT_number 11
_symmetry_cell_setting 'monoclinic'
loop_
_space_group_symop_operation_xyz
x,y,z
-x,1/2+y,-z
-x,-y,-z
x,1/2-y,z
loop_
_atom_site_type_symbol
_atom_site_label
_atom_site_fract_x
_atom_site_fract_y
_atom_site_fract_z
Si Si1 0.087935 0.086542 0.789207
Si Si2 0.351107 0.582358 0.552358
Si Si3 0.240129 0.916194 0.474393
Si Si4 0.713733 0.080343 0.066619
Si Si5 0.597603 0.085110 0.766646
Si Si6 0.828246 0.915530 0.115353
Si Si7 0.954306 0.082749 0.595113
O O1 0.091073 0.250000 0.758844
O O2 0.209052 0.079027 0.782140
O O3 0.167068 0.977090 0.687426
O O4 0.893323 0.040997 0.922837
O O5 0.500000 0.500000 0.500000
O O6 0.365309 0.750000 0.562438
O O7 0.360599 0.557332 0.466000
O O8 0.182770 0.750000 0.505632
O O9 0.340453 0.959961 0.345969
O O10 0.066171 0.011118 0.586726
O O11 0.697939 0.250000 0.088378
O O12 0.557385 0.020021 0.116913
O O13 0.690926 0.997689 0.152539
O O14 0.532871 0.250000 0.805619
O O15 0.750074 0.066052 0.728567
O O16 0.845246 0.750000 0.080850
O O17 0.000000 0.000000 0.000000
O O18 0.003999 0.250000 0.558013
O O19 0.000000 0.000000 0.500000
#
# Coordination Sequence:
#
# PCOD8072871 Si02
#       7
#     4   4   4   4   4   4   4
#     4   9  20  37  52  70 102 139 176 220 264 307
#     4  11  24  39  56  78 105 141 183 222 261 311
#     4   9  20  37  54  76 108 142 175 218 269 312
#     4  10  20  32  50  78 106 136 174 216 265 316
#     4   9  18  32  52  80 111 138 166 211 269 319
#     4   9  17  30  48  69  97 132 169 213 261 307
#     4   9  17  31  53  80 108 139 173 213 265 318
#
# _framework density 19.391704000000001
#
# number of rings (size 3 to 8) (size 9 to 14) (size 15 to 20)
#    0.000    2.571    0.000    3.429    2.000    7.429 
#    0.000    0.000    0.000    0.857    0.000    0.000 
#    0.000    0.000    0.000    0.000    0.000    0.000 
#
# Total GULP energy -346996.454354 kJ/mol
# GULP energy per Si atom -12392.730513 kJ/mol
# Density = 1.934757 g / cm^3
# Si number density = 19.391704 Si / 1000 Ang^3
#
#
#
# Elastic Constant Matrix: (Units=GPa)
#
#
# Indices 1 2 3 4 5 6 
#
# 1 74.6636 40.6785 27.4843 0.0000 -22.9356 0.0000
# 2 40.6785 110.9385 40.0738 0.0000 -17.5964 0.0000
# 3 27.4843 40.0738 62.1884 0.0000 -18.4121 0.0000
# 4 0.0000 0.0000 0.0000 31.1745 0.0000 -8.2054
# 5 -22.9356 -17.5964 -18.4121 0.0000 29.2436 0.0000
# 6 0.0000 0.0000 0.0000 -8.2054 0.0000 34.0844
#
#
#
# Elastic Compliance Matrix: (Units=1/GPa)
#
#
# Indices 1 2 3 4 5 6 
#
# 1 0.020485 -0.004747 -0.002561 0.000000 0.011598 0.000000
# 2 -0.004747 0.013042 -0.006250 0.000000 0.000190 0.000000
# 3 -0.002561 -0.006250 0.024007 0.000000 0.009345 0.000000
# 4 0.000000 0.000000 0.000000 0.034248 0.000000 0.008245
# 5 0.011598 0.000190 0.009345 0.000000 0.049290 0.000000
# 6 0.000000 0.000000 0.000000 0.008245 0.000000 0.031324
#
#
# Mechanical properties :
#
#
# Convention : Reuss Voigt Hill
#
# Bulk Modulus (GPa) = 32.87558 51.58484 42.23021
# Shear Modulus (GPa) = 23.84926 28.20408 26.02667
#
# Velocity S-wave (km/s) = 3.51075 3.81785 3.66752
# Velocity P-wave (km/s) = 5.78136 6.78925 6.30547
#
# Compressibility (1/GPa) = 0.03041772
#
# Stress axis : x y z
#
# Youngs Moduli (GPa) = 48.81661 76.67280 41.65525
#
# Poissons Ratio (x) = 0.36394 0.10667
# Poissons Ratio (y) = 0.23172 0.26037
# Poissons Ratio (z) = 0.12501 0.47924
#
# Static dielectric constant tensor:
#      x y z
#    x 3.786970 0.000000 -0.269470 
#    y 0.000000 3.756710 0.000000 
#    z -0.269470 0.000000 3.354270 
# 
# 
# High freq. dielectric constant tensor:
#      x y z
#    x 1.741390 0.000000 -0.029960 
#    y 0.000000 1.763950 0.000000 
#    z -0.029960 0.000000 1.726850 
# 
# From -- ./inp_files/65360.got.cif
#   From: 2010.06.25/outbox.cif.g09.slc.cpg/sg11_33_cif.got.tgz:65360.got - 2010.06.27 23:14:04.
