data_PCOD8072693
_publ_section_title
;
Structure prediction by ZEFSAII (Michael W. Deem and Ramdas Pophale) SiO2 
 PCOD8072693
Probable space group: P 21/M
;
_chemical_formula_sum "Si O2"
_cell_formula_units_Z 28
_cell_length_a 14.899192
_cell_length_b 8.681412
_cell_length_c 11.024447
_cell_angle_alpha 90.000000
_cell_angle_beta 113.097873
_cell_angle_gamma 90.000000
_cell_volume 1311.657146
_symmetry_space_group_name_H-M "P 21/M"
_symmetry_group_IT_number 11
_symmetry_cell_setting 'monoclinic'
loop_
_space_group_symop_operation_xyz
x,y,z
-x,1/2+y,-z
-x,-y,-z
x,1/2-y,z
loop_
_atom_site_type_symbol
_atom_site_label
_atom_site_fract_x
_atom_site_fract_y
_atom_site_fract_z
Si Si1 0.413290 0.429786 0.528250
Si Si2 0.953251 0.432586 0.351659
Si Si3 0.737199 0.075021 0.709522
Si Si4 0.243857 0.430183 0.820215
Si Si5 0.442523 0.066864 0.809079
Si Si6 0.658237 0.427085 0.928032
Si Si7 0.040651 0.932444 0.147389
O O1 0.500000 0.500000 0.500000
O O2 0.427906 0.250000 0.538449
O O3 0.307090 0.469767 0.419105
O O4 0.419581 0.500116 0.664905
O O5 0.967855 0.250000 0.360012
O O6 0.838982 0.476159 0.294382
O O7 0.000000 0.500000 0.500000
O O8 0.994588 0.500485 0.247143
O O9 0.736965 0.250000 0.663490
O O10 0.668395 0.055914 0.789713
O O11 0.846469 0.021001 0.793488
O O12 0.225788 0.250000 0.788691
O O13 0.351220 0.491582 0.838816
O O14 0.252043 0.473749 0.966898
O O15 0.445333 0.250000 0.809000
O O16 0.549929 0.008443 0.908614
O O17 0.671809 0.250000 0.974563
O O18 0.022677 0.750000 0.138338
O O19 0.000000 0.000000 0.000000
#
# Coordination Sequence:
#
# PCOD8072693 Si02
#       7
#     4   4   4   4   4   4   4
#     4  11  21  37  59  87 122 164 207 253 309 372
#     4  12  27  48  70  95 129 175 224 281 341 396
#     4  10  22  39  62  91 126 163 203 254 313 376
#     4  11  23  40  63  93 125 161 210 263 315 382
#     4   9  20  37  59  87 125 165 202 250 310 372
#     4  10  19  38  62  89 129 169 202 247 308 375
#     4  11  24  44  71 104 136 172 220 275 333 397
#
# _framework density 21.347041999999998
#
# number of rings (size 3 to 8) (size 9 to 14) (size 15 to 20)
#    0.000    1.429    1.429    3.857    2.000    2.857 
#    0.000    2.857    0.000    0.000    0.000    0.000 
#    0.000    0.000    0.000    0.000    0.000    0.000 
#
# Total GULP energy -347064.649638 kJ/mol
# GULP energy per Si atom -12395.166059 kJ/mol
# Density = 2.129845 g / cm^3
# Si number density = 21.347042 Si / 1000 Ang^3
#
#
#
# Elastic Constant Matrix: (Units=GPa)
#
#
# Indices 1 2 3 4 5 6 
#
# 1 101.4939 31.7262 44.5441 0.0000 16.1327 0.0000
# 2 31.7262 84.9760 49.2989 0.0000 4.7243 0.0000
# 3 44.5441 49.2989 155.6471 0.0000 18.7102 0.0000
# 4 0.0000 0.0000 0.0000 40.1890 0.0000 5.8215
# 5 16.1327 4.7243 18.7102 0.0000 37.2702 0.0000
# 6 0.0000 0.0000 0.0000 5.8215 0.0000 29.2205
#
#
#
# Elastic Compliance Matrix: (Units=1/GPa)
#
#
# Indices 1 2 3 4 5 6 
#
# 1 0.012382 -0.003213 -0.002055 0.000000 -0.003921 0.000000
# 2 -0.003213 0.015260 -0.004096 0.000000 0.001513 0.000000
# 3 -0.002055 -0.004096 0.008663 0.000000 -0.002941 0.000000
# 4 0.000000 0.000000 0.000000 0.025622 0.000000 -0.005105
# 5 -0.003921 0.001513 -0.002941 0.000000 0.029813 0.000000
# 6 0.000000 0.000000 0.000000 -0.005105 0.000000 0.035240
#
#
# Mechanical properties :
#
#
# Convention : Reuss Voigt Hill
#
# Bulk Modulus (GPa) = 56.88621 65.91727 61.40174
# Shear Modulus (GPa) = 32.98908 35.77246 34.38077
#
# Velocity S-wave (km/s) = 3.93538 4.09804 4.01754
# Velocity P-wave (km/s) = 6.88156 7.30328 7.09555
#
# Compressibility (1/GPa) = 0.01757895
#
# Stress axis : x y z
#
# Youngs Moduli (GPa) = 80.76147 65.53275 115.42685
#
# Poissons Ratio (x) = 0.21055 0.23716
# Poissons Ratio (y) = 0.25948 0.47274
# Poissons Ratio (z) = 0.16593 0.26839
#
# Static dielectric constant tensor:
#      x y z
#    x 4.077950 0.000000 0.093340 
#    y 0.000000 3.460500 0.000000 
#    z 0.093340 0.000000 4.332860 
# 
# 
# High freq. dielectric constant tensor:
#      x y z
#    x 1.845430 0.000000 0.006810 
#    y 0.000000 1.823470 0.000000 
#    z 0.006810 0.000000 1.858840 
# 
# From -- ./inp_files/38443.got.cif
#   From: 2010.06.25/outbox.cif.g09.slc.cpg/sg11_20_cif.got.tgz:38443.got - 2010.06.27 23:14:04.
