data_PCOD8072988
_publ_section_title
;
Structure prediction by ZEFSAII (Michael W. Deem and Ramdas Pophale) SiO2 
 PCOD8072988
Probable space group: P 21/M
;
_chemical_formula_sum "Si O2"
_cell_formula_units_Z 32
_cell_length_a 22.774172
_cell_length_b 9.194263
_cell_length_c 28.153621
_cell_angle_alpha 90.000000
_cell_angle_beta 162.055594
_cell_angle_gamma 90.000000
_cell_volume 1816.256061
_symmetry_space_group_name_H-M "P 21/M"
_symmetry_group_IT_number 11
_symmetry_cell_setting 'monoclinic'
loop_
_space_group_symop_operation_xyz
x,y,z
-x,1/2+y,-z
-x,-y,-z
x,1/2-y,z
loop_
_atom_site_type_symbol
_atom_site_label
_atom_site_fract_x
_atom_site_fract_y
_atom_site_fract_z
Si Si1 0.190805 0.411945 0.887019
Si Si2 0.524322 0.411947 0.220533
Si Si3 0.485188 0.421444 0.038115
Si Si4 0.196906 0.921447 0.643981
Si Si5 0.304048 0.919984 0.359076
Si Si6 0.281324 0.587257 0.098748
Si Si7 0.024179 0.419982 0.969148
Si Si8 0.948958 0.587260 0.766386
O O1 0.104843 0.250000 0.814896
O O2 0.021042 0.519831 0.771955
O O3 0.352920 0.406726 0.051455
O O4 0.286978 0.465134 0.911779
O O5 0.554944 0.250000 0.264988
O O6 0.713809 0.465129 0.338607
O O7 0.475297 0.519822 0.226207
O O8 0.491429 0.250000 0.035057
O O9 0.662286 0.473585 0.206140
O O10 0.500000 0.500000 0.000000
O O11 0.165958 0.750000 0.622328
O O12 0.000000 0.000000 0.500000
O O13 0.340305 0.750000 0.395411
O O14 0.163466 0.947145 0.206731
O O15 0.500000 0.000000 0.500000
O O16 0.217903 0.987243 0.340932
O O17 0.324623 0.750000 0.150733
O O18 0.210024 0.487265 0.086994
O O19 0.122575 0.591840 0.936284
O O20 0.060740 0.250000 0.005634
O O21 0.000000 0.500000 0.000000
O O22 0.870911 0.750000 0.697027
#
# Coordination Sequence:
#
# PCOD8072988 Si02
#       8
#     4   4   4   4   4   4   4   4
#     4   8  14  26  43  63  89 119 151 190 234 277
#     4   8  14  26  43  63  89 119 151 190 234 277
#     4   9  18  31  47  69  96 125 157 193 234 280
#     4   9  18  31  47  69  96 125 157 193 234 280
#     4  10  20  33  50  72  98 128 159 192 233 279
#     4   9  16  26  43  68  94 119 152 194 235 275
#     4  10  20  33  50  72  98 128 159 192 233 279
#     4   9  16  26  43  68  94 119 152 194 235 275
#
# _framework density 17.618662
#
# number of rings (size 3 to 8) (size 9 to 14) (size 15 to 20)
#    0.000    3.000    0.000    3.000    0.000    6.000 
#    0.000    2.500    0.000    1.500    0.000    7.000 
#    0.000    0.000    0.000    0.000    0.000    0.000 
#
# Total GULP energy -396668.586239 kJ/mol
# GULP energy per Si atom -12395.893320 kJ/mol
# Density = 1.757856 g / cm^3
# Si number density = 17.618662 Si / 1000 Ang^3
#
#
#
# Elastic Constant Matrix: (Units=GPa)
#
#
# Indices 1 2 3 4 5 6 
#
# 1 149.1066 84.0249 48.5419 0.0000 34.1807 0.0000
# 2 84.0249 128.5892 47.2712 0.0000 25.3855 0.0000
# 3 48.5419 47.2712 58.2650 0.0000 28.5581 0.0000
# 4 0.0000 0.0000 0.0000 25.5709 0.0000 8.1528
# 5 34.1807 25.3855 28.5581 0.0000 29.4093 0.0000
# 6 0.0000 0.0000 0.0000 8.1528 0.0000 37.3775
#
#
#
# Elastic Compliance Matrix: (Units=1/GPa)
#
#
# Indices 1 2 3 4 5 6 
#
# 1 0.012352 -0.005927 -0.001819 0.000000 -0.007474 0.000000
# 2 -0.005927 0.013965 -0.007366 0.000000 0.001987 0.000000
# 3 -0.001819 -0.007366 0.039123 0.000000 -0.029518 0.000000
# 4 0.000000 0.000000 0.000000 0.042030 0.000000 -0.009168
# 5 -0.007474 0.001987 -0.029518 0.000000 0.069638 0.000000
# 6 0.000000 0.000000 0.000000 -0.009168 0.000000 0.028754
#
#
# Mechanical properties :
#
#
# Convention : Reuss Voigt Hill
#
# Bulk Modulus (GPa) = 28.39649 77.29296 52.84473
# Shear Modulus (GPa) = 20.17556 28.87973 24.52764
#
# Velocity S-wave (km/s) = 3.38764 4.05304 3.73519
# Velocity P-wave (km/s) = 5.60836 8.11591 6.97574
#
# Compressibility (1/GPa) = 0.03521562
#
# Stress axis : x y z
#
# Youngs Moduli (GPa) = 80.95757 71.60536 25.56063
#
# Poissons Ratio (x) = 0.42443 0.04649
# Poissons Ratio (y) = 0.47986 0.18829
# Poissons Ratio (z) = 0.14724 0.52747
#
# Static dielectric constant tensor:
#      x y z
#    x 3.577660 0.000000 0.414560 
#    y 0.000000 3.453190 0.000000 
#    z 0.414560 0.000000 2.977370 
# 
# 
# High freq. dielectric constant tensor:
#      x y z
#    x 1.682940 0.000000 0.033490 
#    y 0.000000 1.688710 0.000000 
#    z 0.033490 0.000000 1.634440 
# 
# From -- ./inp_files/26403.got.cif
#   From: 2010.06.25/outbox.cif.g09.slc.cpg/sg11_14_cif.got.tgz:26403.got - 2010.06.27 23:14:04.
