data_PCOD8072149
_publ_section_title
;
Structure prediction by ZEFSAII (Michael W. Deem and Ramdas Pophale) SiO2 
 PCOD8072149
Probable space group: P 21/M
;
_chemical_formula_sum "Si O2"
_cell_formula_units_Z 32
_cell_length_a 15.331205
_cell_length_b 18.476714
_cell_length_c 9.558375
_cell_angle_alpha 90.000000
_cell_angle_beta 141.792620
_cell_angle_gamma 90.000000
_cell_volume 1674.678890
_symmetry_space_group_name_H-M "P 21/M"
_symmetry_group_IT_number 11
_symmetry_cell_setting 'monoclinic'
loop_
_space_group_symop_operation_xyz
x,y,z
-x,1/2+y,-z
-x,-y,-z
x,1/2-y,z
loop_
_atom_site_type_symbol
_atom_site_label
_atom_site_fract_x
_atom_site_fract_y
_atom_site_fract_z
Si Si1 0.873974 0.570951 0.992567
Si Si2 0.844487 0.832785 0.464675
Si Si3 0.262721 0.667206 0.882521
Si Si4 0.557448 0.919261 0.551619
Si Si5 0.002821 0.165918 0.616298
Si Si6 0.705564 0.335080 0.759518
Si Si7 0.428961 0.334607 0.717943
Si Si8 0.970859 0.412891 0.089332
O O1 0.918028 0.489413 0.080511
O O2 0.966435 0.623688 0.203647
O O3 0.709416 0.585141 0.817220
O O4 0.905511 0.584423 0.869001
O O5 0.867201 0.750000 0.533187
O O6 0.688506 0.857114 0.316153
O O7 0.867096 0.845732 0.327921
O O8 0.969404 0.873304 0.700476
O O9 0.216787 0.750000 0.837989
O O10 0.141675 0.632020 0.632726
O O11 0.272001 0.637390 0.052296
O O12 0.419086 0.657271 0.013419
O O13 0.443165 0.867022 0.483433
O O14 0.579319 0.890947 0.420506
O O15 0.500000 0.000000 0.500000
O O16 0.984872 0.250000 0.632999
O O17 0.701184 0.250000 0.732545
O O18 0.840088 0.369886 0.851261
O O19 0.412746 0.250000 0.645956
#
# Coordination Sequence:
#
# PCOD8072149 Si02
#       8
#     4   4   4   4   4   4   4   4
#     4  11  25  38  56  84 121 157 185 239 302 350
#     4  10  19  35  60  85 112 147 196 246 282 338
#     4   8  15  31  54  81 109 137 179 233 281 327
#     4  11  20  36  56  81 119 154 187 237 293 339
#     4  10  21  37  58  86 117 146 180 235 299 350
#     4  10  19  34  60  86 106 144 202 247 276 330
#     4   9  18  33  59  85 105 145 203 244 275 335
#     4  11  21  39  58  82 114 154 200 238 280 345
#
# _framework density 19.108139000000001
#
# number of rings (size 3 to 8) (size 9 to 14) (size 15 to 20)
#    0.000    2.000    3.750    1.500    0.000    2.500 
#    0.000    1.250    0.000    3.000    0.000    0.000 
#    0.000    0.000    0.000    0.000    0.000    0.000 
#
# Total GULP energy -396568.229065 kJ/mol
# GULP energy per Si atom -12392.757158 kJ/mol
# Density = 1.906465 g / cm^3
# Si number density = 19.108139 Si / 1000 Ang^3
#
#
#
# Elastic Constant Matrix: (Units=GPa)
#
#
# Indices 1 2 3 4 5 6 
#
# 1 58.4489 32.6763 28.6323 0.0000 25.3022 0.0000
# 2 32.6763 94.1914 32.9049 0.0000 3.1256 0.0000
# 3 28.6323 32.9049 86.1204 0.0000 16.8645 0.0000
# 4 0.0000 0.0000 0.0000 22.0080 0.0000 4.7701
# 5 25.3022 3.1256 16.8645 0.0000 33.5083 0.0000
# 6 0.0000 0.0000 0.0000 4.7701 0.0000 22.4653
#
#
#
# Elastic Compliance Matrix: (Units=1/GPa)
#
#
# Indices 1 2 3 4 5 6 
#
# 1 0.034414 -0.010123 -0.002962 0.000000 -0.023551 0.000000
# 2 -0.010123 0.015284 -0.004096 0.000000 0.008279 0.000000
# 3 -0.002962 -0.004096 0.015141 0.000000 -0.005002 0.000000
# 4 0.000000 0.000000 0.000000 0.047630 0.000000 -0.010113
# 5 -0.023551 0.008279 -0.005002 0.000000 0.049372 0.000000
# 6 0.000000 0.000000 0.000000 -0.010113 0.000000 0.046661
#
#
# Mechanical properties :
#
#
# Convention : Reuss Voigt Hill
#
# Bulk Modulus (GPa) = 32.80969 47.46530 40.13750
# Shear Modulus (GPa) = 19.76110 25.23280 22.49695
#
# Velocity S-wave (km/s) = 3.21934 3.63785 3.43497
# Velocity P-wave (km/s) = 5.57016 6.52223 6.06491
#
# Compressibility (1/GPa) = 0.03047880
#
# Stress axis : x y z
#
# Youngs Moduli (GPa) = 29.05765 65.42620 66.04677
#
# Poissons Ratio (x) = 0.66228 0.19564
# Poissons Ratio (y) = 0.29414 0.27051
# Poissons Ratio (z) = 0.08607 0.26797
#
# Static dielectric constant tensor:
#      x y z
#    x 3.620230 0.000000 0.458940 
#    y 0.000000 3.403770 0.000000 
#    z 0.458940 0.000000 3.456680 
# 
# 
# High freq. dielectric constant tensor:
#      x y z
#    x 1.740390 0.000000 0.036850 
#    y 0.000000 1.733470 0.000000 
#    z 0.036850 0.000000 1.727890 
# 
# From -- ./inp_files/23117.got.cif
#   From: 2010.06.25/outbox.cif.g09.slc.cpg/sg11_12_cif.got.tgz:23117.got - 2010.06.27 23:14:04.
