data_PCOD8072584
_publ_section_title
;
Structure prediction by ZEFSAII (Michael W. Deem and Ramdas Pophale) SiO2 
 PCOD8072584
Probable space group: P 21/M
;
_chemical_formula_sum "Si O2"
_cell_formula_units_Z 18
_cell_length_a 15.836002
_cell_length_b 7.686701
_cell_length_c 11.865868
_cell_angle_alpha 90.000000
_cell_angle_beta 44.427678
_cell_angle_gamma 90.000000
_cell_volume 1011.086474
_symmetry_space_group_name_H-M "P 21/M"
_symmetry_group_IT_number 11
_symmetry_cell_setting 'monoclinic'
loop_
_space_group_symop_operation_xyz
x,y,z
-x,1/2+y,-z
-x,-y,-z
x,1/2-y,z
loop_
_atom_site_type_symbol
_atom_site_label
_atom_site_fract_x
_atom_site_fract_y
_atom_site_fract_z
Si Si1 0.280492 0.250000 0.990413
Si Si2 0.153291 0.945580 0.235723
Si Si3 0.723943 0.750000 0.254782
Si Si4 0.260102 0.559160 0.597742
Si Si5 0.119556 0.047922 0.511542
Si Si6 0.490265 0.750000 0.356177
O O1 0.246364 0.424105 0.088984
O O2 0.217298 0.250000 0.926342
O O3 0.426223 0.250000 0.835714
O O4 0.179696 0.750000 0.167052
O O5 0.018258 0.006957 0.331626
O O6 0.169260 0.946407 0.355545
O O7 0.768584 0.578533 0.277488
O O8 0.577831 0.750000 0.382501
O O9 0.207402 0.750000 0.682837
O O10 0.201966 0.496627 0.537901
O O11 0.404813 0.578260 0.439876
O O12 0.124873 0.250000 0.476920
#
# Coordination Sequence:
#
# PCOD8072584 Si02
#       6
#     2   4   2   4   4   2
#     4  10  22  38  54  82 120 146 184 228 276 338
#     4  10  21  37  60  85 110 151 181 227 284 337
#     4  10  20  39  57  81 112 150 188 235 271 322
#     4  10  20  35  61  86 107 144 194 233 269 327
#     4  10  19  36  64  86 109 141 192 233 275 327
#     4   8  22  37  57  83 110 148 192 225 279 324
#
# _framework density 17.802631000000002
#
# number of rings (size 3 to 8) (size 9 to 14) (size 15 to 20)
#    1.333    0.889    2.222    1.333    3.111    0.889 
#    2.000    2.222    0.000    0.000    0.000    0.000 
#    0.000    0.000    0.000    0.000    0.000    0.000 
#
# Total GULP energy -223071.421088 kJ/mol
# GULP energy per Si atom -12392.856727 kJ/mol
# Density = 1.776211 g / cm^3
# Si number density = 17.802631 Si / 1000 Ang^3
#
#
#
# Elastic Constant Matrix: (Units=GPa)
#
#
# Indices 1 2 3 4 5 6 
#
# 1 26.9648 -53.4662 -83.3499 0.0000 -7.1340 0.0000
# 2 -53.4662 31.7392 -51.2938 0.0000 -19.2479 0.0000
# 3 -83.3499 -51.2938 -62.2807 0.0000 -25.0601 0.0000
# 4 0.0000 0.0000 0.0000 12.4964 0.0000 1.9741
# 5 -7.1340 -19.2479 -25.0601 0.0000 3.7381 0.0000
# 6 0.0000 0.0000 0.0000 1.9741 0.0000 29.0100
#
#
#
# Elastic Compliance Matrix: (Units=1/GPa)
#
#
# Indices 1 2 3 4 5 6 
#
# 1 0.011635 -0.001973 -0.005083 0.000000 -0.022028 0.000000
# 2 -0.001973 0.013877 -0.009743 0.000000 0.002372 0.000000
# 3 -0.005083 -0.009743 0.006182 0.000000 -0.018422 0.000000
# 4 0.000000 0.000000 0.000000 0.080892 0.000000 -0.005505
# 5 -0.022028 0.002372 -0.018422 0.000000 0.114192 0.000000
# 6 0.000000 0.000000 0.000000 -0.005505 0.000000 0.034845
#
#
# Mechanical properties :
#
#
# Convention : Reuss Voigt Hill
#
# Bulk Modulus (GPa) = -525.48868 -42.19961 -283.84414
# Shear Modulus (GPa) = 16.97300 21.35112 19.16206
#
# Velocity S-wave (km/s) = 3.09106 3.46688 3.28435
# Velocity P-wave (km/s) = 16.82486 2.78027 12.05831
#
# Compressibility (1/GPa) = -0.00190299
#
# Stress axis : x y z
#
# Youngs Moduli (GPa) = 85.94848 72.06381 161.75817
#
# Poissons Ratio (x) = 0.14218 0.82215
# Poissons Ratio (y) = 0.16957 1.57596
# Poissons Ratio (z) = 0.43684 0.70210
#
# Static dielectric constant tensor:
#      x y z
#    x 3.211630 0.000000 0.010580 
#    y 0.000000 3.339570 0.000000 
#    z 0.010580 0.000000 2.959630 
# 
# 
# High freq. dielectric constant tensor:
#      x y z
#    x 1.686850 0.000000 0.008660 
#    y 0.000000 1.699580 0.000000 
#    z 0.008660 0.000000 1.657450 
# 
# From -- ./inp_files/36801.got.cif
#   From: 2010.06.25/outbox.cif.g09.slc.cpg/sg11_19_cif.got.tgz:36801.got - 2010.06.27 23:14:04.
