data_PCOD8072882
_publ_section_title
;
Structure prediction by ZEFSAII (Michael W. Deem and Ramdas Pophale) SiO2 
 PCOD8072882
Probable space group: P 21/M
;
_chemical_formula_sum "Si O2"
_cell_formula_units_Z 28
_cell_length_a 13.150221
_cell_length_b 8.979834
_cell_length_c 13.540004
_cell_angle_alpha 90.000000
_cell_angle_beta 119.024506
_cell_angle_gamma 90.000000
_cell_volume 1398.094075
_symmetry_space_group_name_H-M "P 21/M"
_symmetry_group_IT_number 11
_symmetry_cell_setting 'monoclinic'
loop_
_space_group_symop_operation_xyz
x,y,z
-x,1/2+y,-z
-x,-y,-z
x,1/2-y,z
loop_
_atom_site_type_symbol
_atom_site_label
_atom_site_fract_x
_atom_site_fract_y
_atom_site_fract_z
Si Si1 0.577970 0.075302 0.748558
Si Si2 0.366056 0.424528 0.526850
Si Si3 0.437155 0.073303 0.878587
Si Si4 0.025820 0.575850 0.271621
Si Si5 0.187883 0.579252 0.757139
Si Si6 0.234952 0.073180 0.272935
Si Si7 0.829162 0.083677 0.470481
O O1 0.604597 0.250000 0.757133
O O2 0.495379 0.023066 0.617691
O O3 0.514767 0.031631 0.820065
O O4 0.700411 0.986673 0.795323
O O5 0.362654 0.250000 0.522926
O O6 0.318117 0.486638 0.400716
O O7 0.280149 0.474667 0.573223
O O8 0.426687 0.250000 0.886611
O O9 0.309606 0.004793 0.810424
O O10 0.500000 0.000000 0.000000
O O11 0.015156 0.750000 0.243286
O O12 0.108438 0.500521 0.227785
O O13 0.072243 0.541989 0.403801
O O14 0.898535 0.500516 0.205775
O O15 0.207669 0.750000 0.799519
O O16 0.125582 0.571360 0.620236
O O17 0.220426 0.250000 0.262189
O O18 0.784216 0.250000 0.472106
#
# Coordination Sequence:
#
# PCOD8072882 Si02
#       7
#     4   4   4   4   4   4   4
#     4  10  20  35  55  78 109 147 185 229 281 334
#     4   9  17  30  48  75 111 149 187 227 271 327
#     4  11  24  42  63  86 111 143 186 238 291 338
#     4  10  20  34  52  78 115 156 192 226 271 330
#     4  11  21  35  56  82 112 146 188 236 283 333
#     4  10  20  32  51  80 114 151 189 228 270 325
#     4   9  18  30  48  77 112 150 189 229 272 326
#
# _framework density 20.027265
#
# number of rings (size 3 to 8) (size 9 to 14) (size 15 to 20)
#    0.000    2.000    1.429    2.571    0.000    3.429 
#    0.000    0.000    0.000    0.857    0.000    0.000 
#    0.000    0.000    0.000    0.000    0.000    0.000 
#
# Total GULP energy -347067.682775 kJ/mol
# GULP energy per Si atom -12395.274385 kJ/mol
# Density = 1.998168 g / cm^3
# Si number density = 20.027265 Si / 1000 Ang^3
#
#
#
# Elastic Constant Matrix: (Units=GPa)
#
#
# Indices 1 2 3 4 5 6 
#
# 1 174.4937 69.8303 31.9863 0.0000 4.0498 0.0000
# 2 69.8303 71.3127 27.8878 0.0000 0.6360 0.0000
# 3 31.9863 27.8878 36.7373 0.0000 2.2428 0.0000
# 4 0.0000 0.0000 0.0000 22.1747 0.0000 3.1107
# 5 4.0498 0.6360 2.2428 0.0000 9.4751 0.0000
# 6 0.0000 0.0000 0.0000 3.1107 0.0000 41.2687
#
#
#
# Elastic Compliance Matrix: (Units=1/GPa)
#
#
# Indices 1 2 3 4 5 6 
#
# 1 0.009592 -0.008780 -0.001493 0.000000 -0.003157 0.000000
# 2 -0.008780 0.028029 -0.013948 0.000000 0.005173 0.000000
# 3 -0.001493 -0.013948 0.039585 0.000000 -0.007795 0.000000
# 4 0.000000 0.000000 0.000000 0.045578 0.000000 -0.003436
# 5 -0.003157 0.005173 -0.007795 0.000000 0.108387 0.000000
# 6 0.000000 0.000000 0.000000 -0.003436 0.000000 0.024490
#
#
# Mechanical properties :
#
#
# Convention : Reuss Voigt Hill
#
# Bulk Modulus (GPa) = 34.76842 60.21697 47.49269
# Shear Modulus (GPa) = 15.93925 24.77300 20.35613
#
# Velocity S-wave (km/s) = 2.82419 3.52087 3.19159
# Velocity P-wave (km/s) = 5.29462 6.83092 6.11124
#
# Compressibility (1/GPa) = 0.02876174
#
# Stress axis : x y z
#
# Youngs Moduli (GPa) = 104.25872 35.67767 25.26220
#
# Poissons Ratio (x) = 0.31325 0.03773
# Poissons Ratio (y) = 0.91539 0.35236
# Poissons Ratio (z) = 0.15570 0.49764
#
# Static dielectric constant tensor:
#      x y z
#    x 3.676960 0.000000 0.020820 
#    y 0.000000 3.604900 0.000000 
#    z 0.020820 0.000000 3.454640 
# 
# 
# High freq. dielectric constant tensor:
#      x y z
#    x 1.793230 0.000000 0.003330 
#    y 0.000000 1.786570 0.000000 
#    z 0.003330 0.000000 1.733980 
# 
# From -- ./inp_files/37417.got.cif
#   From: 2010.06.25/outbox.cif.g09.slc.cpg/sg11_19_cif.got.tgz:37417.got - 2010.06.27 23:14:04.
