data_PCOD8072666
_publ_section_title
;
Structure prediction by ZEFSAII (Michael W. Deem and Ramdas Pophale) SiO2 
 PCOD8072666
Probable space group: P 21/M
;
_chemical_formula_sum "Si O2"
_cell_formula_units_Z 32
_cell_length_a 11.594767
_cell_length_b 17.774233
_cell_length_c 13.845827
_cell_angle_alpha 90.000000
_cell_angle_beta 33.296701
_cell_angle_gamma 90.000000
_cell_volume 1566.477351
_symmetry_space_group_name_H-M "P 21/M"
_symmetry_group_IT_number 11
_symmetry_cell_setting 'monoclinic'
loop_
_space_group_symop_operation_xyz
x,y,z
-x,1/2+y,-z
-x,-y,-z
x,1/2-y,z
loop_
_atom_site_type_symbol
_atom_site_label
_atom_site_fract_x
_atom_site_fract_y
_atom_site_fract_z
Si Si1 0.475506 0.837387 0.865189
Si Si2 0.140531 0.163343 0.534906
Si Si3 0.043065 0.072212 0.146488
Si Si4 0.980047 0.401388 0.840180
Si Si5 0.759660 0.163420 0.664622
Si Si6 0.223343 0.163301 0.843550
Si Si7 0.419898 0.080062 0.021339
Si Si8 0.298335 0.663476 0.514057
O O1 0.417536 0.750000 0.914656
O O2 0.627196 0.852937 0.668258
O O3 0.591694 0.862100 0.881658
O O4 0.265744 0.885099 0.999534
O O5 0.115480 0.250000 0.583064
O O6 0.103041 0.112569 0.654421
O O7 0.974027 0.142293 0.568752
O O8 0.188676 0.072316 0.139262
O O9 0.825319 0.113418 0.322401
O O10 0.989544 0.987721 0.151634
O O11 0.156527 0.113045 0.979617
O O12 0.071078 0.348626 0.859650
O O13 0.695456 0.250000 0.727656
O O14 0.792268 0.147815 0.529045
O O15 0.573970 0.110879 0.831484
O O16 0.214470 0.250000 0.882408
O O17 0.458360 0.140619 0.648969
O O18 0.500000 0.000000 0.000000
O O19 0.265440 0.750000 0.566314
#
# Coordination Sequence:
#
# PCOD8072666 Si02
#       8
#     4   4   4   4   4   4   4   4
#     4  11  23  40  66  95 129 175 219 262 317 387
#     4  10  21  38  62  92 125 168 216 261 313 375
#     4  12  25  42  67  96 132 169 208 265 333 384
#     4  12  25  43  64  94 133 171 211 268 323 382
#     4  10  19  37  63  89 123 167 209 259 319 375
#     4  11  25  45  68  92 124 170 223 271 311 372
#     4  12  22  38  62  97 133 168 206 260 326 388
#     4  10  23  42  66  95 124 163 216 267 317 381
#
# _framework density 20.428000999999998
#
# number of rings (size 3 to 8) (size 9 to 14) (size 15 to 20)
#    0.000    1.000    3.750    3.000    0.000    6.000 
#    0.000    3.750    0.000    0.000    0.000    0.000 
#    0.000    0.000    0.000    0.000    0.000    0.000 
#
# Total GULP energy -397026.065997 kJ/mol
# GULP energy per Si atom -12407.064562 kJ/mol
# Density = 2.038151 g / cm^3
# Si number density = 20.428001 Si / 1000 Ang^3
#
#
#
# Elastic Constant Matrix: (Units=GPa)
#
#
# Indices 1 2 3 4 5 6 
#
# 1 81.6407 8.0284 14.7350 0.0000 -4.6494 0.0000
# 2 8.0284 91.7599 48.9709 0.0000 4.3530 0.0000
# 3 14.7350 48.9709 110.2372 0.0000 -0.0146 0.0000
# 4 0.0000 0.0000 0.0000 5.8570 0.0000 4.0312
# 5 -4.6494 4.3530 -0.0146 0.0000 10.6969 0.0000
# 6 0.0000 0.0000 0.0000 4.0312 0.0000 31.0584
#
#
#
# Elastic Compliance Matrix: (Units=1/GPa)
#
#
# Indices 1 2 3 4 5 6 
#
# 1 0.012906 -0.000639 -0.001441 0.000000 0.005867 0.000000
# 2 -0.000639 0.014688 -0.006440 0.000000 -0.006264 0.000000
# 3 -0.001441 -0.006440 0.012125 0.000000 0.002011 0.000000
# 4 0.000000 0.000000 0.000000 0.187485 0.000000 -0.024334
# 5 0.005867 -0.006264 0.002011 0.000000 0.098587 0.000000
# 6 0.000000 0.000000 0.000000 -0.024334 0.000000 0.035356
#
#
# Mechanical properties :
#
#
# Convention : Reuss Voigt Hill
#
# Bulk Modulus (GPa) = 44.09212 47.45625 45.77419
# Shear Modulus (GPa) = 12.96188 23.64936 18.30562
#
# Velocity S-wave (km/s) = 2.52169 3.40618 2.99675
# Velocity P-wave (km/s) = 5.48722 6.22502 5.86773
#
# Compressibility (1/GPa) = 0.02267979
#
# Stress axis : x y z
#
# Youngs Moduli (GPa) = 77.48487 68.08195 82.47285
#
# Poissons Ratio (x) = 0.04348 0.11881
# Poissons Ratio (y) = 0.04949 0.53116
# Poissons Ratio (z) = 0.11162 0.43848
#
# Static dielectric constant tensor:
#      x y z
#    x 3.774300 0.000000 -0.057480 
#    y 0.000000 3.688890 0.000000 
#    z -0.057480 0.000000 3.661630 
# 
# 
# High freq. dielectric constant tensor:
#      x y z
#    x 1.798230 0.000000 -0.000760 
#    y 0.000000 1.801360 0.000000 
#    z -0.000760 0.000000 1.805150 
# 
# From -- ./inp_files/50640.got.cif
#   From: 2010.06.25/outbox.cif.g09.slc.cpg/sg11_26_cif.got.tgz:50640.got - 2010.06.27 23:14:04.
