data_PCOD8072741
_publ_section_title
;
Structure prediction by ZEFSAII (Michael W. Deem and Ramdas Pophale) SiO2 
 PCOD8072741
Probable space group: P 21/M
;
_chemical_formula_sum "Si O2"
_cell_formula_units_Z 22
_cell_length_a 12.222783
_cell_length_b 19.712371
_cell_length_c 7.712192
_cell_angle_alpha 90.000000
_cell_angle_beta 34.021844
_cell_angle_gamma 90.000000
_cell_volume 1039.665957
_symmetry_space_group_name_H-M "P 21/M"
_symmetry_group_IT_number 11
_symmetry_cell_setting 'monoclinic'
loop_
_space_group_symop_operation_xyz
x,y,z
-x,1/2+y,-z
-x,-y,-z
x,1/2-y,z
loop_
_atom_site_type_symbol
_atom_site_label
_atom_site_fract_x
_atom_site_fract_y
_atom_site_fract_z
Si Si1 0.062445 0.395923 0.760874
Si Si2 0.082045 0.750000 0.035798
Si Si3 0.979262 0.750000 0.778507
Si Si4 0.317119 0.750000 0.057224
Si Si5 0.813034 0.487149 0.860262
Si Si6 0.515941 0.612455 0.773868
Si Si7 0.762873 0.616289 0.129993
O O1 0.281948 0.411441 0.396229
O O2 0.063217 0.408028 0.967871
O O3 0.035939 0.316590 0.753686
O O4 0.886467 0.440628 0.921789
O O5 0.275907 0.750000 0.902668
O O6 0.105571 0.750000 0.793602
O O7 0.119832 0.750000 0.428853
O O8 0.832757 0.686197 0.952697
O O9 0.438756 0.683412 0.950932
O O10 0.000000 0.500000 0.500000
O O11 0.643680 0.446127 0.984218
O O12 0.725962 0.558748 0.035474
O O13 0.564109 0.624262 0.504823
#
# Coordination Sequence:
#
# PCOD8072741 Si02
#       7
#     4   2   2   2   4   4   4
#     4   9  21  39  62  82 123 162 200 251 312 364
#     4  10  19  40  65  89 121 165 200 253 318 368
#     4  10  21  40  65  95 117 164 205 267 309 370
#     4  12  20  38  70  92 126 163 211 256 319 372
#     4  12  22  37  60  94 120 165 211 254 311 374
#     4  10  22  38  64  86 122 170 200 254 317 367
#     4   9  21  40  61  83 125 157 209 250 311 373
#
# _framework density 21.160641999999999
#
# number of rings (size 3 to 8) (size 9 to 14) (size 15 to 20)
#    1.091    0.727    1.818    3.273    0.000    0.727 
#    0.000    1.818    4.000    0.000    0.000    0.000 
#    0.000    0.000    0.000    0.000    0.000    0.000 
#
# Total GULP energy -272539.426086 kJ/mol
# GULP energy per Si atom -12388.155731 kJ/mol
# Density = 2.111248 g / cm^3
# Si number density = 21.160642 Si / 1000 Ang^3
#
#
#
# Elastic Constant Matrix: (Units=GPa)
#
#
# Indices 1 2 3 4 5 6 
#
# 1 32.9255 -0.8738 -21.1949 0.0000 -9.1061 0.0000
# 2 -0.8738 104.5496 16.7117 0.0000 1.6821 0.0000
# 3 -21.1949 16.7117 86.8922 0.0000 2.1015 0.0000
# 4 0.0000 0.0000 0.0000 42.0546 0.0000 -3.7926
# 5 -9.1061 1.6821 2.1015 0.0000 28.9133 0.0000
# 6 0.0000 0.0000 0.0000 -3.7926 0.0000 6.6435
#
#
#
# Elastic Compliance Matrix: (Units=1/GPa)
#
#
# Indices 1 2 3 4 5 6 
#
# 1 0.039888 -0.001411 0.009712 0.000000 0.011939 0.000000
# 2 -0.001411 0.009924 -0.002232 0.000000 -0.000860 0.000000
# 3 0.009712 -0.002232 0.014255 0.000000 0.002153 0.000000
# 4 0.000000 0.000000 0.000000 0.025069 0.000000 0.014311
# 5 0.011939 -0.000860 0.002153 0.000000 0.038240 0.000000
# 6 0.000000 0.000000 0.000000 0.014311 0.000000 0.158693
#
#
# Mechanical properties :
#
#
# Convention : Reuss Voigt Hill
#
# Bulk Modulus (GPa) = 13.12258 23.73926 18.43092
# Shear Modulus (GPa) = 16.70388 30.83723 23.77055
#
# Velocity S-wave (km/s) = 2.81265 3.82159 3.35526
# Velocity P-wave (km/s) = 4.09424 5.54217 4.87230
#
# Compressibility (1/GPa) = 0.07620455
#
# Stress axis : x y z
#
# Youngs Moduli (GPa) = 25.07017 100.76938 70.15207
#
# Poissons Ratio (x) = 0.14220 -0.68133
# Poissons Ratio (y) = 0.03538 0.15658
# Poissons Ratio (z) = -0.24349 0.22492
#
# Static dielectric constant tensor:
#      x y z
#    x 3.691720 0.000000 -0.090660 
#    y 0.000000 3.894090 0.000000 
#    z -0.090660 0.000000 3.576790 
# 
# 
# High freq. dielectric constant tensor:
#      x y z
#    x 1.801530 0.000000 -0.008990 
#    y 0.000000 1.844210 0.000000 
#    z -0.008990 0.000000 1.811710 
# 
# From -- ./inp_files/22676.got.cif
#   From: 2010.06.25/outbox.cif.g09.slc.cpg/sg11_12_cif.got.tgz:22676.got - 2010.06.27 23:14:04.
