data_PCOD8072322
_publ_section_title
;
Structure prediction by ZEFSAII (Michael W. Deem and Ramdas Pophale) SiO2 
 PCOD8072322
Probable space group: P 21/M
;
_chemical_formula_sum "Si O2"
_cell_formula_units_Z 24
_cell_length_a 15.367001
_cell_length_b 8.392075
_cell_length_c 17.330650
_cell_angle_alpha 90.000000
_cell_angle_beta 149.284532
_cell_angle_gamma 90.000000
_cell_volume 1141.571156
_symmetry_space_group_name_H-M "P 21/M"
_symmetry_group_IT_number 11
_symmetry_cell_setting 'monoclinic'
loop_
_space_group_symop_operation_xyz
x,y,z
-x,1/2+y,-z
-x,-y,-z
x,1/2-y,z
loop_
_atom_site_type_symbol
_atom_site_label
_atom_site_fract_x
_atom_site_fract_y
_atom_site_fract_z
Si Si1 0.840468 0.062650 0.331806
Si Si2 0.690580 0.566435 0.866504
Si Si3 0.378439 0.063453 0.711864
Si Si4 0.955234 0.935870 0.818815
Si Si5 0.934950 0.938056 0.630350
Si Si6 0.360048 0.564376 0.335331
O O1 0.817343 0.250000 0.325516
O O2 0.886670 0.019296 0.277823
O O3 0.673394 0.974569 0.238460
O O4 0.000000 0.000000 0.500000
O O5 0.744123 0.750000 0.911710
O O6 0.551799 0.528813 0.826049
O O7 0.611169 0.525788 0.723056
O O8 0.855306 0.457822 0.005325
O O9 0.409782 0.250000 0.725543
O O10 0.230254 0.997201 0.541719
O O11 0.906853 0.750000 0.784730
O O12 0.940926 0.007409 0.721228
O O13 0.828312 0.033255 0.776241
O O14 0.917116 0.750000 0.620377
O O15 0.500000 0.500000 0.500000
O O16 0.388819 0.750000 0.343034
#
# Coordination Sequence:
#
# PCOD8072322 Si02
#       6
#     4   4   4   4   4   4
#     4   9  16  30  52  82 115 150 191 240 290 342
#     4  12  25  41  59  85 118 155 194 239 292 350
#     4  10  19  35  58  86 115 150 194 244 295 348
#     4  11  22  40  62  86 117 156 195 239 291 347
#     4   8  17  33  57  84 113 147 190 238 287 339
#     4  12  25  43  65  91 118 150 191 238 286 342
#
# _framework density 21.023655999999999
#
# number of rings (size 3 to 8) (size 9 to 14) (size 15 to 20)
#    0.000    1.667    0.000    7.000    0.000    1.333 
#    0.000   10.000    0.000    0.000    0.000    0.000 
#    0.000    0.000    0.000    0.000    0.000    0.000 
#
# Total GULP energy -297595.538368 kJ/mol
# GULP energy per Si atom -12399.814099 kJ/mol
# Density = 2.097581 g / cm^3
# Si number density = 21.023656 Si / 1000 Ang^3
#
#
#
# Elastic Constant Matrix: (Units=GPa)
#
#
# Indices 1 2 3 4 5 6 
#
# 1 104.1058 19.9995 9.7546 0.0000 27.1545 0.0000
# 2 19.9995 68.3048 4.9585 0.0000 0.0761 0.0000
# 3 9.7546 4.9585 62.1888 0.0000 18.6495 0.0000
# 4 0.0000 0.0000 0.0000 27.3844 0.0000 6.4903
# 5 27.1545 0.0761 18.6495 0.0000 30.9728 0.0000
# 6 0.0000 0.0000 0.0000 6.4903 0.0000 34.2881
#
#
#
# Elastic Compliance Matrix: (Units=1/GPa)
#
#
# Indices 1 2 3 4 5 6 
#
# 1 0.013660 -0.004142 0.002167 0.000000 -0.013271 0.000000
# 2 -0.004142 0.015999 -0.002078 0.000000 0.004844 0.000000
# 3 0.002167 -0.002078 0.020104 0.000000 -0.014000 0.000000
# 4 0.000000 0.000000 0.000000 0.038232 0.000000 -0.007237
# 5 -0.013271 0.004844 -0.014000 0.000000 0.052339 0.000000
# 6 0.000000 0.000000 0.000000 -0.007237 0.000000 0.030534
#
#
# Mechanical properties :
#
#
# Convention : Reuss Voigt Hill
#
# Bulk Modulus (GPa) = 24.00603 33.78051 28.89327
# Shear Modulus (GPa) = 25.92551 31.85485 28.89018
#
# Velocity S-wave (km/s) = 3.51545 3.89677 3.71101
# Velocity P-wave (km/s) = 5.28405 6.02902 5.66879
#
# Compressibility (1/GPa) = 0.04165620
#
# Stress axis : x y z
#
# Youngs Moduli (GPa) = 73.20802 62.50569 49.74052
#
# Poissons Ratio (x) = 0.25890 -0.10780
# Poissons Ratio (y) = 0.30323 0.10338
# Poissons Ratio (z) = -0.15867 0.12991
#
# Static dielectric constant tensor:
#      x y z
#    x 4.473610 0.000000 0.032850 
#    y 0.000000 3.684200 0.000000 
#    z 0.032850 0.000000 3.576720 
# 
# 
# High freq. dielectric constant tensor:
#      x y z
#    x 1.846800 0.000000 0.010830 
#    y 0.000000 1.815500 0.000000 
#    z 0.010830 0.000000 1.797200 
# 
# From -- ./inp_files/60195.got.cif
#   From: 2010.06.25/outbox.cif.g09.slc.cpg/sg11_31_cif.got.tgz:60195.got - 2010.06.27 23:14:04.
