data_PCOD8072879
_publ_section_title
;
Structure prediction by ZEFSAII (Michael W. Deem and Ramdas Pophale) SiO2 
 PCOD8072879
Probable space group: P 21/M
;
_chemical_formula_sum "Si O2"
_cell_formula_units_Z 32
_cell_length_a 18.123584
_cell_length_b 13.596809
_cell_length_c 25.118764
_cell_angle_alpha 90.000000
_cell_angle_beta 16.991252
_cell_angle_gamma 90.000000
_cell_volume 1808.829958
_symmetry_space_group_name_H-M "P 21/M"
_symmetry_group_IT_number 11
_symmetry_cell_setting 'monoclinic'
loop_
_space_group_symop_operation_xyz
x,y,z
-x,1/2+y,-z
-x,-y,-z
x,1/2-y,z
loop_
_atom_site_type_symbol
_atom_site_label
_atom_site_fract_x
_atom_site_fract_y
_atom_site_fract_z
Si Si1 0.908247 0.946882 0.394808
Si Si2 0.337190 0.861442 0.165683
Si Si3 0.106456 0.992089 0.054555
Si Si4 0.104327 0.141789 0.223133
Si Si5 0.624666 0.364169 0.216290
Si Si6 0.292377 0.861475 0.719024
Si Si7 0.620563 0.859540 0.070272
Si Si8 0.874095 0.637587 0.305701
O O1 0.645640 0.916677 0.602473
O O2 0.965151 0.882973 0.303035
O O3 0.131374 0.933385 0.283245
O O4 0.903977 0.062334 0.382500
O O5 0.243034 0.750000 0.222213
O O6 0.372687 0.882567 0.204884
O O7 0.612945 0.875601 0.947515
O O8 0.025770 0.930077 0.161075
O O9 0.181893 0.917497 0.956269
O O10 0.881324 0.061574 0.191057
O O11 0.344050 0.060804 0.907361
O O12 0.003296 0.250000 0.309296
O O13 0.132609 0.136393 0.139154
O O14 0.595275 0.250000 0.220771
O O15 0.737200 0.375224 0.197433
O O16 0.216529 0.750000 0.755437
O O17 0.577636 0.883896 0.504872
O O18 0.597209 0.750000 0.111249
O O19 0.936658 0.750000 0.249129
#
# Coordination Sequence:
#
# PCOD8072879 Si02
#       8
#     4   4   4   4   4   4   4   4
#     4  11  17  33  55  74 101 145 171 200 257 307
#     4   8  15  28  50  77 104 133 171 210 250 298
#     4  12  19  34  54  75 100 141 165 205 261 305
#     4   8  16  29  47  76 105 126 165 219 249 282
#     4  10  23  37  51  75 106 134 170 210 249 303
#     4   9  20  37  55  74  96 129 170 211 252 308
#     4   8  17  31  49  78 104 129 169 213 252 297
#     4  10  20  32  51  80 103 124 171 219 252 295
#
# _framework density 17.690995000000001
#
# number of rings (size 3 to 8) (size 9 to 14) (size 15 to 20)
#    0.750    1.750    1.250    3.750    0.000    0.000 
#    0.000    1.875    0.000    3.750    0.000    0.000 
#    0.000    0.000    0.000    0.000    0.000    0.000 
#
# Total GULP energy -396580.253747 kJ/mol
# GULP energy per Si atom -12393.132930 kJ/mol
# Density = 1.765073 g / cm^3
# Si number density = 17.690995 Si / 1000 Ang^3
#
#
#
# Elastic Constant Matrix: (Units=GPa)
#
#
# Indices 1 2 3 4 5 6 
#
# 1 56.5572 25.2200 10.8462 0.0000 -9.5659 0.0000
# 2 25.2200 90.3521 15.1450 0.0000 -8.1220 0.0000
# 3 10.8462 15.1450 28.4054 0.0000 0.9774 0.0000
# 4 0.0000 0.0000 0.0000 22.0235 0.0000 -1.9280
# 5 -9.5659 -8.1220 0.9774 0.0000 19.1729 0.0000
# 6 0.0000 0.0000 0.0000 -1.9280 0.0000 27.0378
#
#
#
# Elastic Compliance Matrix: (Units=1/GPa)
#
#
# Indices 1 2 3 4 5 6 
#
# 1 0.022521 -0.004296 -0.006645 0.000000 0.009755 0.000000
# 2 -0.004296 0.013579 -0.005734 0.000000 0.003901 0.000000
# 3 -0.006645 -0.005734 0.041069 0.000000 -0.007838 0.000000
# 4 0.000000 0.000000 0.000000 0.045691 0.000000 0.003258
# 5 0.009755 0.003901 -0.007838 0.000000 0.059076 0.000000
# 6 0.000000 0.000000 0.000000 0.003258 0.000000 0.037218
#
#
# Mechanical properties :
#
#
# Convention : Reuss Voigt Hill
#
# Bulk Modulus (GPa) = 22.82061 30.85968 26.84014
# Shear Modulus (GPa) = 18.71901 21.92040 20.31971
#
# Velocity S-wave (km/s) = 3.25639 3.52386 3.39276
# Velocity P-wave (km/s) = 5.20253 5.83424 5.52742
#
# Compressibility (1/GPa) = 0.04382003
#
# Stress axis : x y z
#
# Youngs Moduli (GPa) = 44.40305 73.64510 24.34952
#
# Poissons Ratio (x) = 0.31635 0.16180
# Poissons Ratio (y) = 0.19074 0.13961
# Poissons Ratio (z) = 0.29505 0.42227
#
# Static dielectric constant tensor:
#      x y z
#    x 3.137670 0.000000 -0.048760 
#    y 0.000000 3.336910 0.000000 
#    z -0.048760 0.000000 2.874400 
# 
# 
# High freq. dielectric constant tensor:
#      x y z
#    x 1.677240 0.000000 -0.009790 
#    y 0.000000 1.697990 0.000000 
#    z -0.009790 0.000000 1.643510 
# 
# From -- ./inp_files/69637.got.cif
#   From: 2010.06.25/outbox.cif.g09.slc.cpg/sg11_35_cif.got.tgz:69637.got - 2010.06.27 23:14:04.
