data_PCOD8072577
_publ_section_title
;
Structure prediction by ZEFSAII (Michael W. Deem and Ramdas Pophale) SiO2 
 PCOD8072577
Probable space group: P 21/M
;
_chemical_formula_sum "Si O2"
_cell_formula_units_Z 32
_cell_length_a 11.618424
_cell_length_b 13.564467
_cell_length_c 15.431366
_cell_angle_alpha 90.000000
_cell_angle_beta 40.342234
_cell_angle_gamma 90.000000
_cell_volume 1574.326028
_symmetry_space_group_name_H-M "P 21/M"
_symmetry_group_IT_number 11
_symmetry_cell_setting 'monoclinic'
loop_
_space_group_symop_operation_xyz
x,y,z
-x,1/2+y,-z
-x,-y,-z
x,1/2-y,z
loop_
_atom_site_type_symbol
_atom_site_label
_atom_site_fract_x
_atom_site_fract_y
_atom_site_fract_z
Si Si1 0.853001 0.861106 0.077720
Si Si2 0.479486 0.565058 0.292558
Si Si3 0.712838 0.360886 0.942189
Si Si4 0.752959 0.136380 0.726449
Si Si5 0.007451 0.497416 0.851956
Si Si6 0.481210 0.359436 0.234670
Si Si7 0.854449 0.639727 0.473087
Si Si8 0.680789 0.009133 0.449385
O O1 0.925570 0.750000 0.039780
O O2 0.638988 0.857938 0.198027
O O3 0.912887 0.917619 0.128585
O O4 0.923375 0.910894 0.950115
O O5 0.354511 0.572909 0.280912
O O6 0.561716 0.451817 0.243975
O O7 0.360811 0.583470 0.446831
O O8 0.791296 0.250000 0.909125
O O9 0.656366 0.376003 0.874824
O O10 0.860289 0.441775 0.880078
O O11 0.537224 0.373733 0.102411
O O12 0.754739 0.250000 0.694715
O O13 0.953586 0.092156 0.616814
O O14 0.161469 0.545264 0.703785
O O15 0.547835 0.250000 0.229239
O O16 0.267269 0.364656 0.370123
O O17 0.892160 0.750000 0.420058
O O18 0.749098 0.592398 0.452965
O O19 0.500000 0.000000 0.500000
#
# Coordination Sequence:
#
# PCOD8072577 Si02
#       8
#     4   4   4   4   4   4   4   4
#     4  11  24  41  64  91 125 164 197 247 318 374
#     4  11  22  40  61  87 128 164 196 251 315 369
#     4  10  19  36  62  91 117 157 213 257 293 353
#     4  10  21  37  59  89 121 163 211 251 301 369
#     4  11  22  42  64  90 122 158 207 258 299 366
#     4   9  19  35  57  87 118 152 202 256 299 348
#     4   9  19  36  59  87 121 160 208 255 300 360
#     4  11  22  39  61  92 123 156 205 253 308 366
#
# _framework density 20.326159000000001
#
# number of rings (size 3 to 8) (size 9 to 14) (size 15 to 20)
#    0.000    1.750    3.750    0.750    0.000    3.000 
#    0.000    1.875    0.000    0.000    0.000    0.000 
#    0.000    0.000    0.000    0.000    0.000    0.000 
#
# Total GULP energy -396565.876345 kJ/mol
# GULP energy per Si atom -12392.683636 kJ/mol
# Density = 2.027990 g / cm^3
# Si number density = 20.326159 Si / 1000 Ang^3
#
#
#
# Elastic Constant Matrix: (Units=GPa)
#
#
# Indices 1 2 3 4 5 6 
#
# 1 96.6337 28.1020 26.8421 0.0000 8.3082 0.0000
# 2 28.1020 75.7248 36.0021 0.0000 1.3060 0.0000
# 3 26.8421 36.0021 149.9347 0.0000 19.8104 0.0000
# 4 0.0000 0.0000 0.0000 17.4328 0.0000 -0.0015
# 5 8.3082 1.3060 19.8104 0.0000 26.0878 0.0000
# 6 0.0000 0.0000 0.0000 -0.0015 0.0000 19.2808
#
#
#
# Elastic Compliance Matrix: (Units=1/GPa)
#
#
# Indices 1 2 3 4 5 6 
#
# 1 0.011997 -0.004029 -0.000780 0.000000 -0.003026 0.000000
# 2 -0.004029 0.016374 -0.003637 0.000000 0.003225 0.000000
# 3 -0.000780 -0.003637 0.008476 0.000000 -0.006006 0.000000
# 4 0.000000 0.000000 0.000000 0.057363 0.000000 0.000004
# 5 -0.003026 0.003225 -0.006006 0.000000 0.043695 0.000000
# 6 0.000000 0.000000 0.000000 0.000004 0.000000 0.051865
#
#
# Mechanical properties :
#
#
# Convention : Reuss Voigt Hill
#
# Bulk Modulus (GPa) = 50.11199 56.02061 53.06630
# Shear Modulus (GPa) = 23.43961 27.98343 25.71152
#
# Velocity S-wave (km/s) = 3.39953 3.71444 3.56047
# Velocity P-wave (km/s) = 6.33376 6.78357 6.56252
#
# Compressibility (1/GPa) = 0.01995530
#
# Stress axis : x y z
#
# Youngs Moduli (GPa) = 83.35426 61.07175 117.97963
#
# Poissons Ratio (x) = 0.24605 0.09208
# Poissons Ratio (y) = 0.33583 0.42904
# Poissons Ratio (z) = 0.06506 0.22209
#
# Static dielectric constant tensor:
#      x y z
#    x 3.407780 0.000000 0.032500 
#    y 0.000000 3.673180 0.000000 
#    z 0.032500 0.000000 4.181870 
# 
# 
# High freq. dielectric constant tensor:
#      x y z
#    x 1.767940 0.000000 0.002950 
#    y 0.000000 1.779400 0.000000 
#    z 0.002950 0.000000 1.818420 
# 
# From -- ./inp_files/50356.got.cif
#   From: 2010.06.25/outbox.cif.g09.slc.cpg/sg11_26_cif.got.tgz:50356.got - 2010.06.27 23:14:04.
