data_PCOD8072142
_publ_section_title
;
Structure prediction by ZEFSAII (Michael W. Deem and Ramdas Pophale) SiO2 
 PCOD8072142
Probable space group: P 21/M
;
_chemical_formula_sum "Si O2"
_cell_formula_units_Z 24
_cell_length_a 14.749523
_cell_length_b 8.442831
_cell_length_c 14.802408
_cell_angle_alpha 90.000000
_cell_angle_beta 39.959180
_cell_angle_gamma 90.000000
_cell_volume 1183.850689
_symmetry_space_group_name_H-M "P 21/M"
_symmetry_group_IT_number 11
_symmetry_cell_setting 'monoclinic'
loop_
_space_group_symop_operation_xyz
x,y,z
-x,1/2+y,-z
-x,-y,-z
x,1/2-y,z
loop_
_atom_site_type_symbol
_atom_site_label
_atom_site_fract_x
_atom_site_fract_y
_atom_site_fract_z
Si Si1 0.400764 0.568639 0.707326
Si Si2 0.080761 0.934834 0.619095
Si Si3 0.318048 0.567273 0.576417
Si Si4 0.287630 0.433472 0.316270
Si Si5 0.217378 0.567319 0.179746
Si Si6 0.588297 0.930934 0.115940
O O1 0.380513 0.750000 0.750477
O O2 0.306739 0.523821 0.691390
O O3 0.565409 0.541084 0.560037
O O4 0.350807 0.464145 0.830405
O O5 0.061090 0.750000 0.614207
O O6 0.168627 0.965161 0.643563
O O7 0.154142 0.013961 0.476956
O O8 0.930962 0.016506 0.749989
O O9 0.365421 0.750000 0.529052
O O10 0.321457 0.250000 0.306760
O O11 0.250758 0.460136 0.240339
O O12 0.421455 0.536633 0.243937
O O13 0.215449 0.750000 0.210417
O O14 0.338269 0.542844 0.013172
O O15 0.618295 0.750000 0.067173
#
# Coordination Sequence:
#
# PCOD8072142 Si02
#       6
#     4   4   4   4   4   4
#     4  10  19  34  59  91 121 154 198 246 295 352
#     4  11  22  40  63  91 124 160 200 246 297 353
#     4   9  19  35  59  89 122 156 196 245 295 349
#     4  12  24  41  64  91 119 157 203 249 296 355
#     4  12  26  43  61  86 121 161 201 249 302 359
#     4  12  24  41  62  89 122 159 200 249 302 357
#
# _framework density 20.272826999999999
#
# number of rings (size 3 to 8) (size 9 to 14) (size 15 to 20)
#    0.000    1.000    1.667    6.500    0.000    1.333 
#    0.000    0.833    0.000    0.000    0.000    0.000 
#    0.000    0.000    0.000    0.000    0.000    0.000 
#
# Total GULP energy -297764.823026 kJ/mol
# GULP energy per Si atom -12406.867626 kJ/mol
# Density = 2.022668 g / cm^3
# Si number density = 20.272827 Si / 1000 Ang^3
#
#
#
# Elastic Constant Matrix: (Units=GPa)
#
#
# Indices 1 2 3 4 5 6 
#
# 1 95.1976 20.7201 31.0278 0.0000 16.9264 0.0000
# 2 20.7201 87.0722 19.3875 0.0000 1.5205 0.0000
# 3 31.0278 19.3875 47.4281 0.0000 -3.3493 0.0000
# 4 0.0000 0.0000 0.0000 31.7096 0.0000 -1.0174
# 5 16.9264 1.5205 -3.3493 0.0000 20.2518 0.0000
# 6 0.0000 0.0000 0.0000 -1.0174 0.0000 29.6738
#
#
#
# Elastic Compliance Matrix: (Units=1/GPa)
#
#
# Indices 1 2 3 4 5 6 
#
# 1 0.017767 -0.001191 -0.012323 0.000000 -0.016798 0.000000
# 2 -0.001191 0.012781 -0.004496 0.000000 -0.000708 0.000000
# 3 -0.012323 -0.004496 0.032110 0.000000 0.015947 0.000000
# 4 0.000000 0.000000 0.000000 0.031571 0.000000 0.001082
# 5 -0.016798 -0.000708 0.015947 0.000000 0.066108 0.000000
# 6 0.000000 0.000000 0.000000 0.001082 0.000000 0.033737
#
#
# Mechanical properties :
#
#
# Convention : Reuss Voigt Hill
#
# Bulk Modulus (GPa) = 37.53760 41.32985 39.43372
# Shear Modulus (GPa) = 20.92290 26.89788 23.91039
#
# Velocity S-wave (km/s) = 3.21606 3.64647 3.43801
# Velocity P-wave (km/s) = 5.68746 6.17738 5.93748
#
# Compressibility (1/GPa) = 0.02663996
#
# Stress axis : x y z
#
# Youngs Moduli (GPa) = 56.28512 78.23828 31.14290
#
# Poissons Ratio (x) = 0.09316 0.38376
# Poissons Ratio (y) = 0.06702 0.14001
# Poissons Ratio (z) = 0.69358 0.35174
#
# Static dielectric constant tensor:
#      x y z
#    x 3.871150 0.000000 0.131040 
#    y 0.000000 3.711040 0.000000 
#    z 0.131040 0.000000 3.444850 
# 
# 
# High freq. dielectric constant tensor:
#      x y z
#    x 1.803200 0.000000 0.014200 
#    y 0.000000 1.802160 0.000000 
#    z 0.014200 0.000000 1.772630 
# 
# From -- ./inp_files/51499.got.cif
#   From: 2010.06.25/outbox.cif.g09.slc.cpg/sg11_26_cif.got.tgz:51499.got - 2010.06.27 23:14:04.
