data_PCOD8072511
_publ_section_title
;
Structure prediction by ZEFSAII (Michael W. Deem and Ramdas Pophale) SiO2 
 PCOD8072511
Probable space group: P 21/M
;
_chemical_formula_sum "Si O2"
_cell_formula_units_Z 32
_cell_length_a 21.285474
_cell_length_b 13.851171
_cell_length_c 17.433439
_cell_angle_alpha 90.000000
_cell_angle_beta 17.353301
_cell_angle_gamma 90.000000
_cell_volume 1533.035370
_symmetry_space_group_name_H-M "P 21/M"
_symmetry_group_IT_number 11
_symmetry_cell_setting 'monoclinic'
loop_
_space_group_symop_operation_xyz
x,y,z
-x,1/2+y,-z
-x,-y,-z
x,1/2-y,z
loop_
_atom_site_type_symbol
_atom_site_label
_atom_site_fract_x
_atom_site_fract_y
_atom_site_fract_z
Si Si1 0.301798 0.479204 0.178552
Si Si2 0.832486 0.360268 0.330922
Si Si3 0.337865 0.948219 0.612498
Si Si4 0.911687 0.139293 0.664514
Si Si5 0.800606 0.939705 0.000505
Si Si6 0.401638 0.363348 0.910273
Si Si7 0.800349 0.354232 0.963604
Si Si8 0.477931 0.144967 0.465278
O O1 0.207844 0.583360 0.264269
O O2 0.363618 0.419287 0.032288
O O3 0.133283 0.415093 0.422218
O O4 0.500000 0.500000 0.000000
O O5 0.802882 0.250000 0.342625
O O6 0.837339 0.417538 0.244508
O O7 0.045537 0.373974 0.129323
O O8 0.633682 0.394477 0.612449
O O9 0.332411 0.882699 0.695717
O O10 0.299163 0.061669 0.678127
O O11 0.574361 0.939032 0.304083
O O12 0.948836 0.250000 0.594914
O O13 0.773603 0.136106 0.903209
O O14 0.775102 0.894632 0.945585
O O15 0.906621 0.047351 0.871607
O O16 0.383203 0.250000 0.947055
O O17 0.917131 0.250000 0.845572
O O18 0.571006 0.349967 0.270711
O O19 0.381537 0.250000 0.599487
#
# Coordination Sequence:
#
# PCOD8072511 Si02
#       8
#     4   4   4   4   4   4   4   4
#     4  11  24  39  63  91 118 153 196 245 301 356
#     4  10  21  34  56  85 114 150 190 236 289 343
#     4   9  19  35  55  84 116 151 189 241 285 335
#     4  10  22  41  62  88 121 157 197 243 296 354
#     4  10  19  36  60  82 113 151 193 235 287 342
#     4  10  21  37  56  83 116 147 188 236 286 347
#     4   9  18  35  59  83 111 153 194 230 280 341
#     4   9  17  33  58  83 115 156 192 232 287 339
#
# _framework density 20.873621
#
# number of rings (size 3 to 8) (size 9 to 14) (size 15 to 20)
#    0.000    2.250    1.250    1.125    1.750    2.500 
#    0.000    7.500    0.000    3.750    0.000    0.000 
#    0.000    0.000    0.000    0.000    0.000    0.000 
#
# Total GULP energy -396537.494708 kJ/mol
# GULP energy per Si atom -12391.796710 kJ/mol
# Density = 2.082611 g / cm^3
# Si number density = 20.873621 Si / 1000 Ang^3
#
#
#
# Elastic Constant Matrix: (Units=GPa)
#
#
# Indices 1 2 3 4 5 6 
#
# 1 121.2678 40.1321 38.7141 0.0000 -12.9642 0.0000
# 2 40.1321 132.2758 28.2561 0.0000 -0.7268 0.0000
# 3 38.7141 28.2561 48.7228 0.0000 -15.4246 0.0000
# 4 0.0000 0.0000 0.0000 18.9217 0.0000 2.1985
# 5 -12.9642 -0.7268 -15.4246 0.0000 32.6750 0.0000
# 6 0.0000 0.0000 0.0000 2.1985 0.0000 28.0843
#
#
#
# Elastic Compliance Matrix: (Units=1/GPa)
#
#
# Indices 1 2 3 4 5 6 
#
# 1 0.011407 -0.001799 -0.007760 0.000000 0.000823 0.000000
# 2 -0.001799 0.009097 -0.004713 0.000000 -0.002736 0.000000
# 3 -0.007760 -0.004713 0.033408 0.000000 0.012587 0.000000
# 4 0.000000 0.000000 0.000000 0.053335 0.000000 -0.004175
# 5 0.000823 -0.002736 0.012587 0.000000 0.036812 0.000000
# 6 0.000000 0.000000 0.000000 -0.004175 0.000000 0.035934
#
#
# Mechanical properties :
#
#
# Convention : Reuss Voigt Hill
#
# Bulk Modulus (GPa) = 39.41805 57.38568 48.40187
# Shear Modulus (GPa) = 23.04230 28.94714 25.99472
#
# Velocity S-wave (km/s) = 3.32610 3.72799 3.53276
# Velocity P-wave (km/s) = 5.80308 6.78839 6.31498
#
# Compressibility (1/GPa) = 0.02536909
#
# Stress axis : x y z
#
# Youngs Moduli (GPa) = 87.66758 109.92184 29.93274
#
# Poissons Ratio (x) = 0.19770 0.23228
# Poissons Ratio (y) = 0.15768 0.14107
# Poissons Ratio (z) = 0.68031 0.51806
#
# Static dielectric constant tensor:
#      x y z
#    x 3.918170 0.000000 0.242070 
#    y 0.000000 4.307170 0.000000 
#    z 0.242070 0.000000 3.491320 
# 
# 
# High freq. dielectric constant tensor:
#      x y z
#    x 1.813500 0.000000 0.028010 
#    y 0.000000 1.842680 0.000000 
#    z 0.028010 0.000000 1.781120 
# 
# From -- ./inp_files/61603.got.cif
#   From: 2010.06.25/outbox.cif.g09.slc.cpg/sg11_31_cif.got.tgz:61603.got - 2010.06.27 23:14:04.
