data_PCOD8072714
_publ_section_title
;
Structure prediction by ZEFSAII (Michael W. Deem and Ramdas Pophale) SiO2 
 PCOD8072714
Probable space group: P 21/M
;
_chemical_formula_sum "Si O2"
_cell_formula_units_Z 16
_cell_length_a 12.069054
_cell_length_b 10.909599
_cell_length_c 12.069304
_cell_angle_alpha 90.000000
_cell_angle_beta 154.762126
_cell_angle_gamma 90.000000
_cell_volume 677.576496
_symmetry_space_group_name_H-M "P 21/M"
_symmetry_group_IT_number 11
_symmetry_cell_setting 'monoclinic'
loop_
_space_group_symop_operation_xyz
x,y,z
-x,1/2+y,-z
-x,-y,-z
x,1/2-y,z
loop_
_atom_site_type_symbol
_atom_site_label
_atom_site_fract_x
_atom_site_fract_y
_atom_site_fract_z
Si Si1 0.287341 0.010331 0.712591
Si Si2 0.626769 0.750000 0.354392
Si Si3 0.054913 0.113196 0.954608
Si Si4 0.395283 0.610046 0.595501
Si Si5 0.949643 0.250000 0.069912
O O1 0.322596 0.133967 0.676171
O O2 0.330769 0.898536 0.667104
O O3 0.000000 0.000000 0.500000
O O4 0.500000 0.000000 0.000000
O O5 0.824443 0.750000 0.635496
O O6 0.331485 0.750000 0.129409
O O7 0.084950 0.250000 0.929411
O O8 0.828443 0.044247 0.680606
O O9 0.982596 0.127167 0.020712
O O10 0.329756 0.044172 0.183921
O O11 0.413889 0.750000 0.573080
#
# Coordination Sequence:
#
# PCOD8072714 Si02
#       5
#     4   2   4   4   2
#     4  12  28  45  67  96 128 181 226 276 335 372
#     4  12  26  46  65  96 139 168 216 278 330 406
#     4   8  17  34  65  95 128 163 204 253 311 391
#     4  10  19  38  66  93 125 163 221 263 306 385
#     4  10  20  42  69  96 141 168 206 268 342 394
#
# _framework density 23.613569999999999
#
# number of rings (size 3 to 8) (size 9 to 14) (size 15 to 20)
#    0.750    1.000    0.000    4.500    3.500    0.000 
#    0.000    7.500    0.000    0.000    0.000    0.000 
#    0.000    0.000    0.000    0.000    0.000    0.000 
#
# Total GULP energy -198326.988943 kJ/mol
# GULP energy per Si atom -12395.436809 kJ/mol
# Density = 2.355982 g / cm^3
# Si number density = 23.613570 Si / 1000 Ang^3
#
#
#
# Elastic Constant Matrix: (Units=GPa)
#
#
# Indices 1 2 3 4 5 6 
#
# 1 161.8282 24.1423 89.5440 0.0000 12.0675 0.0000
# 2 24.1423 18.5958 14.0067 0.0000 -2.1723 0.0000
# 3 89.5440 14.0067 253.1165 0.0000 3.0100 0.0000
# 4 0.0000 0.0000 0.0000 15.7993 0.0000 -5.8124
# 5 12.0675 -2.1723 3.0100 0.0000 69.4408 0.0000
# 6 0.0000 0.0000 0.0000 -5.8124 0.0000 74.1927
#
#
#
# Elastic Compliance Matrix: (Units=1/GPa)
#
#
# Indices 1 2 3 4 5 6 
#
# 1 0.009359 -0.010317 -0.002718 0.000000 -0.001831 0.000000
# 2 -0.010317 0.067737 -0.000145 0.000000 0.003918 0.000000
# 3 -0.002718 -0.000145 0.004917 0.000000 0.000255 0.000000
# 4 0.000000 0.000000 0.000000 0.065172 0.000000 0.005106
# 5 -0.001831 0.003918 0.000255 0.000000 0.014831 0.000000
# 6 0.000000 0.000000 0.000000 0.005106 0.000000 0.013878
#
#
# Mechanical properties :
#
#
# Convention : Reuss Voigt Hill
#
# Bulk Modulus (GPa) = 17.96860 76.54738 47.25799
# Shear Modulus (GPa) = 22.64417 52.27637 37.46027
#
# Velocity S-wave (km/s) = 3.10005 4.71024 3.98727
# Velocity P-wave (km/s) = 4.52103 7.87838 6.42295
#
# Compressibility (1/GPa) = 0.05565265
#
# Stress axis : x y z
#
# Youngs Moduli (GPa) = 106.84633 14.76292 203.36031
#
# Poissons Ratio (x) = 0.15231 0.55279
# Poissons Ratio (y) = 1.10236 0.02950
# Poissons Ratio (z) = 0.29044 0.00214
#
# Static dielectric constant tensor:
#      x y z
#    x 4.244390 0.000000 0.114780 
#    y 0.000000 4.091410 0.000000 
#    z 0.114780 0.000000 4.979990 
# 
# 
# High freq. dielectric constant tensor:
#      x y z
#    x 1.937840 0.000000 0.004960 
#    y 0.000000 1.930560 0.000000 
#    z 0.004960 0.000000 1.966410 
# 
# From -- ./inp_files/35784.got.cif
#   From: 2010.06.25/outbox.cif.g09.slc.cpg/sg11_18_cif.got.tgz:35784.got - 2010.06.27 23:14:04.
