data_PCOD8072968
_publ_section_title
;
Structure prediction by ZEFSAII (Michael W. Deem and Ramdas Pophale) SiO2 
 PCOD8072968
Probable space group: P 21/M
;
_chemical_formula_sum "Si O2"
_cell_formula_units_Z 32
_cell_length_a 15.683030
_cell_length_b 8.813578
_cell_length_c 14.455804
_cell_angle_alpha 90.000000
_cell_angle_beta 61.890131
_cell_angle_gamma 90.000000
_cell_volume 1762.445008
_symmetry_space_group_name_H-M "P 21/M"
_symmetry_group_IT_number 11
_symmetry_cell_setting 'monoclinic'
loop_
_space_group_symop_operation_xyz
x,y,z
-x,1/2+y,-z
-x,-y,-z
x,1/2-y,z
loop_
_atom_site_type_symbol
_atom_site_label
_atom_site_fract_x
_atom_site_fract_y
_atom_site_fract_z
Si Si1 0.659600 0.570278 0.269706
Si Si2 0.103910 0.426241 0.555397
Si Si3 0.443403 0.572732 0.382123
Si Si4 0.902256 0.573730 0.652910
Si Si5 0.265980 0.924506 0.152327
Si Si6 0.348604 0.924295 0.917150
Si Si7 0.451990 0.573384 0.169446
Si Si8 0.268204 0.570149 0.590801
O O1 0.666366 0.750000 0.271677
O O2 0.550982 0.509137 0.347669
O O3 0.688402 0.520375 0.151487
O O4 0.733320 0.496744 0.304921
O O5 0.116512 0.250000 0.571662
O O6 0.129982 0.463325 0.435561
O O7 0.172622 0.521683 0.586401
O O8 0.994646 0.474503 0.633096
O O9 0.444771 0.750000 0.399232
O O10 0.414540 0.535463 0.291666
O O11 0.362374 0.500167 0.490195
O O12 0.928733 0.750000 0.649623
O O13 0.816987 0.531729 0.766177
O O14 0.244780 0.750000 0.190712
O O15 0.368284 0.976239 0.142485
O O16 0.271114 0.945061 0.039127
O O17 0.357019 0.750000 0.882925
O O18 0.452497 0.978054 0.901828
O O19 0.479168 0.750000 0.146616
O O20 0.271050 0.750000 0.593920
#
# Coordination Sequence:
#
# PCOD8072968 Si02
#       8
#     4   4   4   4   4   4   4   4
#     4  10  20  35  51  70 101 140 178 215 257 301
#     4  10  21  37  55  78 108 137 165 203 253 306
#     4   8  16  29  47  72 102 135 169 206 249 298
#     4  10  21  36  56  81 106 134 169 207 249 302
#     4  10  20  33  52  76 104 137 172 213 259 306
#     4  10  20  33  49  73 103 137 177 217 257 299
#     4   9  17  31  49  72 104 140 173 206 252 305
#     4  11  20  32  53  78 103 134 173 214 255 303
#
# _framework density 18.156596
#
# number of rings (size 3 to 8) (size 9 to 14) (size 15 to 20)
#    0.000    2.250    0.000    4.125    0.000    4.000 
#    0.000    6.875    0.000    0.750    0.000    0.000 
#    0.000    0.000    0.000    0.000    0.000    0.000 
#
# Total GULP energy -396851.020071 kJ/mol
# GULP energy per Si atom -12401.594377 kJ/mol
# Density = 1.811527 g / cm^3
# Si number density = 18.156596 Si / 1000 Ang^3
#
#
#
# Elastic Constant Matrix: (Units=GPa)
#
#
# Indices 1 2 3 4 5 6 
#
# 1 88.2029 36.0490 45.9358 0.0000 16.7200 0.0000
# 2 36.0490 72.4397 35.6863 0.0000 4.6942 0.0000
# 3 45.9358 35.6863 90.1959 0.0000 4.0345 0.0000
# 4 0.0000 0.0000 0.0000 27.5491 0.0000 -0.1425
# 5 16.7200 4.6942 4.0345 0.0000 21.2002 0.0000
# 6 0.0000 0.0000 0.0000 -0.1425 0.0000 30.0883
#
#
#
# Elastic Compliance Matrix: (Units=1/GPa)
#
#
# Indices 1 2 3 4 5 6 
#
# 1 0.019877 -0.005398 -0.007403 0.000000 -0.013072 0.000000
# 2 -0.005398 0.018748 -0.004713 0.000000 0.001003 0.000000
# 3 -0.007403 -0.004713 0.016555 0.000000 0.003732 0.000000
# 4 0.000000 0.000000 0.000000 0.036300 0.000000 0.000172
# 5 -0.013072 0.001003 0.003732 0.000000 0.056547 0.000000
# 6 0.000000 0.000000 0.000000 0.000172 0.000000 0.033236
#
#
# Mechanical properties :
#
#
# Convention : Reuss Voigt Hill
#
# Bulk Modulus (GPa) = 49.62294 54.02008 51.82151
# Shear Modulus (GPa) = 22.42070 24.64533 23.53302
#
# Velocity S-wave (km/s) = 3.51786 3.68826 3.60406
# Velocity P-wave (km/s) = 6.62497 6.92492 6.77661
#
# Compressibility (1/GPa) = 0.02015197
#
# Stress axis : x y z
#
# Youngs Moduli (GPa) = 50.30949 53.33984 60.40415
#
# Poissons Ratio (x) = 0.28791 0.44716
# Poissons Ratio (y) = 0.27155 0.28471
# Poissons Ratio (z) = 0.37243 0.25142
#
# Static dielectric constant tensor:
#      x y z
#    x 3.238010 0.000000 0.093390 
#    y 0.000000 3.243190 0.000000 
#    z 0.093390 0.000000 3.322220 
# 
# 
# High freq. dielectric constant tensor:
#      x y z
#    x 1.687610 0.000000 0.012480 
#    y 0.000000 1.702050 0.000000 
#    z 0.012480 0.000000 1.696540 
# 
# From -- ./inp_files/51663.got.cif
#   From: 2010.06.25/outbox.cif.g09.slc.cpg/sg11_26_cif.got.tgz:51663.got - 2010.06.27 23:14:04.
