data_PCOD8072330
_publ_section_title
;
Structure prediction by ZEFSAII (Michael W. Deem and Ramdas Pophale) SiO2 
 PCOD8072330
Probable space group: P 21/M
;
_chemical_formula_sum "Si O2"
_cell_formula_units_Z 32
_cell_length_a 11.710507
_cell_length_b 19.535198
_cell_length_c 9.007740
_cell_angle_alpha 90.000000
_cell_angle_beta 128.574770
_cell_angle_gamma 90.000000
_cell_volume 1611.025122
_symmetry_space_group_name_H-M "P 21/M"
_symmetry_group_IT_number 11
_symmetry_cell_setting 'monoclinic'
loop_
_space_group_symop_operation_xyz
x,y,z
-x,1/2+y,-z
-x,-y,-z
x,1/2-y,z
loop_
_atom_site_type_symbol
_atom_site_label
_atom_site_fract_x
_atom_site_fract_y
_atom_site_fract_z
Si Si1 0.721639 0.170665 0.334675
Si Si2 0.781522 0.588789 0.054674
Si Si3 0.580256 0.089244 0.478941
Si Si4 0.998486 0.918989 0.474922
Si Si5 0.213535 0.324577 0.529104
Si Si6 0.701265 0.674021 0.727664
Si Si7 0.395090 0.526725 0.200710
Si Si8 0.470157 0.127062 0.920982
O O1 0.772540 0.250000 0.394679
O O2 0.677755 0.139702 0.458949
O O3 0.849696 0.120755 0.379298
O O4 0.588078 0.170826 0.109581
O O5 0.644663 0.597522 0.054425
O O6 0.937948 0.592023 0.260086
O O7 0.793999 0.648539 0.943353
O O8 0.751676 0.515700 0.954578
O O9 0.433768 0.125740 0.409181
O O10 0.655657 0.070961 0.696995
O O11 0.536301 0.020729 0.352955
O O12 0.883980 0.886915 0.496066
O O13 0.000000 0.000000 0.500000
O O14 0.153098 0.250000 0.531909
O O15 0.204066 0.328015 0.344271
O O16 0.379912 0.329325 0.726153
O O17 0.645876 0.750000 0.719294
O O18 0.440372 0.569172 0.093116
#
# Coordination Sequence:
#
# PCOD8072330 Si02
#       8
#     4   4   4   4   4   4   4   4
#     4  12  25  41  60  91 131 166 201 255 320 374
#     4  10  22  37  61  91 117 160 207 258 302 360
#     4  10  21  34  60  91 128 159 193 254 309 364
#     4  11  26  43  64  87 123 166 211 257 308 367
#     4  10  22  40  64  91 122 162 206 252 303 371
#     4  10  19  37  63  90 120 158 205 252 300 363
#     4  10  19  35  58  94 123 154 203 253 307 351
#     4  11  20  35  64  92 123 158 203 256 303 369
#
# _framework density 19.863129000000001
#
# number of rings (size 3 to 8) (size 9 to 14) (size 15 to 20)
#    0.000    1.500    3.750    2.250    3.500    2.500 
#    0.000    3.750    0.000    0.000    0.000    0.000 
#    0.000    0.000    0.000    0.000    0.000    0.000 
#
# Total GULP energy -396647.874408 kJ/mol
# GULP energy per Si atom -12395.246075 kJ/mol
# Density = 1.981792 g / cm^3
# Si number density = 19.863129 Si / 1000 Ang^3
#
#
#
# Elastic Constant Matrix: (Units=GPa)
#
#
# Indices 1 2 3 4 5 6 
#
# 1 61.5724 41.5460 35.1235 0.0000 -5.4012 0.0000
# 2 41.5460 127.9918 22.8314 0.0000 -13.0361 0.0000
# 3 35.1235 22.8314 89.0428 0.0000 -17.5593 0.0000
# 4 0.0000 0.0000 0.0000 20.1301 0.0000 -4.8804
# 5 -5.4012 -13.0361 -17.5593 0.0000 32.5707 0.0000
# 6 0.0000 0.0000 0.0000 -4.8804 0.0000 32.6733
#
#
#
# Elastic Compliance Matrix: (Units=1/GPa)
#
#
# Indices 1 2 3 4 5 6 
#
# 1 0.025946 -0.007154 -0.009082 0.000000 -0.003457 0.000000
# 2 -0.007154 0.010331 0.000844 0.000000 0.003404 0.000000
# 3 -0.009082 0.000844 0.016075 0.000000 0.007498 0.000000
# 4 0.000000 0.000000 0.000000 0.051543 0.000000 0.007699
# 5 -0.003457 0.003404 0.007498 0.000000 0.035534 0.000000
# 6 0.000000 0.000000 0.000000 0.007699 0.000000 0.031756
#
#
# Mechanical properties :
#
#
# Convention : Reuss Voigt Hill
#
# Bulk Modulus (GPa) = 46.36342 53.06764 49.71553
# Shear Modulus (GPa) = 23.90537 29.01523 26.46030
#
# Velocity S-wave (km/s) = 3.47292 3.82613 3.65380
# Velocity P-wave (km/s) = 6.28281 6.80395 6.54856
#
# Compressibility (1/GPa) = 0.02156873
#
# Stress axis : x y z
#
# Youngs Moduli (GPa) = 38.54218 96.79349 62.20794
#
# Poissons Ratio (x) = 0.69246 0.56496
# Poissons Ratio (y) = 0.27573 -0.05251
# Poissons Ratio (z) = 0.35003 -0.08171
#
# Static dielectric constant tensor:
#      x y z
#    x 3.331080 0.000000 -0.176190 
#    y 0.000000 3.898120 0.000000 
#    z -0.176190 0.000000 3.868240 
# 
# 
# High freq. dielectric constant tensor:
#      x y z
#    x 1.750870 0.000000 -0.022770 
#    y 0.000000 1.785750 0.000000 
#    z -0.022770 0.000000 1.777160 
# 
# From -- ./inp_files/19409.got.cif
#   From: 2010.06.25/outbox.cif.g09.slc.cpg/sg11_10_cif.got.tgz:19409.got - 2010.06.27 23:14:04.
