data_PCOD8072925
_publ_section_title
;
Structure prediction by ZEFSAII (Michael W. Deem and Ramdas Pophale) SiO2 
 PCOD8072925
Probable space group: P 21/M
;
_chemical_formula_sum "Si O2"
_cell_formula_units_Z 28
_cell_length_a 18.558796
_cell_length_b 9.171885
_cell_length_c 26.022984
_cell_angle_alpha 90.000000
_cell_angle_beta 22.478096
_cell_angle_gamma 90.000000
_cell_volume 1693.573723
_symmetry_space_group_name_H-M "P 21/M"
_symmetry_group_IT_number 11
_symmetry_cell_setting 'monoclinic'
loop_
_space_group_symop_operation_xyz
x,y,z
-x,1/2+y,-z
-x,-y,-z
x,1/2-y,z
loop_
_atom_site_type_symbol
_atom_site_label
_atom_site_fract_x
_atom_site_fract_y
_atom_site_fract_z
Si Si1 0.744807 0.917743 0.208769
Si Si2 0.216603 0.911164 0.193052
Si Si3 0.467602 0.424098 0.467337
Si Si4 0.950672 0.923373 0.283060
Si Si5 0.741421 0.423908 0.997412
Si Si6 0.452804 0.088854 0.107525
Si Si7 0.818781 0.082372 0.059702
O O1 0.676500 0.750000 0.255050
O O2 0.620160 0.018447 0.327075
O O3 0.726912 0.979170 0.162956
O O4 0.956618 0.931332 0.089305
O O5 0.164170 0.750000 0.246746
O O6 0.039339 0.981265 0.278707
O O7 0.270253 0.999683 0.209033
O O8 0.391973 0.905611 0.039099
O O9 0.500000 0.500000 0.500000
O O10 0.482418 0.250000 0.463499
O O11 0.263683 0.474231 0.580971
O O12 0.967450 0.750000 0.272502
O O13 0.072848 0.984460 0.154462
O O14 0.747041 0.250000 0.991581
O O15 0.551520 0.479619 0.093544
O O16 0.741721 0.476882 0.056005
O O17 0.378475 0.250000 0.169009
O O18 0.759591 0.250000 0.109007
#
# Coordination Sequence:
#
# PCOD8072925 Si02
#       7
#     4   4   4   4   4   4   4
#     4  10  20  33  48  67  91 117 148 186 226 263
#     4   8  13  23  38  56  82 115 146 172 205 254
#     4  11  21  33  49  68  91 119 152 185 219 260
#     4   8  15  27  43  63  88 120 151 177 210 259
#     4   8  13  24  43  65  88 115 147 179 214 259
#     4   8  13  21  36  59  85 111 139 174 214 254
#     4   9  17  31  50  67  86 117 153 185 219 264
#
# _framework density 16.533086000000001
#
# number of rings (size 3 to 8) (size 9 to 14) (size 15 to 20)
#    0.000    3.143    0.000    3.429    0.000    2.857 
#    0.000    2.143    0.000    6.000    0.000    1.000 
#    0.000    0.000    0.000    0.000    0.000    0.000 
#
# Total GULP energy -346986.982240 kJ/mol
# GULP energy per Si atom -12392.392223 kJ/mol
# Density = 1.649546 g / cm^3
# Si number density = 16.533086 Si / 1000 Ang^3
#
#
#
# Elastic Constant Matrix: (Units=GPa)
#
#
# Indices 1 2 3 4 5 6 
#
# 1 149.8858 46.4688 46.0476 0.0000 0.1730 0.0000
# 2 46.4688 61.3880 29.1100 0.0000 -1.5730 0.0000
# 3 46.0476 29.1100 57.6036 0.0000 1.6114 0.0000
# 4 0.0000 0.0000 0.0000 19.8103 0.0000 0.5935
# 5 0.1730 -1.5730 1.6114 0.0000 19.2628 0.0000
# 6 0.0000 0.0000 0.0000 0.5935 0.0000 26.8909
#
#
#
# Elastic Compliance Matrix: (Units=1/GPa)
#
#
# Indices 1 2 3 4 5 6 
#
# 1 0.009848 -0.004896 -0.005397 0.000000 -0.000037 0.000000
# 2 -0.004896 0.023995 -0.008287 0.000000 0.002697 0.000000
# 3 -0.005397 -0.008287 0.025941 0.000000 -0.002798 0.000000
# 4 0.000000 0.000000 0.000000 0.050512 0.000000 -0.001115
# 5 -0.000037 0.002697 -0.002798 0.000000 0.052368 0.000000
# 6 0.000000 0.000000 0.000000 -0.001115 0.000000 0.037212
#
#
# Mechanical properties :
#
#
# Convention : Reuss Voigt Hill
#
# Bulk Modulus (GPa) = 44.20386 56.90335 50.55360
# Shear Modulus (GPa) = 20.44342 23.00952 21.72647
#
# Velocity S-wave (km/s) = 3.52023 3.73463 3.62901
# Velocity P-wave (km/s) = 6.58159 7.28623 6.94286
#
# Compressibility (1/GPa) = 0.02262246
#
# Stress axis : x y z
#
# Youngs Moduli (GPa) = 101.54588 41.67526 38.54971
#
# Poissons Ratio (x) = 0.20405 0.20805
# Poissons Ratio (y) = 0.49719 0.31948
# Poissons Ratio (z) = 0.54803 0.34538
#
# Static dielectric constant tensor:
#      x y z
#    x 3.552740 0.000000 -0.124980 
#    y 0.000000 3.030720 0.000000 
#    z -0.124980 0.000000 2.851380 
# 
# 
# High freq. dielectric constant tensor:
#      x y z
#    x 1.651860 0.000000 -0.009050 
#    y 0.000000 1.613630 0.000000 
#    z -0.009050 0.000000 1.591070 
# 
# From -- ./inp_files/69375.got.cif
#   From: 2010.06.25/outbox.cif.g09.slc.cpg/sg11_35_cif.got.tgz:69375.got - 2010.06.27 23:14:04.
