data_PCOD8072354
_publ_section_title
;
Structure prediction by ZEFSAII (Michael W. Deem and Ramdas Pophale) SiO2 
 PCOD8072354
Probable space group: P 21/M
;
_chemical_formula_sum "Si O2"
_cell_formula_units_Z 24
_cell_length_a 14.844949
_cell_length_b 8.927695
_cell_length_c 10.080828
_cell_angle_alpha 90.000000
_cell_angle_beta 80.425490
_cell_angle_gamma 90.000000
_cell_volume 1317.413362
_symmetry_space_group_name_H-M "P 21/M"
_symmetry_group_IT_number 11
_symmetry_cell_setting 'monoclinic'
loop_
_space_group_symop_operation_xyz
x,y,z
-x,1/2+y,-z
-x,-y,-z
x,1/2-y,z
loop_
_atom_site_type_symbol
_atom_site_label
_atom_site_fract_x
_atom_site_fract_y
_atom_site_fract_z
Si Si1 0.072162 0.925754 0.885045
Si Si2 0.453574 0.074467 0.887427
Si Si3 0.440303 0.573087 0.401545
Si Si4 0.739675 0.577862 0.163104
Si Si5 0.072031 0.572923 0.580092
Si Si6 0.738275 0.576954 0.472124
O O1 0.067636 0.750000 0.907097
O O2 0.049610 0.970309 0.738350
O O3 0.173475 0.979591 0.899496
O O4 0.000000 0.000000 0.000000
O O5 0.453195 0.250000 0.908513
O O6 0.513171 0.029136 0.747064
O O7 0.348655 0.019675 0.896036
O O8 0.500000 0.000000 0.000000
O O9 0.500000 0.500000 0.500000
O O10 0.434927 0.750000 0.426157
O O11 0.339854 0.502481 0.423566
O O12 0.762809 0.750000 0.124704
O O13 0.714816 0.559805 0.323337
O O14 0.073032 0.750000 0.560412
O O15 0.168882 0.506664 0.514188
O O16 0.000000 0.500000 0.500000
O O17 0.746277 0.750000 0.511866
#
# Coordination Sequence:
#
# PCOD8072354 Si02
#       6
#     4   4   4   4   4   4
#     4  10  21  37  59  86 111 143 188 231 276 334
#     4  10  22  39  56  81 115 150 186 229 280 331
#     4  11  21  36  58  85 114 146 189 234 275 332
#     4   9  18  36  58  80 111 147 185 230 276 328
#     4  10  21  38  59  86 116 148 185 230 282 335
#     4  10  19  35  59  86 113 147 187 231 281 331
#
# _framework density 18.217517000000001
#
# number of rings (size 3 to 8) (size 9 to 14) (size 15 to 20)
#    0.000    2.000    1.667    2.000    0.000    4.667 
#    3.000    0.000    0.000    0.000    0.000    0.000 
#    0.000    0.000    0.000    0.000    0.000    0.000 
#
# Total GULP energy -297652.390100 kJ/mol
# GULP energy per Si atom -12402.182921 kJ/mol
# Density = 1.817605 g / cm^3
# Si number density = 18.217517 Si / 1000 Ang^3
#
#
#
# Elastic Constant Matrix: (Units=GPa)
#
#
# Indices 1 2 3 4 5 6 
#
# 1 178.9117 72.7979 96.4774 0.0000 0.3329 0.0000
# 2 72.7979 90.2443 66.0059 0.0000 -6.8568 0.0000
# 3 96.4774 66.0059 107.4791 0.0000 -3.6887 0.0000
# 4 0.0000 0.0000 0.0000 31.4760 0.0000 -1.0193
# 5 0.3329 -6.8568 -3.6887 0.0000 37.2539 0.0000
# 6 0.0000 0.0000 0.0000 -1.0193 0.0000 40.9102
#
#
#
# Elastic Compliance Matrix: (Units=1/GPa)
#
#
# Indices 1 2 3 4 5 6 
#
# 1 0.011368 -0.003239 -0.008268 0.000000 -0.001516 0.000000
# 2 -0.003239 0.021272 -0.010056 0.000000 0.002949 0.000000
# 3 -0.008268 -0.010056 0.022918 0.000000 0.000492 0.000000
# 4 0.000000 0.000000 0.000000 0.031796 0.000000 0.000792
# 5 -0.001516 0.002949 0.000492 0.000000 0.027448 0.000000
# 6 0.000000 0.000000 0.000000 0.000792 0.000000 0.024464
#
#
# Mechanical properties :
#
#
# Convention : Reuss Voigt Hill
#
# Bulk Modulus (GPa) = 80.42076 94.13306 87.27691
# Shear Modulus (GPa) = 26.80464 31.35160 29.07812
#
# Velocity S-wave (km/s) = 3.84000 4.15294 3.99953
# Velocity P-wave (km/s) = 7.99383 8.64753 8.32710
#
# Compressibility (1/GPa) = 0.01243460
#
# Stress axis : x y z
#
# Youngs Moduli (GPa) = 87.96409 47.00919 43.63388
#
# Poissons Ratio (x) = 0.15224 0.36075
# Poissons Ratio (y) = 0.28488 0.43877
# Poissons Ratio (z) = 0.72726 0.47271
#
# Static dielectric constant tensor:
#      x y z
#    x 3.447920 0.000000 0.019020 
#    y 0.000000 3.462930 0.000000 
#    z 0.019020 0.000000 3.187440 
# 
# 
# High freq. dielectric constant tensor:
#      x y z
#    x 1.719850 0.000000 -0.006160 
#    y 0.000000 1.715620 0.000000 
#    z -0.006160 0.000000 1.691540 
# 
# From -- ./inp_files/20380.got.cif
#   From: 2010.06.25/outbox.cif.g09.slc.cpg/sg11_11_cif.got.tgz:20380.got - 2010.06.27 23:14:04.
