data_PCOD8072254
_publ_section_title
;
Structure prediction by ZEFSAII (Michael W. Deem and Ramdas Pophale) SiO2 
 PCOD8072254
Probable space group: P 21/M
;
_chemical_formula_sum "Si O2"
_cell_formula_units_Z 28
_cell_length_a 12.231267
_cell_length_b 17.344317
_cell_length_c 20.353961
_cell_angle_alpha 90.000000
_cell_angle_beta 158.927200
_cell_angle_gamma 90.000000
_cell_volume 1552.535541
_symmetry_space_group_name_H-M "P 21/M"
_symmetry_group_IT_number 11
_symmetry_cell_setting 'monoclinic'
loop_
_space_group_symop_operation_xyz
x,y,z
-x,1/2+y,-z
-x,-y,-z
x,1/2-y,z
loop_
_atom_site_type_symbol
_atom_site_label
_atom_site_fract_x
_atom_site_fract_y
_atom_site_fract_z
Si Si1 0.406791 0.962640 0.380453
Si Si2 0.546060 0.835296 0.868684
Si Si3 0.850322 0.067634 0.566596
Si Si4 0.895037 0.336317 0.723634
Si Si5 0.264272 0.994820 0.700579
Si Si6 0.081972 0.962113 0.977156
Si Si7 0.669740 0.837980 0.790493
O O1 0.358958 0.871701 0.368626
O O2 0.500000 0.000000 0.500000
O O3 0.667371 0.986478 0.474823
O O4 0.080087 0.994503 0.173875
O O5 0.385848 0.750000 0.777750
O O6 0.309932 0.905119 0.746048
O O7 0.720241 0.847727 0.896979
O O8 0.780297 0.836775 0.059644
O O9 0.924198 0.112591 0.674701
O O10 0.647172 0.120893 0.405429
O O11 0.165872 0.044345 0.709122
O O12 0.791052 0.250000 0.647359
O O13 0.000000 0.000000 0.500000
O O14 0.560679 0.035443 0.836239
O O15 0.954187 0.874769 0.910489
O O16 0.000000 0.000000 0.000000
O O17 0.651606 0.750000 0.758004
#
# Coordination Sequence:
#
# PCOD8072254 Si02
#       7
#     4   4   4   4   4   4   4
#     4   9  18  35  54  81 107 143 188 233 274 336
#     4  10  20  35  56  80 110 147 190 234 286 338
#     4  10  21  34  57  86 114 147 189 234 290 348
#     4  10  19  35  57  82 108 149 192 234 285 342
#     4  12  21  36  57  88 117 154 192 238 292 339
#     4  11  19  35  57  81 111 145 194 233 273 341
#     4  10  19  36  58  81 109 147 189 241 287 336
#
# _framework density 18.035014
#
# number of rings (size 3 to 8) (size 9 to 14) (size 15 to 20)
#    0.000    1.714    4.286    1.286    0.000    0.571 
#    0.000    2.857    0.000    0.000    0.000    0.000 
#    0.000    0.000    0.000    0.000    0.000    0.000 
#
# Total GULP energy -347011.298422 kJ/mol
# GULP energy per Si atom -12393.260658 kJ/mol
# Density = 1.799397 g / cm^3
# Si number density = 18.035014 Si / 1000 Ang^3
#
#
#
# Elastic Constant Matrix: (Units=GPa)
#
#
# Indices 1 2 3 4 5 6 
#
# 1 93.7415 57.9091 50.4441 0.0000 6.1747 0.0000
# 2 57.9091 151.9154 46.2811 0.0000 17.4202 0.0000
# 3 50.4441 46.2811 101.1090 0.0000 5.3536 0.0000
# 4 0.0000 0.0000 0.0000 26.1848 0.0000 1.2744
# 5 6.1747 17.4202 5.3536 0.0000 39.2778 0.0000
# 6 0.0000 0.0000 0.0000 1.2744 0.0000 29.6920
#
#
#
# Elastic Compliance Matrix: (Units=1/GPa)
#
#
# Indices 1 2 3 4 5 6 
#
# 1 0.016865 -0.004517 -0.006358 0.000000 0.000219 0.000000
# 2 -0.004517 0.009211 -0.001797 0.000000 -0.003130 0.000000
# 3 -0.006358 -0.001797 0.013890 0.000000 -0.000097 0.000000
# 4 0.000000 0.000000 0.000000 0.038270 0.000000 -0.001643
# 5 0.000219 -0.003130 -0.000097 0.000000 0.026827 0.000000
# 6 0.000000 0.000000 0.000000 -0.001643 0.000000 0.033750
#
#
# Mechanical properties :
#
#
# Convention : Reuss Voigt Hill
#
# Bulk Modulus (GPa) = 68.38969 72.89273 70.64121
# Shear Modulus (GPa) = 29.58061 31.83972 30.71016
#
# Velocity S-wave (km/s) = 4.05430 4.20627 4.13099
# Velocity P-wave (km/s) = 7.74076 8.00596 7.87447
#
# Compressibility (1/GPa) = 0.01462209
#
# Stress axis : x y z
#
# Youngs Moduli (GPa) = 59.29456 108.56892 71.99409
#
# Poissons Ratio (x) = 0.49039 0.45775
# Poissons Ratio (y) = 0.26783 0.12936
# Poissons Ratio (z) = 0.37700 0.19508
#
# Static dielectric constant tensor:
#      x y z
#    x 3.491330 0.000000 -0.060760 
#    y 0.000000 3.793550 0.000000 
#    z -0.060760 0.000000 3.358290 
# 
# 
# High freq. dielectric constant tensor:
#      x y z
#    x 1.693730 0.000000 -0.027460 
#    y 0.000000 1.703070 0.000000 
#    z -0.027460 0.000000 1.689470 
# 
# From -- ./inp_files/13540.got.cif
#   From: 2010.06.25/outbox.cif.g09.slc.cpg/sg11_7_cif.got.tgz:13540.got - 2010.06.27 23:14:04.
