data_PCOD8072152
_publ_section_title
;
Structure prediction by ZEFSAII (Michael W. Deem and Ramdas Pophale) SiO2 
 PCOD8072152
Probable space group: P 21/M
;
_chemical_formula_sum "Si O2"
_cell_formula_units_Z 32
_cell_length_a 14.792222
_cell_length_b 18.322243
_cell_length_c 11.254494
_cell_angle_alpha 90.000000
_cell_angle_beta 31.728810
_cell_angle_gamma 90.000000
_cell_volume 1604.134214
_symmetry_space_group_name_H-M "P 21/M"
_symmetry_group_IT_number 11
_symmetry_cell_setting 'monoclinic'
loop_
_space_group_symop_operation_xyz
x,y,z
-x,1/2+y,-z
-x,-y,-z
x,1/2-y,z
loop_
_atom_site_type_symbol
_atom_site_label
_atom_site_fract_x
_atom_site_fract_y
_atom_site_fract_z
Si Si1 0.162466 0.080280 0.142867
Si Si2 0.981615 0.165664 0.921136
Si Si3 0.737590 0.834761 0.198068
Si Si4 0.083352 0.666232 0.428320
Si Si5 0.650770 0.557040 0.828403
Si Si6 0.399676 0.664503 0.710889
Si Si7 0.441806 0.832568 0.928511
Si Si8 0.025195 0.065324 0.661520
O O1 0.301827 0.081010 0.091976
O O2 0.993024 0.125632 0.371125
O O3 0.250852 0.118010 0.932833
O O4 0.118571 0.996602 0.159443
O O5 0.001239 0.250000 0.855539
O O6 0.777946 0.145555 0.160401
O O7 0.084600 0.154646 0.928258
O O8 0.067133 0.107893 0.735782
O O9 0.712190 0.750000 0.193384
O O10 0.569849 0.866086 0.455013
O O11 0.021357 0.750000 0.498448
O O12 0.023496 0.628665 0.374888
O O13 0.289527 0.661012 0.195568
O O14 0.603245 0.627356 0.804164
O O15 0.812250 0.522506 0.577352
O O16 0.500000 0.500000 0.000000
O O17 0.422651 0.750000 0.692915
O O18 0.388644 0.633711 0.858756
O O19 0.500202 0.750000 0.843837
#
# Coordination Sequence:
#
# PCOD8072152 Si02
#       8
#     4   4   4   4   4   4   4   4
#     4  11  24  40  57  83 125 166 194 239 302 370
#     4  10  20  38  66  92 116 155 205 259 307 351
#     4  10  22  41  61  88 124 161 203 244 299 373
#     4  10  19  36  63  88 114 152 195 246 300 356
#     4  11  23  38  57  84 120 159 198 240 306 362
#     4   9  18  36  62  90 119 149 193 257 306 344
#     4  10  19  34  60  91 115 141 196 258 303 348
#     4  11  21  37  62  85 117 155 202 254 302 351
#
# _framework density 19.948454999999999
#
# number of rings (size 3 to 8) (size 9 to 14) (size 15 to 20)
#    0.000    1.750    1.250    4.500    0.000    4.500 
#    4.500    0.625    0.000    0.000    0.000    0.000 
#    0.000    0.000    0.000    0.000    0.000    0.000 
#
# Total GULP energy -396688.055704 kJ/mol
# GULP energy per Si atom -12396.501741 kJ/mol
# Density = 1.990305 g / cm^3
# Si number density = 19.948455 Si / 1000 Ang^3
#
#
#
# Elastic Constant Matrix: (Units=GPa)
#
#
# Indices 1 2 3 4 5 6 
#
# 1 109.6273 37.3592 60.8464 0.0000 -1.7237 0.0000
# 2 37.3592 77.7380 37.0616 0.0000 5.4463 0.0000
# 3 60.8464 37.0616 107.4966 0.0000 4.9226 0.0000
# 4 0.0000 0.0000 0.0000 30.0268 0.0000 -3.1406
# 5 -1.7237 5.4463 4.9226 0.0000 32.8549 0.0000
# 6 0.0000 0.0000 0.0000 -3.1406 0.0000 25.2552
#
#
#
# Elastic Compliance Matrix: (Units=1/GPa)
#
#
# Indices 1 2 3 4 5 6 
#
# 1 0.014258 -0.003734 -0.006893 0.000000 0.002400 0.000000
# 2 -0.003734 0.016475 -0.003456 0.000000 -0.002409 0.000000
# 3 -0.006893 -0.003456 0.014485 0.000000 -0.001959 0.000000
# 4 0.000000 0.000000 0.000000 0.033742 0.000000 0.004196
# 5 0.002400 -0.002409 -0.001959 0.000000 0.031256 0.000000
# 6 0.000000 0.000000 0.000000 0.004196 0.000000 0.040118
#
#
# Mechanical properties :
#
#
# Convention : Reuss Voigt Hill
#
# Bulk Modulus (GPa) = 58.64405 62.82182 60.73293
# Shear Modulus (GPa) = 27.14683 28.26701 27.70692
#
# Velocity S-wave (km/s) = 3.69297 3.76839 3.73087
# Velocity P-wave (km/s) = 6.90258 7.10597 7.00502
#
# Compressibility (1/GPa) = 0.01705203
#
# Stress axis : x y z
#
# Youngs Moduli (GPa) = 70.13724 60.69931 69.03467
#
# Poissons Ratio (x) = 0.22665 0.47585
# Poissons Ratio (y) = 0.26189 0.23859
# Poissons Ratio (z) = 0.48345 0.20978
#
# Static dielectric constant tensor:
#      x y z
#    x 3.523780 0.000000 -0.154030 
#    y 0.000000 3.586590 0.000000 
#    z -0.154030 0.000000 4.062760 
# 
# 
# High freq. dielectric constant tensor:
#      x y z
#    x 1.763340 0.000000 -0.008500 
#    y 0.000000 1.770890 0.000000 
#    z -0.008500 0.000000 1.784150 
# 
# From -- ./inp_files/39946.got.cif
#   From: 2010.06.25/outbox.cif.g09.slc.cpg/sg11_20_cif.got.tgz:39946.got - 2010.06.27 23:14:04.
