data_PCOD8072430
_publ_section_title
;
Structure prediction by ZEFSAII (Michael W. Deem and Ramdas Pophale) SiO2 
 PCOD8072430
Probable space group: P 21/M
;
_chemical_formula_sum "Si O2"
_cell_formula_units_Z 24
_cell_length_a 10.473344
_cell_length_b 20.275392
_cell_length_c 9.598829
_cell_angle_alpha 90.000000
_cell_angle_beta 43.025361
_cell_angle_gamma 90.000000
_cell_volume 1390.792264
_symmetry_space_group_name_H-M "P 21/M"
_symmetry_group_IT_number 11
_symmetry_cell_setting 'monoclinic'
loop_
_space_group_symop_operation_xyz
x,y,z
-x,1/2+y,-z
-x,-y,-z
x,1/2-y,z
loop_
_atom_site_type_symbol
_atom_site_label
_atom_site_fract_x
_atom_site_fract_y
_atom_site_fract_z
Si Si1 0.374984 0.932625 0.250154
Si Si2 0.738828 0.112413 0.241623
Si Si3 0.923389 0.676463 0.920483
Si Si4 0.487342 0.174126 0.661500
Si Si5 0.952317 0.450447 0.297963
Si Si6 0.309807 0.962558 0.993659
O O1 0.413233 0.861294 0.286610
O O2 0.175921 0.960605 0.463456
O O3 0.366578 0.926104 0.090627
O O4 0.541958 0.981070 0.162600
O O5 0.555937 0.142148 0.462437
O O6 0.816982 0.049281 0.268625
O O7 0.904145 0.167458 0.108590
O O8 0.683308 0.092331 0.131163
O O9 0.927186 0.750000 0.851966
O O10 0.734632 0.664912 0.157314
O O11 0.943417 0.621692 0.781214
O O12 0.548507 0.250000 0.621053
O O13 0.101283 0.508624 0.171135
#
# Coordination Sequence:
#
# PCOD8072430 Si02
#       6
#     4   4   4   4   4   4
#     4  10  21  33  53  77 106 143 165 211 252 314
#     4   9  20  31  54  77 101 133 167 218 254 300
#     4   9  18  33  55  75  97 129 178 220 250 293
#     4  10  19  36  56  75  97 135 182 213 253 306
#     4   9  19  32  53  76 100 140 172 209 254 302
#     4  11  20  35  48  80 114 132 170 206 266 308
#
# _framework density 17.256350999999999
#
# number of rings (size 3 to 8) (size 9 to 14) (size 15 to 20)
#    1.000    1.333    1.667    1.500    0.000    4.000 
#    0.000    1.667    0.000    0.000    0.000    0.000 
#    0.000    0.000    0.000    0.000    0.000    0.000 
#
# Total GULP energy -297440.784788 kJ/mol
# GULP energy per Si atom -12393.366033 kJ/mol
# Density = 1.721707 g / cm^3
# Si number density = 17.256351 Si / 1000 Ang^3
#
#
#
# Elastic Constant Matrix: (Units=GPa)
#
#
# Indices 1 2 3 4 5 6 
#
# 1 48.8455 18.9447 41.1767 0.0000 0.7894 0.0000
# 2 18.9447 54.5479 38.5550 0.0000 9.2116 0.0000
# 3 41.1767 38.5550 114.5712 0.0000 -9.4343 0.0000
# 4 0.0000 0.0000 0.0000 16.8063 0.0000 -2.7799
# 5 0.7894 9.2116 -9.4343 0.0000 30.5148 0.0000
# 6 0.0000 0.0000 0.0000 -2.7799 0.0000 19.5863
#
#
#
# Elastic Compliance Matrix: (Units=1/GPa)
#
#
# Indices 1 2 3 4 5 6 
#
# 1 0.030165 -0.002773 -0.010162 0.000000 -0.003085 0.000000
# 2 -0.002773 0.027717 -0.009249 0.000000 -0.011155 0.000000
# 3 -0.010162 -0.009249 0.016156 0.000000 0.008050 0.000000
# 4 0.000000 0.000000 0.000000 0.060932 0.000000 0.008648
# 5 -0.003085 -0.011155 0.008050 0.000000 0.038707 0.000000
# 6 0.000000 0.000000 0.000000 0.008648 0.000000 0.052284
#
#
# Mechanical properties :
#
#
# Convention : Reuss Voigt Hill
#
# Bulk Modulus (GPa) = 33.70492 46.14638 39.92565
# Shear Modulus (GPa) = 17.84331 21.33401 19.58866
#
# Velocity S-wave (km/s) = 3.21910 3.51992 3.37286
# Velocity P-wave (km/s) = 5.77850 6.58176 6.19316
#
# Compressibility (1/GPa) = 0.02966926
#
# Stress axis : x y z
#
# Youngs Moduli (GPa) = 33.15140 36.07958 61.89724
#
# Poissons Ratio (x) = 0.10003 0.62901
# Poissons Ratio (y) = 0.09191 0.57249
# Poissons Ratio (z) = 0.33689 0.33370
#
# Static dielectric constant tensor:
#      x y z
#    x 3.001030 0.000000 -0.247640 
#    y 0.000000 3.049040 0.000000 
#    z -0.247640 0.000000 3.339640 
# 
# 
# High freq. dielectric constant tensor:
#      x y z
#    x 1.643790 0.000000 -0.026510 
#    y 0.000000 1.649680 0.000000 
#    z -0.026510 0.000000 1.677780 
# 
# From -- ./inp_files/19077.got.cif
#   From: 2010.06.25/outbox.cif.g09.slc.cpg/sg11_10_cif.got.tgz:19077.got - 2010.06.27 23:14:04.
