data_PCOD8072550
_publ_section_title
;
Structure prediction by ZEFSAII (Michael W. Deem and Ramdas Pophale) SiO2 
 PCOD8072550
Probable space group: P 21/M
;
_chemical_formula_sum "Si O2"
_cell_formula_units_Z 28
_cell_length_a 22.756674
_cell_length_b 8.875664
_cell_length_c 19.904924
_cell_angle_alpha 90.000000
_cell_angle_beta 159.994796
_cell_angle_gamma 90.000000
_cell_volume 1375.403769
_symmetry_space_group_name_H-M "P 21/M"
_symmetry_group_IT_number 11
_symmetry_cell_setting 'monoclinic'
loop_
_space_group_symop_operation_xyz
x,y,z
-x,1/2+y,-z
-x,-y,-z
x,1/2-y,z
loop_
_atom_site_type_symbol
_atom_site_label
_atom_site_fract_x
_atom_site_fract_y
_atom_site_fract_z
Si Si1 0.915288 0.582714 0.347527
Si Si2 0.338485 0.574682 0.627944
Si Si3 0.587621 0.070106 0.439347
Si Si4 0.954547 0.573355 0.241720
Si Si5 0.057817 0.429146 0.131402
Si Si6 0.762205 0.072689 0.919186
Si Si7 0.519588 0.918253 0.951193
O O1 0.992350 0.750000 0.431388
O O2 0.961331 0.509293 0.325078
O O3 0.000000 0.500000 0.500000
O O4 0.713660 0.582612 0.137264
O O5 0.378428 0.750000 0.678393
O O6 0.425809 0.517138 0.653161
O O7 0.414765 0.499056 0.777951
O O8 0.137476 0.541964 0.404524
O O9 0.598965 0.250000 0.459004
O O10 0.757845 0.998502 0.653388
O O11 0.417562 0.007826 0.294156
O O12 0.904512 0.750000 0.187611
O O13 0.813336 0.482403 0.048422
O O14 0.074842 0.250000 0.144143
O O15 0.000000 0.500000 0.000000
O O16 0.912591 0.475247 0.029558
O O17 0.731576 0.250000 0.886009
O O18 0.448641 0.750000 0.886281
O O19 0.500000 0.000000 0.000000
#
# Coordination Sequence:
#
# PCOD8072550 Si02
#       7
#     4   4   4   4   4   4   4
#     4  10  21  35  54  79 112 152 201 255 309 369
#     4   9  18  34  59  86 113 149 199 253 306 363
#     4  11  22  40  68  97 126 166 213 260 311 373
#     4  10  19  36  61  86 114 155 205 257 310 372
#     4  11  25  45  68  96 132 169 209 259 315 376
#     4  11  24  41  63  95 132 166 204 258 316 374
#     4  10  20  35  52  77 110 149 197 249 304 363
#
# _framework density 20.357657
#
# number of rings (size 3 to 8) (size 9 to 14) (size 15 to 20)
#    0.000    1.714    1.429    3.000    0.000    6.857 
#    0.000    3.571    0.000    0.000    0.000    0.000 
#    0.000    0.000    0.000    0.000    0.000    0.000 
#
# Total GULP energy -347158.831442 kJ/mol
# GULP energy per Si atom -12398.529694 kJ/mol
# Density = 2.031132 g / cm^3
# Si number density = 20.357657 Si / 1000 Ang^3
#
#
#
# Elastic Constant Matrix: (Units=GPa)
#
#
# Indices 1 2 3 4 5 6 
#
# 1 107.4409 44.7434 60.8592 0.0000 -12.4448 0.0000
# 2 44.7434 75.2321 51.6009 0.0000 -4.4961 0.0000
# 3 60.8592 51.6009 143.7585 0.0000 -9.6813 0.0000
# 4 0.0000 0.0000 0.0000 36.4551 0.0000 -2.3672
# 5 -12.4448 -4.4961 -9.6813 0.0000 36.4854 0.0000
# 6 0.0000 0.0000 0.0000 -2.3672 0.0000 29.8307
#
#
#
# Elastic Compliance Matrix: (Units=1/GPa)
#
#
# Indices 1 2 3 4 5 6 
#
# 1 0.014150 -0.005657 -0.003749 0.000000 0.003135 0.000000
# 2 -0.005657 0.019904 -0.004800 0.000000 -0.000750 0.000000
# 3 -0.003749 -0.004800 0.010325 0.000000 0.000869 0.000000
# 4 0.000000 0.000000 0.000000 0.027573 0.000000 0.002188
# 5 0.003135 -0.000750 0.000869 0.000000 0.028616 0.000000
# 6 0.000000 0.000000 0.000000 0.002188 0.000000 0.033696
#
#
# Mechanical properties :
#
#
# Convention : Reuss Voigt Hill
#
# Bulk Modulus (GPa) = 62.62880 71.20429 66.91654
# Shear Modulus (GPa) = 29.76247 31.83609 30.79928
#
# Velocity S-wave (km/s) = 3.82773 3.95883 3.89383
# Velocity P-wave (km/s) = 7.09693 7.47991 7.29093
#
# Compressibility (1/GPa) = 0.01596710
#
# Stress axis : x y z
#
# Youngs Moduli (GPa) = 70.67303 50.24091 96.85635
#
# Poissons Ratio (x) = 0.28421 0.36307
# Poissons Ratio (y) = 0.39979 0.46492
# Poissons Ratio (z) = 0.26492 0.24116
#
# Static dielectric constant tensor:
#      x y z
#    x 3.623430 0.000000 0.546230 
#    y 0.000000 3.882700 0.000000 
#    z 0.546230 0.000000 2.872890 
# 
# 
# High freq. dielectric constant tensor:
#      x y z
#    x 1.806060 0.000000 0.001910 
#    y 0.000000 1.770740 0.000000 
#    z 0.001910 0.000000 1.811080 
# 
# From -- ./inp_files/66746.got.cif
#   From: 2010.06.25/outbox.cif.g09.slc.cpg/sg11_34_cif.got.tgz:66746.got - 2010.06.27 23:14:04.
