data_PCOD8072048
_publ_section_title
;
Structure prediction by ZEFSAII (Michael W. Deem and Ramdas Pophale) SiO2 
 PCOD8072048
Probable space group: P 21/M
;
_chemical_formula_sum "Si O2"
_cell_formula_units_Z 32
_cell_length_a 20.552267
_cell_length_b 8.892622
_cell_length_c 25.135583
_cell_angle_alpha 90.000000
_cell_angle_beta 22.190150
_cell_angle_gamma 90.000000
_cell_volume 1735.019528
_symmetry_space_group_name_H-M "P 21/M"
_symmetry_group_IT_number 11
_symmetry_cell_setting 'monoclinic'
loop_
_space_group_symop_operation_xyz
x,y,z
-x,1/2+y,-z
-x,-y,-z
x,1/2-y,z
loop_
_atom_site_type_symbol
_atom_site_label
_atom_site_fract_x
_atom_site_fract_y
_atom_site_fract_z
Si Si1 0.005144 0.575381 0.338089
Si Si2 0.853103 0.424444 0.351329
Si Si3 0.642902 0.577754 0.654649
Si Si4 0.071498 0.924295 0.104024
Si Si5 0.860863 0.072949 0.067512
Si Si6 0.604297 0.421593 0.067626
Si Si7 0.644866 0.573234 0.926085
Si Si8 0.489717 0.076534 0.671125
O O1 0.052751 0.750000 0.298553
O O2 0.957969 0.521543 0.314749
O O3 0.847235 0.544280 0.498009
O O4 0.170271 0.485717 0.234280
O O5 0.896726 0.250000 0.327752
O O6 0.649185 0.454073 0.510642
O O7 0.914254 0.478452 0.247022
O O8 0.604853 0.750000 0.666024
O O9 0.576031 0.549511 0.765074
O O10 0.541866 0.470653 0.691035
O O11 0.020282 0.750000 0.144955
O O12 0.101049 0.978272 0.021556
O O13 0.244559 0.957619 0.005509
O O14 0.868436 0.250000 0.068184
O O15 0.671736 0.017525 0.227954
O O16 0.000000 0.000000 0.000000
O O17 0.615689 0.250000 0.038403
O O18 0.614495 0.532690 0.010512
O O19 0.637584 0.750000 0.924294
O O20 0.500000 0.500000 0.000000
O O21 0.437353 0.250000 0.711790
#
# Coordination Sequence:
#
# PCOD8072048 Si02
#       8
#     4   4   4   4   4   4   4   4
#     4  10  19  34  57  84 114 149 186 227 281 336
#     4  10  20  33  54  85 116 145 187 235 278 325
#     4   9  18  34  58  85 114 147 185 231 281 331
#     4  10  20  35  58  84 114 147 187 233 279 331
#     4  11  23  40  59  83 114 151 190 231 283 341
#     4  10  19  36  59  86 115 145 186 234 278 328
#     4  12  25  40  58  82 114 152 190 231 280 336
#     4  10  20  34  54  83 116 149 186 232 279 330
#
# _framework density 18.443595999999999
#
# number of rings (size 3 to 8) (size 9 to 14) (size 15 to 20)
#    0.000    1.750    2.500    2.625    0.000    3.500 
#    0.000    1.250    0.000    0.000    0.000    0.000 
#    0.000    0.000    0.000    0.000    0.000    0.000 
#
# Total GULP energy -396905.358759 kJ/mol
# GULP energy per Si atom -12403.292461 kJ/mol
# Density = 1.840162 g / cm^3
# Si number density = 18.443596 Si / 1000 Ang^3
#
#
#
# Elastic Constant Matrix: (Units=GPa)
#
#
# Indices 1 2 3 4 5 6 
#
# 1 81.3900 45.6256 50.7098 0.0000 -9.7231 0.0000
# 2 45.6256 106.1646 59.5783 0.0000 -7.9119 0.0000
# 3 50.7098 59.5783 135.9791 0.0000 -4.1177 0.0000
# 4 0.0000 0.0000 0.0000 32.1613 0.0000 -3.7130
# 5 -9.7231 -7.9119 -4.1177 0.0000 28.4085 0.0000
# 6 0.0000 0.0000 0.0000 -3.7130 0.0000 28.5345
#
#
#
# Elastic Compliance Matrix: (Units=1/GPa)
#
#
# Indices 1 2 3 4 5 6 
#
# 1 0.018463 -0.005074 -0.004534 0.000000 0.004249 0.000000
# 2 -0.005074 0.014094 -0.004235 0.000000 0.001575 0.000000
# 3 -0.004534 -0.004235 0.010865 0.000000 -0.001156 0.000000
# 4 0.000000 0.000000 0.000000 0.031568 0.000000 0.004108
# 5 0.004249 0.001575 -0.001156 0.000000 0.036926 0.000000
# 6 0.000000 0.000000 0.000000 0.004108 0.000000 0.035580
#
#
# Mechanical properties :
#
#
# Convention : Reuss Voigt Hill
#
# Bulk Modulus (GPa) = 63.54477 70.59567 67.07022
# Shear Modulus (GPa) = 27.71201 28.99552 28.35377
#
# Velocity S-wave (km/s) = 3.88045 3.96930 3.92512
# Velocity P-wave (km/s) = 7.38956 7.70498 7.54892
#
# Compressibility (1/GPa) = 0.01573694
#
# Stress axis : x y z
#
# Youngs Moduli (GPa) = 54.16222 70.95161 92.03514
#
# Poissons Ratio (x) = 0.36000 0.41724
# Poissons Ratio (y) = 0.27481 0.38980
# Poissons Ratio (z) = 0.24555 0.30051
#
# Static dielectric constant tensor:
#      x y z
#    x 3.208400 0.000000 0.142890 
#    y 0.000000 3.466430 0.000000 
#    z 0.142890 0.000000 3.754500 
# 
# 
# High freq. dielectric constant tensor:
#      x y z
#    x 1.682040 0.000000 0.008450 
#    y 0.000000 1.722800 0.000000 
#    z 0.008450 0.000000 1.732840 
# 
# From -- ./inp_files/72040.got.cif
#   From: 2010.06.25/outbox.cif.g09.slc.cpg/sg11_37_cif.got.tgz:72040.got - 2010.06.27 23:14:04.
