data_PCOD8072047
_publ_section_title
;
Structure prediction by ZEFSAII (Michael W. Deem and Ramdas Pophale) SiO2 
 PCOD8072047
Probable space group: P 21/M
;
_chemical_formula_sum "Si O2"
_cell_formula_units_Z 32
_cell_length_a 22.126389
_cell_length_b 9.148133
_cell_length_c 13.852159
_cell_angle_alpha 90.000000
_cell_angle_beta 36.860602
_cell_angle_gamma 90.000000
_cell_volume 1681.968157
_symmetry_space_group_name_H-M "P 21/M"
_symmetry_group_IT_number 11
_symmetry_cell_setting 'monoclinic'
loop_
_space_group_symop_operation_xyz
x,y,z
-x,1/2+y,-z
-x,-y,-z
x,1/2-y,z
loop_
_atom_site_type_symbol
_atom_site_label
_atom_site_fract_x
_atom_site_fract_y
_atom_site_fract_z
Si Si1 0.323812 0.423714 0.820504
Si Si2 0.224525 0.082097 0.281523
Si Si3 0.916363 0.923736 0.170732
Si Si4 0.053231 0.418923 0.649242
Si Si5 0.137933 0.419675 0.186387
Si Si6 0.294639 0.077296 0.640719
Si Si7 0.503556 0.077967 0.287183
Si Si8 0.431565 0.922384 0.009473
O O1 0.336175 0.250000 0.810087
O O2 0.305691 0.481746 0.735467
O O3 0.425440 0.495140 0.728956
O O4 0.230519 0.479134 0.004225
O O5 0.262743 0.250000 0.229697
O O6 0.157356 0.051506 0.460980
O O7 0.159012 0.046163 0.270958
O O8 0.317788 0.973887 0.168013
O O9 0.924397 0.750000 0.148373
O O10 0.932526 0.973481 0.259976
O O11 0.807536 0.983929 0.276097
O O12 0.000000 0.000000 0.000000
O O13 0.024244 0.250000 0.682698
O O14 0.964268 0.503228 0.711460
O O15 0.122625 0.250000 0.185798
O O16 0.288270 0.250000 0.651955
O O17 0.389387 0.027686 0.455007
O O18 0.518165 0.250000 0.284449
O O19 0.528980 0.030975 0.146088
O O20 0.437889 0.750000 0.016705
O O21 0.500000 0.000000 0.000000
#
# Coordination Sequence:
#
# PCOD8072047 Si02
#       8
#     4   4   4   4   4   4   4   4
#     4  10  19  34  57  84 114 149 185 229 284 335
#     4  10  21  39  60  85 116 150 191 236 285 340
#     4  10  21  39  60  82 112 148 189 233 280 339
#     4  10  22  36  58  86 112 150 194 238 285 339
#     4  10  20  35  57  84 117 153 186 232 287 338
#     4   9  19  35  57  82 111 149 188 226 279 338
#     4  10  21  37  58  84 111 147 190 231 276 333
#     4  11  24  39  60  86 116 155 192 233 283 338
#
# _framework density 19.025331000000001
#
# number of rings (size 3 to 8) (size 9 to 14) (size 15 to 20)
#    0.000    2.000    1.250    1.875    1.750    3.500 
#    0.000    1.250    0.000    0.000    0.000    0.000 
#    0.000    0.000    0.000    0.000    0.000    0.000 
#
# Total GULP energy -396919.083285 kJ/mol
# GULP energy per Si atom -12403.721353 kJ/mol
# Density = 1.898203 g / cm^3
# Si number density = 19.025331 Si / 1000 Ang^3
#
#
#
# Elastic Constant Matrix: (Units=GPa)
#
#
# Indices 1 2 3 4 5 6 
#
# 1 141.8170 45.0920 67.8857 0.0000 1.4544 0.0000
# 2 45.0920 39.5418 35.1544 0.0000 -5.0166 0.0000
# 3 67.8857 35.1544 122.5090 0.0000 3.7923 0.0000
# 4 0.0000 0.0000 0.0000 30.3049 0.0000 -6.1185
# 5 1.4544 -5.0166 3.7923 0.0000 35.2065 0.0000
# 6 0.0000 0.0000 0.0000 -6.1185 0.0000 31.7952
#
#
#
# Elastic Compliance Matrix: (Units=1/GPa)
#
#
# Indices 1 2 3 4 5 6 
#
# 1 0.012302 -0.011049 -0.003594 0.000000 -0.001695 0.000000
# 2 -0.011049 0.045144 -0.007069 0.000000 0.007651 0.000000
# 3 -0.003594 -0.007069 0.012250 0.000000 -0.002178 0.000000
# 4 0.000000 0.000000 0.000000 0.034332 0.000000 0.006607
# 5 -0.001695 0.007651 -0.002178 0.000000 0.029799 0.000000
# 6 0.000000 0.000000 0.000000 0.006607 0.000000 0.032723
#
#
# Mechanical properties :
#
#
# Convention : Reuss Voigt Hill
#
# Bulk Modulus (GPa) = 38.06111 66.68133 52.37122
# Shear Modulus (GPa) = 22.85915 29.84370 26.35142
#
# Velocity S-wave (km/s) = 3.47004 3.96489 3.72569
# Velocity P-wave (km/s) = 6.00865 7.48901 6.78930
#
# Compressibility (1/GPa) = 0.02627354
#
# Stress axis : x y z
#
# Youngs Moduli (GPa) = 81.28617 22.15112 81.63240
#
# Poissons Ratio (x) = 0.24474 0.29339
# Poissons Ratio (y) = 0.89812 0.57704
# Poissons Ratio (z) = 0.29214 0.15658
#
# Static dielectric constant tensor:
#      x y z
#    x 3.710130 0.000000 -0.000230 
#    y 0.000000 3.008610 0.000000 
#    z -0.000230 0.000000 3.815530 
# 
# 
# High freq. dielectric constant tensor:
#      x y z
#    x 1.753470 0.000000 0.003420 
#    y 0.000000 1.718110 0.000000 
#    z 0.003420 0.000000 1.755840 
# 
# From -- ./inp_files/55607.got.cif
#   From: 2010.06.25/outbox.cif.g09.slc.cpg/sg11_28_cif.got.tgz:55607.got - 2010.06.27 23:14:04.
