data_PCOD8072199
_publ_section_title
;
Structure prediction by ZEFSAII (Michael W. Deem and Ramdas Pophale) SiO2 
 PCOD8072199
Probable space group: P 21/M
;
_chemical_formula_sum "Si O2"
_cell_formula_units_Z 32
_cell_length_a 31.103926
_cell_length_b 9.066190
_cell_length_c 12.012064
_cell_angle_alpha 90.000000
_cell_angle_beta 149.974501
_cell_angle_gamma 90.000000
_cell_volume 1694.970974
_symmetry_space_group_name_H-M "P 21/M"
_symmetry_group_IT_number 11
_symmetry_cell_setting 'monoclinic'
loop_
_space_group_symop_operation_xyz
x,y,z
-x,1/2+y,-z
-x,-y,-z
x,1/2-y,z
loop_
_atom_site_type_symbol
_atom_site_label
_atom_site_fract_x
_atom_site_fract_y
_atom_site_fract_z
Si Si1 0.783032 0.423524 0.733755
Si Si2 0.290512 0.919153 0.666799
Si Si3 0.533483 0.576369 0.965580
Si Si4 0.899181 0.922515 0.381645
Si Si5 0.410129 0.578733 0.312147
Si Si6 0.246172 0.581110 0.811835
Si Si7 0.627500 0.423057 0.531651
Si Si8 0.926266 0.577116 0.189691
O O1 0.795392 0.250000 0.781554
O O2 0.768586 0.459819 0.571204
O O3 0.702688 0.491142 0.623353
O O4 0.868092 0.506061 0.963915
O O5 0.322135 0.750000 0.728217
O O6 0.235301 0.943689 0.655251
O O7 0.372813 0.022620 0.857631
O O8 0.535631 0.750000 0.989904
O O9 0.500000 0.500000 0.000000
O O10 0.467150 0.529260 0.720464
O O11 0.914718 0.750000 0.434687
O O12 0.887790 0.959738 0.225382
O O13 0.814959 0.972019 0.258482
O O14 0.979365 0.009759 0.611760
O O15 0.500000 0.500000 0.500000
O O16 0.432037 0.750000 0.371022
O O17 0.363125 0.524030 0.320071
O O18 0.345086 0.544427 0.065590
O O19 0.224696 0.750000 0.797076
O O20 0.638187 0.250000 0.543327
O O21 0.932733 0.750000 0.183031
#
# Coordination Sequence:
#
# PCOD8072199 Si02
#       8
#     4   4   4   4   4   4   4   4
#     4  10  19  35  56  78 109 144 180 226 280 331
#     4  10  21  37  55  79 111 148 189 231 277 327
#     4  11  20  33  52  75 106 146 190 234 279 327
#     4  10  21  38  61  87 113 144 179 219 274 334
#     4  10  20  34  52  76 107 143 182 224 273 322
#     4  10  21  37  58  82 112 149 188 228 272 327
#     4   9  18  32  51  74 103 142 182 222 274 330
#     4  10  21  37  59  88 116 138 175 228 276 327
#
# _framework density 18.879380999999999
#
# number of rings (size 3 to 8) (size 9 to 14) (size 15 to 20)
#    0.000    2.000    1.250    2.625    0.000    4.000 
#    0.000    1.875    0.000    0.000    0.000    0.000 
#    0.000    0.000    0.000    0.000    0.000    0.000 
#
# Total GULP energy -396841.244903 kJ/mol
# GULP energy per Si atom -12401.288903 kJ/mol
# Density = 1.883641 g / cm^3
# Si number density = 18.879381 Si / 1000 Ang^3
#
#
#
# Elastic Constant Matrix: (Units=GPa)
#
#
# Indices 1 2 3 4 5 6 
#
# 1 95.5387 31.6288 44.3697 0.0000 -8.1820 0.0000
# 2 31.6288 67.7107 46.1017 0.0000 -0.3013 0.0000
# 3 44.3697 46.1017 120.4172 0.0000 -10.4442 0.0000
# 4 0.0000 0.0000 0.0000 33.1302 0.0000 6.2471
# 5 -8.1820 -0.3013 -10.4442 0.0000 31.2714 0.0000
# 6 0.0000 0.0000 0.0000 6.2471 0.0000 28.1787
#
#
#
# Elastic Compliance Matrix: (Units=1/GPa)
#
#
# Indices 1 2 3 4 5 6 
#
# 1 0.013526 -0.004136 -0.003189 0.000000 0.002434 0.000000
# 2 -0.004136 0.021422 -0.006955 0.000000 -0.003199 0.000000
# 3 -0.003189 -0.006955 0.012424 0.000000 0.003248 0.000000
# 4 0.000000 0.000000 0.000000 0.031501 0.000000 -0.006984
# 5 0.002434 -0.003199 0.003248 0.000000 0.033669 0.000000
# 6 0.000000 0.000000 0.000000 -0.006984 0.000000 0.037036
#
#
# Mechanical properties :
#
#
# Convention : Reuss Voigt Hill
#
# Bulk Modulus (GPa) = 53.15875 58.65190 55.90533
# Shear Modulus (GPa) = 27.11389 29.28714 28.20052
#
# Velocity S-wave (km/s) = 3.79379 3.94290 3.86906
# Velocity P-wave (km/s) = 6.88539 7.20157 7.04526
#
# Compressibility (1/GPa) = 0.01881158
#
# Stress axis : x y z
#
# Youngs Moduli (GPa) = 73.93307 46.68179 80.48961
#
# Poissons Ratio (x) = 0.19307 0.25671
# Poissons Ratio (y) = 0.30577 0.55979
# Poissons Ratio (z) = 0.23579 0.32466
#
# Static dielectric constant tensor:
#      x y z
#    x 3.549720 0.000000 -0.063440 
#    y 0.000000 3.850740 0.000000 
#    z -0.063440 0.000000 3.528920 
# 
# 
# High freq. dielectric constant tensor:
#      x y z
#    x 1.731510 0.000000 -0.008930 
#    y 0.000000 1.721560 0.000000 
#    z -0.008930 0.000000 1.735180 
# 
# From -- ./inp_files/45297.got.cif
#   From: 2010.06.25/outbox.cif.g09.slc.cpg/sg11_23_cif.got.tgz:45297.got - 2010.06.27 23:14:04.
