data_PCOD8072312
_publ_section_title
;
Structure prediction by ZEFSAII (Michael W. Deem and Ramdas Pophale) SiO2 
 PCOD8072312
Probable space group: P 21/M
;
_chemical_formula_sum "Si O2"
_cell_formula_units_Z 32
_cell_length_a 24.708795
_cell_length_b 9.219980
_cell_length_c 16.197976
_cell_angle_alpha 90.000000
_cell_angle_beta 153.184445
_cell_angle_gamma 90.000000
_cell_volume 1664.693302
_symmetry_space_group_name_H-M "P 21/M"
_symmetry_group_IT_number 11
_symmetry_cell_setting 'monoclinic'
loop_
_space_group_symop_operation_xyz
x,y,z
-x,1/2+y,-z
-x,-y,-z
x,1/2-y,z
loop_
_atom_site_type_symbol
_atom_site_label
_atom_site_fract_x
_atom_site_fract_y
_atom_site_fract_z
Si Si1 0.419936 0.080025 0.252432
Si Si2 0.008477 0.082010 0.265416
Si Si3 0.756790 0.918434 0.511629
Si Si4 0.331754 0.419740 0.960318
Si Si5 0.776862 0.581485 0.888450
Si Si6 0.669120 0.918786 0.571766
Si Si7 0.086412 0.077156 0.553813
Si Si8 0.548370 0.078219 0.145368
O O1 0.448441 0.250000 0.287216
O O2 0.347175 0.035883 0.235259
O O3 0.546139 0.001107 0.419841
O O4 0.334454 0.032623 0.059600
O O5 0.976746 0.250000 0.227119
O O6 0.106045 0.051180 0.326776
O O7 0.057083 0.028512 0.420476
O O8 0.887956 0.001080 0.078070
O O9 0.723898 0.750000 0.452215
O O10 0.734753 0.965115 0.576437
O O11 0.678144 0.017111 0.344395
O O12 0.318982 0.250000 0.933661
O O13 0.218731 0.484773 0.756853
O O14 0.458273 0.469387 0.095153
O O15 0.801654 0.750000 0.937181
O O16 0.761697 0.543516 0.771335
O O17 0.637102 0.750000 0.528275
O O18 0.076287 0.250000 0.550352
O O19 0.000000 0.000000 0.500000
O O20 0.555325 0.250000 0.140952
O O21 0.500000 0.000000 0.000000
#
# Coordination Sequence:
#
# PCOD8072312 Si02
#       8
#     4   4   4   4   4   4   4   4
#     4  10  19  35  58  84 115 149 187 231 286 348
#     4  10  22  39  58  81 113 155 196 234 282 341
#     4  10  21  39  59  81 115 152 188 236 289 337
#     4   9  18  33  54  78 107 144 181 219 271 335
#     4  10  22  38  58  84 114 150 191 239 291 339
#     4  10  21  37  58  86 117 147 186 241 294 336
#     4  10  20  36  56  79 110 147 187 229 276 331
#     4  11  21  35  56  82 111 146 189 231 280 337
#
# _framework density 19.222760000000001
#
# number of rings (size 3 to 8) (size 9 to 14) (size 15 to 20)
#    0.000    2.000    1.250    2.250    0.000    5.500 
#    0.000    3.125    0.000    0.000    0.000    0.000 
#    0.000    0.000    0.000    0.000    0.000    0.000 
#
# Total GULP energy -396788.305862 kJ/mol
# GULP energy per Si atom -12399.634558 kJ/mol
# Density = 1.917901 g / cm^3
# Si number density = 19.222760 Si / 1000 Ang^3
#
#
#
# Elastic Constant Matrix: (Units=GPa)
#
#
# Indices 1 2 3 4 5 6 
#
# 1 113.8705 37.3189 43.7318 0.0000 -8.1154 0.0000
# 2 37.3189 49.0382 38.0109 0.0000 0.1835 0.0000
# 3 43.7318 38.0109 108.4984 0.0000 -1.4899 0.0000
# 4 0.0000 0.0000 0.0000 35.8941 0.0000 3.1056
# 5 -8.1154 0.1835 -1.4899 0.0000 33.4460 0.0000
# 6 0.0000 0.0000 0.0000 3.1056 0.0000 27.6355
#
#
#
# Elastic Compliance Matrix: (Units=1/GPa)
#
#
# Indices 1 2 3 4 5 6 
#
# 1 0.012375 -0.007679 -0.002257 0.000000 0.002944 0.000000
# 2 -0.007679 0.032771 -0.008419 0.000000 -0.002418 0.000000
# 3 -0.002257 -0.008419 0.013077 0.000000 0.000081 0.000000
# 4 0.000000 0.000000 0.000000 0.028133 0.000000 -0.003162
# 5 0.002944 -0.002418 0.000081 0.000000 0.030630 0.000000
# 6 0.000000 0.000000 0.000000 -0.003162 0.000000 0.036541
#
#
# Mechanical properties :
#
#
# Convention : Reuss Voigt Hill
#
# Bulk Modulus (GPa) = 46.48410 56.61447 51.54929
# Shear Modulus (GPa) = 25.32812 29.55149 27.43980
#
# Velocity S-wave (km/s) = 3.63383 3.92512 3.78228
# Velocity P-wave (km/s) = 6.46843 7.07515 6.77858
#
# Compressibility (1/GPa) = 0.02151273
#
# Stress axis : x y z
#
# Youngs Moduli (GPa) = 80.80572 30.51489 76.46947
#
# Poissons Ratio (x) = 0.23433 0.17262
# Poissons Ratio (y) = 0.62052 0.64378
# Poissons Ratio (z) = 0.18241 0.25690
#
# Static dielectric constant tensor:
#      x y z
#    x 3.577230 0.000000 0.252190 
#    y 0.000000 3.319720 0.000000 
#    z 0.252190 0.000000 4.120010 
# 
# 
# High freq. dielectric constant tensor:
#      x y z
#    x 1.761800 0.000000 -0.006360 
#    y 0.000000 1.728700 0.000000 
#    z -0.006360 0.000000 1.753840 
# 
# From -- ./inp_files/55648.got.cif
#   From: 2010.06.25/outbox.cif.g09.slc.cpg/sg11_28_cif.got.tgz:55648.got - 2010.06.27 23:14:04.
