data_PCOD8072345
_publ_section_title
;
Structure prediction by ZEFSAII (Michael W. Deem and Ramdas Pophale) SiO2 
 PCOD8072345
Probable space group: P 21/M
;
_chemical_formula_sum "Si O2"
_cell_formula_units_Z 20
_cell_length_a 11.661337
_cell_length_b 13.845829
_cell_length_c 11.992285
_cell_angle_alpha 90.000000
_cell_angle_beta 145.520224
_cell_angle_gamma 90.000000
_cell_volume 1096.160498
_symmetry_space_group_name_H-M "P 21/M"
_symmetry_group_IT_number 11
_symmetry_cell_setting 'monoclinic'
loop_
_space_group_symop_operation_xyz
x,y,z
-x,1/2+y,-z
-x,-y,-z
x,1/2-y,z
loop_
_atom_site_type_symbol
_atom_site_label
_atom_site_fract_x
_atom_site_fract_y
_atom_site_fract_z
Si Si1 0.868139 0.359132 0.566311
Si Si2 0.360722 0.637947 0.842104
Si Si3 0.740871 0.521453 0.069254
Si Si4 0.763052 0.494702 0.829499
Si Si5 0.548203 0.360139 0.500255
O O1 0.950595 0.250000 0.648145
O O2 0.799680 0.377105 0.385208
O O3 0.676417 0.376434 0.491317
O O4 0.037783 0.435455 0.734438
O O5 0.381970 0.750000 0.891815
O O6 0.277953 0.579754 0.881645
O O7 0.580452 0.599590 0.983411
O O8 0.705182 0.499114 0.911933
O O9 0.674978 0.395402 0.709026
O O10 0.662328 0.583097 0.681300
O O11 0.000000 0.500000 0.000000
O O12 0.490147 0.250000 0.473787
#
# Coordination Sequence:
#
# PCOD8072345 Si02
#       5
#     4   4   4   4   4
#     4  10  19  35  59  85 113 147 193 236 279 338
#     4  10  22  38  56  83 116 150 192 238 285 338
#     4  11  21  36  61  84 114 153 191 238 285 339
#     4  11  22  38  60  87 118 150 192 239 289 344
#     4  10  22  38  58  85 118 153 192 238 285 342
#
# _framework density 18.245501999999998
#
# number of rings (size 3 to 8) (size 9 to 14) (size 15 to 20)
#    0.000    1.600    4.000    1.200    0.000    2.400 
#    0.000    0.000    0.000    0.000    0.000    0.000 
#    0.000    0.000    0.000    0.000    0.000    0.000 
#
# Total GULP energy -248083.718922 kJ/mol
# GULP energy per Si atom -12404.185946 kJ/mol
# Density = 1.820397 g / cm^3
# Si number density = 18.245502 Si / 1000 Ang^3
#
#
#
# Elastic Constant Matrix: (Units=GPa)
#
#
# Indices 1 2 3 4 5 6 
#
# 1 42.6163 41.7501 30.5445 0.0000 0.9660 0.0000
# 2 41.7501 122.9979 49.5766 0.0000 -4.0939 0.0000
# 3 30.5445 49.5766 99.5431 0.0000 -1.6126 0.0000
# 4 0.0000 0.0000 0.0000 27.1472 0.0000 -2.6284
# 5 0.9660 -4.0939 -1.6126 0.0000 27.6932 0.0000
# 6 0.0000 0.0000 0.0000 -2.6284 0.0000 26.1941
#
#
#
# Elastic Compliance Matrix: (Units=1/GPa)
#
#
# Indices 1 2 3 4 5 6 
#
# 1 0.038640 -0.010541 -0.006660 0.000000 -0.003294 0.000000
# 2 -0.010541 0.013089 -0.003250 0.000000 0.002113 0.000000
# 3 -0.006660 -0.003250 0.013717 0.000000 0.000551 0.000000
# 4 0.000000 0.000000 0.000000 0.037198 0.000000 0.003732
# 5 -0.003294 0.002113 0.000551 0.000000 0.036569 0.000000
# 6 0.000000 0.000000 0.000000 0.003732 0.000000 0.038551
#
#
# Mechanical properties :
#
#
# Convention : Reuss Voigt Hill
#
# Bulk Modulus (GPa) = 40.74384 56.54444 48.64414
# Shear Modulus (GPa) = 22.04127 25.75930 23.90029
#
# Velocity S-wave (km/s) = 3.47946 3.76149 3.62322
# Velocity P-wave (km/s) = 6.20657 7.06564 6.64999
#
# Compressibility (1/GPa) = 0.02454359
#
# Stress axis : x y z
#
# Youngs Moduli (GPa) = 25.87977 76.40271 72.90201
#
# Poissons Ratio (x) = 0.80537 0.48554
# Poissons Ratio (y) = 0.27280 0.23692
# Poissons Ratio (z) = 0.17236 0.24830
#
# Static dielectric constant tensor:
#      x y z
#    x 3.347280 0.000000 -0.107660 
#    y 0.000000 3.413780 0.000000 
#    z -0.107660 0.000000 3.387090 
# 
# 
# High freq. dielectric constant tensor:
#      x y z
#    x 1.704170 0.000000 -0.003680 
#    y 0.000000 1.709690 0.000000 
#    z -0.003680 0.000000 1.719610 
# 
# From -- ./inp_files/4118.got.cif
#   From: 2010.06.25/outbox.cif.g09.slc.cpg/sg11_3_cif.got.tgz:4118.got - 2010.06.27 23:14:04.
