data_PCOD8072450
_publ_section_title
;
Structure prediction by ZEFSAII (Michael W. Deem and Ramdas Pophale) SiO2 
 PCOD8072450
Probable space group: P 21/M
;
_chemical_formula_sum "Si O2"
_cell_formula_units_Z 32
_cell_length_a 8.885266
_cell_length_b 15.544650
_cell_length_c 14.406815
_cell_angle_alpha 90.000000
_cell_angle_beta 128.710033
_cell_angle_gamma 90.000000
_cell_volume 1552.718065
_symmetry_space_group_name_H-M "P 21/M"
_symmetry_group_IT_number 11
_symmetry_cell_setting 'monoclinic'
loop_
_space_group_symop_operation_xyz
x,y,z
-x,1/2+y,-z
-x,-y,-z
x,1/2-y,z
loop_
_atom_site_type_symbol
_atom_site_label
_atom_site_fract_x
_atom_site_fract_y
_atom_site_fract_z
Si Si1 0.363756 0.346067 0.507242
Si Si2 0.760716 0.346923 0.566394
Si Si3 0.982133 0.654395 0.751747
Si Si4 0.774667 0.003220 0.427869
Si Si5 0.058547 0.414604 0.818655
Si Si6 0.107237 0.452321 0.123073
Si Si7 0.662189 0.649436 0.926165
Si Si8 0.703896 0.044759 0.200100
O O1 0.326932 0.250000 0.533837
O O2 0.587341 0.358790 0.571597
O O3 0.241059 0.356535 0.364739
O O4 0.301147 0.415292 0.558102
O O5 0.763146 0.250000 0.526352
O O6 0.726972 0.413662 0.470935
O O7 0.962653 0.361360 0.698361
O O8 0.058360 0.750000 0.780006
O O9 0.013490 0.621628 0.869722
O O10 0.108047 0.605145 0.723812
O O11 0.664892 0.009489 0.287808
O O12 0.000000 0.000000 0.500000
O O13 0.242385 0.469055 0.851244
O O14 0.881555 0.473566 0.792310
O O15 0.152284 0.354080 0.933870
O O16 0.294510 0.404697 0.152579
O O17 0.000000 0.500000 0.000000
O O18 0.619519 0.750000 0.887333
O O19 0.479127 0.602126 0.902821
#
# Coordination Sequence:
#
# PCOD8072450 Si02
#       8
#     4   4   4   4   4   4   4   4
#     4  10  23  40  61  92 124 162 207 251 302 368
#     4  11  24  40  64  92 121 161 208 252 305 367
#     4  10  19  36  57  82 122 160 192 244 304 359
#     4  12  22  40  62  91 129 165 197 250 311 363
#     4  10  21  43  61  82 120 163 201 244 307 362
#     4   9  20  36  58  83 111 151 200 247 296 356
#     4  11  23  38  60  90 117 152 205 259 300 351
#     4  11  23  37  59  89 120 159 201 238 300 370
#
# _framework density 20.609022
#
# number of rings (size 3 to 8) (size 9 to 14) (size 15 to 20)
#    0.000    1.500    2.500    2.625    3.500    1.500 
#    0.000    0.000    0.000    0.000    0.000    0.000 
#    0.000    0.000    0.000    0.000    0.000    0.000 
#
# Total GULP energy -396478.059798 kJ/mol
# GULP energy per Si atom -12389.939369 kJ/mol
# Density = 2.056212 g / cm^3
# Si number density = 20.609022 Si / 1000 Ang^3
#
#
#
# Elastic Constant Matrix: (Units=GPa)
#
#
# Indices 1 2 3 4 5 6 
#
# 1 92.3280 57.4674 20.3323 0.0000 -1.5758 0.0000
# 2 57.4674 137.3273 28.9873 0.0000 -7.9641 0.0000
# 3 20.3323 28.9873 64.5320 0.0000 -9.8722 0.0000
# 4 0.0000 0.0000 0.0000 15.0932 0.0000 6.9557
# 5 -1.5758 -7.9641 -9.8722 0.0000 33.0719 0.0000
# 6 0.0000 0.0000 0.0000 6.9557 0.0000 28.0291
#
#
#
# Elastic Compliance Matrix: (Units=1/GPa)
#
#
# Indices 1 2 3 4 5 6 
#
# 1 0.014957 -0.005855 -0.002294 0.000000 -0.001382 0.000000
# 2 -0.005855 0.010362 -0.002589 0.000000 0.001444 0.000000
# 3 -0.002294 -0.002589 0.018096 0.000000 0.004669 0.000000
# 4 0.000000 0.000000 0.000000 0.074811 0.000000 -0.018565
# 5 -0.001382 0.001444 0.004669 0.000000 0.031913 0.000000
# 6 0.000000 0.000000 0.000000 -0.018565 0.000000 0.040284
#
#
# Mechanical properties :
#
#
# Convention : Reuss Voigt Hill
#
# Bulk Modulus (GPa) = 45.58014 56.41793 50.99903
# Shear Modulus (GPa) = 22.80896 27.73219 25.27057
#
# Velocity S-wave (km/s) = 3.33039 3.67227 3.50550
# Velocity P-wave (km/s) = 6.07892 6.73910 6.41751
#
# Compressibility (1/GPa) = 0.02193938
#
# Stress axis : x y z
#
# Youngs Moduli (GPa) = 66.85939 96.50460 55.26024
#
# Poissons Ratio (x) = 0.56503 0.12676
# Poissons Ratio (y) = 0.39146 0.14307
# Poissons Ratio (z) = 0.15337 0.24986
#
# Static dielectric constant tensor:
#      x y z
#    x 3.849290 0.000000 -0.185400 
#    y 0.000000 3.940170 0.000000 
#    z -0.185400 0.000000 3.443810 
# 
# 
# High freq. dielectric constant tensor:
#      x y z
#    x 1.805250 0.000000 -0.006040 
#    y 0.000000 1.817310 0.000000 
#    z -0.006040 0.000000 1.787610 
# 
# From -- ./inp_files/47652.got.cif
#   From: 2010.06.25/outbox.cif.g09.slc.cpg/sg11_24_cif.got.tgz:47652.got - 2010.06.27 23:14:04.
