data_PCOD8072482
_publ_section_title
;
Structure prediction by ZEFSAII (Michael W. Deem and Ramdas Pophale) SiO2 
 PCOD8072482
Probable space group: P 21/M
;
_chemical_formula_sum "Si O2"
_cell_formula_units_Z 28
_cell_length_a 9.273167
_cell_length_b 9.010088
_cell_length_c 26.817055
_cell_angle_alpha 90.000000
_cell_angle_beta 139.928593
_cell_angle_gamma 90.000000
_cell_volume 1442.380761
_symmetry_space_group_name_H-M "P 21/M"
_symmetry_group_IT_number 11
_symmetry_cell_setting 'monoclinic'
loop_
_space_group_symop_operation_xyz
x,y,z
-x,1/2+y,-z
-x,-y,-z
x,1/2-y,z
loop_
_atom_site_type_symbol
_atom_site_label
_atom_site_fract_x
_atom_site_fract_y
_atom_site_fract_z
Si Si1 0.375564 0.921267 0.922450
Si Si2 0.605442 0.911922 0.168859
Si Si3 0.076440 0.919965 0.570291
Si Si4 0.268612 0.417631 0.435264
Si Si5 0.118690 0.587561 0.303913
Si Si6 0.464963 0.427356 0.737165
Si Si7 0.847075 0.577509 0.782808
O O1 0.435123 0.750000 0.940114
O O2 0.110921 0.947994 0.859638
O O3 0.479770 0.979577 0.897451
O O4 0.500000 0.000000 0.000000
O O5 0.485315 0.750000 0.133739
O O6 0.574291 0.979139 0.216017
O O7 0.862532 0.887690 0.223529
O O8 0.148734 0.750000 0.578589
O O9 0.855766 0.924165 0.545400
O O10 0.281700 0.002080 0.651760
O O11 0.000000 0.000000 0.500000
O O12 0.500000 0.500000 0.500000
O O13 0.308654 0.250000 0.428087
O O14 0.119113 0.502004 0.355786
O O15 0.238211 0.750000 0.338975
O O16 0.235059 0.488931 0.291969
O O17 0.451419 0.250000 0.728759
O O18 0.711663 0.487615 0.789027
O O19 0.782941 0.750000 0.767931
#
# Coordination Sequence:
#
# PCOD8072482 Si02
#       7
#     4   4   4   4   4   4   4
#     4  10  21  38  63  91 122 155 193 238 287 345
#     4   9  19  36  60  87 115 150 191 235 286 343
#     4  11  25  42  60  83 116 158 202 249 302 355
#     4  11  24  39  57  81 111 149 195 245 297 351
#     4  10  19  36  59  82 110 147 191 242 291 344
#     4  11  22  39  62  88 119 156 198 245 296 353
#     4  10  22  38  58  88 120 154 194 238 288 347
#
# _framework density 19.412348999999999
#
# number of rings (size 3 to 8) (size 9 to 14) (size 15 to 20)
#    0.000    1.714    1.429    2.571    2.000    5.143 
#    0.000    0.714    0.000    0.000    0.000    0.000 
#    0.000    0.000    0.000    0.000    0.000    0.000 
#
# Total GULP energy -347125.148241 kJ/mol
# GULP energy per Si atom -12397.326723 kJ/mol
# Density = 1.936817 g / cm^3
# Si number density = 19.412349 Si / 1000 Ang^3
#
#
#
# Elastic Constant Matrix: (Units=GPa)
#
#
# Indices 1 2 3 4 5 6 
#
# 1 107.7647 59.9029 45.1046 0.0000 -23.4289 0.0000
# 2 59.9029 159.1160 69.5531 0.0000 -21.1844 0.0000
# 3 45.1046 69.5531 90.8985 0.0000 -31.4623 0.0000
# 4 0.0000 0.0000 0.0000 35.6397 0.0000 -3.7357
# 5 -23.4289 -21.1844 -31.4623 0.0000 34.0404 0.0000
# 6 0.0000 0.0000 0.0000 -3.7357 0.0000 34.3509
#
#
#
# Elastic Compliance Matrix: (Units=1/GPa)
#
#
# Indices 1 2 3 4 5 6 
#
# 1 0.013131 -0.003280 -0.002329 0.000000 0.004843 0.000000
# 2 -0.003280 0.010295 -0.007078 0.000000 -0.002393 0.000000
# 3 -0.002329 -0.007078 0.022781 0.000000 0.015048 0.000000
# 4 0.000000 0.000000 0.000000 0.028382 0.000000 0.003087
# 5 0.004843 -0.002393 0.015048 0.000000 0.045130 0.000000
# 6 0.000000 0.000000 0.000000 0.003087 0.000000 0.029447
#
#
# Mechanical properties :
#
#
# Convention : Reuss Voigt Hill
#
# Bulk Modulus (GPa) = 48.00246 78.54448 63.27347
# Shear Modulus (GPa) = 27.55046 33.02077 30.28562
#
# Velocity S-wave (km/s) = 3.77135 4.12882 3.95412
# Velocity P-wave (km/s) = 6.61404 7.95477 7.31519
#
# Compressibility (1/GPa) = 0.02083226
#
# Stress axis : x y z
#
# Youngs Moduli (GPa) = 76.15692 97.13390 43.89544
#
# Poissons Ratio (x) = 0.31864 0.10224
# Poissons Ratio (y) = 0.24983 0.31069
# Poissons Ratio (z) = 0.17738 0.68751
#
# Static dielectric constant tensor:
#      x y z
#    x 2.573050 0.000000 1.032390 
#    y 0.000000 4.000690 0.000000 
#    z 1.032390 0.000000 2.020900 
# 
# 
# High freq. dielectric constant tensor:
#      x y z
#    x 1.758050 0.000000 -0.012620 
#    y 0.000000 1.774700 0.000000 
#    z -0.012620 0.000000 1.737810 
# 
# From -- ./inp_files/70904.got.cif
#   From: 2010.06.25/outbox.cif.g09.slc.cpg/sg11_36_cif.got.tgz:70904.got - 2010.06.27 23:14:04.
