data_PCOD8072969
_publ_section_title
;
Structure prediction by ZEFSAII (Michael W. Deem and Ramdas Pophale) SiO2 
 PCOD8072969
Probable space group: P 21/M
;
_chemical_formula_sum "Si O2"
_cell_formula_units_Z 32
_cell_length_a 19.887955
_cell_length_b 9.186367
_cell_length_c 24.934907
_cell_angle_alpha 90.000000
_cell_angle_beta 158.618748
_cell_angle_gamma 90.000000
_cell_volume 1660.829747
_symmetry_space_group_name_H-M "P 21/M"
_symmetry_group_IT_number 11
_symmetry_cell_setting 'monoclinic'
loop_
_space_group_symop_operation_xyz
x,y,z
-x,1/2+y,-z
-x,-y,-z
x,1/2-y,z
loop_
_atom_site_type_symbol
_atom_site_label
_atom_site_fract_x
_atom_site_fract_y
_atom_site_fract_z
Si Si1 0.782293 0.912267 0.025208
Si Si2 0.710761 0.588709 0.190412
Si Si3 0.638110 0.421968 0.644560
Si Si4 0.391678 0.582361 0.254076
Si Si5 0.088394 0.587745 0.517464
Si Si6 0.413867 0.421338 0.016781
Si Si7 0.025324 0.577951 0.919445
Si Si8 0.589818 0.088611 0.315582
O O1 0.872382 0.750000 0.097113
O O2 0.722840 0.978108 0.038526
O O3 0.601853 0.898498 0.856058
O O4 0.919484 0.026647 0.099445
O O5 0.625526 0.750000 0.132267
O O6 0.669430 0.523974 0.101114
O O7 0.929410 0.593606 0.355080
O O8 0.619368 0.492194 0.170622
O O9 0.500000 0.500000 0.500000
O O10 0.648501 0.250000 0.638704
O O11 0.570113 0.446965 0.654944
O O12 0.839984 0.491766 0.794744
O O13 0.410600 0.750000 0.253182
O O14 0.557241 0.501945 0.345668
O O15 0.185383 0.533452 0.081318
O O16 0.141812 0.750000 0.577260
O O17 0.263236 0.515170 0.616641
O O18 0.000000 0.500000 0.500000
O O19 0.436638 0.250000 0.040630
O O20 0.986516 0.750000 0.890782
O O21 0.662761 0.250000 0.385466
#
# Coordination Sequence:
#
# PCOD8072969 Si02
#       8
#     4   4   4   4   4   4   4   4
#     4   9  17  31  51  75 103 137 175 218 263 314
#     4   9  18  31  47  69  98 131 172 220 266 317
#     4  11  23  40  60  85 117 149 183 225 274 331
#     4   9  20  38  60  84 112 146 184 229 275 326
#     4  10  20  33  49  73 104 138 178 223 269 316
#     4   9  17  31  50  70  98 135 174 216 263 315
#     4  10  20  36  59  86 113 143 183 226 270 324
#     4   9  18  32  51  76 106 139 179 222 267 321
#
# _framework density 19.267479000000002
#
# number of rings (size 3 to 8) (size 9 to 14) (size 15 to 20)
#    0.000    2.500    0.000    1.875    0.000    4.000 
#    2.250    2.500    0.000    0.000    0.000    0.000 
#    0.000    0.000    0.000    0.000    0.000    0.000 
#
# Total GULP energy -396545.240669 kJ/mol
# GULP energy per Si atom -12392.038771 kJ/mol
# Density = 1.922363 g / cm^3
# Si number density = 19.267479 Si / 1000 Ang^3
#
#
#
# Elastic Constant Matrix: (Units=GPa)
#
#
# Indices 1 2 3 4 5 6 
#
# 1 141.0363 58.8361 36.0486 0.0000 11.8453 0.0000
# 2 58.8361 77.3773 32.1158 0.0000 7.8716 0.0000
# 3 36.0486 32.1158 50.9762 0.0000 10.3195 0.0000
# 4 0.0000 0.0000 0.0000 27.5746 0.0000 5.4185
# 5 11.8453 7.8716 10.3195 0.0000 27.8258 0.0000
# 6 0.0000 0.0000 0.0000 5.4185 0.0000 32.4499
#
#
#
# Elastic Compliance Matrix: (Units=1/GPa)
#
#
# Indices 1 2 3 4 5 6 
#
# 1 0.010848 -0.006821 -0.003060 0.000000 -0.001554 0.000000
# 2 -0.006821 0.021811 -0.008926 0.000000 0.000044 0.000000
# 3 -0.003060 -0.008926 0.028791 0.000000 -0.006850 0.000000
# 4 0.000000 0.000000 0.000000 0.037496 0.000000 -0.006261
# 5 -0.001554 0.000044 -0.006850 0.000000 0.039127 0.000000
# 6 0.000000 0.000000 0.000000 -0.006261 0.000000 0.031862
#
#
# Mechanical properties :
#
#
# Convention : Reuss Voigt Hill
#
# Bulk Modulus (GPa) = 41.95336 58.15453 50.05394
# Shear Modulus (GPa) = 23.20239 27.06266 25.13253
#
# Velocity S-wave (km/s) = 3.47396 3.75183 3.61557
# Velocity P-wave (km/s) = 6.15732 7.00119 6.59277
#
# Compressibility (1/GPa) = 0.02383599
#
# Stress axis : x y z
#
# Youngs Moduli (GPa) = 92.17932 45.84925 34.73274
#
# Poissons Ratio (x) = 0.31273 0.10628
# Poissons Ratio (y) = 0.62874 0.31004
# Poissons Ratio (z) = 0.28205 0.40927
#
# Static dielectric constant tensor:
#      x y z
#    x 3.796730 0.000000 0.072840 
#    y 0.000000 3.674520 0.000000 
#    z 0.072840 0.000000 3.522400 
# 
# 
# High freq. dielectric constant tensor:
#      x y z
#    x 1.756620 0.000000 0.005490 
#    y 0.000000 1.741770 0.000000 
#    z 0.005490 0.000000 1.734480 
# 
# From -- ./inp_files/72184.got.cif
#   From: 2010.06.25/outbox.cif.g09.slc.cpg/sg11_37_cif.got.tgz:72184.got - 2010.06.27 23:14:04.
