data_PCOD8072844
_publ_section_title
;
Structure prediction by ZEFSAII (Michael W. Deem and Ramdas Pophale) SiO2 
 PCOD8072844
Probable space group: P 21/M
;
_chemical_formula_sum "Si O2"
_cell_formula_units_Z 32
_cell_length_a 11.630723
_cell_length_b 8.989264
_cell_length_c 21.295570
_cell_angle_alpha 90.000000
_cell_angle_beta 56.883383
_cell_angle_gamma 90.000000
_cell_volume 1864.816918
_symmetry_space_group_name_H-M "P 21/M"
_symmetry_group_IT_number 11
_symmetry_cell_setting 'monoclinic'
loop_
_space_group_symop_operation_xyz
x,y,z
-x,1/2+y,-z
-x,-y,-z
x,1/2-y,z
loop_
_atom_site_type_symbol
_atom_site_label
_atom_site_fract_x
_atom_site_fract_y
_atom_site_fract_z
Si Si1 0.074014 0.077788 0.920399
Si Si2 0.901289 0.575743 0.724421
Si Si3 0.380871 0.423829 0.861241
Si Si4 0.061493 0.417046 0.573933
Si Si5 0.362807 0.074592 0.276558
Si Si6 0.612057 0.079812 0.007975
Si Si7 0.790140 0.417448 0.571993
Si Si8 0.097848 0.919357 0.145035
O O1 0.038804 0.250000 0.938984
O O2 0.235835 0.046648 0.870987
O O3 0.013565 0.021943 0.872042
O O4 0.000000 0.000000 0.000000
O O5 0.926115 0.750000 0.711311
O O6 0.753114 0.531929 0.740060
O O7 0.908154 0.527009 0.794055
O O8 0.023828 0.496002 0.650405
O O9 0.412930 0.250000 0.859056
O O10 0.495861 0.498537 0.784442
O O11 0.376601 0.496411 0.930216
O O12 0.112022 0.250000 0.572939
O O13 0.184194 0.506273 0.503201
O O14 0.930428 0.415056 0.568414
O O15 0.383168 0.250000 0.275276
O O16 0.322278 0.012635 0.356917
O O17 0.568212 0.250000 0.033309
O O18 0.754250 0.069223 0.929899
O O19 0.500000 0.000000 0.000000
O O20 0.735412 0.250000 0.577964
O O21 0.067246 0.750000 0.175350
#
# Coordination Sequence:
#
# PCOD8072844 Si02
#       8
#     4   4   4   4   4   4   4   4
#     4  10  21  38  57  75  95 125 168 217 260 304
#     4  10  20  32  48  73 103 135 170 208 249 296
#     4  11  22  35  53  75  99 129 168 212 258 303
#     4   9  16  27  45  69 100 137 170 202 245 296
#     4  10  20  33  49  72 105 139 171 207 251 302
#     4  11  22  35  52  73 101 133 166 203 249 306
#     4   9  16  27  45  70 101 135 171 207 244 292
#     4  10  21  36  52  71  97 130 166 207 256 302
#
# _framework density 17.159862
#
# number of rings (size 3 to 8) (size 9 to 14) (size 15 to 20)
#    0.000    2.000    1.250    3.000    0.000    8.500 
#    0.000    0.000    0.000    0.000    0.000    0.875 
#    0.000    0.000    0.000    0.000    0.000    0.000 
#
# Total GULP energy -396869.064111 kJ/mol
# GULP energy per Si atom -12402.158253 kJ/mol
# Density = 1.712081 g / cm^3
# Si number density = 17.159862 Si / 1000 Ang^3
#
#
#
# Elastic Constant Matrix: (Units=GPa)
#
#
# Indices 1 2 3 4 5 6 
#
# 1 80.3312 44.4866 39.8844 0.0000 2.0122 0.0000
# 2 44.4866 114.7608 63.7647 0.0000 -3.0284 0.0000
# 3 39.8844 63.7647 122.8995 0.0000 3.6773 0.0000
# 4 0.0000 0.0000 0.0000 39.1062 0.0000 1.4164
# 5 2.0122 -3.0284 3.6773 0.0000 -63.4149 0.0000
# 6 0.0000 0.0000 0.0000 1.4164 0.0000 19.6409
#
#
#
# Elastic Compliance Matrix: (Units=1/GPa)
#
#
# Indices 1 2 3 4 5 6 
#
# 1 0.016519 -0.004777 -0.002900 0.000000 0.000584 0.000000
# 2 -0.004777 0.013567 -0.005456 0.000000 -0.001116 0.000000
# 3 -0.002900 -0.005456 0.011883 0.000000 0.000858 0.000000
# 4 0.000000 0.000000 0.000000 0.025638 0.000000 -0.001849
# 5 0.000584 -0.001116 0.000858 0.000000 -0.015648 0.000000
# 6 0.000000 0.000000 0.000000 -0.001849 0.000000 0.051048
#
#
# Mechanical properties :
#
#
# Convention : Reuss Voigt Hill
#
# Bulk Modulus (GPa) = 63.67682 68.25143 65.96413
# Shear Modulus (GPa) = 37.17277 10.39016 23.78147
#
# Velocity S-wave (km/s) = 4.65936 2.46334 3.72678
# Velocity P-wave (km/s) = 8.13233 6.92466 7.55267
#
# Compressibility (1/GPa) = 0.01570430
#
# Stress axis : x y z
#
# Youngs Moduli (GPa) = 60.53631 73.70636 84.15533
#
# Poissons Ratio (x) = 0.35208 0.24405
# Poissons Ratio (y) = 0.28917 0.45912
# Poissons Ratio (z) = 0.17556 0.40212
#
# Static dielectric constant tensor:
#      x y z
#    x 3.038080 0.000000 -0.026330 
#    y 0.000000 3.405300 0.000000 
#    z -0.026330 0.000000 3.278550 
# 
# 
# High freq. dielectric constant tensor:
#      x y z
#    x 1.624150 0.000000 0.000870 
#    y 0.000000 1.679180 0.000000 
#    z 0.000870 0.000000 1.670380 
# 
# From -- ./inp_files/40657.got.cif
#   From: 2010.06.25/outbox.cif.g09.slc.cpg/sg11_21_cif.got.tgz:40657.got - 2010.06.27 23:14:04.
