data_PCOD8072614
_publ_section_title
;
Structure prediction by ZEFSAII (Michael W. Deem and Ramdas Pophale) SiO2 
 PCOD8072614
Probable space group: P 21/M
;
_chemical_formula_sum "Si O2"
_cell_formula_units_Z 32
_cell_length_a 25.585256
_cell_length_b 9.232505
_cell_length_c 15.262670
_cell_angle_alpha 90.000000
_cell_angle_beta 152.484634
_cell_angle_gamma 90.000000
_cell_volume 1665.593818
_symmetry_space_group_name_H-M "P 21/M"
_symmetry_group_IT_number 11
_symmetry_cell_setting 'monoclinic'
loop_
_space_group_symop_operation_xyz
x,y,z
-x,1/2+y,-z
-x,-y,-z
x,1/2-y,z
loop_
_atom_site_type_symbol
_atom_site_label
_atom_site_fract_x
_atom_site_fract_y
_atom_site_fract_z
Si Si1 0.492809 0.916992 0.331193
Si Si2 0.882565 0.921334 0.812156
Si Si3 0.715153 0.416515 0.225095
Si Si4 0.746692 0.416712 0.947386
Si Si5 0.257056 0.584267 0.535299
Si Si6 0.734632 0.582045 0.758741
Si Si7 0.118441 0.921089 0.681212
Si Si8 0.492561 0.420082 0.150713
O O1 0.498968 0.750000 0.308793
O O2 0.385947 0.944029 0.234261
O O3 0.603934 0.960576 0.550532
O O4 0.480603 0.017819 0.229652
O O5 0.900607 0.750000 0.832182
O O6 0.802724 0.965364 0.774102
O O7 0.826099 0.977564 0.639243
O O8 0.000000 0.000000 0.000000
O O9 0.681819 0.250000 0.157460
O O10 0.769393 0.435717 0.401465
O O11 0.806203 0.470186 0.289384
O O12 0.601603 0.510204 0.051543
O O13 0.772918 0.250000 0.969532
O O14 0.785157 0.500777 0.917858
O O15 0.817919 0.472590 0.136292
O O16 0.234729 0.750000 0.472643
O O17 0.385985 0.539873 0.708247
O O18 0.749793 0.750000 0.800311
O O19 0.098563 0.750000 0.650723
O O20 0.000000 0.000000 0.500000
O O21 0.472234 0.250000 0.123828
#
# Coordination Sequence:
#
# PCOD8072614 Si02
#       8
#     4   4   4   4   4   4   4   4
#     4  10  19  37  60  84 119 157 190 229 290 359
#     4  11  24  42  63  85 116 157 199 246 294 345
#     4  10  21  40  62  83 118 160 193 234 292 357
#     4  10  21  37  60  87 117 153 191 237 290 343
#     4  10  22  39  61  90 120 153 194 240 293 349
#     4  10  22  38  60  88 116 153 193 233 291 351
#     4  10  22  40  60  82 111 152 196 239 289 339
#     4  11  21  33  57  93 123 150 190 241 290 343
#
# _framework density 19.212367
#
# number of rings (size 3 to 8) (size 9 to 14) (size 15 to 20)
#    0.000    1.750    2.500    1.500    0.000    5.000 
#    0.000    3.750    0.000    0.000    0.000    0.000 
#    0.000    0.000    0.000    0.000    0.000    0.000 
#
# Total GULP energy -396951.873803 kJ/mol
# GULP energy per Si atom -12404.746056 kJ/mol
# Density = 1.916864 g / cm^3
# Si number density = 19.212367 Si / 1000 Ang^3
#
#
#
# Elastic Constant Matrix: (Units=GPa)
#
#
# Indices 1 2 3 4 5 6 
#
# 1 81.1490 37.2160 61.5051 0.0000 -21.6171 0.0000
# 2 37.2160 66.0703 58.7993 0.0000 -4.2188 0.0000
# 3 61.5051 58.7993 138.0156 0.0000 1.1124 0.0000
# 4 0.0000 0.0000 0.0000 39.5281 0.0000 -2.1753
# 5 -21.6171 -4.2188 1.1124 0.0000 28.4258 0.0000
# 6 0.0000 0.0000 0.0000 -2.1753 0.0000 31.1387
#
#
#
# Elastic Compliance Matrix: (Units=1/GPa)
#
#
# Indices 1 2 3 4 5 6 
#
# 1 0.028420 -0.005198 -0.010622 0.000000 0.021257 0.000000
# 2 -0.005198 0.025799 -0.008676 0.000000 0.000215 0.000000
# 3 -0.010622 -0.008676 0.015756 0.000000 -0.009982 0.000000
# 4 0.000000 0.000000 0.000000 0.025396 0.000000 0.001774
# 5 0.021257 0.000215 -0.009982 0.000000 0.051768 0.000000
# 6 0.000000 0.000000 0.000000 0.001774 0.000000 0.032238
#
#
# Mechanical properties :
#
#
# Convention : Reuss Voigt Hill
#
# Bulk Modulus (GPa) = 47.65989 66.69731 57.17860
# Shear Modulus (GPa) = 21.24372 28.33281 24.78826
#
# Velocity S-wave (km/s) = 3.32886 3.84437 3.59587
# Velocity P-wave (km/s) = 6.29570 7.38219 6.86049
#
# Compressibility (1/GPa) = 0.02098200
#
# Stress axis : x y z
#
# Youngs Moduli (GPa) = 35.18613 38.76167 63.46819
#
# Poissons Ratio (x) = 0.20149 0.67415
# Poissons Ratio (y) = 0.18291 0.55067
# Poissons Ratio (z) = 0.37374 0.33631
#
# Static dielectric constant tensor:
#      x y z
#    x 3.545460 0.000000 0.034710 
#    y 0.000000 3.466690 0.000000 
#    z 0.034710 0.000000 3.359620 
# 
# 
# High freq. dielectric constant tensor:
#      x y z
#    x 1.754030 0.000000 -0.004910 
#    y 0.000000 1.743210 0.000000 
#    z -0.004910 0.000000 1.750050 
# 
# From -- ./inp_files/51737.got.cif
#   From: 2010.06.25/outbox.cif.g09.slc.cpg/sg11_26_cif.got.tgz:51737.got - 2010.06.27 23:14:04.
