data_PCOD8072830
_publ_section_title
;
Structure prediction by ZEFSAII (Michael W. Deem and Ramdas Pophale) SiO2 
 PCOD8072830
Probable space group: P 21/M
;
_chemical_formula_sum "Si O2"
_cell_formula_units_Z 20
_cell_length_a 9.050457
_cell_length_b 9.109608
_cell_length_c 26.227094
_cell_angle_alpha 90.000000
_cell_angle_beta 150.089099
_cell_angle_gamma 90.000000
_cell_volume 1078.247638
_symmetry_space_group_name_H-M "P 21/M"
_symmetry_group_IT_number 11
_symmetry_cell_setting 'monoclinic'
loop_
_space_group_symop_operation_xyz
x,y,z
-x,1/2+y,-z
-x,-y,-z
x,1/2-y,z
loop_
_atom_site_type_symbol
_atom_site_label
_atom_site_fract_x
_atom_site_fract_y
_atom_site_fract_z
Si Si1 0.366029 0.422643 0.008802
Si Si2 0.794514 0.087450 0.786469
Si Si3 0.170968 0.083159 0.796180
Si Si4 0.337854 0.079722 0.405804
Si Si5 0.306761 0.582770 0.591615
O O1 0.445454 0.250000 0.031887
O O2 0.008165 0.446513 0.899061
O O3 0.500000 0.500000 0.000000
O O4 0.512481 0.499818 0.102197
O O5 0.657942 0.250000 0.750881
O O6 0.996590 0.079106 0.796895
O O7 0.521076 0.975820 0.700811
O O8 0.227334 0.250000 0.794800
O O9 0.980799 0.997184 0.696914
O O10 0.287505 0.250000 0.403817
O O11 0.538782 0.059643 0.416254
O O12 0.500000 0.000000 0.500000
O O13 0.240470 0.750000 0.584282
O O14 0.000000 0.500000 0.500000
#
# Coordination Sequence:
#
# PCOD8072830 Si02
#       5
#     4   4   4   4   4
#     4   9  15  23  37  59  87 118 149 185 230 277
#     4   8  15  26  40  60  88 119 150 186 229 272
#     4   9  16  26  41  62  89 120 151 188 231 275
#     4  10  20  33  49  70  95 125 159 195 234 278
#     4  10  20  32  48  69  94 124 158 194 233 276
#
# _framework density 18.548615000000002
#
# number of rings (size 3 to 8) (size 9 to 14) (size 15 to 20)
#    0.000    2.800    0.000    3.600    0.000    8.000 
#    0.000    0.000    0.000    0.000    0.000    1.400 
#    0.000    0.000    0.000    0.000    0.000    0.000 
#
# Total GULP energy -247868.369447 kJ/mol
# GULP energy per Si atom -12393.418472 kJ/mol
# Density = 1.850640 g / cm^3
# Si number density = 18.548615 Si / 1000 Ang^3
#
#
#
# Elastic Constant Matrix: (Units=GPa)
#
#
# Indices 1 2 3 4 5 6 
#
# 1 7.8173 22.6105 21.3036 0.0000 -2.3477 0.0000
# 2 22.6105 181.1274 116.2277 0.0000 -2.9441 0.0000
# 3 21.3036 116.2277 202.6387 0.0000 -11.8340 0.0000
# 4 0.0000 0.0000 0.0000 46.1388 0.0000 -1.4663
# 5 -2.3477 -2.9441 -11.8340 0.0000 21.2869 0.0000
# 6 0.0000 0.0000 0.0000 -1.4663 0.0000 16.3525
#
#
#
# Elastic Compliance Matrix: (Units=1/GPa)
#
#
# Indices 1 2 3 4 5 6 
#
# 1 0.220695 -0.020562 -0.010494 0.000000 0.015662 0.000000
# 2 -0.020562 0.010707 -0.004161 0.000000 -0.003100 0.000000
# 3 -0.010494 -0.004161 0.008603 0.000000 0.003050 0.000000
# 4 0.000000 0.000000 0.000000 0.021736 0.000000 0.001949
# 5 0.015662 -0.003100 0.003050 0.000000 0.049971 0.000000
# 6 0.000000 0.000000 0.000000 0.001949 0.000000 0.061328
#
#
# Mechanical properties :
#
#
# Convention : Reuss Voigt Hill
#
# Bulk Modulus (GPa) = 5.89717 79.09635 42.49676
# Shear Modulus (GPa) = 10.00008 32.18507 21.09257
#
# Velocity S-wave (km/s) = 2.32443 4.17006 3.37582
# Velocity P-wave (km/s) = 3.22338 8.11919 6.17703
#
# Compressibility (1/GPa) = 0.16957300
#
# Stress axis : x y z
#
# Youngs Moduli (GPa) = 4.53114 93.39462 116.24282
#
# Poissons Ratio (x) = 1.92035 1.21981
# Poissons Ratio (y) = 0.09317 0.48366
# Poissons Ratio (z) = 0.04755 0.38859
#
# Static dielectric constant tensor:
#      x y z
#    x 2.694430 0.000000 -0.179040 
#    y 0.000000 3.717470 0.000000 
#    z -0.179040 0.000000 4.255230 
# 
# 
# High freq. dielectric constant tensor:
#      x y z
#    x 1.633250 0.000000 -0.006640 
#    y 0.000000 1.737810 0.000000 
#    z -0.006640 0.000000 1.748200 
# 
# From -- ./inp_files/20177.got.cif
#   From: 2010.06.25/outbox.cif.g09.slc.cpg/sg11_11_cif.got.tgz:20177.got - 2010.06.27 23:14:04.
