data_PCOD8072382
_publ_section_title
;
Structure prediction by ZEFSAII (Michael W. Deem and Ramdas Pophale) SiO2 
 PCOD8072382
Probable space group: P 21/M
;
_chemical_formula_sum "Si O2"
_cell_formula_units_Z 24
_cell_length_a 19.297879
_cell_length_b 14.973153
_cell_length_c 12.513851
_cell_angle_alpha 90.000000
_cell_angle_beta 160.839919
_cell_angle_gamma 90.000000
_cell_volume 1186.762409
_symmetry_space_group_name_H-M "P 21/M"
_symmetry_group_IT_number 11
_symmetry_cell_setting 'monoclinic'
loop_
_space_group_symop_operation_xyz
x,y,z
-x,1/2+y,-z
-x,-y,-z
x,1/2-y,z
loop_
_atom_site_type_symbol
_atom_site_label
_atom_site_fract_x
_atom_site_fract_y
_atom_site_fract_z
Si Si1 0.585178 0.504987 0.242738
Si Si2 0.107686 0.847146 0.288654
Si Si3 0.734849 0.647213 0.898091
Si Si4 0.221571 0.509209 0.879551
Si Si5 0.721996 0.146215 0.853844
Si Si6 0.019385 0.412295 0.101993
O O1 0.688689 0.409708 0.420434
O O2 0.759523 0.583776 0.511433
O O3 0.500000 0.500000 0.000000
O O4 0.395879 0.528469 0.044977
O O5 0.185092 0.750000 0.439158
O O6 0.935347 0.885090 0.120804
O O7 0.998299 0.834499 0.012236
O O8 0.758229 0.750000 0.970322
O O9 0.528487 0.636598 0.524531
O O10 0.719506 0.583430 0.977361
O O11 0.000000 0.500000 0.500000
O O12 0.210595 0.593793 0.942057
O O13 0.791304 0.250000 0.964318
O O14 0.831301 0.098937 0.912197
O O15 0.000000 0.500000 0.000000
#
# Coordination Sequence:
#
# PCOD8072382 Si02
#       6
#     4   4   4   4   4   4
#     4  11  23  40  59  83 116 155 197 241 298 359
#     4  10  20  37  60  88 118 150 191 242 293 349
#     4  10  21  38  63  91 120 154 198 247 299 356
#     4  12  24  40  62  85 119 160 200 250 303 361
#     4  11  23  40  62  91 123 160 204 250 299 357
#     4  10  19  35  60  86 116 151 192 238 287 344
#
# _framework density 20.223089000000002
#
# number of rings (size 3 to 8) (size 9 to 14) (size 15 to 20)
#    0.000    1.333    0.000    8.000    0.000    2.667 
#    0.000    5.000    0.000    0.000    0.000    0.000 
#    0.000    0.000    0.000    0.000    0.000    0.000 
#
# Total GULP energy -297552.890392 kJ/mol
# GULP energy per Si atom -12398.037100 kJ/mol
# Density = 2.017706 g / cm^3
# Si number density = 20.223089 Si / 1000 Ang^3
#
#
#
# Elastic Constant Matrix: (Units=GPa)
#
#
# Indices 1 2 3 4 5 6 
#
# 1 130.1526 39.0633 31.5087 0.0000 1.0657 0.0000
# 2 39.0633 104.4588 36.0951 0.0000 -5.5314 0.0000
# 3 31.5087 36.0951 105.8332 0.0000 -9.7481 0.0000
# 4 0.0000 0.0000 0.0000 24.4156 0.0000 4.7169
# 5 1.0657 -5.5314 -9.7481 0.0000 45.9846 0.0000
# 6 0.0000 0.0000 0.0000 4.7169 0.0000 21.5422
#
#
#
# Elastic Compliance Matrix: (Units=1/GPa)
#
#
# Indices 1 2 3 4 5 6 
#
# 1 0.008961 -0.002776 -0.001806 0.000000 -0.000925 0.000000
# 2 -0.002776 0.011725 -0.003097 0.000000 0.000818 0.000000
# 3 -0.001806 -0.003097 0.011232 0.000000 0.002050 0.000000
# 4 0.000000 0.000000 0.000000 0.042766 0.000000 -0.009364
# 5 -0.000925 0.000818 0.002050 0.000000 0.022301 0.000000
# 6 0.000000 0.000000 0.000000 -0.009364 0.000000 0.048471
#
#
# Mechanical properties :
#
#
# Convention : Reuss Voigt Hill
#
# Bulk Modulus (GPa) = 60.38949 61.53098 60.96024
# Shear Modulus (GPa) = 30.05995 33.97365 32.01680
#
# Velocity S-wave (km/s) = 3.85959 4.10316 3.98324
# Velocity P-wave (km/s) = 7.05609 7.27599 7.16688
#
# Compressibility (1/GPa) = 0.01655917
#
# Stress axis : x y z
#
# Youngs Moduli (GPa) = 111.59073 85.29000 89.03361
#
# Poissons Ratio (x) = 0.23676 0.16083
# Poissons Ratio (y) = 0.30977 0.27573
# Poissons Ratio (z) = 0.20157 0.26414
#
# Static dielectric constant tensor:
#      x y z
#    x 3.808250 0.000000 -0.083550 
#    y 0.000000 4.087240 0.000000 
#    z -0.083550 0.000000 4.009820 
# 
# 
# High freq. dielectric constant tensor:
#      x y z
#    x 1.801450 0.000000 0.008230 
#    y 0.000000 1.790830 0.000000 
#    z 0.008230 0.000000 1.788900 
# 
# From -- ./inp_files/41918.got.cif
#   From: 2010.06.25/outbox.cif.g09.slc.cpg/sg11_21_cif.got.tgz:41918.got - 2010.06.27 23:14:04.
