data_PCOD8072564
_publ_section_title
;
Structure prediction by ZEFSAII (Michael W. Deem and Ramdas Pophale) SiO2 
 PCOD8072564
Probable space group: P 21/M
;
_chemical_formula_sum "Si O2"
_cell_formula_units_Z 32
_cell_length_a 11.752157
_cell_length_b 18.975555
_cell_length_c 9.687851
_cell_angle_alpha 90.000000
_cell_angle_beta 50.525806
_cell_angle_gamma 90.000000
_cell_volume 1667.657071
_symmetry_space_group_name_H-M "P 21/M"
_symmetry_group_IT_number 11
_symmetry_cell_setting 'monoclinic'
loop_
_space_group_symop_operation_xyz
x,y,z
-x,1/2+y,-z
-x,-y,-z
x,1/2-y,z
loop_
_atom_site_type_symbol
_atom_site_label
_atom_site_fract_x
_atom_site_fract_y
_atom_site_fract_z
Si Si1 0.308996 0.331165 0.801771
Si Si2 0.348034 0.166740 0.455075
Si Si3 0.919135 0.582102 0.428254
Si Si4 0.450359 0.575976 0.879897
Si Si5 0.975548 0.901493 0.896700
Si Si6 0.870300 0.445494 0.968401
Si Si7 0.137176 0.578654 0.493851
Si Si8 0.533464 0.417355 0.814084
O O1 0.352076 0.250000 0.781517
O O2 0.334693 0.357154 0.624758
O O3 0.414001 0.373727 0.822669
O O4 0.137364 0.338987 0.978649
O O5 0.358147 0.250000 0.432465
O O6 0.209596 0.139391 0.473172
O O7 0.491471 0.132175 0.275723
O O8 0.855156 0.506103 0.520353
O O9 0.985573 0.578213 0.225136
O O10 0.044929 0.607677 0.435945
O O11 0.515311 0.499651 0.793736
O O12 0.274667 0.577055 0.000610
O O13 0.491696 0.597383 0.004078
O O14 0.052313 0.890376 0.690960
O O15 0.871549 0.970376 0.983311
O O16 0.112794 0.907581 0.896902
O O17 0.303649 0.607434 0.358439
#
# Coordination Sequence:
#
# PCOD8072564 Si02
#       8
#     4   4   4   4   4   4   4   4
#     4  11  25  44  61  86 127 168 206 253 314 377
#     4  11  25  43  62  88 123 168 210 252 310 374
#     4  10  19  38  60  89 125 151 196 258 298 359
#     4  11  23  38  64  94 126 163 206 255 309 368
#     4  10  21  36  60  93 120 153 199 253 307 364
#     4  10  19  36  61  91 120 151 203 256 302 350
#     4  10  21  34  63  94 120 150 196 254 310 352
#     4  11  23  39  61  95 129 163 200 257 312 368
#
# _framework density 19.188597999999999
#
# number of rings (size 3 to 8) (size 9 to 14) (size 15 to 20)
#    0.000    1.500    5.000    0.000    3.500    1.000 
#    0.000    2.500    0.000    0.000    0.000    0.000 
#    0.000    0.000    0.000    0.000    0.000    0.000 
#
# Total GULP energy -396869.390524 kJ/mol
# GULP energy per Si atom -12402.168454 kJ/mol
# Density = 1.914492 g / cm^3
# Si number density = 19.188598 Si / 1000 Ang^3
#
#
#
# Elastic Constant Matrix: (Units=GPa)
#
#
# Indices 1 2 3 4 5 6 
#
# 1 108.0548 32.9098 35.8138 0.0000 5.8794 0.0000
# 2 32.9098 54.8880 33.7713 0.0000 9.3099 0.0000
# 3 35.8138 33.7713 89.2750 0.0000 6.8252 0.0000
# 4 0.0000 0.0000 0.0000 25.2934 0.0000 0.2935
# 5 5.8794 9.3099 6.8252 0.0000 33.4815 0.0000
# 6 0.0000 0.0000 0.0000 0.2935 0.0000 22.6621
#
#
#
# Elastic Compliance Matrix: (Units=1/GPa)
#
#
# Indices 1 2 3 4 5 6 
#
# 1 0.011794 -0.005420 -0.002680 0.000000 -0.000018 0.000000
# 2 -0.005420 0.027037 -0.007671 0.000000 -0.005002 0.000000
# 3 -0.002680 -0.007671 0.015216 0.000000 -0.000498 0.000000
# 4 0.000000 0.000000 0.000000 0.039542 0.000000 -0.000512
# 5 -0.000018 -0.005002 -0.000498 0.000000 0.031363 0.000000
# 6 0.000000 0.000000 0.000000 -0.000512 0.000000 0.044133
#
#
# Mechanical properties :
#
#
# Convention : Reuss Voigt Hill
#
# Bulk Modulus (GPa) = 44.43209 50.80085 47.61647
# Shear Modulus (GPa) = 24.02358 26.26893 25.14625
#
# Velocity S-wave (km/s) = 3.54216 3.70400 3.62398
# Velocity P-wave (km/s) = 6.31941 6.69513 6.50998
#
# Compressibility (1/GPa) = 0.02250626
#
# Stress axis : x y z
#
# Youngs Moduli (GPa) = 84.78563 36.98665 65.71896
#
# Poissons Ratio (x) = 0.20046 0.17612
# Poissons Ratio (y) = 0.45952 0.50412
# Poissons Ratio (z) = 0.22722 0.28372
#
# Static dielectric constant tensor:
#      x y z
#    x 3.531630 0.000000 0.105990 
#    y 0.000000 3.198160 0.000000 
#    z 0.105990 0.000000 3.543030 
# 
# 
# High freq. dielectric constant tensor:
#      x y z
#    x 1.759970 0.000000 0.004260 
#    y 0.000000 1.709080 0.000000 
#    z 0.004260 0.000000 1.756640 
# 
# From -- ./inp_files/19390.got.cif
#   From: 2010.06.25/outbox.cif.g09.slc.cpg/sg11_10_cif.got.tgz:19390.got - 2010.06.27 23:14:04.
