data_PCOD8072707
_publ_section_title
;
Structure prediction by ZEFSAII (Michael W. Deem and Ramdas Pophale) SiO2 
 PCOD8072707
Probable space group: P 21/M
;
_chemical_formula_sum "Si O2"
_cell_formula_units_Z 28
_cell_length_a 13.916612
_cell_length_b 14.959766
_cell_length_c 9.193683
_cell_angle_alpha 90.000000
_cell_angle_beta 129.663272
_cell_angle_gamma 90.000000
_cell_volume 1473.434218
_symmetry_space_group_name_H-M "P 21/M"
_symmetry_group_IT_number 11
_symmetry_cell_setting 'monoclinic'
loop_
_space_group_symop_operation_xyz
x,y,z
-x,1/2+y,-z
-x,-y,-z
x,1/2-y,z
loop_
_atom_site_type_symbol
_atom_site_label
_atom_site_fract_x
_atom_site_fract_y
_atom_site_fract_z
Si Si1 0.499152 0.934786 0.636227
Si Si2 0.740363 0.848887 0.830117
Si Si3 0.121815 0.353333 0.328549
Si Si4 0.862407 0.495351 0.433449
Si Si5 0.284634 0.502005 0.996586
Si Si6 0.847607 0.148061 0.960539
Si Si7 0.230294 0.645347 0.437203
O O1 0.588950 0.851591 0.678873
O O2 0.365922 0.899282 0.555501
O O3 0.500000 0.000000 0.500000
O O4 0.566189 0.985057 0.839044
O O5 0.788060 0.750000 0.918991
O O6 0.788382 0.875884 0.718033
O O7 0.791196 0.920264 0.997726
O O8 0.131700 0.250000 0.385993
O O9 0.164820 0.415167 0.502367
O O10 0.982785 0.379962 0.147956
O O11 0.755425 0.491495 0.208262
O O12 0.848992 0.405729 0.516497
O O13 0.000000 0.500000 0.500000
O O14 0.255787 0.592924 0.053827
O O15 0.817079 0.250000 0.967053
O O16 0.842866 0.131336 0.783685
O O17 0.241394 0.750000 0.489363
#
# Coordination Sequence:
#
# PCOD8072707 Si02
#       7
#     4   4   4   4   4   4   4
#     4  10  19  38  65  88 118 152 198 257 296 354
#     4   9  20  37  61  88 115 151 198 251 300 351
#     4  10  21  38  61  87 120 156 200 251 303 364
#     4  12  25  39  59  87 127 164 197 249 309 370
#     4  10  22  37  60  88 119 159 201 245 302 362
#     4  10  20  37  61  89 118 154 203 256 299 355
#     4  11  24  40  63  91 122 161 205 250 307 364
#
# _framework density 19.003222999999998
#
# number of rings (size 3 to 8) (size 9 to 14) (size 15 to 20)
#    0.857    0.857    2.857    2.143    2.000    3.429 
#    0.000    0.000    0.000    1.714    0.000    0.000 
#    0.000    0.000    0.000    0.000    0.000    0.000 
#
# Total GULP energy -347057.221002 kJ/mol
# GULP energy per Si atom -12394.900750 kJ/mol
# Density = 1.895997 g / cm^3
# Si number density = 19.003223 Si / 1000 Ang^3
#
#
#
# Elastic Constant Matrix: (Units=GPa)
#
#
# Indices 1 2 3 4 5 6 
#
# 1 70.8339 47.1107 9.4731 0.0000 -6.1492 0.0000
# 2 47.1107 111.3838 51.4397 0.0000 -15.6765 0.0000
# 3 9.4731 51.4397 104.3725 0.0000 -15.7167 0.0000
# 4 0.0000 0.0000 0.0000 23.7724 0.0000 3.4898
# 5 -6.1492 -15.6765 -15.7167 0.0000 26.5356 0.0000
# 6 0.0000 0.0000 0.0000 3.4898 0.0000 32.0458
#
#
#
# Elastic Compliance Matrix: (Units=1/GPa)
#
#
# Indices 1 2 3 4 5 6 
#
# 1 0.020405 -0.010001 0.003183 0.000000 0.000705 0.000000
# 2 -0.010001 0.016888 -0.006875 0.000000 0.003587 0.000000
# 3 0.003183 -0.006875 0.013373 0.000000 0.004596 0.000000
# 4 0.000000 0.000000 0.000000 0.042749 0.000000 -0.004655
# 5 0.000705 0.003587 0.004596 0.000000 0.042690 0.000000
# 6 0.000000 0.000000 0.000000 -0.004655 0.000000 0.031712
#
#
# Mechanical properties :
#
#
# Convention : Reuss Voigt Hill
#
# Bulk Modulus (GPa) = 42.95689 55.84858 49.40274
# Shear Modulus (GPa) = 24.63496 28.37519 26.50508
#
# Velocity S-wave (km/s) = 3.60440 3.86836 3.73871
# Velocity P-wave (km/s) = 6.32269 7.02887 6.68511
#
# Compressibility (1/GPa) = 0.02327915
#
# Stress axis : x y z
#
# Youngs Moduli (GPa) = 49.00836 59.21315 74.77865
#
# Poissons Ratio (x) = 0.59220 -0.23804
# Poissons Ratio (y) = 0.49014 0.51413
# Poissons Ratio (z) = -0.15601 0.40711
#
# Static dielectric constant tensor:
#      x y z
#    x 3.363240 0.000000 0.039620 
#    y 0.000000 3.544580 0.000000 
#    z 0.039620 0.000000 3.468490 
# 
# 
# High freq. dielectric constant tensor:
#      x y z
#    x 1.727650 0.000000 0.002960 
#    y 0.000000 1.749060 0.000000 
#    z 0.002960 0.000000 1.734320 
# 
# From -- ./inp_files/18163.got.cif
#   From: 2010.06.25/outbox.cif.g09.slc.cpg/sg11_10_cif.got.tgz:18163.got - 2010.06.27 23:14:04.
