data_PCOD8072065
_publ_section_title
;
Structure prediction by ZEFSAII (Michael W. Deem and Ramdas Pophale) SiO2 
 PCOD8072065
Probable space group: P 21/M
;
_chemical_formula_sum "Si O2"
_cell_formula_units_Z 32
_cell_length_a 15.456596
_cell_length_b 8.953213
_cell_length_c 26.284701
_cell_angle_alpha 90.000000
_cell_angle_beta 26.817258
_cell_angle_gamma 90.000000
_cell_volume 1641.017776
_symmetry_space_group_name_H-M "P 21/M"
_symmetry_group_IT_number 11
_symmetry_cell_setting 'monoclinic'
loop_
_space_group_symop_operation_xyz
x,y,z
-x,1/2+y,-z
-x,-y,-z
x,1/2-y,z
loop_
_atom_site_type_symbol
_atom_site_label
_atom_site_fract_x
_atom_site_fract_y
_atom_site_fract_z
Si Si1 0.507378 0.575635 0.768109
Si Si2 0.967475 0.926078 0.245704
Si Si3 0.180319 0.577168 0.771937
Si Si4 0.298736 0.074897 0.233552
Si Si5 0.599556 0.425956 0.995150
Si Si6 0.919508 0.427218 0.378758
Si Si7 0.419532 0.076799 0.385250
Si Si8 0.107635 0.425271 0.989834
O O1 0.451809 0.750000 0.800196
O O2 0.674282 0.533784 0.721148
O O3 0.582939 0.533409 0.672876
O O4 0.322889 0.482094 0.880602
O O5 0.949123 0.750000 0.262225
O O6 0.180316 0.977467 0.117440
O O7 0.823016 0.980005 0.277605
O O8 0.908077 0.002291 0.329235
O O9 0.173048 0.750000 0.760277
O O10 0.372444 0.539506 0.701806
O O11 0.000684 0.532375 0.901327
O O12 0.280931 0.250000 0.235891
O O13 0.104133 0.005759 0.312168
O O14 0.486822 0.018170 0.104434
O O15 0.585790 0.250000 0.995402
O O16 0.500000 0.500000 0.000000
O O17 0.928434 0.250000 0.368625
O O18 0.731923 0.471880 0.508025
O O19 0.365882 0.250000 0.421493
O O20 0.103706 0.250000 0.982411
O O21 0.000000 0.500000 0.000000
#
# Coordination Sequence:
#
# PCOD8072065 Si02
#       8
#     4   4   4   4   4   4   4   4
#     4  10  20  39  63  87 119 158 194 239 295 348
#     4  11  23  38  61  91 117 152 196 241 294 350
#     4  10  22  40  60  86 119 157 194 237 295 349
#     4   9  19  36  60  87 118 155 191 232 291 351
#     4  10  19  34  57  86 118 151 187 228 284 349
#     4  11  23  40  61  85 116 156 198 245 293 345
#     4  10  22  41  61  83 115 155 198 244 292 345
#     4  11  21  36  60  91 123 156 193 237 291 352
#
# _framework density 19.500093
#
# number of rings (size 3 to 8) (size 9 to 14) (size 15 to 20)
#    0.000    1.750    2.500    1.875    0.000    4.500 
#    0.000    1.875    0.000    0.000    0.000    0.000 
#    0.000    0.000    0.000    0.000    0.000    0.000 
#
# Total GULP energy -396866.513752 kJ/mol
# GULP energy per Si atom -12402.078555 kJ/mol
# Density = 1.945571 g / cm^3
# Si number density = 19.500093 Si / 1000 Ang^3
#
#
#
# Elastic Constant Matrix: (Units=GPa)
#
#
# Indices 1 2 3 4 5 6 
#
# 1 140.2541 45.3495 46.3652 0.0000 31.4858 0.0000
# 2 45.3495 54.4326 43.8528 0.0000 10.4408 0.0000
# 3 46.3652 43.8528 109.2234 0.0000 21.6427 0.0000
# 4 0.0000 0.0000 0.0000 30.0752 0.0000 1.2815
# 5 31.4858 10.4408 21.6427 0.0000 21.7789 0.0000
# 6 0.0000 0.0000 0.0000 1.2815 0.0000 26.6937
#
#
#
# Elastic Compliance Matrix: (Units=1/GPa)
#
#
# Indices 1 2 3 4 5 6 
#
# 1 0.013199 -0.008824 0.001099 0.000000 -0.015944 0.000000
# 2 -0.008824 0.033183 -0.011148 0.000000 0.007926 0.000000
# 3 0.001099 -0.011148 0.015466 0.000000 -0.011614 0.000000
# 4 0.000000 0.000000 0.000000 0.033318 0.000000 -0.001599
# 5 -0.015944 0.007926 -0.011614 0.000000 0.076707 0.000000
# 6 0.000000 0.000000 0.000000 -0.001599 0.000000 0.037539
#
#
# Mechanical properties :
#
#
# Convention : Reuss Voigt Hill
#
# Bulk Modulus (GPa) = 41.48822 63.89390 52.69106
# Shear Modulus (GPa) = 19.59305 26.93239 23.26272
#
# Velocity S-wave (km/s) = 3.17324 3.72040 3.45766
# Velocity P-wave (km/s) = 5.89475 7.16186 6.55898
#
# Compressibility (1/GPa) = 0.02410323
#
# Stress axis : x y z
#
# Youngs Moduli (GPa) = 75.76434 30.13551 64.65691
#
# Poissons Ratio (x) = 0.26590 -0.07106
# Poissons Ratio (y) = 0.66851 0.72080
# Poissons Ratio (z) = -0.08327 0.33595
#
# Static dielectric constant tensor:
#      x y z
#    x 3.751830 0.000000 -0.076960 
#    y 0.000000 3.456740 0.000000 
#    z -0.076960 0.000000 3.698300 
# 
# 
# High freq. dielectric constant tensor:
#      x y z
#    x 1.775090 0.000000 0.004350 
#    y 0.000000 1.745410 0.000000 
#    z 0.004350 0.000000 1.758470 
# 
# From -- ./inp_files/68970.got.cif
#   From: 2010.06.25/outbox.cif.g09.slc.cpg/sg11_35_cif.got.tgz:68970.got - 2010.06.27 23:14:04.
