data_PCOD8072267
_publ_section_title
;
Structure prediction by ZEFSAII (Michael W. Deem and Ramdas Pophale) SiO2 
 PCOD8072267
Probable space group: P 21/M
;
_chemical_formula_sum "Si O2"
_cell_formula_units_Z 32
_cell_length_a 28.407070
_cell_length_b 8.688507
_cell_length_c 21.985868
_cell_angle_alpha 90.000000
_cell_angle_beta 18.646991
_cell_angle_gamma 90.000000
_cell_volume 1735.031828
_symmetry_space_group_name_H-M "P 21/M"
_symmetry_group_IT_number 11
_symmetry_cell_setting 'monoclinic'
loop_
_space_group_symop_operation_xyz
x,y,z
-x,1/2+y,-z
-x,-y,-z
x,1/2-y,z
loop_
_atom_site_type_symbol
_atom_site_label
_atom_site_fract_x
_atom_site_fract_y
_atom_site_fract_z
Si Si1 0.654500 0.567528 0.666989
Si Si2 0.838486 0.567841 0.203628
Si Si3 0.425923 0.431607 0.031360
Si Si4 0.945469 0.568893 0.378671
Si Si5 0.197338 0.568312 0.626664
Si Si6 0.911518 0.568444 0.552883
Si Si7 0.659589 0.429768 0.312747
Si Si8 0.083008 0.928694 0.089167
O O1 0.643590 0.750000 0.676977
O O2 0.502700 0.498394 0.877283
O O3 0.787171 0.511337 0.548281
O O4 0.682085 0.500554 0.566483
O O5 0.849705 0.750000 0.192298
O O6 0.763619 0.503795 0.356118
O O7 0.738575 0.517599 0.270126
O O8 0.000000 0.500000 0.000000
O O9 0.442316 0.250000 0.013609
O O10 0.500000 0.500000 0.000000
O O11 0.257078 0.483354 0.235187
O O12 0.937217 0.750000 0.395515
O O13 0.974805 0.502491 0.410570
O O14 0.070685 0.521375 0.175716
O O15 0.212270 0.750000 0.611477
O O16 0.030884 0.525378 0.811649
O O17 0.927527 0.750000 0.536216
O O18 0.000000 0.500000 0.500000
O O19 0.500000 0.500000 0.500000
O O20 0.648726 0.250000 0.341541
O O21 0.752326 0.456707 0.136901
O O22 0.036268 0.750000 0.139870
#
# Coordination Sequence:
#
# PCOD8072267 Si02
#       8
#     4   4   4   4   4   4   4   4
#     4  10  19  35  57  83 115 150 190 239 293 346
#     4  12  23  38  60  87 118 154 196 242 293 350
#     4  11  21  35  56  84 115 147 190 239 289 343
#     4   8  15  32  55  79 107 142 183 233 285 338
#     4  11  21  34  56  88 120 150 190 242 296 348
#     4  10  21  37  55  80 114 151 190 237 286 341
#     4  11  23  39  59  86 119 157 199 247 297 352
#     4   9  18  34  58  82 110 149 194 240 291 348
#
# _framework density 18.443465
#
# number of rings (size 3 to 8) (size 9 to 14) (size 15 to 20)
#    0.000    1.750    2.500    4.125    0.000    1.500 
#    0.000    1.875    0.000    4.500    0.000    0.000 
#    0.000    0.000    0.000    0.000    0.000    0.000 
#
# Total GULP energy -396768.323699 kJ/mol
# GULP energy per Si atom -12399.010116 kJ/mol
# Density = 1.840149 g / cm^3
# Si number density = 18.443465 Si / 1000 Ang^3
#
#
#
# Elastic Constant Matrix: (Units=GPa)
#
#
# Indices 1 2 3 4 5 6 
#
# 1 138.7798 30.8254 75.4698 0.0000 17.1099 0.0000
# 2 30.8254 70.7900 45.3357 0.0000 2.5939 0.0000
# 3 75.4698 45.3357 131.8194 0.0000 17.3482 0.0000
# 4 0.0000 0.0000 0.0000 29.4445 0.0000 1.4912
# 5 17.1099 2.5939 17.3482 0.0000 33.7472 0.0000
# 6 0.0000 0.0000 0.0000 1.4912 0.0000 31.4453
#
#
#
# Elastic Compliance Matrix: (Units=1/GPa)
#
#
# Indices 1 2 3 4 5 6 
#
# 1 0.010712 -0.001102 -0.005417 0.000000 -0.002562 0.000000
# 2 -0.001102 0.018349 -0.005972 0.000000 0.002218 0.000000
# 3 -0.005417 -0.005972 0.013213 0.000000 -0.003587 0.000000
# 4 0.000000 0.000000 0.000000 0.034044 0.000000 -0.001614
# 5 -0.002562 0.002218 -0.003587 0.000000 0.032604 0.000000
# 6 0.000000 0.000000 0.000000 -0.001614 0.000000 0.031878
#
#
# Mechanical properties :
#
#
# Convention : Reuss Voigt Hill
#
# Bulk Modulus (GPa) = 57.82404 71.62789 64.72597
# Shear Modulus (GPa) = 29.14669 31.57796 30.36232
#
# Velocity S-wave (km/s) = 3.97964 4.14230 4.06179
# Velocity P-wave (km/s) = 7.24823 7.86123 7.56095
#
# Compressibility (1/GPa) = 0.01729384
#
# Stress axis : x y z
#
# Youngs Moduli (GPa) = 93.35432 54.49805 75.68072
#
# Poissons Ratio (x) = 0.06003 0.40995
# Poissons Ratio (y) = 0.10283 0.45196
# Poissons Ratio (z) = 0.50569 0.32546
#
# Static dielectric constant tensor:
#      x y z
#    x 4.546450 0.000000 -0.216780 
#    y 0.000000 3.387710 0.000000 
#    z -0.216780 0.000000 4.039190 
# 
# 
# High freq. dielectric constant tensor:
#      x y z
#    x 1.710760 0.000000 0.029350 
#    y 0.000000 1.714300 0.000000 
#    z 0.029350 0.000000 1.711740 
# 
# From -- ./inp_files/67051.got.cif
#   From: 2010.06.25/outbox.cif.g09.slc.cpg/sg11_34_cif.got.tgz:67051.got - 2010.06.27 23:14:04.
