data_PCOD8072777
_publ_section_title
;
Structure prediction by ZEFSAII (Michael W. Deem and Ramdas Pophale) SiO2 
 PCOD8072777
Probable space group: P 21/M
;
_chemical_formula_sum "Si O2"
_cell_formula_units_Z 32
_cell_length_a 14.321526
_cell_length_b 10.264285
_cell_length_c 26.522040
_cell_angle_alpha 90.000000
_cell_angle_beta 26.173211
_cell_angle_gamma 90.000000
_cell_volume 1719.683319
_symmetry_space_group_name_H-M "P 21/M"
_symmetry_group_IT_number 11
_symmetry_cell_setting 'monoclinic'
loop_
_space_group_symop_operation_xyz
x,y,z
-x,1/2+y,-z
-x,-y,-z
x,1/2-y,z
loop_
_atom_site_type_symbol
_atom_site_label
_atom_site_fract_x
_atom_site_fract_y
_atom_site_fract_z
Si Si1 0.394884 0.105182 0.514780
Si Si2 0.084977 0.397476 0.148149
Si Si3 0.314934 0.599670 0.718890
Si Si4 0.960575 0.981634 0.719816
Si Si5 0.686295 0.398688 0.714603
Si Si6 0.023662 0.894046 0.579870
Si Si7 0.479600 0.898141 0.313531
Si Si8 0.473826 0.900107 0.099767
O O1 0.448136 0.250000 0.509671
O O2 0.485616 0.088447 0.414897
O O3 0.500000 0.000000 0.500000
O O4 0.141152 0.092114 0.634816
O O5 0.104675 0.250000 0.120692
O O6 0.028700 0.398745 0.234405
O O7 0.891950 0.456988 0.209542
O O8 0.308998 0.467149 0.025946
O O9 0.288214 0.750000 0.750036
O O10 0.351395 0.503491 0.748409
O O11 0.004069 0.893646 0.649914
O O12 0.727417 0.040819 0.830595
O O13 0.774369 0.250000 0.671802
O O14 0.548641 0.426149 0.731980
O O15 0.536318 0.422814 0.835288
O O16 0.884424 0.495796 0.620449
O O17 0.952497 0.750000 0.595685
O O18 0.262384 0.920623 0.448313
O O19 0.561433 0.750000 0.282507
O O20 0.472926 0.750000 0.085482
#
# Coordination Sequence:
#
# PCOD8072777 Si02
#       8
#     4   4   4   4   4   4   4   4
#     4  11  22  35  53  79 112 146 180 217 263 319
#     4  10  20  35  53  74 105 142 182 218 261 313
#     4  10  21  36  53  78 107 143 179 217 262 317
#     4  11  19  33  53  79 109 141 177 216 264 314
#     4   9  19  35  55  76 105 140 179 222 269 317
#     4  10  20  31  50  80 111 140 173 214 269 322
#     4  10  20  35  53  78 107 141 177 219 271 321
#     4   9  19  35  54  76 101 138 182 224 261 311
#
# _framework density 18.608077000000002
#
# number of rings (size 3 to 8) (size 9 to 14) (size 15 to 20)
#    0.000    2.000    2.500    1.500    0.000    2.500 
#    0.000    0.625    0.000    4.500    0.000    0.000 
#    0.000    0.000    0.000    0.000    0.000    0.000 
#
# Total GULP energy -396695.527270 kJ/mol
# GULP energy per Si atom -12396.735227 kJ/mol
# Density = 1.856572 g / cm^3
# Si number density = 18.608077 Si / 1000 Ang^3
#
#
#
# Elastic Constant Matrix: (Units=GPa)
#
#
# Indices 1 2 3 4 5 6 
#
# 1 117.6948 52.3575 32.5671 0.0000 -13.0280 0.0000
# 2 52.3575 90.2821 21.1122 0.0000 -10.3231 0.0000
# 3 32.5671 21.1122 86.9165 0.0000 -17.8420 0.0000
# 4 0.0000 0.0000 0.0000 18.5354 0.0000 -2.6082
# 5 -13.0280 -10.3231 -17.8420 0.0000 21.6039 0.0000
# 6 0.0000 0.0000 0.0000 -2.6082 0.0000 30.3384
#
#
#
# Elastic Compliance Matrix: (Units=1/GPa)
#
#
# Indices 1 2 3 4 5 6 
#
# 1 0.012240 -0.006231 -0.002611 0.000000 0.002247 0.000000
# 2 -0.006231 0.015197 -0.000768 0.000000 0.002871 0.000000
# 3 -0.002611 -0.000768 0.014777 0.000000 0.010262 0.000000
# 4 0.000000 0.000000 0.000000 0.054612 0.000000 0.004695
# 5 0.002247 0.002871 0.010262 0.000000 0.057490 0.000000
# 6 0.000000 0.000000 0.000000 0.004695 0.000000 0.033365
#
#
# Mechanical properties :
#
#
# Convention : Reuss Voigt Hill
#
# Bulk Modulus (GPa) = 43.48846 56.32968 49.90907
# Shear Modulus (GPa) = 23.30300 26.68596 24.99448
#
# Velocity S-wave (km/s) = 3.54263 3.79107 3.66895
# Velocity P-wave (km/s) = 6.33681 7.03564 6.69535
#
# Compressibility (1/GPa) = 0.02299461
#
# Stress axis : x y z
#
# Youngs Moduli (GPa) = 81.70212 65.80060 67.67358
#
# Poissons Ratio (x) = 0.40997 0.17672
# Poissons Ratio (y) = 0.50905 0.05195
# Poissons Ratio (z) = 0.21336 0.05051
#
# Static dielectric constant tensor:
#      x y z
#    x 3.374480 0.000000 -0.022950 
#    y 0.000000 3.376180 0.000000 
#    z -0.022950 0.000000 3.571330 
# 
# 
# High freq. dielectric constant tensor:
#      x y z
#    x 1.720940 0.000000 0.000840 
#    y 0.000000 1.711170 0.000000 
#    z 0.000840 0.000000 1.715280 
# 
# From -- ./inp_files/55683.got.cif
#   From: 2010.06.25/outbox.cif.g09.slc.cpg/sg11_28_cif.got.tgz:55683.got - 2010.06.27 23:14:04.
