data_PCOD8072266
_publ_section_title
;
Structure prediction by ZEFSAII (Michael W. Deem and Ramdas Pophale) SiO2 
 PCOD8072266
Probable space group: P 21/M
;
_chemical_formula_sum "Si O2"
_cell_formula_units_Z 32
_cell_length_a 11.344984
_cell_length_b 12.461894
_cell_length_c 12.246238
_cell_angle_alpha 90.000000
_cell_angle_beta 109.213718
_cell_angle_gamma 90.000000
_cell_volume 1634.931359
_symmetry_space_group_name_H-M "P 21/M"
_symmetry_group_IT_number 11
_symmetry_cell_setting 'monoclinic'
loop_
_space_group_symop_operation_xyz
x,y,z
-x,1/2+y,-z
-x,-y,-z
x,1/2-y,z
loop_
_atom_site_type_symbol
_atom_site_label
_atom_site_fract_x
_atom_site_fract_y
_atom_site_fract_z
Si Si1 0.439586 0.369129 0.200363
Si Si2 0.368373 0.469014 0.404454
Si Si3 0.086034 0.022441 0.663461
Si Si4 0.066788 0.374545 0.876677
Si Si5 0.275215 0.981119 0.021229
Si Si6 0.217053 0.627187 0.217505
Si Si7 0.290121 0.871841 0.794560
Si Si8 0.134943 0.377247 0.448689
O O1 0.394791 0.250000 0.160102
O O2 0.392304 0.395741 0.306676
O O3 0.386349 0.439435 0.085821
O O4 0.587589 0.380137 0.241575
O O5 0.500000 0.500000 0.500000
O O6 0.295001 0.572831 0.338547
O O7 0.278891 0.405649 0.462568
O O8 0.188850 0.929736 0.689137
O O9 0.956154 0.957824 0.645866
O O10 0.115181 0.105671 0.768922
O O11 0.096723 0.096708 0.560993
O O12 0.082714 0.250000 0.915070
O O13 0.924451 0.413497 0.834906
O O14 0.146389 0.450579 0.981299
O O15 0.274111 0.891516 0.115208
O O16 0.306589 0.926320 0.916963
O O17 0.221526 0.750000 0.251197
O O18 0.248250 0.750000 0.801800
O O19 0.111909 0.250000 0.418908
#
# Coordination Sequence:
#
# PCOD8072266 Si02
#       8
#     4   4   4   4   4   4   4   4
#     4  10  21  37  56  81 114 151 190 233 284 339
#     4  11  23  40  59  83 114 151 194 241 286 341
#     4  10  21  37  57  85 113 147 189 236 288 337
#     4  10  19  35  57  83 115 149 186 227 283 344
#     4  10  20  34  57  83 115 146 191 233 283 332
#     4  10  21  37  56  82 114 150 189 232 285 341
#     4  10  20  36  57  82 113 149 188 231 283 339
#     4  11  22  38  59  83 114 149 192 241 290 340
#
# _framework density 19.572687999999999
#
# number of rings (size 3 to 8) (size 9 to 14) (size 15 to 20)
#    0.000    1.750    1.250    3.375    0.000    1.000 
#    0.000    0.625    0.000    8.250    0.000    0.000 
#    0.000    0.000    0.000    0.000    0.000    0.000 
#
# Total GULP energy -396663.717652 kJ/mol
# GULP energy per Si atom -12395.741177 kJ/mol
# Density = 1.952814 g / cm^3
# Si number density = 19.572688 Si / 1000 Ang^3
#
#
#
# Elastic Constant Matrix: (Units=GPa)
#
#
# Indices 1 2 3 4 5 6 
#
# 1 78.7296 29.5813 2.4505 0.0000 3.6846 0.0000
# 2 29.5813 70.7310 12.4846 0.0000 -0.0660 0.0000
# 3 2.4505 12.4846 44.6814 0.0000 5.7213 0.0000
# 4 0.0000 0.0000 0.0000 12.3232 0.0000 5.7568
# 5 3.6846 -0.0660 5.7213 0.0000 31.4935 0.0000
# 6 0.0000 0.0000 0.0000 5.7568 0.0000 28.3294
#
#
#
# Elastic Compliance Matrix: (Units=1/GPa)
#
#
# Indices 1 2 3 4 5 6 
#
# 1 0.015236 -0.006598 0.001267 0.000000 -0.002027 0.000000
# 2 -0.006598 0.017748 -0.004813 0.000000 0.001683 0.000000
# 3 0.001267 -0.004813 0.024240 0.000000 -0.004562 0.000000
# 4 0.000000 0.000000 0.000000 0.089659 0.000000 -0.018220
# 5 -0.002027 0.001683 -0.004562 0.000000 0.032822 0.000000
# 6 0.000000 0.000000 0.000000 -0.018220 0.000000 0.039001
#
#
# Mechanical properties :
#
#
# Convention : Reuss Voigt Hill
#
# Bulk Modulus (GPa) = 27.07220 31.46386 29.26803
# Shear Modulus (GPa) = 19.89606 24.40426 22.15016
#
# Velocity S-wave (km/s) = 3.19175 3.53491 3.36771
# Velocity P-wave (km/s) = 5.23877 5.72460 5.48707
#
# Compressibility (1/GPa) = 0.03693826
#
# Stress axis : x y z
#
# Youngs Moduli (GPa) = 65.63382 56.34297 41.25400
#
# Poissons Ratio (x) = 0.37173 -0.05228
# Poissons Ratio (y) = 0.43303 0.19855
# Poissons Ratio (z) = -0.08318 0.27117
#
# Static dielectric constant tensor:
#      x y z
#    x 3.627500 0.000000 0.106240 
#    y 0.000000 3.565160 0.000000 
#    z 0.106240 0.000000 3.471400 
# 
# 
# High freq. dielectric constant tensor:
#      x y z
#    x 1.768000 0.000000 0.001080 
#    y 0.000000 1.768020 0.000000 
#    z 0.001080 0.000000 1.760320 
# 
# From -- ./inp_files/35066.got.cif
#   From: 2010.06.25/outbox.cif.g09.slc.cpg/sg11_18_cif.got.tgz:35066.got - 2010.06.27 23:14:04.
