data_PCOD8072982
_publ_section_title
;
Structure prediction by ZEFSAII (Michael W. Deem and Ramdas Pophale) SiO2 
 PCOD8072982
Probable space group: P 21/M
;
_chemical_formula_sum "Si O2"
_cell_formula_units_Z 32
_cell_length_a 18.023218
_cell_length_b 18.039872
_cell_length_c 18.321247
_cell_angle_alpha 90.000000
_cell_angle_beta 15.807191
_cell_angle_gamma 90.000000
_cell_volume 1622.667471
_symmetry_space_group_name_H-M "P 21/M"
_symmetry_group_IT_number 11
_symmetry_cell_setting 'monoclinic'
loop_
_space_group_symop_operation_xyz
x,y,z
-x,1/2+y,-z
-x,-y,-z
x,1/2-y,z
loop_
_atom_site_type_symbol
_atom_site_label
_atom_site_fract_x
_atom_site_fract_y
_atom_site_fract_z
Si Si1 0.210449 0.423538 0.219732
Si Si2 0.195120 0.392008 0.066787
Si Si3 0.285390 0.666595 0.977871
Si Si4 0.146911 0.530374 0.021967
Si Si5 0.838204 0.668376 0.518876
Si Si6 0.646952 0.164697 0.529994
Si Si7 0.595369 0.023210 0.489188
Si Si8 0.240187 0.583786 0.240594
O O1 0.291021 0.510028 0.144836
O O2 0.906788 0.422564 0.541007
O O3 0.219270 0.387952 0.131274
O O4 0.456377 0.382082 0.032721
O O5 0.133703 0.478173 0.106124
O O6 0.461661 0.363099 0.772686
O O7 0.952692 0.339009 0.270521
O O8 0.361764 0.750000 0.878605
O O9 0.220779 0.614858 0.970442
O O10 0.539773 0.632656 0.784438
O O11 0.006331 0.668056 0.285581
O O12 0.379436 0.502895 0.750535
O O13 0.866619 0.524261 0.244069
O O14 0.778611 0.750000 0.604764
O O15 0.020364 0.632109 0.407536
O O16 0.579325 0.250000 0.572169
O O17 0.627809 0.111952 0.475282
O O18 0.500000 0.000000 0.500000
#
# Coordination Sequence:
#
# PCOD8072982 Si02
#       8
#     4   4   4   4   4   4   4   4
#     4  10  20  33  50  74 101 133 179 231 277 319
#     4  10  20  35  57  80 105 141 186 229 273 321
#     4  10  20  34  54  80 108 139 179 224 269 318
#     4  10  20  35  58  83 109 141 176 218 261 313
#     4  10  20  34  51  71 101 141 179 217 269 330
#     4  10  21  38  58  82 111 143 182 224 270 326
#     4  10  21  38  60  85 113 144 177 213 259 321
#     4  10  20  33  50  72 102 137 178 229 278 327
#
# _framework density 19.720614999999999
#
# number of rings (size 3 to 8) (size 9 to 14) (size 15 to 20)
#    0.000    2.000    0.000    3.750    0.000    4.000 
#    0.000    5.000    0.000    0.000    0.000    0.000 
#    0.000    0.000    0.000    0.000    0.000    0.000 
#
# Total GULP energy -396495.415098 kJ/mol
# GULP energy per Si atom -12390.481722 kJ/mol
# Density = 1.967573 g / cm^3
# Si number density = 19.720615 Si / 1000 Ang^3
#
#
#
# Elastic Constant Matrix: (Units=GPa)
#
#
# Indices 1 2 3 4 5 6 
#
# 1 100.0357 50.2772 8.0698 0.0000 -12.7313 0.0000
# 2 50.2772 92.8338 9.8046 0.0000 -6.6675 0.0000
# 3 8.0698 9.8046 76.0105 0.0000 -19.7170 0.0000
# 4 0.0000 0.0000 0.0000 24.1144 0.0000 -6.1466
# 5 -12.7313 -6.6675 -19.7170 0.0000 27.4631 0.0000
# 6 0.0000 0.0000 0.0000 -6.1466 0.0000 20.8296
#
#
#
# Elastic Compliance Matrix: (Units=1/GPa)
#
#
# Indices 1 2 3 4 5 6 
#
# 1 0.014387 -0.007490 0.000857 0.000000 0.005466 0.000000
# 2 -0.007490 0.014911 -0.001339 0.000000 -0.000813 0.000000
# 3 0.000857 -0.001339 0.016290 0.000000 0.011768 0.000000
# 4 0.000000 0.000000 0.000000 0.044842 0.000000 0.013232
# 5 0.005466 -0.000813 0.011768 0.000000 0.047198 0.000000
# 6 0.000000 0.000000 0.000000 0.013232 0.000000 0.051913
#
#
# Mechanical properties :
#
#
# Convention : Reuss Voigt Hill
#
# Bulk Modulus (GPa) = 33.73357 45.02035 39.37696
# Shear Modulus (GPa) = 23.21608 27.86332 25.53970
#
# Velocity S-wave (km/s) = 3.43483 3.76294 3.60262
# Velocity P-wave (km/s) = 5.73355 6.46206 6.10868
#
# Compressibility (1/GPa) = 0.02964406
#
# Stress axis : x y z
#
# Youngs Moduli (GPa) = 69.50562 67.06322 61.38604
#
# Poissons Ratio (x) = 0.50229 -0.05258
# Poissons Ratio (y) = 0.52058 0.08221
# Poissons Ratio (z) = -0.05954 0.08981
#
# Static dielectric constant tensor:
#      x y z
#    x 3.518650 0.000000 -0.122520 
#    y 0.000000 3.906030 0.000000 
#    z -0.122520 0.000000 4.088850 
# 
# 
# High freq. dielectric constant tensor:
#      x y z
#    x 1.746760 0.000000 -0.012720 
#    y 0.000000 1.750650 0.000000 
#    z -0.012720 0.000000 1.796270 
# 
# From -- ./inp_files/52702.got.cif
#   From: 2010.06.25/outbox.cif.g09.slc.cpg/sg11_27_cif.got.tgz:52702.got - 2010.06.27 23:14:04.
