data_PCOD8072692
_publ_section_title
;
Structure prediction by ZEFSAII (Michael W. Deem and Ramdas Pophale) SiO2 
 PCOD8072692
Probable space group: P 21/M
;
_chemical_formula_sum "Si O2"
_cell_formula_units_Z 32
_cell_length_a 14.618927
_cell_length_b 19.178438
_cell_length_c 9.379014
_cell_angle_alpha 90.000000
_cell_angle_beta 141.444095
_cell_angle_gamma 90.000000
_cell_volume 1638.957449
_symmetry_space_group_name_H-M "P 21/M"
_symmetry_group_IT_number 11
_symmetry_cell_setting 'monoclinic'
loop_
_space_group_symop_operation_xyz
x,y,z
-x,1/2+y,-z
-x,-y,-z
x,1/2-y,z
loop_
_atom_site_type_symbol
_atom_site_label
_atom_site_fract_x
_atom_site_fract_y
_atom_site_fract_z
Si Si1 0.315918 0.168688 0.370140
Si Si2 0.461565 0.570577 0.870007
Si Si3 0.931979 0.913228 0.052810
Si Si4 0.129585 0.931756 0.532639
Si Si5 0.156462 0.940349 0.096077
Si Si6 0.475137 0.571955 0.548899
Si Si7 0.033350 0.088153 0.388785
Si Si8 0.319343 0.332177 0.701294
O O1 0.342556 0.250000 0.388098
O O2 0.420187 0.131444 0.383997
O O3 0.342310 0.143534 0.564699
O O4 0.148627 0.151139 0.120820
O O5 0.292485 0.591940 0.688784
O O6 0.496032 0.562447 0.744175
O O7 0.500000 0.500000 0.000000
O O8 0.559110 0.632680 0.051577
O O9 0.999597 0.892003 0.287620
O O10 0.075964 0.941254 0.148666
O O11 0.819964 0.979285 0.928661
O O12 0.095614 0.909711 0.652051
O O13 0.117972 0.014592 0.493207
O O14 0.311294 0.902993 0.309126
O O15 0.054123 0.897573 0.863318
O O16 0.500000 0.500000 0.500000
O O17 0.156706 0.147199 0.556549
O O18 0.336838 0.250000 0.737930
#
# Coordination Sequence:
#
# PCOD8072692 Si02
#       8
#     4   4   4   4   4   4   4   4
#     4  11  25  44  65  92 130 175 218 263 326 392
#     4  12  25  40  65  96 135 172 211 268 325 388
#     4  10  19  38  61  91 122 159 203 266 319 370
#     4  10  22  37  63  97 124 156 207 264 323 370
#     4  10  20  35  65  91 122 154 207 270 315 369
#     4  12  25  39  65 101 129 170 216 270 323 382
#     4  10  21  38  63  95 126 158 205 264 318 381
#     4  11  25  45  65  91 131 177 215 261 326 395
#
# _framework density 19.524605999999999
#
# number of rings (size 3 to 8) (size 9 to 14) (size 15 to 20)
#    0.000    1.250    5.000    0.750    5.250    0.500 
#    0.000    2.500    0.000    0.000    0.000    0.000 
#    0.000    0.000    0.000    0.000    0.000    0.000 
#
# Total GULP energy -396779.021014 kJ/mol
# GULP energy per Si atom -12399.344407 kJ/mol
# Density = 1.948017 g / cm^3
# Si number density = 19.524606 Si / 1000 Ang^3
#
#
#
# Elastic Constant Matrix: (Units=GPa)
#
#
# Indices 1 2 3 4 5 6 
#
# 1 110.4442 39.5979 45.0516 0.0000 -6.0385 0.0000
# 2 39.5979 71.7215 45.4712 0.0000 -0.5023 0.0000
# 3 45.0516 45.4712 121.1533 0.0000 -1.2702 0.0000
# 4 0.0000 0.0000 0.0000 28.7996 0.0000 0.1192
# 5 -6.0385 -0.5023 -1.2702 0.0000 31.2695 0.0000
# 6 0.0000 0.0000 0.0000 0.1192 0.0000 24.3814
#
#
#
# Elastic Compliance Matrix: (Units=1/GPa)
#
#
# Indices 1 2 3 4 5 6 
#
# 1 0.012007 -0.004983 -0.002572 0.000000 0.002134 0.000000
# 2 -0.004983 0.020365 -0.005799 0.000000 -0.000871 0.000000
# 3 -0.002572 -0.005799 0.011386 0.000000 -0.000127 0.000000
# 4 0.000000 0.000000 0.000000 0.034723 0.000000 -0.000170
# 5 0.002134 -0.000871 -0.000127 0.000000 0.032373 0.000000
# 6 0.000000 0.000000 0.000000 -0.000170 0.000000 0.041016
#
#
# Mechanical properties :
#
#
# Convention : Reuss Voigt Hill
#
# Bulk Modulus (GPa) = 58.65870 62.61782 60.63826
# Shear Modulus (GPa) = 27.13527 28.43666 27.78596
#
# Velocity S-wave (km/s) = 3.73204 3.82049 3.77653
# Velocity P-wave (km/s) = 6.97707 7.18348 7.08103
#
# Compressibility (1/GPa) = 0.01704777
#
# Stress axis : x y z
#
# Youngs Moduli (GPa) = 83.28501 49.10413 87.82927
#
# Poissons Ratio (x) = 0.24471 0.22591
# Poissons Ratio (y) = 0.41505 0.50935
# Poissons Ratio (z) = 0.21422 0.28477
#
# Static dielectric constant tensor:
#      x y z
#    x 3.666880 0.000000 -0.026890 
#    y 0.000000 3.219250 0.000000 
#    z -0.026890 0.000000 3.800480 
# 
# 
# High freq. dielectric constant tensor:
#      x y z
#    x 1.771070 0.000000 -0.002910 
#    y 0.000000 1.718950 0.000000 
#    z -0.002910 0.000000 1.779930 
# 
# From -- ./inp_files/23105.got.cif
#   From: 2010.06.25/outbox.cif.g09.slc.cpg/sg11_12_cif.got.tgz:23105.got - 2010.06.27 23:14:04.
