data_PCOD8072698
_publ_section_title
;
Structure prediction by ZEFSAII (Michael W. Deem and Ramdas Pophale) SiO2 
 PCOD8072698
Probable space group: P 21/M
;
_chemical_formula_sum "Si O2"
_cell_formula_units_Z 20
_cell_length_a 11.326930
_cell_length_b 14.473766
_cell_length_c 16.649420
_cell_angle_alpha 90.000000
_cell_angle_beta 158.195891
_cell_angle_gamma 90.000000
_cell_volume 1013.853070
_symmetry_space_group_name_H-M "P 21/M"
_symmetry_group_IT_number 11
_symmetry_cell_setting 'monoclinic'
loop_
_space_group_symop_operation_xyz
x,y,z
-x,1/2+y,-z
-x,-y,-z
x,1/2-y,z
loop_
_atom_site_type_symbol
_atom_site_label
_atom_site_fract_x
_atom_site_fract_y
_atom_site_fract_z
Si Si1 0.491129 0.145811 0.349905
Si Si2 0.706526 0.090905 0.647237
Si Si3 0.245761 0.016831 0.585195
Si Si4 0.102412 0.564071 0.937486
Si Si5 0.133560 0.146801 0.373437
O O1 0.464608 0.250000 0.299709
O O2 0.727352 0.146828 0.576961
O O3 0.641539 0.081766 0.376961
O O4 0.141636 0.109382 0.153351
O O5 0.512581 0.148379 0.591521
O O6 0.500000 0.000000 0.500000
O O7 0.039146 0.048111 0.888755
O O8 0.069446 0.076789 0.405686
O O9 0.000000 0.000000 0.500000
O O10 0.543285 0.075930 0.805979
O O11 0.075221 0.615431 0.834828
O O12 0.030464 0.250000 0.333213
#
# Coordination Sequence:
#
# PCOD8072698 Si02
#       5
#     4   4   4   4   4
#     4  10  19  38  63  91 118 153 204 256 296 349
#     4   8  14  33  61  84 109 145 194 252 299 334
#     4  12  25  39  59  86 131 166 193 239 300 365
#     4  10  19  39  65  85 113 156 203 250 304 342
#     4  10  20  38  62  90 118 153 203 252 296 349
#
# _framework density 19.726725999999999
#
# number of rings (size 3 to 8) (size 9 to 14) (size 15 to 20)
#    0.000    2.400    6.000    3.000    0.000    3.200 
#    0.000    1.000    0.000    0.000    0.000    0.000 
#    0.000    0.000    0.000    0.000    0.000    0.000 
#
# Total GULP energy -247852.986357 kJ/mol
# GULP energy per Si atom -12392.649318 kJ/mol
# Density = 1.968183 g / cm^3
# Si number density = 19.726726 Si / 1000 Ang^3
#
#
#
# Elastic Constant Matrix: (Units=GPa)
#
#
# Indices 1 2 3 4 5 6 
#
# 1 146.8417 60.1237 38.2303 0.0000 8.0201 0.0000
# 2 60.1237 133.8584 28.4088 0.0000 4.1009 0.0000
# 3 38.2303 28.4088 44.1911 0.0000 1.1839 0.0000
# 4 0.0000 0.0000 0.0000 10.8085 0.0000 -3.9185
# 5 8.0201 4.1009 1.1839 0.0000 16.7898 0.0000
# 6 0.0000 0.0000 0.0000 -3.9185 0.0000 10.7059
#
#
#
# Elastic Compliance Matrix: (Units=1/GPa)
#
#
# Indices 1 2 3 4 5 6 
#
# 1 0.009931 -0.002951 -0.006599 0.000000 -0.003558 0.000000
# 2 -0.002951 0.009578 -0.003586 0.000000 -0.000677 0.000000
# 3 -0.006599 -0.003586 0.030593 0.000000 0.001871 0.000000
# 4 0.000000 0.000000 0.000000 0.106675 0.000000 0.039045
# 5 -0.003558 -0.000677 0.001871 0.000000 0.061293 0.000000
# 6 0.000000 0.000000 0.000000 0.039045 0.000000 0.107698
#
#
# Mechanical properties :
#
#
# Convention : Reuss Voigt Hill
#
# Bulk Modulus (GPa) = 41.96456 64.26854 53.11655
# Shear Modulus (GPa) = 13.88958 20.86940 17.37949
#
# Velocity S-wave (km/s) = 2.65637 3.25610 2.97141
# Velocity P-wave (km/s) = 5.54324 6.84006 6.22551
#
# Compressibility (1/GPa) = 0.02382963
#
# Stress axis : x y z
#
# Youngs Moduli (GPa) = 100.69882 104.40725 32.68731
#
# Poissons Ratio (x) = 0.30810 0.21569
# Poissons Ratio (y) = 0.29716 0.11722
# Poissons Ratio (z) = 0.66448 0.37442
#
# Static dielectric constant tensor:
#      x y z
#    x 3.442790 0.000000 -0.269000 
#    y 0.000000 3.813890 0.000000 
#    z -0.269000 0.000000 3.691350 
# 
# 
# High freq. dielectric constant tensor:
#      x y z
#    x 1.753920 0.000000 -0.026790 
#    y 0.000000 1.765320 0.000000 
#    z -0.026790 0.000000 1.734640 
# 
# From -- ./inp_files/59416.got.cif
#   From: 2010.06.25/outbox.cif.g09.slc.cpg/sg11_30_cif.got.tgz:59416.got - 2010.06.27 23:14:04.
