data_PCOD8072786
_publ_section_title
;
Structure prediction by ZEFSAII (Michael W. Deem and Ramdas Pophale) SiO2 
 PCOD8072786
Probable space group: P 21/M
;
_chemical_formula_sum "Si O2"
_cell_formula_units_Z 32
_cell_length_a 20.841449
_cell_length_b 9.356493
_cell_length_c 11.204527
_cell_angle_alpha 90.000000
_cell_angle_beta 115.560695
_cell_angle_gamma 90.000000
_cell_volume 1971.074531
_symmetry_space_group_name_H-M "P 21/M"
_symmetry_group_IT_number 11
_symmetry_cell_setting 'monoclinic'
loop_
_space_group_symop_operation_xyz
x,y,z
-x,1/2+y,-z
-x,-y,-z
x,1/2-y,z
loop_
_atom_site_type_symbol
_atom_site_label
_atom_site_fract_x
_atom_site_fract_y
_atom_site_fract_z
Si Si1 0.525761 0.084958 0.192789
Si Si2 0.123550 0.086974 0.916444
Si Si3 0.288740 0.584491 0.289319
Si Si4 0.158620 0.092065 0.223003
Si Si5 0.742463 0.084290 0.008073
Si Si6 0.995237 0.918779 0.872103
Si Si7 0.563141 0.417455 0.487893
Si Si8 0.598341 0.415986 0.009558
O O1 0.504803 0.250000 0.166914
O O2 0.563336 0.048885 0.347390
O O3 0.452696 0.998266 0.122895
O O4 0.580553 0.041905 0.131595
O O5 0.114486 0.250000 0.864280
O O6 0.138001 0.080225 0.068153
O O7 0.052043 0.995179 0.829464
O O8 0.189968 0.012705 0.902943
O O9 0.282725 0.750000 0.312472
O O10 0.222249 0.514786 0.306127
O O11 0.285854 0.549402 0.147090
O O12 0.362627 0.524067 0.400025
O O13 0.186850 0.250000 0.274786
O O14 0.086173 0.061054 0.240400
O O15 0.764645 0.250000 0.035588
O O16 0.680027 0.043295 0.050015
O O17 0.013066 0.750000 0.902070
O O18 0.000000 0.000000 0.000000
O O19 0.500000 0.500000 0.500000
O O20 0.553594 0.250000 0.506681
O O21 0.585843 0.250000 0.973545
#
# Coordination Sequence:
#
# PCOD8072786 Si02
#       8
#     4   4   4   4   4   4   4   4
#     4   9  18  31  46  64  85 109 139 177 216 253
#     4   9  16  24  35  54  79 106 136 168 202 243
#     4   9  17  27  39  56  79 107 138 170 202 242
#     4   8  15  25  36  52  75 104 136 167 198 235
#     4   9  16  26  40  57  79 108 139 170 205 245
#     4   9  15  23  35  52  76 106 138 169 201 240
#     4  10  20  32  45  63  86 112 142 175 212 251
#     4   9  17  30  47  64  83 109 141 175 213 257
#
# _framework density 16.234798999999999
#
# number of rings (size 3 to 8) (size 9 to 14) (size 15 to 20)
#    0.000    3.000    0.000    2.250    0.000    6.000 
#    0.000    2.500    0.000    0.000    0.000    0.000 
#    0.000    1.000    0.000    2.000    0.000    3.125 
#
# Total GULP energy -396637.689017 kJ/mol
# GULP energy per Si atom -12394.927782 kJ/mol
# Density = 1.619785 g / cm^3
# Si number density = 16.234799 Si / 1000 Ang^3
#
#
#
# Elastic Constant Matrix: (Units=GPa)
#
#
# Indices 1 2 3 4 5 6 
#
# 1 139.0987 63.6543 36.4594 0.0000 24.9040 0.0000
# 2 63.6543 76.4770 25.5522 0.0000 13.4179 0.0000
# 3 36.4594 25.5522 39.0490 0.0000 8.8098 0.0000
# 4 0.0000 0.0000 0.0000 15.3349 0.0000 7.2892
# 5 24.9040 13.4179 8.8098 0.0000 20.5404 0.0000
# 6 0.0000 0.0000 0.0000 7.2892 0.0000 31.8594
#
#
#
# Elastic Compliance Matrix: (Units=1/GPa)
#
#
# Indices 1 2 3 4 5 6 
#
# 1 0.014100 -0.008200 -0.005703 0.000000 -0.009293 0.000000
# 2 -0.008200 0.022437 -0.006601 0.000000 -0.001884 0.000000
# 3 -0.005703 -0.006601 0.036225 0.000000 -0.004311 0.000000
# 4 0.000000 0.000000 0.000000 0.073168 0.000000 -0.016740
# 5 -0.009293 -0.001884 -0.004311 0.000000 0.063031 0.000000
# 6 0.000000 0.000000 0.000000 -0.016740 0.000000 0.035218
#
#
# Mechanical properties :
#
#
# Convention : Reuss Voigt Hill
#
# Bulk Modulus (GPa) = 31.49063 56.21740 43.85402
# Shear Modulus (GPa) = 16.90492 22.14419 19.52456
#
# Velocity S-wave (km/s) = 3.23038 3.69724 3.47167
# Velocity P-wave (km/s) = 5.77520 7.27523 6.56818
#
# Compressibility (1/GPa) = 0.03175548
#
# Stress axis : x y z
#
# Youngs Moduli (GPa) = 70.92039 44.56913 27.60517
#
# Poissons Ratio (x) = 0.36548 0.15742
# Poissons Ratio (y) = 0.58157 0.18221
# Poissons Ratio (z) = 0.40443 0.29418
#
# Static dielectric constant tensor:
#      x y z
#    x 3.463680 0.000000 0.233640 
#    y 0.000000 3.156970 0.000000 
#    z 0.233640 0.000000 2.736950 
# 
# 
# High freq. dielectric constant tensor:
#      x y z
#    x 1.634870 0.000000 0.021200 
#    y 0.000000 1.629750 0.000000 
#    z 0.021200 0.000000 1.564020 
# 
# From -- ./inp_files/42467.got.cif
#   From: 2010.06.25/outbox.cif.g09.slc.cpg/sg11_22_cif.got.tgz:42467.got - 2010.06.27 23:14:04.
