data_PCOD8072776
_publ_section_title
;
Structure prediction by ZEFSAII (Michael W. Deem and Ramdas Pophale) SiO2 
 PCOD8072776
Probable space group: P 21/M
;
_chemical_formula_sum "Si O2"
_cell_formula_units_Z 32
_cell_length_a 15.122042
_cell_length_b 11.200608
_cell_length_c 14.613626
_cell_angle_alpha 90.000000
_cell_angle_beta 133.400584
_cell_angle_gamma 90.000000
_cell_volume 1798.399173
_symmetry_space_group_name_H-M "P 21/M"
_symmetry_group_IT_number 11
_symmetry_cell_setting 'monoclinic'
loop_
_space_group_symop_operation_xyz
x,y,z
-x,1/2+y,-z
-x,-y,-z
x,1/2-y,z
loop_
_atom_site_type_symbol
_atom_site_label
_atom_site_fract_x
_atom_site_fract_y
_atom_site_fract_z
Si Si1 0.723687 0.616546 0.417512
Si Si2 0.091564 0.387504 0.303745
Si Si3 0.720148 0.882566 0.923596
Si Si4 0.489129 0.496894 0.835048
Si Si5 0.858244 0.532313 0.189158
Si Si6 0.910531 0.890506 0.908824
Si Si7 0.930636 0.620360 0.423576
Si Si8 0.630267 0.118035 0.088172
O O1 0.684296 0.750000 0.417396
O O2 0.801512 0.556493 0.556126
O O3 0.602257 0.543867 0.309254
O O4 0.801208 0.616078 0.380163
O O5 0.083576 0.250000 0.325324
O O6 0.123526 0.408131 0.221040
O O7 0.959711 0.437597 0.233377
O O8 0.667219 0.750000 0.885036
O O9 0.607705 0.968411 0.861506
O O10 0.785642 0.912225 0.874509
O O11 0.822233 0.893570 0.074488
O O12 0.430228 0.601660 0.854630
O O13 0.527388 0.395749 0.935993
O O14 0.912014 0.622908 0.301626
O O15 0.741213 0.470875 0.151207
O O16 0.957484 0.750000 0.958435
O O17 0.000000 0.000000 0.000000
O O18 0.994210 0.750000 0.493482
O O19 0.000000 0.500000 0.500000
O O20 0.683755 0.250000 0.121326
#
# Coordination Sequence:
#
# PCOD8072776 Si02
#       8
#     4   4   4   4   4   4   4   4
#     4  10  20  36  54  75 111 152 188 225 267 325
#     4  10  20  34  57  83 112 145 184 229 280 336
#     4  10  21  36  57  79 107 140 178 231 284 331
#     4  10  20  35  50  74 106 148 191 223 275 321
#     4  11  19  33  53  81 111 141 185 220 285 329
#     4  10  20  38  61  87 111 141 180 230 288 338
#     4  11  22  35  52  79 115 154 190 226 271 333
#     4  10  20  31  49  76 109 145 188 233 269 320
#
# _framework density 17.793603000000001
#
# number of rings (size 3 to 8) (size 9 to 14) (size 15 to 20)
#    0.000    1.750    3.750    1.500    0.000    0.500 
#    0.000    1.250    0.000    0.000    0.000    0.000 
#    0.000    0.000    0.000    0.000    0.000    0.000 
#
# Total GULP energy -396532.993429 kJ/mol
# GULP energy per Si atom -12391.656045 kJ/mol
# Density = 1.775310 g / cm^3
# Si number density = 17.793603 Si / 1000 Ang^3
#
#
#
# Elastic Constant Matrix: (Units=GPa)
#
#
# Indices 1 2 3 4 5 6 
#
# 1 103.8590 29.3709 48.5593 0.0000 -9.1626 0.0000
# 2 29.3709 86.8778 26.3750 0.0000 5.3601 0.0000
# 3 48.5593 26.3750 94.3922 0.0000 -0.0208 0.0000
# 4 0.0000 0.0000 0.0000 19.5523 0.0000 0.7208
# 5 -9.1626 5.3601 -0.0208 0.0000 26.8311 0.0000
# 6 0.0000 0.0000 0.0000 0.7208 0.0000 21.1786
#
#
#
# Elastic Compliance Matrix: (Units=1/GPa)
#
#
# Indices 1 2 3 4 5 6 
#
# 1 0.013929 -0.003131 -0.006290 0.000000 0.005377 0.000000
# 2 -0.003131 0.013453 -0.002149 0.000000 -0.003759 0.000000
# 3 -0.006290 -0.002149 0.014430 0.000000 -0.001707 0.000000
# 4 0.000000 0.000000 0.000000 0.051209 0.000000 -0.001743
# 5 0.005377 -0.003759 -0.001707 0.000000 0.039856 0.000000
# 6 0.000000 0.000000 0.000000 -0.001743 0.000000 0.047277
#
#
# Mechanical properties :
#
#
# Convention : Reuss Voigt Hill
#
# Bulk Modulus (GPa) = 53.55521 54.85993 54.20757
# Shear Modulus (GPa) = 23.86429 25.56733 24.71581
#
# Velocity S-wave (km/s) = 3.66617 3.79474 3.73101
# Velocity P-wave (km/s) = 6.93430 7.07801 7.00652
#
# Compressibility (1/GPa) = 0.01867232
#
# Stress axis : x y z
#
# Youngs Moduli (GPa) = 71.79240 74.33091 69.30100
#
# Poissons Ratio (x) = 0.23276 0.43587
# Poissons Ratio (y) = 0.22481 0.14893
# Poissons Ratio (z) = 0.45154 0.15974
#
# Static dielectric constant tensor:
#      x y z
#    x 3.268450 0.000000 -0.173420 
#    y 0.000000 3.366680 0.000000 
#    z -0.173420 0.000000 3.392070 
# 
# 
# High freq. dielectric constant tensor:
#      x y z
#    x 1.683410 0.000000 -0.007100 
#    y 0.000000 1.684480 0.000000 
#    z -0.007100 0.000000 1.681130 
# 
# From -- ./inp_files/43158.got.cif
#   From: 2010.06.25/outbox.cif.g09.slc.cpg/sg11_22_cif.got.tgz:43158.got - 2010.06.27 23:14:04.
