data_PCOD8072502
_publ_section_title
;
Structure prediction by ZEFSAII (Michael W. Deem and Ramdas Pophale) SiO2 
 PCOD8072502
Probable space group: P 21/M
;
_chemical_formula_sum "Si O2"
_cell_formula_units_Z 32
_cell_length_a 12.088689
_cell_length_b 18.642941
_cell_length_c 12.289424
_cell_angle_alpha 90.000000
_cell_angle_beta 143.068496
_cell_angle_gamma 90.000000
_cell_volume 1664.172480
_symmetry_space_group_name_H-M "P 21/M"
_symmetry_group_IT_number 11
_symmetry_cell_setting 'monoclinic'
loop_
_space_group_symop_operation_xyz
x,y,z
-x,1/2+y,-z
-x,-y,-z
x,1/2-y,z
loop_
_atom_site_type_symbol
_atom_site_label
_atom_site_fract_x
_atom_site_fract_y
_atom_site_fract_z
Si Si1 0.318062 0.596353 0.740679
Si Si2 0.037275 0.944545 0.692836
Si Si3 0.121905 0.592937 0.188206
Si Si4 0.901637 0.577735 0.811547
Si Si5 0.000737 0.388973 0.673802
Si Si6 0.631293 0.941056 0.296695
Si Si7 0.620641 0.668470 0.102461
Si Si8 0.512692 0.926214 0.445486
O O1 0.201474 0.593519 0.759807
O O2 0.186575 0.625263 0.541006
O O3 0.404882 0.519471 0.780536
O O4 0.489182 0.649435 0.896344
O O5 0.033955 0.911801 0.811457
O O6 0.847436 0.927731 0.482681
O O7 0.069211 0.029649 0.715560
O O8 0.125708 0.507143 0.196226
O O9 0.045461 0.628806 0.237234
O O10 0.330997 0.620265 0.330755
O O11 0.990999 0.616409 0.985523
O O12 0.700713 0.613263 0.631912
O O13 0.166122 0.339049 0.764162
O O14 0.562125 0.881310 0.158002
O O15 0.518710 0.938208 0.320448
O O16 0.587146 0.750000 0.111459
O O17 0.500000 0.000000 0.500000
#
# Coordination Sequence:
#
# PCOD8072502 Si02
#       8
#     4   4   4   4   4   4   4   4
#     4  11  20  35  59  85 112 147 193 236 291 340
#     4   9  16  32  57  86 114 142 180 230 293 339
#     4   9  17  28  48  76 109 148 173 213 285 332
#     4   8  16  26  43  80 118 138 167 220 277 341
#     4  10  20  37  56  80 116 147 184 237 282 339
#     4  10  19  36  59  87 120 150 186 246 295 343
#     4  12  26  38  53  83 115 155 196 234 293 351
#     4   9  17  29  49  84 120 141 173 229 286 341
#
# _framework density 19.228777000000001
#
# number of rings (size 3 to 8) (size 9 to 14) (size 15 to 20)
#    0.000    2.250    2.500    3.375    1.750    4.500 
#    0.000    0.000    0.000    0.750    0.000    7.000 
#    0.000    0.000    0.000    0.000    0.000    0.000 
#
# Total GULP energy -396709.437227 kJ/mol
# GULP energy per Si atom -12397.169913 kJ/mol
# Density = 1.918501 g / cm^3
# Si number density = 19.228777 Si / 1000 Ang^3
#
#
#
# Elastic Constant Matrix: (Units=GPa)
#
#
# Indices 1 2 3 4 5 6 
#
# 1 110.8226 15.8186 46.0015 0.0000 -17.1592 0.0000
# 2 15.8186 46.2503 33.1183 0.0000 -3.4177 0.0000
# 3 46.0015 33.1183 119.7603 0.0000 -16.7450 0.0000
# 4 0.0000 0.0000 0.0000 9.0889 0.0000 4.1165
# 5 -17.1592 -3.4177 -16.7450 0.0000 30.8510 0.0000
# 6 0.0000 0.0000 0.0000 4.1165 0.0000 6.5991
#
#
#
# Elastic Compliance Matrix: (Units=1/GPa)
#
#
# Indices 1 2 3 4 5 6 
#
# 1 0.011264 -0.001081 -0.003429 0.000000 0.004284 0.000000
# 2 -0.001081 0.027101 -0.007298 0.000000 -0.001560 0.000000
# 3 -0.003429 -0.007298 0.012234 0.000000 0.003925 0.000000
# 4 0.000000 0.000000 0.000000 0.153350 0.000000 -0.095659
# 5 0.004284 -0.001560 0.003925 0.000000 0.036754 0.000000
# 6 0.000000 0.000000 0.000000 -0.095659 0.000000 0.211207
#
#
# Mechanical properties :
#
#
# Convention : Reuss Voigt Hill
#
# Bulk Modulus (GPa) = 37.05718 51.85667 44.45692
# Shear Modulus (GPa) = 10.31948 21.43412 15.87680
#
# Velocity S-wave (km/s) = 2.31912 3.34232 2.87658
# Velocity P-wave (km/s) = 5.14633 6.47469 5.84834
#
# Compressibility (1/GPa) = 0.02698533
#
# Stress axis : x y z
#
# Youngs Moduli (GPa) = 88.77558 36.89846 81.74031
#
# Poissons Ratio (x) = 0.03988 0.28028
# Poissons Ratio (y) = 0.09595 0.59650
# Poissons Ratio (z) = 0.30440 0.26927
#
# Static dielectric constant tensor:
#      x y z
#    x 3.717390 0.000000 0.027360 
#    y 0.000000 2.795070 0.000000 
#    z 0.027360 0.000000 3.907410 
# 
# 
# High freq. dielectric constant tensor:
#      x y z
#    x 1.761610 0.000000 -0.001460 
#    y 0.000000 1.664010 0.000000 
#    z -0.001460 0.000000 1.765770 
# 
# From -- ./inp_files/36361.got.cif
#   From: 2010.06.25/outbox.cif.g09.slc.cpg/sg11_19_cif.got.tgz:36361.got - 2010.06.27 23:14:04.
