data_PCOD8072955
_publ_section_title
;
Structure prediction by ZEFSAII (Michael W. Deem and Ramdas Pophale) SiO2 
 PCOD8072955
Probable space group: P 21/M
;
_chemical_formula_sum "Si O2"
_cell_formula_units_Z 32
_cell_length_a 16.046070
_cell_length_b 9.087556
_cell_length_c 14.090948
_cell_angle_alpha 90.000000
_cell_angle_beta 118.143202
_cell_angle_gamma 90.000000
_cell_volume 1811.807424
_symmetry_space_group_name_H-M "P 21/M"
_symmetry_group_IT_number 11
_symmetry_cell_setting 'monoclinic'
loop_
_space_group_symop_operation_xyz
x,y,z
-x,1/2+y,-z
-x,-y,-z
x,1/2-y,z
loop_
_atom_site_type_symbol
_atom_site_label
_atom_site_fract_x
_atom_site_fract_y
_atom_site_fract_z
Si Si1 0.098568 0.922829 0.534817
Si Si2 0.902130 0.080901 0.956501
Si Si3 0.740883 0.422090 0.230414
Si Si4 0.398242 0.575410 0.204153
Si Si5 0.390925 0.077729 0.701519
Si Si6 0.767674 0.577755 0.532745
Si Si7 0.746845 0.080192 0.717250
Si Si8 0.751996 0.425410 0.023294
O O1 0.083660 0.750000 0.511503
O O2 0.164475 0.957505 0.660426
O O3 0.144524 0.990251 0.464919
O O4 0.000000 0.000000 0.500000
O O5 0.925258 0.250000 0.986608
O O6 0.841809 0.059581 0.828780
O O7 0.843829 0.017055 0.015309
O O8 0.000000 0.000000 0.000000
O O9 0.718970 0.250000 0.217233
O O10 0.650847 0.500839 0.227887
O O11 0.754375 0.485849 0.131689
O O12 0.399672 0.750000 0.202760
O O13 0.504585 0.512447 0.261534
O O14 0.343397 0.526601 0.269860
O O15 0.342463 0.517408 0.081010
O O16 0.394399 0.250000 0.724457
O O17 0.327589 0.041264 0.576068
O O18 0.791608 0.750000 0.543355
O O19 0.752012 0.525760 0.630668
O O20 0.735598 0.250000 0.679311
O O21 0.753450 0.250000 0.022424
#
# Coordination Sequence:
#
# PCOD8072955 Si02
#       8
#     4   4   4   4   4   4   4   4
#     4  10  20  34  51  72  99 129 162 200 242 288
#     4   9  18  32  50  72  97 126 159 196 239 289
#     4   9  18  32  50  72  97 126 159 195 236 284
#     4   8  15  30  51  71  95 128 160 193 238 290
#     4   9  18  32  49  71  98 127 160 197 238 285
#     4  10  20  33  49  71  99 129 162 201 244 287
#     4   9  18  33  51  71  96 128 166 202 239 287
#     4   8  15  30  50  70  94 125 159 191 231 288
#
# _framework density 17.661921
#
# number of rings (size 3 to 8) (size 9 to 14) (size 15 to 20)
#    0.000    3.000    0.000    2.250    0.000    3.500 
#    0.000    2.500    0.000    1.500    0.000    0.000 
#    0.000    0.000    0.000    0.000    0.000    0.000 
#
# Total GULP energy -396748.162979 kJ/mol
# GULP energy per Si atom -12398.380093 kJ/mol
# Density = 1.762172 g / cm^3
# Si number density = 17.661921 Si / 1000 Ang^3
#
#
#
# Elastic Constant Matrix: (Units=GPa)
#
#
# Indices 1 2 3 4 5 6 
#
# 1 167.2044 50.8909 83.7682 0.0000 7.5909 0.0000
# 2 50.8909 50.2584 38.3108 0.0000 0.3517 0.0000
# 3 83.7682 38.3108 93.9634 0.0000 -14.9943 0.0000
# 4 0.0000 0.0000 0.0000 21.4294 0.0000 -2.5239
# 5 7.5909 0.3517 -14.9943 0.0000 34.7808 0.0000
# 6 0.0000 0.0000 0.0000 -2.5239 0.0000 30.5985
#
#
#
# Elastic Compliance Matrix: (Units=1/GPa)
#
#
# Indices 1 2 3 4 5 6 
#
# 1 0.013470 -0.005071 -0.011171 0.000000 -0.007704 0.000000
# 2 -0.005071 0.031896 -0.008976 0.000000 -0.003086 0.000000
# 3 -0.011171 -0.008976 0.026487 0.000000 0.013947 0.000000
# 4 0.000000 0.000000 0.000000 0.047123 0.000000 0.003887
# 5 -0.007704 -0.003086 0.013947 0.000000 0.036477 0.000000
# 6 0.000000 0.000000 0.000000 0.003887 0.000000 0.033002
#
#
# Mechanical properties :
#
#
# Convention : Reuss Voigt Hill
#
# Bulk Modulus (GPa) = 46.69186 73.04066 59.86626
# Shear Modulus (GPa) = 20.32280 26.59216 23.45748
#
# Velocity S-wave (km/s) = 3.39581 3.88444 3.64832
# Velocity P-wave (km/s) = 6.47064 7.84622 7.19140
#
# Compressibility (1/GPa) = 0.02141701
#
# Stress axis : x y z
#
# Youngs Moduli (GPa) = 74.23759 31.35207 37.75482
#
# Poissons Ratio (x) = 0.15898 0.42175
# Poissons Ratio (y) = 0.37644 0.33890
# Poissons Ratio (z) = 0.82929 0.28143
#
# Static dielectric constant tensor:
#      x y z
#    x 3.528610 0.000000 -0.001110 
#    y 0.000000 3.040850 0.000000 
#    z -0.001110 0.000000 3.378980 
# 
# 
# High freq. dielectric constant tensor:
#      x y z
#    x 1.691790 0.000000 -0.001530 
#    y 0.000000 1.658230 0.000000 
#    z -0.001530 0.000000 1.682740 
# 
# From -- ./inp_files/51682.got.cif
#   From: 2010.06.25/outbox.cif.g09.slc.cpg/sg11_26_cif.got.tgz:51682.got - 2010.06.27 23:14:04.
