data_PCOD8072105
_publ_section_title
;
Structure prediction by ZEFSAII (Michael W. Deem and Ramdas Pophale) SiO2 
 PCOD8072105
Probable space group: P 21/M
;
_chemical_formula_sum "Si O2"
_cell_formula_units_Z 28
_cell_length_a 14.397776
_cell_length_b 9.014091
_cell_length_c 21.321100
_cell_angle_alpha 90.000000
_cell_angle_beta 148.812341
_cell_angle_gamma 90.000000
_cell_volume 1432.929640
_symmetry_space_group_name_H-M "P 21/M"
_symmetry_group_IT_number 11
_symmetry_cell_setting 'monoclinic'
loop_
_space_group_symop_operation_xyz
x,y,z
-x,1/2+y,-z
-x,-y,-z
x,1/2-y,z
loop_
_atom_site_type_symbol
_atom_site_label
_atom_site_fract_x
_atom_site_fract_y
_atom_site_fract_z
Si Si1 0.482877 0.925039 0.683779
Si Si2 0.847741 0.580418 0.949782
Si Si3 0.592375 0.420855 0.142699
Si Si4 0.025473 0.579506 0.181549
Si Si5 0.247776 0.921008 0.897806
Si Si6 0.808876 0.424948 0.390544
Si Si7 0.400284 0.074112 0.384839
O O1 0.486316 0.750000 0.693792
O O2 0.655324 0.990031 0.820633
O O3 0.301369 0.983634 0.612098
O O4 0.490896 0.970279 0.615315
O O5 0.854077 0.750000 0.931573
O O6 0.000000 0.500000 0.000000
O O7 0.879677 0.564627 0.042173
O O8 0.529789 0.250000 0.111504
O O9 0.723014 0.444833 0.159104
O O10 0.699116 0.472398 0.265542
O O11 0.416666 0.520429 0.034705
O O12 0.079205 0.750000 0.225487
O O13 0.200482 0.487872 0.263855
O O14 0.932611 0.510888 0.189411
O O15 0.219200 0.750000 0.898668
O O16 0.838351 0.250000 0.409271
O O17 0.000000 0.500000 0.500000
O O18 0.392959 0.250000 0.389773
O O19 0.500000 0.000000 0.500000
#
# Coordination Sequence:
#
# PCOD8072105 Si02
#       7
#     4   4   4   4   4   4   4
#     4   9  19  37  60  83 112 149 184 231 291 342
#     4  10  19  34  58  86 114 145 185 232 286 341
#     4   9  19  37  58  82 115 150 187 236 292 343
#     4  11  22  36  57  86 118 153 189 230 285 344
#     4  10  20  34  57  87 117 150 187 232 285 341
#     4  10  21  39  60  82 111 148 192 237 285 339
#     4  11  23  40  59  80 112 151 194 237 282 342
#
# _framework density 19.540386999999999
#
# number of rings (size 3 to 8) (size 9 to 14) (size 15 to 20)
#    0.000    2.000    1.429    2.143    0.000    5.143 
#    0.000    5.000    0.000    0.000    0.000    0.000 
#    0.000    0.000    0.000    0.000    0.000    0.000 
#
# Total GULP energy -347233.193356 kJ/mol
# GULP energy per Si atom -12401.185477 kJ/mol
# Density = 1.949591 g / cm^3
# Si number density = 19.540387 Si / 1000 Ang^3
#
#
#
# Elastic Constant Matrix: (Units=GPa)
#
#
# Indices 1 2 3 4 5 6 
#
# 1 159.9906 54.8312 68.8009 0.0000 12.0496 0.0000
# 2 54.8312 77.3854 38.9956 0.0000 -0.5821 0.0000
# 3 68.8009 38.9956 104.9485 0.0000 -1.5263 0.0000
# 4 0.0000 0.0000 0.0000 33.7595 0.0000 5.4297
# 5 12.0496 -0.5821 -1.5263 0.0000 33.1564 0.0000
# 6 0.0000 0.0000 0.0000 5.4297 0.0000 30.3877
#
#
#
# Elastic Compliance Matrix: (Units=1/GPa)
#
#
# Indices 1 2 3 4 5 6 
#
# 1 0.010403 -0.004842 -0.005081 0.000000 -0.004100 0.000000
# 2 -0.004842 0.018153 -0.003543 0.000000 0.001915 0.000000
# 3 -0.005081 -0.003543 0.014211 0.000000 0.002438 0.000000
# 4 0.000000 0.000000 0.000000 0.030498 0.000000 -0.005449
# 5 -0.004100 0.001915 0.002438 0.000000 0.031796 0.000000
# 6 0.000000 0.000000 0.000000 -0.005449 0.000000 0.033882
#
#
# Mechanical properties :
#
#
# Convention : Reuss Voigt Hill
#
# Bulk Modulus (GPa) = 63.14619 74.17553 68.66086
# Shear Modulus (GPa) = 29.21372 31.44049 30.32710
#
# Velocity S-wave (km/s) = 3.87077 4.01559 3.94384
# Velocity P-wave (km/s) = 7.23623 7.71637 7.48016
#
# Compressibility (1/GPa) = 0.01583627
#
# Stress axis : x y z
#
# Youngs Moduli (GPa) = 96.12284 55.08790 70.36747
#
# Poissons Ratio (x) = 0.26673 0.35751
# Poissons Ratio (y) = 0.46542 0.24931
# Poissons Ratio (z) = 0.48837 0.19517
#
# Static dielectric constant tensor:
#      x y z
#    x 3.895510 0.000000 -0.045870 
#    y 0.000000 3.489550 0.000000 
#    z -0.045870 0.000000 3.578430 
# 
# 
# High freq. dielectric constant tensor:
#      x y z
#    x 1.777820 0.000000 0.000830 
#    y 0.000000 1.747490 0.000000 
#    z 0.000830 0.000000 1.754220 
# 
# From -- ./inp_files/38438.got.cif
#   From: 2010.06.25/outbox.cif.g09.slc.cpg/sg11_20_cif.got.tgz:38438.got - 2010.06.27 23:14:04.
