data_PCOD8072563
_publ_section_title
;
Structure prediction by ZEFSAII (Michael W. Deem and Ramdas Pophale) SiO2 
 PCOD8072563
Probable space group: P 21/M
;
_chemical_formula_sum "Si O2"
_cell_formula_units_Z 20
_cell_length_a 17.346727
_cell_length_b 14.021058
_cell_length_c 11.531054
_cell_angle_alpha 90.000000
_cell_angle_beta 159.270083
_cell_angle_gamma 90.000000
_cell_volume 992.717081
_symmetry_space_group_name_H-M "P 21/M"
_symmetry_group_IT_number 11
_symmetry_cell_setting 'monoclinic'
loop_
_space_group_symop_operation_xyz
x,y,z
-x,1/2+y,-z
-x,-y,-z
x,1/2-y,z
loop_
_atom_site_type_symbol
_atom_site_label
_atom_site_fract_x
_atom_site_fract_y
_atom_site_fract_z
Si Si1 0.800247 0.145795 0.372321
Si Si2 0.218684 0.358845 0.817490
Si Si3 0.391815 0.515746 0.225290
Si Si4 0.622583 0.642348 0.369945
Si Si5 0.092330 0.051617 0.406748
O O1 0.826965 0.250000 0.470894
O O2 0.965802 0.137589 0.497405
O O3 0.852356 0.060749 0.534881
O O4 0.560580 0.133848 0.985669
O O5 0.305721 0.250000 0.934262
O O6 0.236023 0.407290 0.715727
O O7 0.362851 0.417201 0.113173
O O8 0.500000 0.500000 0.500000
O O9 0.558135 0.583528 0.392010
O O10 0.160943 0.567571 0.921563
O O11 0.661234 0.750000 0.465162
O O12 0.844976 0.603880 0.624347
#
# Coordination Sequence:
#
# PCOD8072563 Si02
#       5
#     4   4   4   4   4
#     4   9  17  32  57  88 118 147 189 247 301 346
#     4  10  19  36  61  90 116 152 203 253 299 351
#     4  11  24  41  60  84 125 165 197 241 296 358
#     4  11  22  36  61  91 117 154 200 247 299 354
#     4  11  20  38  62  89 118 151 198 253 302 348
#
# _framework density 20.146726999999998
#
# number of rings (size 3 to 8) (size 9 to 14) (size 15 to 20)
#    0.000    1.600    4.000    2.400    0.000    2.400 
#    0.000    0.000    0.000    0.000    0.000    0.000 
#    0.000    0.000    0.000    0.000    0.000    0.000 
#
# Total GULP energy -247992.100842 kJ/mol
# GULP energy per Si atom -12399.605042 kJ/mol
# Density = 2.010087 g / cm^3
# Si number density = 20.146727 Si / 1000 Ang^3
#
#
#
# Elastic Constant Matrix: (Units=GPa)
#
#
# Indices 1 2 3 4 5 6 
#
# 1 125.5614 72.9566 47.8647 0.0000 1.6255 0.0000
# 2 72.9566 157.9695 35.7238 0.0000 1.0819 0.0000
# 3 47.8647 35.7238 48.8890 0.0000 -15.6420 0.0000
# 4 0.0000 0.0000 0.0000 18.0089 0.0000 7.7074
# 5 1.6255 1.0819 -15.6420 0.0000 24.3987 0.0000
# 6 0.0000 0.0000 0.0000 7.7074 0.0000 25.3461
#
#
#
# Elastic Compliance Matrix: (Units=1/GPa)
#
#
# Indices 1 2 3 4 5 6 
#
# 1 0.017244 -0.003768 -0.018170 0.000000 -0.012631 0.000000
# 2 -0.003768 0.008901 -0.003599 0.000000 -0.002451 0.000000
# 3 -0.018170 -0.003599 0.051973 0.000000 0.034690 0.000000
# 4 0.000000 0.000000 0.000000 0.063836 0.000000 -0.019411
# 5 -0.012631 -0.002451 0.034690 0.000000 0.064176 0.000000
# 6 0.000000 0.000000 0.000000 -0.019411 0.000000 0.045356
#
#
# Mechanical properties :
#
#
# Convention : Reuss Voigt Hill
#
# Bulk Modulus (GPa) = 36.97833 71.72333 54.35083
# Shear Modulus (GPa) = 16.04743 25.27573 20.66158
#
# Velocity S-wave (km/s) = 2.82534 3.54585 3.20590
# Velocity P-wave (km/s) = 5.38867 7.24167 6.38278
#
# Compressibility (1/GPa) = 0.02704286
#
# Stress axis : x y z
#
# Youngs Moduli (GPa) = 57.99136 112.34150 19.24070
#
# Poissons Ratio (x) = 0.42334 0.34961
# Poissons Ratio (y) = 0.21853 0.06925
# Poissons Ratio (z) = 1.05372 0.40434
#
# Static dielectric constant tensor:
#      x y z
#    x 3.471120 0.000000 0.283340 
#    y 0.000000 4.100010 0.000000 
#    z 0.283340 0.000000 3.361870 
# 
# 
# High freq. dielectric constant tensor:
#      x y z
#    x 1.775730 0.000000 0.027740 
#    y 0.000000 1.801110 0.000000 
#    z 0.027740 0.000000 1.749850 
# 
# From -- ./inp_files/12220.got.cif
#   From: 2010.06.25/outbox.cif.g09.slc.cpg/sg11_7_cif.got.tgz:12220.got - 2010.06.27 23:14:04.
