data_PCOD8072790
_publ_section_title
;
Structure prediction by ZEFSAII (Michael W. Deem and Ramdas Pophale) SiO2 
 PCOD8072790
Probable space group: P 21/M
;
_chemical_formula_sum "Si O2"
_cell_formula_units_Z 32
_cell_length_a 22.001246
_cell_length_b 8.916016
_cell_length_c 14.832418
_cell_angle_alpha 90.000000
_cell_angle_beta 136.288579
_cell_angle_gamma 90.000000
_cell_volume 2010.595843
_symmetry_space_group_name_H-M "P 21/M"
_symmetry_group_IT_number 11
_symmetry_cell_setting 'monoclinic'
loop_
_space_group_symop_operation_xyz
x,y,z
-x,1/2+y,-z
-x,-y,-z
x,1/2-y,z
loop_
_atom_site_type_symbol
_atom_site_label
_atom_site_fract_x
_atom_site_fract_y
_atom_site_fract_z
Si Si1 0.401793 0.080770 0.298197
Si Si2 0.108163 0.071945 0.341097
Si Si3 0.902409 0.083896 0.300270
Si Si4 0.425506 0.080751 0.536782
Si Si5 0.750456 0.422325 0.631774
Si Si6 0.774179 0.422470 0.869034
Si Si7 0.889451 0.584293 0.458118
Si Si8 0.079439 0.427594 0.861909
O O1 0.393521 0.250000 0.252078
O O2 0.417227 0.083022 0.420918
O O3 0.483594 0.999128 0.337312
O O4 0.313714 0.989747 0.180253
O O5 0.093895 0.250000 0.321193
O O6 0.141879 0.024687 0.477490
O O7 0.178772 0.019999 0.344863
O O8 0.016011 0.994435 0.220032
O O9 0.864950 0.250000 0.241532
O O10 0.005640 0.090073 0.427535
O O11 0.855679 0.020621 0.340628
O O12 0.881293 0.980063 0.192022
O O13 0.424461 0.250000 0.573907
O O14 0.345600 0.987346 0.494175
O O15 0.754370 0.250000 0.604775
O O16 0.771371 0.438885 0.759013
O O17 0.782830 0.250000 0.907995
O O18 0.857401 0.516386 0.991264
O O19 0.851502 0.750000 0.399311
O O20 0.073171 0.250000 0.856325
#
# Coordination Sequence:
#
# PCOD8072790 Si02
#       8
#     4   4   4   4   4   4   4   4
#     4   9  16  27  44  65  86 109 141 180 222 265
#     4  10  20  33  47  63  87 118 151 186 221 260
#     4   9  16  27  44  64  85 109 138 176 221 264
#     4   9  16  27  44  64  86 112 141 177 222 266
#     4  10  20  32  46  64  87 117 152 188 222 259
#     4  10  20  33  46  62  87 118 152 187 222 261
#     4   8  15  27  43  63  84 108 139 176 219 263
#     4  11  21  32  46  63  86 117 152 187 221 260
#
# _framework density 15.915679000000001
#
# number of rings (size 3 to 8) (size 9 to 14) (size 15 to 20)
#    0.000    2.500    0.000    4.125    0.000    8.500 
#    0.000    0.000    0.000    0.000    0.000    0.000 
#    0.000    1.000    0.000    3.750    0.000    6.000 
#
# Total GULP energy -396746.762645 kJ/mol
# GULP energy per Si atom -12398.336333 kJ/mol
# Density = 1.587945 g / cm^3
# Si number density = 15.915679 Si / 1000 Ang^3
#
#
#
# Elastic Constant Matrix: (Units=GPa)
#
#
# Indices 1 2 3 4 5 6 
#
# 1 65.7951 48.8184 45.8874 0.0000 12.5758 0.0000
# 2 48.8184 124.0261 31.5682 0.0000 7.3360 0.0000
# 3 45.8874 31.5682 31.2263 0.0000 9.7621 0.0000
# 4 0.0000 0.0000 0.0000 24.1832 0.0000 2.9784
# 5 12.5758 7.3360 9.7621 0.0000 14.4686 0.0000
# 6 0.0000 0.0000 0.0000 2.9784 0.0000 26.4176
#
#
#
# Elastic Compliance Matrix: (Units=1/GPa)
#
#
# Indices 1 2 3 4 5 6 
#
# 1 -0.511061 0.011365 0.763500 0.000000 -0.076698 0.000000
# 2 0.011365 0.010670 -0.028779 0.000000 0.004129 0.000000
# 3 0.763500 -0.028779 -1.087299 0.000000 0.084582 0.000000
# 4 0.000000 0.000000 0.000000 0.041933 0.000000 -0.004728
# 5 -0.076698 0.004129 0.084582 0.000000 0.076618 0.000000
# 6 0.000000 0.000000 0.000000 -0.004728 0.000000 0.038387
#
#
# Mechanical properties :
#
#
# Convention : Reuss Voigt Hill
#
# Bulk Modulus (GPa) = -10.46933 52.62172 21.07619
# Shear Modulus (GPa) = -1.69218 19.33212 8.81997
#
# Velocity S-wave (km/s) = -1.03224 3.48898 2.35663
# Velocity P-wave (km/s) = 2.83072 7.02604 4.54710
#
# Compressibility (1/GPa) = -0.09551711
#
# Stress axis : x y z
#
# Youngs Moduli (GPa) = -1.95671 93.71861 -0.91971
#
# Poissons Ratio (x) = -1.06509 0.70220
# Poissons Ratio (y) = 0.02224 -0.02647
# Poissons Ratio (z) = 1.49395 2.69708
#
# Static dielectric constant tensor:
#      x y z
#    x 2.961650 0.000000 -0.011730 
#    y 0.000000 3.287130 0.000000 
#    z -0.011730 0.000000 2.803480 
# 
# 
# High freq. dielectric constant tensor:
#      x y z
#    x 1.587930 0.000000 0.003110 
#    y 0.000000 1.633080 0.000000 
#    z 0.003110 0.000000 1.574230 
# 
# From -- ./inp_files/51395.got.cif
#   From: 2010.06.25/outbox.cif.g09.slc.cpg/sg11_26_cif.got.tgz:51395.got - 2010.06.27 23:14:04.
