data_PCOD8072046
_publ_section_title
;
Structure prediction by ZEFSAII (Michael W. Deem and Ramdas Pophale) SiO2 
 PCOD8072046
Probable space group: P 21/M
;
_chemical_formula_sum "Si O2"
_cell_formula_units_Z 28
_cell_length_a 29.011113
_cell_length_b 8.733201
_cell_length_c 9.012258
_cell_angle_alpha 90.000000
_cell_angle_beta 38.784084
_cell_angle_gamma 90.000000
_cell_volume 1430.258063
_symmetry_space_group_name_H-M "P 21/M"
_symmetry_group_IT_number 11
_symmetry_cell_setting 'monoclinic'
loop_
_space_group_symop_operation_xyz
x,y,z
-x,1/2+y,-z
-x,-y,-z
x,1/2-y,z
loop_
_atom_site_type_symbol
_atom_site_label
_atom_site_fract_x
_atom_site_fract_y
_atom_site_fract_z
Si Si1 0.213359 0.429047 0.053080
Si Si2 0.790078 0.072902 0.623974
Si Si3 0.932049 0.569716 0.756666
Si Si4 0.657546 0.429433 0.449573
Si Si5 0.065740 0.571667 0.926838
Si Si6 0.660984 0.569598 0.765193
Si Si7 0.502033 0.573553 0.152215
O O1 0.229073 0.250000 0.997539
O O2 0.199306 0.469752 0.258412
O O3 0.142475 0.480274 0.137898
O O4 0.283264 0.521577 0.819462
O O5 0.785873 0.250000 0.681039
O O6 0.858450 0.039737 0.346536
O O7 0.716504 0.027244 0.723572
O O8 0.941870 0.750000 0.734845
O O9 0.000000 0.500000 0.500000
O O10 0.929033 0.508647 0.929301
O O11 0.665705 0.250000 0.465929
O O12 0.668389 0.523384 0.574098
O O13 0.577080 0.464221 0.573788
O O14 0.050307 0.750000 0.988575
O O15 0.000000 0.500000 0.000000
O O16 0.678249 0.750000 0.736606
O O17 0.579182 0.525097 0.036685
O O18 0.509303 0.750000 0.102372
O O19 0.500000 0.500000 0.000000
#
# Coordination Sequence:
#
# PCOD8072046 Si02
#       7
#     4   4   4   4   4   4   4
#     4  11  24  40  58  83 114 150 190 234 282 334
#     4  11  24  40  58  83 114 150 190 234 282 334
#     4  11  24  41  63  89 118 150 187 230 278 332
#     4  10  19  34  57  84 114 148 188 234 282 336
#     4  11  24  41  63  89 118 150 187 230 278 332
#     4  10  19  34  57  84 114 148 188 234 282 336
#     4   8  16  30  51  80 111 144 184 230 280 332
#
# _framework density 19.576885999999998
#
# number of rings (size 3 to 8) (size 9 to 14) (size 15 to 20)
#    0.000    1.714    0.000    4.286    0.000   10.286 
#    0.000    0.714    0.000    0.000    0.000    0.000 
#    0.000    0.000    0.000    0.000    0.000    0.000 
#
# Total GULP energy -347096.550956 kJ/mol
# GULP energy per Si atom -12396.305391 kJ/mol
# Density = 1.953233 g / cm^3
# Si number density = 19.576886 Si / 1000 Ang^3
#
#
#
# Elastic Constant Matrix: (Units=GPa)
#
#
# Indices 1 2 3 4 5 6 
#
# 1 123.1937 28.9325 61.2594 0.0000 -19.4390 0.0000
# 2 28.9325 38.0903 42.8933 0.0000 -19.9963 0.0000
# 3 61.2594 42.8933 127.8235 0.0000 -23.0547 0.0000
# 4 0.0000 0.0000 0.0000 33.7248 0.0000 1.8915
# 5 -19.4390 -19.9963 -23.0547 0.0000 37.2106 0.0000
# 6 0.0000 0.0000 0.0000 1.8915 0.0000 33.5884
#
#
#
# Elastic Compliance Matrix: (Units=1/GPa)
#
#
# Indices 1 2 3 4 5 6 
#
# 1 0.011079 -0.003046 -0.003984 0.000000 0.001683 0.000000
# 2 -0.003046 0.053059 -0.012935 0.000000 0.018908 0.000000
# 3 -0.003984 -0.012935 0.014010 0.000000 -0.000352 0.000000
# 4 0.000000 0.000000 0.000000 0.029746 0.000000 -0.001675
# 5 0.001683 0.018908 -0.000352 0.000000 0.037695 0.000000
# 6 0.000000 0.000000 0.000000 -0.001675 0.000000 0.029866
#
#
# Mechanical properties :
#
#
# Convention : Reuss Voigt Hill
#
# Bulk Modulus (GPa) = 26.16548 61.69752 43.93150
# Shear Modulus (GPa) = 21.91789 31.30626 26.61208
#
# Velocity S-wave (km/s) = 3.34964 4.00327 3.69095
# Velocity P-wave (km/s) = 5.32491 7.27682 6.37600
#
# Compressibility (1/GPa) = 0.03821830
#
# Stress axis : x y z
#
# Youngs Moduli (GPa) = 90.25850 18.84707 71.37900
#
# Poissons Ratio (x) = 0.05740 0.28439
# Poissons Ratio (y) = 0.27488 0.92328
# Poissons Ratio (z) = 0.35961 0.24379
#
# Static dielectric constant tensor:
#      x y z
#    x 3.692100 0.000000 -0.495070 
#    y 0.000000 3.706720 0.000000 
#    z -0.495070 0.000000 4.106310 
# 
# 
# High freq. dielectric constant tensor:
#      x y z
#    x 1.761660 0.000000 -0.023520 
#    y 0.000000 1.776600 0.000000 
#    z -0.023520 0.000000 1.773410 
# 
# From -- ./inp_files/28334.got.cif
#   From: 2010.06.25/outbox.cif.g09.slc.cpg/sg11_15_cif.got.tgz:28334.got - 2010.06.27 23:14:04.
