data_PCOD8072768
_publ_section_title
;
Structure prediction by ZEFSAII (Michael W. Deem and Ramdas Pophale) SiO2 
 PCOD8072768
Probable space group: P 21/M
;
_chemical_formula_sum "Si O2"
_cell_formula_units_Z 32
_cell_length_a 13.748165
_cell_length_b 13.963855
_cell_length_c 12.209706
_cell_angle_alpha 90.000000
_cell_angle_beta 44.017596
_cell_angle_gamma 90.000000
_cell_volume 1628.788213
_symmetry_space_group_name_H-M "P 21/M"
_symmetry_group_IT_number 11
_symmetry_cell_setting 'monoclinic'
loop_
_space_group_symop_operation_xyz
x,y,z
-x,1/2+y,-z
-x,-y,-z
x,1/2-y,z
loop_
_atom_site_type_symbol
_atom_site_label
_atom_site_fract_x
_atom_site_fract_y
_atom_site_fract_z
Si Si1 0.021391 0.636036 0.026839
Si Si2 0.847749 0.974522 0.583789
Si Si3 0.770871 0.863658 0.084787
Si Si4 0.157977 0.642932 0.549067
Si Si5 0.838912 0.863270 0.370068
Si Si6 0.584551 0.636132 0.430509
Si Si7 0.823816 0.641248 0.805171
Si Si8 0.725028 0.136124 0.313042
O O1 0.017925 0.750000 0.021448
O O2 0.910482 0.593523 0.028876
O O3 0.973658 0.604759 0.187502
O O4 0.176598 0.599112 0.866877
O O5 0.858769 0.900799 0.475216
O O6 0.767510 0.924751 0.750412
O O7 0.776753 0.072908 0.597271
O O8 0.000000 0.000000 0.500000
O O9 0.789192 0.750000 0.064506
O O10 0.635861 0.892175 0.266525
O O11 0.756123 0.900888 0.971892
O O12 0.213241 0.750000 0.480913
O O13 0.208307 0.603885 0.625699
O O14 0.990903 0.638449 0.681759
O O15 0.830347 0.750000 0.382632
O O16 0.696025 0.903024 0.429212
O O17 0.575984 0.750000 0.446942
O O18 0.430198 0.590658 0.575658
O O19 0.774703 0.750000 0.822044
O O20 0.715299 0.250000 0.319535
#
# Coordination Sequence:
#
# PCOD8072768 Si02
#       8
#     4   4   4   4   4   4   4   4
#     4   8  13  23  45  71 100 128 154 192 243 291
#     4  10  20  31  46  71  97 124 169 208 237 282
#     4   8  12  22  41  70 100 124 154 199 243 281
#     4   9  17  29  46  68  95 123 158 205 246 281
#     4   9  17  31  48  74 105 129 152 196 246 284
#     4   8  15  25  45  75 103 127 158 193 237 296
#     4   9  15  26  47  71  95 127 162 200 243 282
#     4   9  14  25  46  73  97 128 163 193 237 295
#
# _framework density 19.646508000000001
#
# number of rings (size 3 to 8) (size 9 to 14) (size 15 to 20)
#    0.000    3.250    1.250    1.875    0.000    0.500 
#    0.000    1.250    0.000    0.750    6.500    0.000 
#    0.000    0.000    0.000    0.000    0.000    0.250 
#
# Total GULP energy -396479.346676 kJ/mol
# GULP energy per Si atom -12389.979584 kJ/mol
# Density = 1.960179 g / cm^3
# Si number density = 19.646508 Si / 1000 Ang^3
#
#
#
# Elastic Constant Matrix: (Units=GPa)
#
#
# Indices 1 2 3 4 5 6 
#
# 1 88.1935 19.5842 68.5881 0.0000 17.1918 0.0000
# 2 19.5842 31.1928 20.2187 0.0000 8.2989 0.0000
# 3 68.5881 20.2187 134.7488 0.0000 10.1754 0.0000
# 4 0.0000 0.0000 0.0000 11.5545 0.0000 4.8801
# 5 17.1918 8.2989 10.1754 0.0000 37.0979 0.0000
# 6 0.0000 0.0000 0.0000 4.8801 0.0000 22.8684
#
#
#
# Elastic Compliance Matrix: (Units=1/GPa)
#
#
# Indices 1 2 3 4 5 6 
#
# 1 0.021070 -0.005526 -0.009448 0.000000 -0.005937 0.000000
# 2 -0.005526 0.038628 -0.002578 0.000000 -0.005374 0.000000
# 3 -0.009448 -0.002578 0.012502 0.000000 0.001526 0.000000
# 4 0.000000 0.000000 0.000000 0.095120 0.000000 -0.020299
# 5 -0.005937 -0.005374 0.001526 0.000000 0.030491 0.000000
# 6 0.000000 0.000000 0.000000 -0.020299 0.000000 0.048060
#
#
# Mechanical properties :
#
#
# Convention : Reuss Voigt Hill
#
# Bulk Modulus (GPa) = 26.95513 52.32409 39.63961
# Shear Modulus (GPa) = 17.04512 24.02041 20.53276
#
# Velocity S-wave (km/s) = 2.94868 3.50041 3.23632
# Velocity P-wave (km/s) = 5.03417 6.55955 5.84682
#
# Compressibility (1/GPa) = 0.03709869
#
# Stress axis : x y z
#
# Youngs Moduli (GPa) = 47.45992 25.88766 79.98946
#
# Poissons Ratio (x) = 0.14305 0.75570
# Poissons Ratio (y) = 0.26225 0.20619
# Poissons Ratio (z) = 0.44838 0.06673
#
# Static dielectric constant tensor:
#      x y z
#    x 3.867140 0.000000 0.296680 
#    y 0.000000 3.657440 0.000000 
#    z 0.296680 0.000000 3.863790 
# 
# 
# High freq. dielectric constant tensor:
#      x y z
#    x 1.735830 0.000000 0.016760 
#    y 0.000000 1.767160 0.000000 
#    z 0.016760 0.000000 1.744410 
# 
# From -- ./inp_files/36022.got.cif
#   From: 2010.06.25/outbox.cif.g09.slc.cpg/sg11_19_cif.got.tgz:36022.got - 2010.06.27 23:14:04.
