data_PCOD8072703
_publ_section_title
;
Structure prediction by ZEFSAII (Michael W. Deem and Ramdas Pophale) SiO2 
 PCOD8072703
Probable space group: P 21/M
;
_chemical_formula_sum "Si O2"
_cell_formula_units_Z 32
_cell_length_a 18.441625
_cell_length_b 18.981022
_cell_length_c 11.271875
_cell_angle_alpha 90.000000
_cell_angle_beta 23.819578
_cell_angle_gamma 90.000000
_cell_volume 1593.468718
_symmetry_space_group_name_H-M "P 21/M"
_symmetry_group_IT_number 11
_symmetry_cell_setting 'monoclinic'
loop_
_space_group_symop_operation_xyz
x,y,z
-x,1/2+y,-z
-x,-y,-z
x,1/2-y,z
loop_
_atom_site_type_symbol
_atom_site_label
_atom_site_fract_x
_atom_site_fract_y
_atom_site_fract_z
Si Si1 0.313477 0.169905 0.704236
Si Si2 0.038141 0.327851 0.302611
Si Si3 0.614203 0.429751 0.299993
Si Si4 0.821715 0.331904 0.164129
Si Si5 0.145681 0.939877 0.277991
Si Si6 0.737407 0.172956 0.554687
Si Si7 0.465697 0.571954 0.985896
Si Si8 0.775653 0.669982 0.422870
O O1 0.371943 0.250000 0.640456
O O2 0.487628 0.123636 0.418805
O O3 0.194181 0.165175 0.764243
O O4 0.213386 0.140581 0.972874
O O5 0.078825 0.250000 0.290452
O O6 0.969784 0.370234 0.519014
O O7 0.895839 0.325232 0.411194
O O8 0.500000 0.500000 0.500000
O O9 0.690508 0.388665 0.299764
O O10 0.781813 0.443682 0.963738
O O11 0.765677 0.250000 0.223241
O O12 0.808992 0.351996 0.320883
O O13 0.028326 0.343115 0.812964
O O14 0.309918 0.944339 0.124116
O O15 0.000000 0.000000 0.500000
O O16 0.649898 0.250000 0.673531
O O17 0.585505 0.121953 0.829247
O O18 0.639017 0.608746 0.667281
O O19 0.500000 0.500000 0.000000
O O20 0.706588 0.750000 0.557303
#
# Coordination Sequence:
#
# PCOD8072703 Si02
#       8
#     4   4   4   4   4   4   4   4
#     4  10  19  38  64  92 121 155 206 257 309 376
#     4   9  18  37  66  92 115 155 205 256 313 369
#     4  12  26  41  61  88 129 171 209 255 315 372
#     4  10  22  41  66  93 123 158 203 260 315 369
#     4  11  25  43  58  86 128 170 208 253 307 372
#     4   9  18  37  63  91 119 154 201 255 308 364
#     4  11  24  39  63  90 125 163 207 254 311 370
#     4  10  20  40  67  94 121 154 207 264 310 365
#
# _framework density 20.081975
#
# number of rings (size 3 to 8) (size 9 to 14) (size 15 to 20)
#    0.000    1.750    2.500    1.500    3.500    1.500 
#    0.000    1.250    0.000    0.000    0.000    0.000 
#    0.000    0.000    0.000    0.000    0.000    0.000 
#
# Total GULP energy -396502.256219 kJ/mol
# GULP energy per Si atom -12390.695507 kJ/mol
# Density = 2.003627 g / cm^3
# Si number density = 20.081975 Si / 1000 Ang^3
#
#
#
# Elastic Constant Matrix: (Units=GPa)
#
#
# Indices 1 2 3 4 5 6 
#
# 1 57.2274 47.3468 29.2853 0.0000 1.0860 0.0000
# 2 47.3468 116.8588 66.6974 0.0000 5.7266 0.0000
# 3 29.2853 66.6974 118.0244 0.0000 15.8035 0.0000
# 4 0.0000 0.0000 0.0000 41.2603 0.0000 -7.2113
# 5 1.0860 5.7266 15.8035 0.0000 34.0639 0.0000
# 6 0.0000 0.0000 0.0000 -7.2113 0.0000 29.0752
#
#
#
# Elastic Compliance Matrix: (Units=1/GPa)
#
#
# Indices 1 2 3 4 5 6 
#
# 1 0.026385 -0.010211 -0.000953 0.000000 0.001317 0.000000
# 2 -0.010211 0.016634 -0.006969 0.000000 0.000762 0.000000
# 3 -0.000953 -0.006969 0.013314 0.000000 -0.004975 0.000000
# 4 0.000000 0.000000 0.000000 0.025335 0.000000 0.006284
# 5 0.001317 0.000762 -0.004975 0.000000 0.031494 0.000000
# 6 0.000000 0.000000 0.000000 0.006284 0.000000 0.035952
#
#
# Mechanical properties :
#
#
# Convention : Reuss Voigt Hill
#
# Bulk Modulus (GPa) = 49.83167 64.30773 57.06970
# Shear Modulus (GPa) = 26.03246 30.79863 28.41555
#
# Velocity S-wave (km/s) = 3.60434 3.92043 3.76570
# Velocity P-wave (km/s) = 6.49536 7.25156 6.88385
#
# Compressibility (1/GPa) = 0.02006756
#
# Stress axis : x y z
#
# Youngs Moduli (GPa) = 37.90099 60.11618 75.11098
#
# Poissons Ratio (x) = 0.61383 0.07158
# Poissons Ratio (y) = 0.38699 0.52344
# Poissons Ratio (z) = 0.03612 0.41894
#
# Static dielectric constant tensor:
#      x y z
#    x 3.576780 0.000000 0.148310 
#    y 0.000000 4.129270 0.000000 
#    z 0.148310 0.000000 3.882980 
# 
# 
# High freq. dielectric constant tensor:
#      x y z
#    x 1.768650 0.000000 0.003660 
#    y 0.000000 1.785270 0.000000 
#    z 0.003660 0.000000 1.792950 
# 
# From -- ./inp_files/43558.got.cif
#   From: 2010.06.25/outbox.cif.g09.slc.cpg/sg11_22_cif.got.tgz:43558.got - 2010.06.27 23:14:04.
