data_PCOD8072159
_publ_section_title
;
Structure prediction by ZEFSAII (Michael W. Deem and Ramdas Pophale) SiO2 
 PCOD8072159
Probable space group: P 21/M
;
_chemical_formula_sum "Si O2"
_cell_formula_units_Z 32
_cell_length_a 10.758577
_cell_length_b 17.989274
_cell_length_c 11.703791
_cell_angle_alpha 90.000000
_cell_angle_beta 47.166318
_cell_angle_gamma 90.000000
_cell_volume 1661.095756
_symmetry_space_group_name_H-M "P 21/M"
_symmetry_group_IT_number 11
_symmetry_cell_setting 'monoclinic'
loop_
_space_group_symop_operation_xyz
x,y,z
-x,1/2+y,-z
-x,-y,-z
x,1/2-y,z
loop_
_atom_site_type_symbol
_atom_site_label
_atom_site_fract_x
_atom_site_fract_y
_atom_site_fract_z
Si Si1 0.744439 0.459262 0.288728
Si Si2 0.242487 0.667644 0.105225
Si Si3 0.994220 0.040328 0.732110
Si Si4 0.491776 0.336501 0.866557
Si Si5 0.478012 0.564473 0.358027
Si Si6 0.333221 0.448473 0.115655
Si Si7 0.691691 0.574628 0.619890
Si Si8 0.386074 0.834605 0.773015
O O1 0.657796 0.532783 0.289386
O O2 0.642292 0.424309 0.458534
O O3 0.755668 0.389996 0.193544
O O4 0.925533 0.489749 0.217753
O O5 0.168355 0.750000 0.163285
O O6 0.080392 0.617687 0.176277
O O7 0.341386 0.646406 0.160321
O O8 0.372095 0.661838 0.918626
O O9 0.125990 0.064156 0.551362
O O10 0.835332 0.996611 0.783218
O O11 0.443912 0.250000 0.901635
O O12 0.513129 0.359269 0.720000
O O13 0.338536 0.386057 0.013222
O O14 0.400901 0.504633 0.319876
O O15 0.307183 0.402291 0.248903
O O16 0.500000 0.500000 0.000000
O O17 0.574549 0.634131 0.623592
O O18 0.364218 0.750000 0.741313
#
# Coordination Sequence:
#
# PCOD8072159 Si02
#       8
#     4   4   4   4   4   4   4   4
#     4   9  21  37  59  87 119 158 205 244 293 357
#     4  10  21  38  58  87 120 156 203 253 309 366
#     4  11  22  36  58  91 122 157 200 255 298 356
#     4  11  22  37  61  88 117 156 203 251 308 366
#     4   9  18  38  58  85 116 150 198 249 290 358
#     4  12  20  36  61  89 118 157 200 246 307 365
#     4  10  19  34  61  90 115 147 200 249 304 356
#     4  10  20  38  63  85 117 163 206 247 298 366
#
# _framework density 19.264392999999998
#
# number of rings (size 3 to 8) (size 9 to 14) (size 15 to 20)
#    0.000    1.750    3.750    1.125    1.750    2.500 
#    0.000    1.250    0.000    0.750    0.000    0.000 
#    0.000    0.000    0.000    0.000    0.000    0.000 
#
# Total GULP energy -396523.580117 kJ/mol
# GULP energy per Si atom -12391.361879 kJ/mol
# Density = 1.922055 g / cm^3
# Si number density = 19.264393 Si / 1000 Ang^3
#
#
#
# Elastic Constant Matrix: (Units=GPa)
#
#
# Indices 1 2 3 4 5 6 
#
# 1 81.2682 44.7310 39.8671 0.0000 -3.6931 0.0000
# 2 44.7310 120.1443 38.7907 0.0000 -2.9705 0.0000
# 3 39.8671 38.7907 73.1983 0.0000 -1.3834 0.0000
# 4 0.0000 0.0000 0.0000 27.0516 0.0000 5.6497
# 5 -3.6931 -2.9705 -1.3834 0.0000 36.0297 0.0000
# 6 0.0000 0.0000 0.0000 5.6497 0.0000 30.1366
#
#
#
# Elastic Compliance Matrix: (Units=1/GPa)
#
#
# Indices 1 2 3 4 5 6 
#
# 1 0.018588 -0.004378 -0.007780 0.000000 0.001246 0.000000
# 2 -0.004378 0.011086 -0.003485 0.000000 0.000332 0.000000
# 3 -0.007780 -0.003485 0.019739 0.000000 -0.000327 0.000000
# 4 0.000000 0.000000 0.000000 0.038473 0.000000 -0.007212
# 5 0.001246 0.000332 -0.000327 0.000000 0.027897 0.000000
# 6 0.000000 0.000000 0.000000 -0.007212 0.000000 0.034534
#
#
# Mechanical properties :
#
#
# Convention : Reuss Voigt Hill
#
# Bulk Modulus (GPa) = 55.16156 57.93203 56.54679
# Shear Modulus (GPa) = 26.64590 28.72504 27.68547
#
# Velocity S-wave (km/s) = 3.72313 3.86566 3.79506
# Velocity P-wave (km/s) = 6.86865 7.07544 6.97281
#
# Compressibility (1/GPa) = 0.01812857
#
# Stress axis : x y z
#
# Youngs Moduli (GPa) = 53.79888 90.20035 50.65986
#
# Poissons Ratio (x) = 0.39486 0.39415
# Poissons Ratio (y) = 0.23551 0.17653
# Poissons Ratio (z) = 0.41857 0.31431
#
# Static dielectric constant tensor:
#      x y z
#    x 3.442210 0.000000 0.085450 
#    y 0.000000 3.591040 0.000000 
#    z 0.085450 0.000000 3.454850 
# 
# 
# High freq. dielectric constant tensor:
#      x y z
#    x 1.737490 0.000000 0.013420 
#    y 0.000000 1.744410 0.000000 
#    z 0.013420 0.000000 1.741720 
# 
# From -- ./inp_files/36006.got.cif
#   From: 2010.06.25/outbox.cif.g09.slc.cpg/sg11_19_cif.got.tgz:36006.got - 2010.06.27 23:14:04.
