data_PCOD8072069
_publ_section_title
;
Structure prediction by ZEFSAII (Michael W. Deem and Ramdas Pophale) SiO2 
 PCOD8072069
Probable space group: P 21/M
;
_chemical_formula_sum "Si O2"
_cell_formula_units_Z 32
_cell_length_a 27.002592
_cell_length_b 8.711809
_cell_length_c 21.160122
_cell_angle_alpha 90.000000
_cell_angle_beta 161.016894
_cell_angle_gamma 90.000000
_cell_volume 1619.204901
_symmetry_space_group_name_H-M "P 21/M"
_symmetry_group_IT_number 11
_symmetry_cell_setting 'monoclinic'
loop_
_space_group_symop_operation_xyz
x,y,z
-x,1/2+y,-z
-x,-y,-z
x,1/2-y,z
loop_
_atom_site_type_symbol
_atom_site_label
_atom_site_fract_x
_atom_site_fract_y
_atom_site_fract_z
Si Si1 0.323922 0.572496 0.109315
Si Si2 0.002987 0.428114 0.727888
Si Si3 0.848175 0.567915 0.787485
Si Si4 0.941871 0.572464 0.528657
Si Si5 0.495376 0.072875 0.204039
Si Si6 0.544336 0.571445 0.487575
Si Si7 0.788772 0.573900 0.217898
Si Si8 0.806192 0.569679 0.592734
O O1 0.275018 0.750000 0.045439
O O2 0.442367 0.534023 0.197320
O O3 0.405331 0.536120 0.273361
O O4 0.179128 0.463534 0.927565
O O5 0.979026 0.250000 0.712830
O O6 0.952503 0.525353 0.727857
O O7 0.907627 0.475336 0.550392
O O8 0.856575 0.750000 0.800820
O O9 0.702451 0.503660 0.650447
O O10 0.833322 0.513629 0.697040
O O11 0.000000 0.500000 0.000000
O O12 0.939583 0.750000 0.544774
O O13 0.108248 0.533420 0.701848
O O14 0.813361 0.531919 0.321305
O O15 0.493840 0.250000 0.223312
O O16 0.664395 0.019411 0.390139
O O17 0.387227 0.047659 0.012502
O O18 0.500000 0.500000 0.500000
O O19 0.568012 0.750000 0.526025
O O20 0.839488 0.750000 0.267119
O O21 0.776202 0.750000 0.553731
#
# Coordination Sequence:
#
# PCOD8072069 Si02
#       8
#     4   4   4   4   4   4   4   4
#     4  11  22  40  63  88 120 160 203 248 298 357
#     4  12  25  40  59  90 124 156 202 258 305 355
#     4  10  23  43  63  87 119 157 199 243 294 357
#     4  10  19  34  57  86 121 161 200 243 300 361
#     4  11  21  37  62  93 122 155 199 250 300 350
#     4  10  23  42  62  90 123 155 196 246 295 351
#     4   9  19  34  56  88 123 156 198 249 298 352
#     4  11  24  44  64  85 119 162 204 246 298 365
#
# _framework density 19.762785000000001
#
# number of rings (size 3 to 8) (size 9 to 14) (size 15 to 20)
#    0.000    1.500    2.500    2.625    1.750    3.500 
#    0.000    0.625    0.000    0.000    0.000    0.000 
#    0.000    0.000    0.000    0.000    0.000    0.000 
#
# Total GULP energy -396923.251405 kJ/mol
# GULP energy per Si atom -12403.851606 kJ/mol
# Density = 1.971780 g / cm^3
# Si number density = 19.762785 Si / 1000 Ang^3
#
#
#
# Elastic Constant Matrix: (Units=GPa)
#
#
# Indices 1 2 3 4 5 6 
#
# 1 108.0766 31.8221 32.0597 0.0000 -10.6784 0.0000
# 2 31.8221 61.1035 42.7914 0.0000 -14.7971 0.0000
# 3 32.0597 42.7914 89.4438 0.0000 -13.7066 0.0000
# 4 0.0000 0.0000 0.0000 32.1432 0.0000 1.7489
# 5 -10.6784 -14.7971 -13.7066 0.0000 27.1900 0.0000
# 6 0.0000 0.0000 0.0000 1.7489 0.0000 33.8469
#
#
#
# Elastic Compliance Matrix: (Units=1/GPa)
#
#
# Indices 1 2 3 4 5 6 
#
# 1 0.011155 -0.004292 -0.001768 0.000000 0.001154 0.000000
# 2 -0.004292 0.028019 -0.010607 0.000000 0.008215 0.000000
# 3 -0.001768 -0.010607 0.017229 0.000000 0.002218 0.000000
# 4 0.000000 0.000000 0.000000 0.031199 0.000000 -0.001612
# 5 0.001154 0.008215 0.002218 0.000000 0.042820 0.000000
# 6 0.000000 0.000000 0.000000 -0.001612 0.000000 0.029628
#
#
# Mechanical properties :
#
#
# Convention : Reuss Voigt Hill
#
# Bulk Modulus (GPa) = 43.35076 52.44116 47.89596
# Shear Modulus (GPa) = 24.86662 28.76605 26.81633
#
# Velocity S-wave (km/s) = 3.55104 3.81933 3.68762
# Velocity P-wave (km/s) = 6.22867 6.78547 6.51302
#
# Compressibility (1/GPa) = 0.02306765
#
# Stress axis : x y z
#
# Youngs Moduli (GPa) = 89.64700 35.69062 58.04278
#
# Poissons Ratio (x) = 0.15317 0.10264
# Poissons Ratio (y) = 0.38472 0.61568
# Poissons Ratio (z) = 0.15852 0.37858
#
# Static dielectric constant tensor:
#      x y z
#    x 3.464500 0.000000 -0.221740 
#    y 0.000000 3.532350 0.000000 
#    z -0.221740 0.000000 3.676670 
# 
# 
# High freq. dielectric constant tensor:
#      x y z
#    x 1.765100 0.000000 -0.014090 
#    y 0.000000 1.771750 0.000000 
#    z -0.014090 0.000000 1.774900 
# 
# From -- ./inp_files/67285.got.cif
#   From: 2010.06.25/outbox.cif.g09.slc.cpg/sg11_34_cif.got.tgz:67285.got - 2010.06.27 23:14:04.
