data_PCOD8072827
_publ_section_title
;
Structure prediction by ZEFSAII (Michael W. Deem and Ramdas Pophale) SiO2 
 PCOD8072827
Probable space group: P 21/M
;
_chemical_formula_sum "Si O2"
_cell_formula_units_Z 28
_cell_length_a 14.059248
_cell_length_b 8.980267
_cell_length_c 16.629052
_cell_angle_alpha 90.000000
_cell_angle_beta 46.805529
_cell_angle_gamma 90.000000
_cell_volume 1530.618725
_symmetry_space_group_name_H-M "P 21/M"
_symmetry_group_IT_number 11
_symmetry_cell_setting 'monoclinic'
loop_
_space_group_symop_operation_xyz
x,y,z
-x,1/2+y,-z
-x,-y,-z
x,1/2-y,z
loop_
_atom_site_type_symbol
_atom_site_label
_atom_site_fract_x
_atom_site_fract_y
_atom_site_fract_z
Si Si1 0.003878 0.424550 0.120757
Si Si2 0.203273 0.576094 0.894514
Si Si3 0.746155 0.075732 0.569891
Si Si4 0.462029 0.073223 0.780402
Si Si5 0.171610 0.420174 0.322524
Si Si6 0.044592 0.574163 0.673039
Si Si7 0.534849 0.578619 0.897978
O O1 0.037519 0.250000 0.102508
O O2 0.879088 0.457537 0.137703
O O3 0.970523 0.490215 0.228315
O O4 0.130145 0.510129 0.014639
O O5 0.225825 0.750000 0.895209
O O6 0.341590 0.495503 0.801146
O O7 0.751365 0.250000 0.582048
O O8 0.595720 0.021805 0.658312
O O9 0.813240 0.032083 0.446066
O O10 0.832330 0.005584 0.590953
O O11 0.448853 0.250000 0.791905
O O12 0.458875 0.007191 0.871690
O O13 0.136150 0.250000 0.361801
O O14 0.311319 0.436027 0.200826
O O15 0.067283 0.490620 0.320918
O O16 0.028237 0.750000 0.688309
O O17 0.489375 0.750000 0.924676
O O18 0.500000 0.500000 0.000000
#
# Coordination Sequence:
#
# PCOD8072827 Si02
#       7
#     4   4   4   4   4   4   4
#     4   9  19  35  56  78 103 134 168 211 263 316
#     4  10  20  35  54  78 104 132 170 216 263 311
#     4   9  18  33  52  75 102 134 175 211 246 300
#     4  10  20  34  53  73  99 140 175 209 259 307
#     4   9  18  31  49  73 103 137 170 203 252 305
#     4   9  17  32  54  77 101 133 171 210 253 307
#     4  10  20  32  47  74 107 137 172 214 254 305
#
# _framework density 18.293257000000001
#
# number of rings (size 3 to 8) (size 9 to 14) (size 15 to 20)
#    0.000    2.571    0.000    1.714    2.000    1.714 
#    0.000    2.143    0.000    0.000    0.000    0.000 
#    0.000    0.000    0.000    0.000    0.000    0.000 
#
# Total GULP energy -347191.875174 kJ/mol
# GULP energy per Si atom -12399.709828 kJ/mol
# Density = 1.825162 g / cm^3
# Si number density = 18.293257 Si / 1000 Ang^3
#
#
#
# Elastic Constant Matrix: (Units=GPa)
#
#
# Indices 1 2 3 4 5 6 
#
# 1 104.1517 35.0280 58.3644 0.0000 -8.0130 0.0000
# 2 35.0280 58.6012 33.1129 0.0000 -2.4672 0.0000
# 3 58.3644 33.1129 117.4101 0.0000 11.7157 0.0000
# 4 0.0000 0.0000 0.0000 20.9233 0.0000 0.6164
# 5 -8.0130 -2.4672 11.7157 0.0000 22.8017 0.0000
# 6 0.0000 0.0000 0.0000 0.6164 0.0000 27.7159
#
#
#
# Elastic Compliance Matrix: (Units=1/GPa)
#
#
# Indices 1 2 3 4 5 6 
#
# 1 0.016220 -0.005056 -0.007538 0.000000 0.009026 0.000000
# 2 -0.005056 0.022530 -0.004118 0.000000 0.002777 0.000000
# 3 -0.007538 -0.004118 0.014477 0.000000 -0.010533 0.000000
# 4 0.000000 0.000000 0.000000 0.047825 0.000000 -0.001064
# 5 0.009026 0.002777 -0.010533 0.000000 0.052741 0.000000
# 6 0.000000 0.000000 0.000000 -0.001064 0.000000 0.036104
#
#
# Mechanical properties :
#
#
# Convention : Reuss Voigt Hill
#
# Bulk Modulus (GPa) = 50.49574 59.24150 54.86862
# Shear Modulus (GPa) = 21.74655 24.53204 23.13929
#
# Velocity S-wave (km/s) = 3.45160 3.66600 3.56041
# Velocity P-wave (km/s) = 6.59910 7.09747 6.85282
#
# Compressibility (1/GPa) = 0.01980365
#
# Stress axis : x y z
#
# Youngs Moduli (GPa) = 61.65122 44.38435 69.07736
#
# Poissons Ratio (x) = 0.22441 0.52069
# Poissons Ratio (y) = 0.31172 0.28445
# Poissons Ratio (z) = 0.46471 0.18277
#
# Static dielectric constant tensor:
#      x y z
#    x 3.443570 0.000000 -0.041850 
#    y 0.000000 3.293050 0.000000 
#    z -0.041850 0.000000 3.445100 
# 
# 
# High freq. dielectric constant tensor:
#      x y z
#    x 1.705120 0.000000 -0.009410 
#    y 0.000000 1.697960 0.000000 
#    z -0.009410 0.000000 1.710890 
# 
# From -- ./inp_files/37197.got.cif
#   From: 2010.06.25/outbox.cif.g09.slc.cpg/sg11_19_cif.got.tgz:37197.got - 2010.06.27 23:14:04.
