data_PCOD8072095
_publ_section_title
;
Structure prediction by ZEFSAII (Michael W. Deem and Ramdas Pophale) SiO2 
 PCOD8072095
Probable space group: P 21/M
;
_chemical_formula_sum "Si O2"
_cell_formula_units_Z 32
_cell_length_a 16.338374
_cell_length_b 9.016045
_cell_length_c 11.046584
_cell_angle_alpha 90.000000
_cell_angle_beta 85.966411
_cell_angle_gamma 90.000000
_cell_volume 1623.214131
_symmetry_space_group_name_H-M "P 21/M"
_symmetry_group_IT_number 11
_symmetry_cell_setting 'monoclinic'
loop_
_space_group_symop_operation_xyz
x,y,z
-x,1/2+y,-z
-x,-y,-z
x,1/2-y,z
loop_
_atom_site_type_symbol
_atom_site_label
_atom_site_fract_x
_atom_site_fract_y
_atom_site_fract_z
Si Si1 0.462910 0.421107 0.682565
Si Si2 0.915904 0.917952 0.022851
Si Si3 0.229560 0.919259 0.074387
Si Si4 0.230873 0.577263 0.348806
Si Si5 0.911242 0.925932 0.510957
Si Si6 0.673688 0.423163 0.169366
Si Si7 0.385083 0.078398 0.430293
Si Si8 0.820102 0.918699 0.274430
O O1 0.480483 0.250000 0.708249
O O2 0.410829 0.490885 0.797257
O O3 0.549849 0.503745 0.666928
O O4 0.412695 0.444196 0.564753
O O5 0.930192 0.750000 0.983934
O O6 0.887386 0.935534 0.163383
O O7 0.849963 0.981798 0.936927
O O8 0.000000 0.000000 0.000000
O O9 0.202814 0.750000 0.055150
O O10 0.260707 0.944755 0.207344
O O11 0.300762 0.962047 0.971321
O O12 0.223128 0.750000 0.382938
O O13 0.142788 0.498189 0.376193
O O14 0.297516 0.500390 0.427925
O O15 0.920116 0.750000 0.528773
O O16 0.864357 0.966771 0.392408
O O17 0.000000 0.000000 0.500000
O O18 0.658859 0.250000 0.191127
O O19 0.743406 0.475419 0.256109
O O20 0.376364 0.250000 0.396667
O O21 0.786739 0.750000 0.285570
#
# Coordination Sequence:
#
# PCOD8072095 Si02
#       8
#     4   4   4   4   4   4   4   4
#     4  10  20  35  58  87 119 149 183 230 281 332
#     4  10  20  34  55  80 105 138 181 231 282 331
#     4   9  21  39  56  78 110 149 189 230 280 334
#     4  11  23  40  60  81 114 153 188 231 284 338
#     4  11  24  40  57  81 111 147 188 230 280 337
#     4  10  19  34  58  85 111 143 186 233 277 329
#     4  10  21  37  58  87 118 150 188 230 277 333
#     4   9  20  37  54  75 108 143 178 224 279 333
#
# _framework density 19.713972999999999
#
# number of rings (size 3 to 8) (size 9 to 14) (size 15 to 20)
#    0.000    2.000    0.000    3.000    1.750    7.500 
#    0.000    0.625    0.000    0.000    0.000    0.000 
#    0.000    0.000    0.000    0.000    0.000    0.000 
#
# Total GULP energy -396930.945509 kJ/mol
# GULP energy per Si atom -12404.092047 kJ/mol
# Density = 1.966910 g / cm^3
# Si number density = 19.713973 Si / 1000 Ang^3
#
#
#
# Elastic Constant Matrix: (Units=GPa)
#
#
# Indices 1 2 3 4 5 6 
#
# 1 106.6083 56.3540 23.1431 0.0000 -23.7824 0.0000
# 2 56.3540 120.0664 31.0496 0.0000 -11.0999 0.0000
# 3 23.1431 31.0496 60.7863 0.0000 -5.5768 0.0000
# 4 0.0000 0.0000 0.0000 28.8254 0.0000 -4.0153
# 5 -23.7824 -11.0999 -5.5768 0.0000 24.8485 0.0000
# 6 0.0000 0.0000 0.0000 -4.0153 0.0000 41.5443
#
#
#
# Elastic Compliance Matrix: (Units=1/GPa)
#
#
# Indices 1 2 3 4 5 6 
#
# 1 0.015412 -0.005652 -0.001898 0.000000 0.011800 0.000000
# 2 -0.005652 0.011934 -0.004034 0.000000 -0.000984 0.000000
# 3 -0.001898 -0.004034 0.019300 0.000000 0.000713 0.000000
# 4 0.000000 0.000000 0.000000 0.035165 0.000000 0.003399
# 5 0.011800 -0.000984 0.000713 0.000000 0.051258 0.000000
# 6 0.000000 0.000000 0.000000 0.003399 0.000000 0.024399
#
#
# Mechanical properties :
#
#
# Convention : Reuss Voigt Hill
#
# Bulk Modulus (GPa) = 42.59484 56.50604 49.55044
# Shear Modulus (GPa) = 26.53036 30.83792 28.68414
#
# Velocity S-wave (km/s) = 3.67245 3.95937 3.81861
# Velocity P-wave (km/s) = 6.29570 7.04467 6.68069
#
# Compressibility (1/GPa) = 0.02347702
#
# Stress axis : x y z
#
# Youngs Moduli (GPa) = 64.88280 83.79521 51.81393
#
# Poissons Ratio (x) = 0.47362 0.09836
# Poissons Ratio (y) = 0.36673 0.20903
# Poissons Ratio (z) = 0.12316 0.33804
#
# Static dielectric constant tensor:
#      x y z
#    x 3.470530 0.000000 -0.197440 
#    y 0.000000 3.712600 0.000000 
#    z -0.197440 0.000000 3.691670 
# 
# 
# High freq. dielectric constant tensor:
#      x y z
#    x 1.766180 0.000000 -0.017070 
#    y 0.000000 1.780720 0.000000 
#    z -0.017070 0.000000 1.762010 
# 
# From -- ./inp_files/38132.got.cif
#   From: 2010.06.25/outbox.cif.g09.slc.cpg/sg11_20_cif.got.tgz:38132.got - 2010.06.27 23:14:04.
