data_PCOD8072659
_publ_section_title
;
Structure prediction by ZEFSAII (Michael W. Deem and Ramdas Pophale) SiO2 
 PCOD8072659
Probable space group: P 21/M
;
_chemical_formula_sum "Si O2"
_cell_formula_units_Z 32
_cell_length_a 12.876985
_cell_length_b 8.766074
_cell_length_c 31.665268
_cell_angle_alpha 90.000000
_cell_angle_beta 152.815338
_cell_angle_gamma 90.000000
_cell_volume 1632.997237
_symmetry_space_group_name_H-M "P 21/M"
_symmetry_group_IT_number 11
_symmetry_cell_setting 'monoclinic'
loop_
_space_group_symop_operation_xyz
x,y,z
-x,1/2+y,-z
-x,-y,-z
x,1/2-y,z
loop_
_atom_site_type_symbol
_atom_site_label
_atom_site_fract_x
_atom_site_fract_y
_atom_site_fract_z
Si Si1 0.569351 0.919443 0.641644
Si Si2 0.441231 0.570120 0.220793
Si Si3 0.758050 0.430316 0.402771
Si Si4 0.853751 0.068738 0.218498
Si Si5 0.030949 0.570075 0.921643
Si Si6 0.916401 0.082102 0.149824
Si Si7 0.670780 0.428115 0.594559
Si Si8 0.462607 0.572704 0.131307
O O1 0.499765 0.750000 0.600101
O O2 0.397121 0.980371 0.614269
O O3 0.812902 0.910356 0.751120
O O4 0.566789 0.039500 0.602864
O O5 0.448036 0.750000 0.228780
O O6 0.653435 0.497803 0.322043
O O7 0.202182 0.511825 0.151619
O O8 0.470202 0.522223 0.182547
O O9 0.774650 0.250000 0.403769
O O10 0.000000 0.500000 0.500000
O O11 0.886247 0.250000 0.227442
O O12 0.823712 0.001129 0.159337
O O13 0.640610 0.026845 0.169669
O O14 0.080689 0.001323 0.321399
O O15 0.981530 0.750000 0.899006
O O16 0.134941 0.504761 0.914459
O O17 0.211170 0.535425 0.023450
O O18 0.806649 0.250000 0.109341
O O19 0.500000 0.500000 0.500000
O O20 0.692237 0.250000 0.594388
O O21 0.523039 0.750000 0.147066
#
# Coordination Sequence:
#
# PCOD8072659 Si02
#       8
#     4   4   4   4   4   4   4   4
#     4   9  18  36  58  81 113 149 188 238 293 344
#     4  11  23  39  58  86 122 157 201 253 297 351
#     4  11  23  40  62  88 117 153 194 243 301 358
#     4  10  21  38  58  83 118 155 197 246 299 353
#     4  10  19  37  63  87 115 159 205 244 299 359
#     4   8  15  32  58  84 110 145 189 239 291 342
#     4  11  22  37  60  87 115 150 194 239 291 354
#     4  10  23  39  57  85 124 164 201 247 300 352
#
# _framework density 19.595870000000001
#
# number of rings (size 3 to 8) (size 9 to 14) (size 15 to 20)
#    0.000    2.000    1.250    3.375    0.000    4.000 
#    0.000    1.875    0.000    0.000    0.000    0.000 
#    0.000    0.000    0.000    0.000    0.000    0.000 
#
# Total GULP energy -396703.115711 kJ/mol
# GULP energy per Si atom -12396.972366 kJ/mol
# Density = 1.955127 g / cm^3
# Si number density = 19.595870 Si / 1000 Ang^3
#
#
#
# Elastic Constant Matrix: (Units=GPa)
#
#
# Indices 1 2 3 4 5 6 
#
# 1 122.7345 40.0173 61.0982 0.0000 -7.2046 0.0000
# 2 40.0173 76.9875 39.5846 0.0000 -7.9239 0.0000
# 3 61.0982 39.5846 117.4413 0.0000 -19.4872 0.0000
# 4 0.0000 0.0000 0.0000 30.8329 0.0000 3.1287
# 5 -7.2046 -7.9239 -19.4872 0.0000 26.5302 0.0000
# 6 0.0000 0.0000 0.0000 3.1287 0.0000 31.3991
#
#
#
# Elastic Compliance Matrix: (Units=1/GPa)
#
#
# Indices 1 2 3 4 5 6 
#
# 1 0.011829 -0.003646 -0.005207 0.000000 -0.001702 0.000000
# 2 -0.003646 0.016856 -0.003545 0.000000 0.001440 0.000000
# 3 -0.005207 -0.003545 0.013675 0.000000 0.007572 0.000000
# 4 0.000000 0.000000 0.000000 0.032764 0.000000 -0.003265
# 5 -0.001702 0.001440 0.007572 0.000000 0.043223 0.000000
# 6 0.000000 0.000000 0.000000 -0.003265 0.000000 0.032173
#
#
# Mechanical properties :
#
#
# Convention : Reuss Voigt Hill
#
# Bulk Modulus (GPa) = 56.94142 66.50708 61.72425
# Shear Modulus (GPa) = 27.59811 29.51667 28.55739
#
# Velocity S-wave (km/s) = 3.75689 3.88528 3.82162
# Velocity P-wave (km/s) = 6.92386 7.35800 7.14423
#
# Compressibility (1/GPa) = 0.01756191
#
# Stress axis : x y z
#
# Youngs Moduli (GPa) = 84.53914 59.32755 73.12407
#
# Poissons Ratio (x) = 0.21632 0.38078
# Poissons Ratio (y) = 0.30825 0.25926
# Poissons Ratio (z) = 0.44022 0.21034
#
# Static dielectric constant tensor:
#      x y z
#    x 3.839760 0.000000 -0.021090 
#    y 0.000000 3.318610 0.000000 
#    z -0.021090 0.000000 4.024930 
# 
# 
# High freq. dielectric constant tensor:
#      x y z
#    x 1.775450 0.000000 -0.009840 
#    y 0.000000 1.749920 0.000000 
#    z -0.009840 0.000000 1.763330 
# 
# From -- ./inp_files/73138.got.cif
#   From: 2010.06.25/outbox.cif.g09.slc.cpg/sg11_37_cif.got.tgz:73138.got - 2010.06.27 23:14:04.
