data_PCOD8072743
_publ_section_title
;
Structure prediction by ZEFSAII (Michael W. Deem and Ramdas Pophale) SiO2 
 PCOD8072743
Probable space group: P 21/M
;
_chemical_formula_sum "Si O2"
_cell_formula_units_Z 24
_cell_length_a 9.868144
_cell_length_b 17.771854
_cell_length_c 13.867675
_cell_angle_alpha 90.000000
_cell_angle_beta 151.560844
_cell_angle_gamma 90.000000
_cell_volume 1158.201943
_symmetry_space_group_name_H-M "P 21/M"
_symmetry_group_IT_number 11
_symmetry_cell_setting 'monoclinic'
loop_
_space_group_symop_operation_xyz
x,y,z
-x,1/2+y,-z
-x,-y,-z
x,1/2-y,z
loop_
_atom_site_type_symbol
_atom_site_label
_atom_site_fract_x
_atom_site_fract_y
_atom_site_fract_z
Si Si1 0.665350 0.750000 0.998258
Si Si2 0.081369 0.999434 0.245899
Si Si3 0.086720 0.750000 0.522061
Si Si4 0.455031 0.910863 0.137629
Si Si5 0.516936 0.405599 0.618976
Si Si6 0.906333 0.623436 0.279243
Si Si7 0.428714 0.750000 0.145901
Si Si8 0.776329 0.250000 0.773779
O O1 0.703960 0.675525 0.086596
O O2 0.897971 0.750000 0.057920
O O3 0.344270 0.750000 0.758207
O O4 0.245327 0.969125 0.254387
O O5 0.088443 0.933081 0.328884
O O6 0.229882 0.072878 0.383454
O O7 0.767989 0.022915 0.017787
O O8 0.117155 0.676320 0.473139
O O9 0.776005 0.750000 0.380500
O O10 0.542614 0.904505 0.304353
O O11 0.723343 0.928944 0.237703
O O12 0.349220 0.826613 0.039144
O O13 0.614978 0.325124 0.637290
O O14 0.231062 0.750000 0.116014
#
# Coordination Sequence:
#
# PCOD8072743 Si02
#       8
#     2   4   2   4   4   4   2   2
#     4  11  21  40  66  89 119 163 203 253 310 348
#     4  11  22  39  60  91 123 164 196 245 305 363
#     4   9  21  40  62  89 123 161 201 257 302 352
#     4  10  21  39  61  86 123 160 199 250 302 356
#     4  10  23  40  60  86 125 159 201 249 300 359
#     4  10  22  39  60  92 123 151 210 253 289 368
#     4   8  19  39  59  88 118 150 210 250 289 363
#     4  10  19  41  63  86 114 156 204 254 291 359
#
# _framework density 20.721774
#
# number of rings (size 3 to 8) (size 9 to 14) (size 15 to 20)
#    0.000    2.000    1.667    1.500    0.000    6.667 
#   12.000    0.000    0.000    0.000    0.000    0.000 
#    0.000    0.000    0.000    0.000    0.000    0.000 
#
# Total GULP energy -297480.959816 kJ/mol
# GULP energy per Si atom -12395.039992 kJ/mol
# Density = 2.067461 g / cm^3
# Si number density = 20.721774 Si / 1000 Ang^3
#
#
#
# Elastic Constant Matrix: (Units=GPa)
#
#
# Indices 1 2 3 4 5 6 
#
# 1 104.2401 13.5009 22.0804 0.0000 14.0183 0.0000
# 2 13.5009 78.8087 29.5742 0.0000 -3.1429 0.0000
# 3 22.0804 29.5742 78.7935 0.0000 -0.9194 0.0000
# 4 0.0000 0.0000 0.0000 25.6629 0.0000 2.3320
# 5 14.0183 -3.1429 -0.9194 0.0000 23.5927 0.0000
# 6 0.0000 0.0000 0.0000 2.3320 0.0000 32.9872
#
#
#
# Elastic Compliance Matrix: (Units=1/GPa)
#
#
# Indices 1 2 3 4 5 6 
#
# 1 0.011274 -0.001156 -0.002807 0.000000 -0.006962 0.000000
# 2 -0.001156 0.014960 -0.005262 0.000000 0.002475 0.000000
# 3 -0.002807 -0.005262 0.015471 0.000000 0.001570 0.000000
# 4 0.000000 0.000000 0.000000 0.039219 0.000000 -0.002773
# 5 -0.006962 0.002475 0.001570 0.000000 0.046913 0.000000
# 6 0.000000 0.000000 0.000000 -0.002773 0.000000 0.030511
#
#
# Mechanical properties :
#
#
# Convention : Reuss Voigt Hill
#
# Bulk Modulus (GPa) = 42.99999 43.57259 43.28629
# Shear Modulus (GPa) = 27.09287 29.56099 28.32693
#
# Velocity S-wave (km/s) = 3.61980 3.78109 3.70132
# Velocity P-wave (km/s) = 6.18602 6.33524 6.26107
#
# Compressibility (1/GPa) = 0.02325582
#
# Stress axis : x y z
#
# Youngs Moduli (GPa) = 88.70206 66.84287 64.63518
#
# Poissons Ratio (x) = 0.07725 0.18141
# Poissons Ratio (y) = 0.10251 0.34014
# Poissons Ratio (z) = 0.24896 0.35176
#
# Static dielectric constant tensor:
#      x y z
#    x 3.914640 0.000000 0.144220 
#    y 0.000000 4.014910 0.000000 
#    z 0.144220 0.000000 3.217190 
# 
# 
# High freq. dielectric constant tensor:
#      x y z
#    x 1.828510 0.000000 0.015780 
#    y 0.000000 1.822920 0.000000 
#    z 0.015780 0.000000 1.767440 
# 
# From -- ./inp_files/59683.got.cif
#   From: 2010.06.25/outbox.cif.g09.slc.cpg/sg11_30_cif.got.tgz:59683.got - 2010.06.27 23:14:04.
