data_PCOD8072070
_publ_section_title
;
Structure prediction by ZEFSAII (Michael W. Deem and Ramdas Pophale) SiO2 
 PCOD8072070
Probable space group: P 21/M
;
_chemical_formula_sum "Si O2"
_cell_formula_units_Z 28
_cell_length_a 9.452517
_cell_length_b 29.806675
_cell_length_c 5.094469
_cell_angle_alpha 90.000000
_cell_angle_beta 69.834658
_cell_angle_gamma 90.000000
_cell_volume 1347.372060
_symmetry_space_group_name_H-M "P 21/M"
_symmetry_group_IT_number 11
_symmetry_cell_setting 'monoclinic'
loop_
_space_group_symop_operation_xyz
x,y,z
-x,1/2+y,-z
-x,-y,-z
x,1/2-y,z
loop_
_atom_site_type_symbol
_atom_site_label
_atom_site_fract_x
_atom_site_fract_y
_atom_site_fract_z
Si Si1 0.945886 0.549301 0.450511
Si Si2 0.109983 0.577196 0.828613
Si Si3 0.620966 0.018557 0.229470
Si Si4 0.469253 0.347026 0.849584
Si Si5 0.359879 0.063788 0.127372
Si Si6 0.348902 0.750000 0.664293
Si Si7 0.327417 0.655164 0.782962
Si Si8 0.463351 0.250000 0.952930
O O1 0.765989 0.559501 0.563604
O O2 0.000000 0.500000 0.500000
O O3 0.020124 0.582839 0.615766
O O4 0.999358 0.560487 0.125975
O O5 0.242598 0.540831 0.701551
O O6 0.182758 0.624184 0.854978
O O7 0.532978 0.056053 0.111805
O O8 0.500000 0.000000 0.500000
O O9 0.689010 0.977392 0.025477
O O10 0.539787 0.354615 0.515027
O O11 0.382732 0.298167 0.932026
O O12 0.354338 0.388058 0.983386
O O13 0.604857 0.348437 0.970832
O O14 0.257393 0.704824 0.783938
O O15 0.390590 0.750000 0.330434
O O16 0.496394 0.750000 0.764010
#
# Coordination Sequence:
#
# PCOD8072070 Si02
#       8
#     4   4   4   4   4   2   4   2
#     4  12  26  42  56  80 119 162 194 232 286 352
#     4  12  24  40  60  81 117 154 194 237 282 343
#     4  11  23  37  60  83 111 148 193 249 281 328
#     4  10  19  34  57  87 112 145 184 242 285 343
#     4  11  24  37  57  84 114 149 195 238 287 338
#     4   8  16  30  54  84 114 142 174 239 289 336
#     4  10  19  35  58  87 115 143 191 236 290 336
#     4   8  16  30  52  82 116 138 176 229 299 336
#
# _framework density 20.781192999999998
#
# number of rings (size 3 to 8) (size 9 to 14) (size 15 to 20)
#    0.000    1.429    2.857    3.000    4.000    0.000 
#    0.000    0.000    0.000    1.714    0.000    0.000 
#    0.000    0.000    0.000    0.000    0.000    0.000 
#
# Total GULP energy -346998.345198 kJ/mol
# GULP energy per Si atom -12392.798043 kJ/mol
# Density = 2.073389 g / cm^3
# Si number density = 20.781193 Si / 1000 Ang^3
#
#
#
# Elastic Constant Matrix: (Units=GPa)
#
#
# Indices 1 2 3 4 5 6 
#
# 1 49.3485 8.8754 11.2803 0.0000 -2.3724 0.0000
# 2 8.8754 113.9112 7.2189 0.0000 -24.2961 0.0000
# 3 11.2803 7.2189 83.6267 0.0000 -7.2952 0.0000
# 4 0.0000 0.0000 0.0000 25.4532 0.0000 -1.0633
# 5 -2.3724 -24.2961 -7.2952 0.0000 33.2768 0.0000
# 6 0.0000 0.0000 0.0000 -1.0633 0.0000 16.2802
#
#
#
# Elastic Compliance Matrix: (Units=1/GPa)
#
#
# Indices 1 2 3 4 5 6 
#
# 1 0.021154 -0.001517 -0.002740 0.000000 -0.000200 0.000000
# 2 -0.001517 0.010512 -0.000043 0.000000 0.007557 0.000000
# 3 -0.002740 -0.000043 0.012551 0.000000 0.002525 0.000000
# 4 0.000000 0.000000 0.000000 0.039395 0.000000 0.002573
# 5 -0.000200 0.007557 0.002525 0.000000 0.036108 0.000000
# 6 0.000000 0.000000 0.000000 0.002573 0.000000 0.061592
#
#
# Mechanical properties :
#
#
# Convention : Reuss Voigt Hill
#
# Bulk Modulus (GPa) = 28.07780 33.51506 30.79643
# Shear Modulus (GPa) = 24.77887 29.63618 27.20752
#
# Velocity S-wave (km/s) = 3.45682 3.78048 3.62226
# Velocity P-wave (km/s) = 5.42893 5.93453 5.68735
#
# Compressibility (1/GPa) = 0.03561533
#
# Stress axis : x y z
#
# Youngs Moduli (GPa) = 47.27332 95.13327 79.67203
#
# Poissons Ratio (x) = 0.14434 0.21829
# Poissons Ratio (y) = 0.07173 0.00346
# Poissons Ratio (z) = 0.12952 0.00414
#
# Static dielectric constant tensor:
#      x y z
#    x 3.830990 0.000000 0.445590 
#    y 0.000000 4.380490 0.000000 
#    z 0.445590 0.000000 3.487270 
# 
# 
# High freq. dielectric constant tensor:
#      x y z
#    x 1.770460 0.000000 0.026050 
#    y 0.000000 1.828940 0.000000 
#    z 0.026050 0.000000 1.818400 
# 
# From -- ./inp_files/3226.got.cif
#   From: 2010.06.25/outbox.cif.g09.slc.cpg/sg11_2_cif.got.tgz:3226.got - 2010.06.27 23:14:04.
