data_PCOD8072406
_publ_section_title
;
Structure prediction by ZEFSAII (Michael W. Deem and Ramdas Pophale) SiO2 
 PCOD8072406
Probable space group: P 21/M
;
_chemical_formula_sum "Si O2"
_cell_formula_units_Z 28
_cell_length_a 14.379861
_cell_length_b 17.642751
_cell_length_c 5.017517
_cell_angle_alpha 90.000000
_cell_angle_beta 90.778448
_cell_angle_gamma 90.000000
_cell_volume 1272.828117
_symmetry_space_group_name_H-M "P 21/M"
_symmetry_group_IT_number 11
_symmetry_cell_setting 'monoclinic'
loop_
_space_group_symop_operation_xyz
x,y,z
-x,1/2+y,-z
-x,-y,-z
x,1/2-y,z
loop_
_atom_site_type_symbol
_atom_site_label
_atom_site_fract_x
_atom_site_fract_y
_atom_site_fract_z
Si Si1 0.681667 0.662411 0.298661
Si Si2 0.071353 0.445190 0.866356
Si Si3 0.174688 0.913388 0.716009
Si Si4 0.344848 0.539869 0.021720
Si Si5 0.236617 0.091642 0.207394
Si Si6 0.086497 0.840121 0.226021
Si Si7 0.519591 0.936070 0.287958
O O1 0.687739 0.750000 0.348292
O O2 0.702574 0.642870 0.993016
O O3 0.578726 0.635622 0.394719
O O4 0.758860 0.623278 0.492478
O O5 0.136584 0.499443 0.682858
O O6 0.130982 0.405326 0.101319
O O7 0.013205 0.380037 0.707580
O O8 0.000000 0.500000 0.000000
O O9 0.285057 0.916032 0.795332
O O10 0.163967 0.868734 0.439016
O O11 0.119252 0.865345 0.935295
O O12 0.271957 0.496437 0.213775
O O13 0.411527 0.472879 0.923620
O O14 0.419203 0.594554 0.174126
O O15 0.074888 0.750000 0.239955
O O16 0.500000 0.000000 0.500000
#
# Coordination Sequence:
#
# PCOD8072406 Si02
#       7
#     4   4   4   4   4   4   4
#     4  11  23  38  56  84 124 158 190 236 299 359
#     4   9  21  39  64  91 116 152 203 248 290 348
#     4  10  22  39  63  85 117 155 203 242 291 350
#     4   9  20  35  60  88 111 147 196 249 285 343
#     4  10  21  38  59  86 114 153 193 241 294 347
#     4  11  23  39  58  85 122 159 194 245 298 346
#     4  10  19  35  62  87 114 148 196 244 294 338
#
# _framework density 21.998256000000001
#
# number of rings (size 3 to 8) (size 9 to 14) (size 15 to 20)
#    0.000    2.000    1.429    1.286    2.000   10.286 
#    0.000    1.429    0.000    0.000    0.000    0.000 
#    0.000    0.000    0.000    0.000    0.000    0.000 
#
# Total GULP energy -347001.416620 kJ/mol
# GULP energy per Si atom -12392.907736 kJ/mol
# Density = 2.194819 g / cm^3
# Si number density = 21.998256 Si / 1000 Ang^3
#
#
#
# Elastic Constant Matrix: (Units=GPa)
#
#
# Indices 1 2 3 4 5 6 
#
# 1 93.9347 27.4342 7.7059 0.0000 43.5009 0.0000
# 2 27.4342 113.3581 19.1113 0.0000 25.5675 0.0000
# 3 7.7059 19.1113 65.3445 0.0000 25.9364 0.0000
# 4 0.0000 0.0000 0.0000 29.2018 0.0000 3.8832
# 5 43.5009 25.5675 25.9364 0.0000 45.1176 0.0000
# 6 0.0000 0.0000 0.0000 3.8832 0.0000 20.5516
#
#
#
# Elastic Compliance Matrix: (Units=1/GPa)
#
#
# Indices 1 2 3 4 5 6 
#
# 1 0.021801 -0.000951 0.007562 0.000000 -0.024827 0.000000
# 2 -0.000951 0.010196 -0.001218 0.000000 -0.004160 0.000000
# 3 0.007562 -0.001218 0.022528 0.000000 -0.019551 0.000000
# 4 0.000000 0.000000 0.000000 0.035127 0.000000 -0.006637
# 5 -0.024827 -0.004160 -0.019551 0.000000 0.059699 0.000000
# 6 0.000000 0.000000 0.000000 -0.006637 0.000000 0.049912
#
#
# Mechanical properties :
#
#
# Convention : Reuss Voigt Hill
#
# Bulk Modulus (GPa) = 15.31192 42.34889 28.83040
# Shear Modulus (GPa) = 23.78147 33.53325 28.65736
#
# Velocity S-wave (km/s) = 3.29152 3.90854 3.61322
# Velocity P-wave (km/s) = 4.62829 6.29776 5.52643
#
# Compressibility (1/GPa) = 0.06530861
#
# Stress axis : x y z
#
# Youngs Moduli (GPa) = 45.87021 98.08228 44.38863
#
# Poissons Ratio (x) = 0.09329 -0.33566
# Poissons Ratio (y) = 0.04363 0.05409
# Poissons Ratio (z) = -0.34686 0.11951
#
# Static dielectric constant tensor:
#      x y z
#    x 3.844000 0.000000 2.912230 
#    y 0.000000 3.920370 0.000000 
#    z 2.912230 0.000000 -3.187840 
# 
# 
# High freq. dielectric constant tensor:
#      x y z
#    x 1.873440 0.000000 0.017350 
#    y 0.000000 1.828260 0.000000 
#    z 0.017350 0.000000 1.865680 
# 
# From -- ./inp_files/6704.got.cif
#   From: 2010.06.25/outbox.cif.g09.slc.cpg/sg11_4_cif.got.tgz:6704.got - 2010.06.27 23:14:04.
