data_PCOD8072996
_publ_section_title
;
Structure prediction by ZEFSAII (Michael W. Deem and Ramdas Pophale) SiO2 
 PCOD8072996
Probable space group: P 21/M
;
_chemical_formula_sum "Si O2"
_cell_formula_units_Z 32
_cell_length_a 13.740008
_cell_length_b 19.199799
_cell_length_c 10.480983
_cell_angle_alpha 90.000000
_cell_angle_beta 40.287298
_cell_angle_gamma 90.000000
_cell_volume 1787.867289
_symmetry_space_group_name_H-M "P 21/M"
_symmetry_group_IT_number 11
_symmetry_cell_setting 'monoclinic'
loop_
_space_group_symop_operation_xyz
x,y,z
-x,1/2+y,-z
-x,-y,-z
x,1/2-y,z
loop_
_atom_site_type_symbol
_atom_site_label
_atom_site_fract_x
_atom_site_fract_y
_atom_site_fract_z
Si Si1 0.674251 0.827489 0.830453
Si Si2 0.674246 0.172511 0.821047
Si Si3 0.678985 0.460909 0.447343
Si Si4 0.678984 0.539091 0.194686
Si Si5 0.822823 0.670835 0.948740
Si Si6 0.323507 0.962779 0.051647
Si Si7 0.177178 0.829165 0.594389
Si Si8 0.676495 0.962779 0.698657
O O1 0.712180 0.750000 0.743115
O O2 0.712683 0.880325 0.676384
O O3 0.500003 0.834833 0.044983
O O4 0.769938 0.847073 0.858773
O O5 0.712175 0.250000 0.832525
O O6 0.769931 0.152926 0.601353
O O7 0.712679 0.119676 0.898252
O O8 0.736296 0.500000 0.263703
O O9 0.500001 0.455320 0.627364
O O10 0.745475 0.382748 0.384791
O O11 0.744946 0.505709 0.500529
O O12 0.745473 0.617252 0.124257
O O13 0.744944 0.494291 0.009578
O O14 0.775187 0.750000 0.032368
O O15 0.000001 0.661374 0.779019
O O16 0.500001 0.977199 0.870125
O O17 0.254147 1.000000 0.245854
O O18 0.224814 0.750000 0.582745
#
# Coordination Sequence:
#
# PCOD8072996 Si02
#       8
#     4   4   4   4   4   4   4   4
#     4   9  16  28  49  73  96 127 166 205 248 296
#     4   9  16  28  49  73  96 127 166 205 248 296
#     4  10  20  34  52  75 102 132 167 207 249 295
#     4  10  20  34  52  75 102 132 167 207 249 295
#     4  10  20  33  50  73 101 131 165 205 248 296
#     4   9  15  27  48  73 100 126 157 202 249 289
#     4  10  20  33  50  73 101 131 165 205 248 296
#     4   9  15  27  48  73 100 126 157 202 249 289
#
# _framework density 17.898420999999999
#
# number of rings (size 3 to 8) (size 9 to 14) (size 15 to 20)
#    0.000    2.500    2.500    0.750    0.000    2.000 
#    0.000    3.750    0.000    4.500    0.000    3.500 
#    0.000    0.000    0.000    0.000    0.000    0.000 
#
# Total GULP energy -396659.979423 kJ/mol
# GULP energy per Si atom -12395.624357 kJ/mol
# Density = 1.785768 g / cm^3
# Si number density = 17.898421 Si / 1000 Ang^3
#
#
#
# Elastic Constant Matrix: (Units=GPa)
#
#
# Indices 1 2 3 4 5 6 
#
# 1 54.2808 53.0123 43.3217 0.0000 22.3501 0.0000
# 2 53.0123 148.8093 54.0653 0.0000 24.1311 0.0000
# 3 43.3217 54.0653 56.2720 0.0000 23.2337 0.0000
# 4 0.0000 0.0000 0.0000 26.9022 0.0000 5.4171
# 5 22.3501 24.1311 23.2337 0.0000 26.1882 0.0000
# 6 0.0000 0.0000 0.0000 5.4171 0.0000 26.6659
#
#
#
# Elastic Compliance Matrix: (Units=1/GPa)
#
#
# Indices 1 2 3 4 5 6 
#
# 1 0.054058 -0.006097 -0.030030 0.000000 -0.013874 0.000000
# 2 -0.006097 0.011032 -0.006086 0.000000 0.000438 0.000000
# 3 -0.030030 -0.006086 0.053402 0.000000 -0.016139 0.000000
# 4 0.000000 0.000000 0.000000 0.038757 0.000000 -0.007873
# 5 -0.013874 0.000438 -0.016139 0.000000 0.063941 0.000000
# 6 0.000000 0.000000 0.000000 -0.007873 0.000000 0.039101
#
#
# Mechanical properties :
#
#
# Convention : Reuss Voigt Hill
#
# Bulk Modulus (GPa) = 29.35694 62.24009 45.79851
# Shear Modulus (GPa) = 14.04206 23.21544 18.62875
#
# Velocity S-wave (km/s) = 2.80401 3.60539 3.22965
# Velocity P-wave (km/s) = 5.18853 7.22366 6.28897
#
# Compressibility (1/GPa) = 0.03406350
#
# Stress axis : x y z
#
# Youngs Moduli (GPa) = 18.49880 90.64158 18.72606
#
# Poissons Ratio (x) = 0.55266 0.56235
# Poissons Ratio (y) = 0.11279 0.11398
# Poissons Ratio (z) = 0.55553 0.55169
#
# Static dielectric constant tensor:
#      x y z
#    x 3.113210 0.000000 0.114810 
#    y 0.000000 3.661230 0.000000 
#    z 0.114810 0.000000 3.118220 
# 
# 
# High freq. dielectric constant tensor:
#      x y z
#    x 1.660200 0.000000 0.000810 
#    y 0.000000 1.713300 0.000000 
#    z 0.000810 0.000000 1.660230 
# 
# From -- ./inp_files/19369.got.cif
#   From: 2010.06.25/outbox.cif.g09.slc.cpg/sg11_10_cif.got.tgz:19369.got - 2010.06.27 23:14:04.
