data_PCOD8072138
_publ_section_title
;
Structure prediction by ZEFSAII (Michael W. Deem and Ramdas Pophale) SiO2 
 PCOD8072138
Probable space group: P 21/M
;
_chemical_formula_sum "Si O2"
_cell_formula_units_Z 32
_cell_length_a 8.969836
_cell_length_b 19.233170
_cell_length_c 12.164182
_cell_angle_alpha 90.000000
_cell_angle_beta 49.687865
_cell_angle_gamma 90.000000
_cell_volume 1600.206285
_symmetry_space_group_name_H-M "P 21/M"
_symmetry_group_IT_number 11
_symmetry_cell_setting 'monoclinic'
loop_
_space_group_symop_operation_xyz
x,y,z
-x,1/2+y,-z
-x,-y,-z
x,1/2-y,z
loop_
_atom_site_type_symbol
_atom_site_label
_atom_site_fract_x
_atom_site_fract_y
_atom_site_fract_z
Si Si1 0.786896 0.674667 0.691406
Si Si2 0.049165 0.827238 0.357539
Si Si3 0.028542 0.913591 0.723228
Si Si4 0.471280 0.918811 0.517810
Si Si5 0.948134 0.078811 0.033443
Si Si6 0.503364 0.426075 0.242718
Si Si7 0.189945 0.169418 0.748592
Si Si8 0.167316 0.978440 0.334281
O O1 0.710130 0.750000 0.754586
O O2 0.596059 0.628340 0.790892
O O3 0.877542 0.666924 0.527515
O O4 0.941212 0.654561 0.709835
O O5 0.152332 0.750000 0.320663
O O6 0.188103 0.894964 0.306956
O O7 0.955745 0.832913 0.283180
O O8 0.252487 0.910599 0.577299
O O9 0.021224 0.900522 0.855650
O O10 0.907171 0.982741 0.742311
O O11 0.506322 0.898404 0.627633
O O12 0.613341 0.873753 0.372396
O O13 0.500000 0.000000 0.500000
O O14 0.081441 0.131202 0.900441
O O15 0.725485 0.076022 0.097998
O O16 0.000000 0.000000 0.000000
O O17 0.381077 0.497668 0.278006
O O18 0.240902 0.250000 0.754249
O O19 0.000000 0.000000 0.500000
#
# Coordination Sequence:
#
# PCOD8072138 Si02
#       8
#     4   4   4   4   4   4   4   4
#     4  10  20  37  60  90 121 151 201 257 307 369
#     4  10  19  34  59  88 121 154 192 252 315 366
#     4  10  22  36  62  93 121 161 199 259 313 365
#     4  11  20  35  63  94 121 158 208 260 313 374
#     4  11  24  43  61  88 128 169 215 254 310 377
#     4  10  21  36  64  90 114 165 209 253 302 373
#     4  11  23  40  62  90 126 166 209 259 315 376
#     4  11  17  34  62  92 122 149 201 259 312 361
#
# _framework density 19.997422
#
# number of rings (size 3 to 8) (size 9 to 14) (size 15 to 20)
#    0.000    1.500    3.750    3.750    0.000    1.500 
#    0.000    8.125    0.000    0.000    0.000    0.000 
#    0.000    0.000    0.000    0.000    0.000    0.000 
#
# Total GULP energy -396426.639916 kJ/mol
# GULP energy per Si atom -12388.332497 kJ/mol
# Density = 1.995191 g / cm^3
# Si number density = 19.997422 Si / 1000 Ang^3
#
#
#
# Elastic Constant Matrix: (Units=GPa)
#
#
# Indices 1 2 3 4 5 6 
#
# 1 106.8223 38.5059 43.0992 0.0000 -10.8259 0.0000
# 2 38.5059 166.9791 49.5314 0.0000 -9.5487 0.0000
# 3 43.0992 49.5314 105.0202 0.0000 -11.1839 0.0000
# 4 0.0000 0.0000 0.0000 25.1378 0.0000 -0.3252
# 5 -10.8259 -9.5487 -11.1839 0.0000 26.2705 0.0000
# 6 0.0000 0.0000 0.0000 -0.3252 0.0000 22.2636
#
#
#
# Elastic Compliance Matrix: (Units=1/GPa)
#
#
# Indices 1 2 3 4 5 6 
#
# 1 0.011691 -0.001400 -0.003853 0.000000 0.002668 0.000000
# 2 -0.001400 0.007166 -0.002712 0.000000 0.000873 0.000000
# 3 -0.003853 -0.002712 0.012683 0.000000 0.002826 0.000000
# 4 0.000000 0.000000 0.000000 0.039788 0.000000 0.000581
# 5 0.002668 0.000873 0.002826 0.000000 0.040685 0.000000
# 6 0.000000 0.000000 0.000000 0.000581 0.000000 0.044925
#
#
# Mechanical properties :
#
#
# Convention : Reuss Voigt Hill
#
# Bulk Modulus (GPa) = 64.06525 71.23274 67.64899
# Shear Modulus (GPa) = 28.07819 31.24673 29.66246
#
# Velocity S-wave (km/s) = 3.75118 3.95718 3.85556
# Velocity P-wave (km/s) = 7.13219 7.52179 7.32958
#
# Compressibility (1/GPa) = 0.01560909
#
# Stress axis : x y z
#
# Youngs Moduli (GPa) = 85.53401 139.54507 78.84307
#
# Poissons Ratio (x) = 0.19542 0.30381
# Poissons Ratio (y) = 0.11978 0.21383
# Poissons Ratio (z) = 0.32959 0.37846
#
# Static dielectric constant tensor:
#      x y z
#    x 3.414920 0.000000 -0.146270 
#    y 0.000000 6.831300 0.000000 
#    z -0.146270 0.000000 3.287770 
# 
# 
# High freq. dielectric constant tensor:
#      x y z
#    x 1.787740 0.000000 0.009300 
#    y 0.000000 1.787060 0.000000 
#    z 0.009300 0.000000 1.757990 
# 
# From -- ./inp_files/32815.got.cif
#   From: 2010.06.25/outbox.cif.g09.slc.cpg/sg11_17_cif.got.tgz:32815.got - 2010.06.27 23:14:04.
