data_PCOD8072616
_publ_section_title
;
Structure prediction by ZEFSAII (Michael W. Deem and Ramdas Pophale) SiO2 
 PCOD8072616
Probable space group: P 21/M
;
_chemical_formula_sum "Si O2"
_cell_formula_units_Z 32
_cell_length_a 23.021275
_cell_length_b 9.000923
_cell_length_c 14.980117
_cell_angle_alpha 90.000000
_cell_angle_beta 149.014656
_cell_angle_gamma 90.000000
_cell_volume 1598.034023
_symmetry_space_group_name_H-M "P 21/M"
_symmetry_group_IT_number 11
_symmetry_cell_setting 'monoclinic'
loop_
_space_group_symop_operation_xyz
x,y,z
-x,1/2+y,-z
-x,-y,-z
x,1/2-y,z
loop_
_atom_site_type_symbol
_atom_site_label
_atom_site_fract_x
_atom_site_fract_y
_atom_site_fract_z
Si Si1 0.326825 0.573335 0.016461
Si Si2 0.254958 0.425384 0.523184
Si Si3 0.082960 0.073494 0.681381
Si Si4 0.029475 0.079796 0.307043
Si Si5 0.492858 0.426195 0.895521
Si Si6 0.927822 0.418426 0.979078
Si Si7 0.732866 0.920561 0.655918
Si Si8 0.515003 0.421191 0.614499
O O1 0.306717 0.750000 0.991743
O O2 0.209296 0.490760 0.843672
O O3 0.407450 0.527104 0.040495
O O4 0.383666 0.522638 0.186404
O O5 0.267104 0.250000 0.535471
O O6 0.160808 0.469272 0.472418
O O7 0.375757 0.493625 0.705021
O O8 0.220224 0.476016 0.378124
O O9 0.086810 0.250000 0.671702
O O10 0.000000 0.000000 0.500000
O O11 0.032661 0.035400 0.711395
O O12 0.017614 0.250000 0.326551
O O13 0.978520 0.063785 0.142827
O O14 0.490100 0.250000 0.902575
O O15 0.500000 0.500000 0.000000
O O16 0.922056 0.250000 0.941254
O O17 0.800641 0.483519 0.817809
O O18 0.000000 0.500000 0.000000
O O19 0.761927 0.750000 0.712978
O O20 0.599507 0.947419 0.481905
O O21 0.500000 0.500000 0.500000
O O22 0.535631 0.250000 0.619952
#
# Coordination Sequence:
#
# PCOD8072616 Si02
#       8
#     4   4   4   4   4   4   4   4
#     4  10  22  44  68  93 130 170 211 257 314 382
#     4   9  17  36  63  88 118 159 200 245 308 373
#     4  12  28  48  69  92 123 165 216 271 323 379
#     4  10  22  41  64  90 125 167 211 256 313 378
#     4  10  21  38  64  94 122 155 198 249 308 371
#     4  11  22  36  58  89 125 165 203 251 307 367
#     4  10  19  37  60  85 121 165 207 251 309 371
#     4  10  22  39  63  90 124 168 212 258 311 374
#
# _framework density 20.024605000000001
#
# number of rings (size 3 to 8) (size 9 to 14) (size 15 to 20)
#    0.000    1.750    2.500    1.500    3.500    2.500 
#    0.000    0.625    0.000    0.000    0.000    0.000 
#    0.000    0.000    0.000    0.000    0.000    0.000 
#
# Total GULP energy -396631.937694 kJ/mol
# GULP energy per Si atom -12394.748053 kJ/mol
# Density = 1.997903 g / cm^3
# Si number density = 20.024605 Si / 1000 Ang^3
#
#
#
# Elastic Constant Matrix: (Units=GPa)
#
#
# Indices 1 2 3 4 5 6 
#
# 1 116.6716 51.6333 61.0998 0.0000 3.3640 0.0000
# 2 51.6333 86.4564 65.2574 0.0000 1.4667 0.0000
# 3 61.0998 65.2574 148.5119 0.0000 18.4963 0.0000
# 4 0.0000 0.0000 0.0000 33.0284 0.0000 -2.7828
# 5 3.3640 1.4667 18.4963 0.0000 27.0276 0.0000
# 6 0.0000 0.0000 0.0000 -2.7828 0.0000 32.8106
#
#
#
# Elastic Compliance Matrix: (Units=1/GPa)
#
#
# Indices 1 2 3 4 5 6 
#
# 1 0.012373 -0.005225 -0.002884 0.000000 0.000717 0.000000
# 2 -0.005225 0.020067 -0.007230 0.000000 0.004509 0.000000
# 3 -0.002884 -0.007230 0.012028 0.000000 -0.007480 0.000000
# 4 0.000000 0.000000 0.000000 0.030495 0.000000 0.002586
# 5 0.000717 0.004509 -0.007480 0.000000 0.041785 0.000000
# 6 0.000000 0.000000 0.000000 0.002586 0.000000 0.030697
#
#
# Mechanical properties :
#
#
# Convention : Reuss Voigt Hill
#
# Bulk Modulus (GPa) = 72.50680 78.62456 75.56568
# Shear Modulus (GPa) = 27.36434 30.14995 28.75715
#
# Velocity S-wave (km/s) = 3.70068 3.88447 3.79369
# Velocity P-wave (km/s) = 7.38563 7.71155 7.55035
#
# Compressibility (1/GPa) = 0.01379181
#
# Stress axis : x y z
#
# Youngs Moduli (GPa) = 80.82203 49.83207 83.13625
#
# Poissons Ratio (x) = 0.26036 0.23976
# Poissons Ratio (y) = 0.42227 0.60106
# Poissons Ratio (z) = 0.23308 0.36028
#
# Static dielectric constant tensor:
#      x y z
#    x 3.892930 0.000000 -0.033240 
#    y 0.000000 100.558510 0.000000 
#    z -0.033240 0.000000 3.850770 
# 
# 
# High freq. dielectric constant tensor:
#      x y z
#    x 1.787630 0.000000 0.005440 
#    y 0.000000 1.757150 0.000000 
#    z 0.005440 0.000000 1.800690 
# 
# From -- ./inp_files/55731.got.cif
#   From: 2010.06.25/outbox.cif.g09.slc.cpg/sg11_28_cif.got.tgz:55731.got - 2010.06.27 23:14:04.
