data_PCOD8072930
_publ_section_title
;
Structure prediction by ZEFSAII (Michael W. Deem and Ramdas Pophale) SiO2 
 PCOD8072930
Probable space group: P 21/M
;
_chemical_formula_sum "Si O2"
_cell_formula_units_Z 32
_cell_length_a 9.466929
_cell_length_b 9.125932
_cell_length_c 25.524820
_cell_angle_alpha 90.000000
_cell_angle_beta 124.957800
_cell_angle_gamma 90.000000
_cell_volume 1807.329578
_symmetry_space_group_name_H-M "P 21/M"
_symmetry_group_IT_number 11
_symmetry_cell_setting 'monoclinic'
loop_
_space_group_symop_operation_xyz
x,y,z
-x,1/2+y,-z
-x,-y,-z
x,1/2-y,z
loop_
_atom_site_type_symbol
_atom_site_label
_atom_site_fract_x
_atom_site_fract_y
_atom_site_fract_z
Si Si1 0.329662 0.416471 0.949103
Si Si2 0.578673 0.914274 0.440340
Si Si3 0.826231 0.577294 0.819445
Si Si4 0.235465 0.915639 0.436242
Si Si5 0.105947 0.420401 0.808365
Si Si6 0.048227 0.416434 0.312160
Si Si7 0.005957 0.924285 0.056936
Si Si8 0.397151 0.087137 0.319862
O O1 0.368434 0.250000 0.970665
O O2 0.287415 0.436329 0.877935
O O3 0.169271 0.468523 0.950401
O O4 0.500000 0.500000 0.000000
O O5 0.648341 0.750000 0.448916
O O6 0.406640 0.918584 0.437958
O O7 0.726523 0.009657 0.499705
O O8 0.537720 0.976625 0.373659
O O9 0.864485 0.750000 0.834010
O O10 0.643589 0.553036 0.750170
O O11 0.969320 0.502386 0.814705
O O12 0.831958 0.495519 0.876862
O O13 0.173207 0.750000 0.432628
O O14 0.083441 0.004535 0.375017
O O15 0.054176 0.250000 0.791335
O O16 0.105672 0.497700 0.751205
O O17 0.989486 0.250000 0.310187
O O18 0.219285 0.422861 0.313787
O O19 0.031912 0.750000 0.058014
O O20 0.000000 0.000000 0.000000
O O21 0.473753 0.250000 0.342111
#
# Coordination Sequence:
#
# PCOD8072930 Si02
#       8
#     4   4   4   4   4   4   4   4
#     4   9  19  32  47  67  90 115 146 182 220 264
#     4   9  15  20  27  39  56  81 115 154 194 236
#     4   9  16  26  40  57  76 101 132 168 208 250
#     4   9  15  21  28  38  56  83 114 153 198 239
#     4   9  16  26  38  55  77 100 130 168 207 250
#     4   9  15  22  32  46  63  87 121 159 199 243
#     4  10  20  33  48  68  91 116 147 183 222 266
#     4   8  14  22  31  44  63  87 118 155 196 240
#
# _framework density 17.705680999999998
#
# number of rings (size 3 to 8) (size 9 to 14) (size 15 to 20)
#    0.000    3.000    0.000    3.750    0.000    9.500 
#    0.000    0.000    0.000    0.000    0.000    0.000 
#    0.000    0.000    0.000    0.000    0.000    1.250 
#
# Total GULP energy -396505.054005 kJ/mol
# GULP energy per Si atom -12390.782938 kJ/mol
# Density = 1.766538 g / cm^3
# Si number density = 17.705681 Si / 1000 Ang^3
#
#
#
# Elastic Constant Matrix: (Units=GPa)
#
#
# Indices 1 2 3 4 5 6 
#
# 1 12.2397 16.3962 20.8955 0.0000 1.2359 0.0000
# 2 16.3962 148.2262 97.4396 0.0000 -4.3049 0.0000
# 3 20.8955 97.4396 182.9645 0.0000 -6.7017 0.0000
# 4 0.0000 0.0000 0.0000 43.3754 0.0000 0.1871
# 5 1.2359 -4.3049 -6.7017 0.0000 9.0842 0.0000
# 6 0.0000 0.0000 0.0000 0.1871 0.0000 10.8965
#
#
#
# Elastic Compliance Matrix: (Units=1/GPa)
#
#
# Indices 1 2 3 4 5 6 
#
# 1 0.109970 -0.006208 -0.010184 0.000000 -0.025417 0.000000
# 2 -0.006208 0.010738 -0.004925 0.000000 0.002300 0.000000
# 3 -0.010184 -0.004925 0.009473 0.000000 0.006040 0.000000
# 4 0.000000 0.000000 0.000000 0.023056 0.000000 -0.000396
# 5 -0.025417 0.002300 0.006040 0.000000 0.119084 0.000000
# 6 0.000000 0.000000 0.000000 -0.000396 0.000000 0.091779
#
#
# Mechanical properties :
#
#
# Convention : Reuss Voigt Hill
#
# Bulk Modulus (GPa) = 11.42259 68.09923 39.76091
# Shear Modulus (GPa) = 11.47010 26.58451 19.02730
#
# Velocity S-wave (km/s) = 2.54799 3.87908 3.28173
# Velocity P-wave (km/s) = 3.88867 7.65561 6.07166
#
# Compressibility (1/GPa) = 0.08754582
#
# Stress axis : x y z
#
# Youngs Moduli (GPa) = 9.09342 93.13042 105.56518
#
# Poissons Ratio (x) = 0.57814 1.07508
# Poissons Ratio (y) = 0.05645 0.51993
# Poissons Ratio (z) = 0.09261 0.45869
#
# Static dielectric constant tensor:
#      x y z
#    x 2.404850 0.000000 -0.008080 
#    y 0.000000 3.545060 0.000000 
#    z -0.008080 0.000000 3.902340 
# 
# 
# High freq. dielectric constant tensor:
#      x y z
#    x 1.575090 0.000000 -0.002800 
#    y 0.000000 1.703000 0.000000 
#    z -0.002800 0.000000 1.714240 
# 
# From -- ./inp_files/71178.got.cif
#   From: 2010.06.25/outbox.cif.g09.slc.cpg/sg11_36_cif.got.tgz:71178.got - 2010.06.27 23:14:04.
