data_PCOD8072555
_publ_section_title
;
Structure prediction by ZEFSAII (Michael W. Deem and Ramdas Pophale) SiO2 
 PCOD8072555
Probable space group: P 21/M
;
_chemical_formula_sum "Si O2"
_cell_formula_units_Z 28
_cell_length_a 9.872564
_cell_length_b 8.564607
_cell_length_c 27.820844
_cell_angle_alpha 90.000000
_cell_angle_beta 142.336592
_cell_angle_gamma 90.000000
_cell_volume 1437.355719
_symmetry_space_group_name_H-M "P 21/M"
_symmetry_group_IT_number 11
_symmetry_cell_setting 'monoclinic'
loop_
_space_group_symop_operation_xyz
x,y,z
-x,1/2+y,-z
-x,-y,-z
x,1/2-y,z
loop_
_atom_site_type_symbol
_atom_site_label
_atom_site_fract_x
_atom_site_fract_y
_atom_site_fract_z
Si Si1 0.842180 0.933716 0.496970
Si Si2 0.228926 0.931365 0.048197
Si Si3 0.019045 0.428088 0.795690
Si Si4 0.322122 0.933447 0.804012
Si Si5 0.930224 0.934261 0.627792
Si Si6 0.283508 0.430543 0.962168
Si Si7 0.366781 0.067580 0.368139
O O1 0.874292 0.750000 0.505804
O O2 0.904698 0.005457 0.567131
O O3 0.587308 0.975282 0.415838
O O4 0.000000 0.000000 0.500000
O O5 0.242807 0.750000 0.063799
O O6 0.425130 0.015686 0.133276
O O7 0.238722 0.961870 0.994747
O O8 0.000000 0.000000 0.000000
O O9 0.960704 0.250000 0.766228
O O10 0.236872 0.479312 0.827577
O O11 0.074813 0.445590 0.867547
O O12 0.811083 0.536718 0.723928
O O13 0.302934 0.750000 0.807522
O O14 0.170997 0.983366 0.715966
O O15 0.908918 0.750000 0.618955
O O16 0.736977 0.993406 0.610153
O O17 0.320174 0.250000 0.987470
O O18 0.500000 0.500000 0.000000
O O19 0.421334 0.250000 0.385555
#
# Coordination Sequence:
#
# PCOD8072555 Si02
#       7
#     4   4   4   4   4   4   4
#     4  11  22  39  59  84 119 155 190 234 288 350
#     4  12  25  41  59  84 118 159 202 246 297 351
#     4  10  20  35  58  90 120 150 191 241 291 343
#     4  10  19  36  61  87 116 150 193 244 295 349
#     4   8  18  36  61  88 113 146 190 237 287 343
#     4  11  22  37  61  89 120 155 197 244 294 350
#     4  10  20  37  61  88 115 149 192 240 289 343
#
# _framework density 19.480215999999999
#
# number of rings (size 3 to 8) (size 9 to 14) (size 15 to 20)
#    0.000    1.714    1.429    4.714    0.000    1.714 
#    2.571    7.857    0.000    0.000    0.000    0.000 
#    0.000    0.000    0.000    0.000    0.000    0.000 
#
# Total GULP energy -347195.749504 kJ/mol
# GULP energy per Si atom -12399.848197 kJ/mol
# Density = 1.943588 g / cm^3
# Si number density = 19.480216 Si / 1000 Ang^3
#
#
#
# Elastic Constant Matrix: (Units=GPa)
#
#
# Indices 1 2 3 4 5 6 
#
# 1 115.0984 19.3684 57.9662 0.0000 14.7735 0.0000
# 2 19.3684 62.5436 20.9300 0.0000 -3.3503 0.0000
# 3 57.9662 20.9300 113.6255 0.0000 12.4878 0.0000
# 4 0.0000 0.0000 0.0000 31.9992 0.0000 4.0297
# 5 14.7735 -3.3503 12.4878 0.0000 29.0922 0.0000
# 6 0.0000 0.0000 0.0000 4.0297 0.0000 31.2455
#
#
#
# Elastic Compliance Matrix: (Units=1/GPa)
#
#
# Indices 1 2 3 4 5 6 
#
# 1 0.012331 -0.002230 -0.005419 0.000000 -0.004192 0.000000
# 2 -0.002230 0.017783 -0.002611 0.000000 0.004301 0.000000
# 3 -0.005419 -0.002611 0.012360 0.000000 -0.002854 0.000000
# 4 0.000000 0.000000 0.000000 0.031767 0.000000 -0.004097
# 5 -0.004192 0.004301 -0.002854 0.000000 0.038223 0.000000
# 6 0.000000 0.000000 0.000000 -0.004097 0.000000 0.032533
#
#
# Mechanical properties :
#
#
# Convention : Reuss Voigt Hill
#
# Bulk Modulus (GPa) = 45.54808 54.19964 49.87386
# Shear Modulus (GPa) = 28.92942 31.33425 30.13183
#
# Velocity S-wave (km/s) = 3.85784 4.01498 3.93719
# Velocity P-wave (km/s) = 6.57848 7.02686 6.80636
#
# Compressibility (1/GPa) = 0.02195482
#
# Stress axis : x y z
#
# Youngs Moduli (GPa) = 81.09851 56.23198 80.90604
#
# Poissons Ratio (x) = 0.12538 0.43843
# Poissons Ratio (y) = 0.18082 0.21124
# Poissons Ratio (z) = 0.43948 0.14682
#
# Static dielectric constant tensor:
#      x y z
#    x 3.317530 0.000000 -0.047860 
#    y 0.000000 3.538710 0.000000 
#    z -0.047860 0.000000 3.699520 
# 
# 
# High freq. dielectric constant tensor:
#      x y z
#    x 1.739150 0.000000 0.000730 
#    y 0.000000 1.759290 0.000000 
#    z 0.000730 0.000000 1.773450 
# 
# From -- ./inp_files/23971.got.cif
#   From: 2010.06.25/outbox.cif.g09.slc.cpg/sg11_12_cif.got.tgz:23971.got - 2010.06.27 23:14:04.
