data_PCOD8072067
_publ_section_title
;
Structure prediction by ZEFSAII (Michael W. Deem and Ramdas Pophale) SiO2 
 PCOD8072067
Probable space group: P 21/M
;
_chemical_formula_sum "Si O2"
_cell_formula_units_Z 24
_cell_length_a 22.884857
_cell_length_b 8.810083
_cell_length_c 12.196994
_cell_angle_alpha 90.000000
_cell_angle_beta 28.142230
_cell_angle_gamma 90.000000
_cell_volume 1159.876726
_symmetry_space_group_name_H-M "P 21/M"
_symmetry_group_IT_number 11
_symmetry_cell_setting 'monoclinic'
loop_
_space_group_symop_operation_xyz
x,y,z
-x,1/2+y,-z
-x,-y,-z
x,1/2-y,z
loop_
_atom_site_type_symbol
_atom_site_label
_atom_site_fract_x
_atom_site_fract_y
_atom_site_fract_z
Si Si1 0.601755 0.429400 0.067990
Si Si2 0.132769 0.573836 0.757960
Si Si3 0.020979 0.928743 0.349153
Si Si4 0.638860 0.074014 0.471982
Si Si5 0.294776 0.570431 0.872707
Si Si6 0.790254 0.930113 0.590100
O O1 0.618348 0.250000 0.031222
O O2 0.673031 0.506183 0.849749
O O3 0.457543 0.474793 0.298006
O O4 0.651724 0.495939 0.101892
O O5 0.110993 0.750000 0.768966
O O6 0.221165 0.550340 0.716837
O O7 0.206636 0.497422 0.536215
O O8 0.000000 0.500000 0.000000
O O9 0.014724 0.750000 0.372598
O O10 0.916468 0.985996 0.438832
O O11 0.154093 0.984238 0.086604
O O12 0.000000 0.000000 0.500000
O O13 0.601145 0.250000 0.544201
O O14 0.630888 0.016679 0.358363
O O15 0.299834 0.750000 0.872217
O O16 0.779982 0.750000 0.600998
#
# Coordination Sequence:
#
# PCOD8072067 Si02
#       6
#     4   4   4   4   4   4
#     4  11  22  37  60  90 123 158 200 251 301 356
#     4  11  24  43  67  91 120 157 200 251 302 358
#     4  10  19  34  57  86 119 154 192 241 298 355
#     4  10  22  41  62  85 118 161 202 245 301 360
#     4   9  18  35  59  86 121 156 193 243 299 357
#     4  11  23  39  62  90 124 163 202 247 301 359
#
# _framework density 20.691852000000001
#
# number of rings (size 3 to 8) (size 9 to 14) (size 15 to 20)
#    0.000    1.667    1.667    3.000    0.000    5.333 
#    0.000    1.667    0.000    0.000    0.000    0.000 
#    0.000    0.000    0.000    0.000    0.000    0.000 
#
# Total GULP energy -297616.243346 kJ/mol
# GULP energy per Si atom -12400.676806 kJ/mol
# Density = 2.064476 g / cm^3
# Si number density = 20.691852 Si / 1000 Ang^3
#
#
#
# Elastic Constant Matrix: (Units=GPa)
#
#
# Indices 1 2 3 4 5 6 
#
# 1 71.7416 30.2005 34.7666 0.0000 12.6500 0.0000
# 2 30.2005 68.6985 40.3284 0.0000 4.4882 0.0000
# 3 34.7666 40.3284 145.9972 0.0000 9.3007 0.0000
# 4 0.0000 0.0000 0.0000 34.9764 0.0000 1.7735
# 5 12.6500 4.4882 9.3007 0.0000 40.3670 0.0000
# 6 0.0000 0.0000 0.0000 1.7735 0.0000 26.8241
#
#
#
# Elastic Compliance Matrix: (Units=1/GPa)
#
#
# Indices 1 2 3 4 5 6 
#
# 1 0.018622 -0.006511 -0.002345 0.000000 -0.004572 0.000000
# 2 -0.006511 0.019678 -0.003933 0.000000 0.000759 0.000000
# 3 -0.002345 -0.003933 0.008545 0.000000 -0.000797 0.000000
# 4 0.000000 0.000000 0.000000 0.028687 0.000000 -0.001897
# 5 -0.004572 0.000759 -0.000797 0.000000 0.026305 0.000000
# 6 0.000000 0.000000 0.000000 -0.001897 0.000000 0.037405
#
#
# Mechanical properties :
#
#
# Convention : Reuss Voigt Hill
#
# Bulk Modulus (GPa) = 47.02224 55.22536 51.12380
# Shear Modulus (GPa) = 29.08489 32.50961 30.79725
#
# Velocity S-wave (km/s) = 3.75323 3.96805 3.86213
# Velocity P-wave (km/s) = 6.44644 6.90950 6.68199
#
# Compressibility (1/GPa) = 0.02126653
#
# Stress axis : x y z
#
# Youngs Moduli (GPa) = 53.69895 50.81729 117.02647
#
# Poissons Ratio (x) = 0.33089 0.27439
# Poissons Ratio (y) = 0.34966 0.46032
# Poissons Ratio (z) = 0.12591 0.19989
#
# Static dielectric constant tensor:
#      x y z
#    x 3.805800 0.000000 0.073990 
#    y 0.000000 3.463300 0.000000 
#    z 0.073990 0.000000 3.769710 
# 
# 
# High freq. dielectric constant tensor:
#      x y z
#    x 1.812710 0.000000 0.000290 
#    y 0.000000 1.792560 0.000000 
#    z 0.000290 0.000000 1.824160 
# 
# From -- ./inp_files/43883.got.cif
#   From: 2010.06.25/outbox.cif.g09.slc.cpg/sg11_22_cif.got.tgz:43883.got - 2010.06.27 23:14:04.
