data_PCOD8072831
_publ_section_title
;
Structure prediction by ZEFSAII (Michael W. Deem and Ramdas Pophale) SiO2 
 PCOD8072831
Probable space group: P 21/M
;
_chemical_formula_sum "Si O2"
_cell_formula_units_Z 32
_cell_length_a 21.149425
_cell_length_b 9.040323
_cell_length_c 30.399612
_cell_angle_alpha 90.000000
_cell_angle_beta 160.553486
_cell_angle_gamma 90.000000
_cell_volume 1935.081434
_symmetry_space_group_name_H-M "P 21/M"
_symmetry_group_IT_number 11
_symmetry_cell_setting 'monoclinic'
loop_
_space_group_symop_operation_xyz
x,y,z
-x,1/2+y,-z
-x,-y,-z
x,1/2-y,z
loop_
_atom_site_type_symbol
_atom_site_label
_atom_site_fract_x
_atom_site_fract_y
_atom_site_fract_z
Si Si1 0.433933 0.578329 0.777418
Si Si2 0.480207 0.078947 0.552838
Si Si3 0.789452 0.079804 0.455181
Si Si4 0.205252 0.078730 0.294271
Si Si5 0.144274 0.423689 0.969949
Si Si6 0.125669 0.078669 0.618667
Si Si7 0.846045 0.426218 0.930131
Si Si8 0.558413 0.576897 0.372982
O O1 0.390764 0.750000 0.755715
O O2 0.340957 0.522215 0.670763
O O3 0.336301 0.493066 0.754775
O O4 0.656191 0.542681 0.922652
O O5 0.547115 0.250000 0.595465
O O6 0.296025 0.054338 0.401770
O O7 0.427830 0.027400 0.567385
O O8 0.652486 0.977405 0.650021
O O9 0.742719 0.250000 0.433047
O O10 0.014359 0.056060 0.592002
O O11 0.736399 0.993047 0.464371
O O12 0.159315 0.250000 0.255238
O O13 0.014559 0.981885 0.167881
O O14 0.119666 0.250000 0.963630
O O15 0.123408 0.514017 0.001044
O O16 0.142178 0.250000 0.617878
O O17 0.000000 0.000000 0.500000
O O18 0.870038 0.250000 0.944957
O O19 0.639792 0.477105 0.777807
O O20 0.000000 0.500000 0.000000
O O21 0.578842 0.750000 0.381720
#
# Coordination Sequence:
#
# PCOD8072831 Si02
#       8
#     4   4   4   4   4   4   4   4
#     4   9  18  31  46  67  95 129 162 195 238 284
#     4   9  19  36  53  71  97 125 160 207 252 291
#     4   9  17  30  45  67  97 127 158 191 234 284
#     4  10  20  34  53  74  94 123 165 208 250 293
#     4  11  21  34  50  69  99 132 163 202 245 288
#     4   9  17  28  44  66  94 127 160 194 234 281
#     4  11  22  33  47  70  98 130 166 197 238 294
#     4  10  20  32  48  70  95 126 160 196 238 286
#
# _framework density 16.536771000000002
#
# number of rings (size 3 to 8) (size 9 to 14) (size 15 to 20)
#    0.000    2.250    1.250    3.000    0.000    6.000 
#    0.000    0.000    0.000    0.000    0.000    0.875 
#    0.000    0.000    0.000    0.000    0.000    0.000 
#
# Total GULP energy -396768.715213 kJ/mol
# GULP energy per Si atom -12399.022350 kJ/mol
# Density = 1.649913 g / cm^3
# Si number density = 16.536771 Si / 1000 Ang^3
#
#
#
# Elastic Constant Matrix: (Units=GPa)
#
#
# Indices 1 2 3 4 5 6 
#
# 1 90.1925 39.8207 51.6404 0.0000 18.0587 0.0000
# 2 39.8207 67.6217 40.5661 0.0000 14.4172 0.0000
# 3 51.6404 40.5661 85.0086 0.0000 13.7973 0.0000
# 4 0.0000 0.0000 0.0000 26.4317 0.0000 6.5391
# 5 18.0587 14.4172 13.7973 0.0000 25.0405 0.0000
# 6 0.0000 0.0000 0.0000 6.5391 0.0000 29.8648
#
#
#
# Elastic Compliance Matrix: (Units=1/GPa)
#
#
# Indices 1 2 3 4 5 6 
#
# 1 0.019368 -0.005038 -0.008308 0.000000 -0.006489 0.000000
# 2 -0.005038 0.023253 -0.007087 0.000000 -0.005850 0.000000
# 3 -0.008308 -0.007087 0.020380 0.000000 -0.001158 0.000000
# 4 0.000000 0.000000 0.000000 0.040000 0.000000 -0.008758
# 5 -0.006489 -0.005850 -0.001158 0.000000 0.048622 0.000000
# 6 0.000000 0.000000 0.000000 -0.008758 0.000000 0.035402
#
#
# Mechanical properties :
#
#
# Convention : Reuss Voigt Hill
#
# Bulk Modulus (GPa) = 45.17471 56.31969 50.74720
# Shear Modulus (GPa) = 21.25229 23.65376 22.45303
#
# Velocity S-wave (km/s) = 3.58879 3.78613 3.68878
# Velocity P-wave (km/s) = 6.67455 7.29686 6.99263
#
# Compressibility (1/GPa) = 0.02213628
#
# Stress axis : x y z
#
# Youngs Moduli (GPa) = 51.63221 43.00463 49.06728
#
# Poissons Ratio (x) = 0.21664 0.40766
# Poissons Ratio (y) = 0.26010 0.34773
# Poissons Ratio (z) = 0.42897 0.30476
#
# Static dielectric constant tensor:
#      x y z
#    x 3.134180 0.000000 0.021270 
#    y 0.000000 3.212900 0.000000 
#    z 0.021270 0.000000 2.320860 
# 
# 
# High freq. dielectric constant tensor:
#      x y z
#    x 1.625040 0.000000 0.022140 
#    y 0.000000 1.646620 0.000000 
#    z 0.022140 0.000000 1.616670 
# 
# From -- ./inp_files/67398.got.cif
#   From: 2010.06.25/outbox.cif.g09.slc.cpg/sg11_34_cif.got.tgz:67398.got - 2010.06.27 23:14:04.
