data_PCOD8072933
_publ_section_title
;
Structure prediction by ZEFSAII (Michael W. Deem and Ramdas Pophale) SiO2 
 PCOD8072933
Probable space group: P 21/M
;
_chemical_formula_sum "Si O2"
_cell_formula_units_Z 32
_cell_length_a 21.667910
_cell_length_b 9.171688
_cell_length_c 11.657354
_cell_angle_alpha 90.000000
_cell_angle_beta 56.587308
_cell_angle_gamma 90.000000
_cell_volume 1933.793832
_symmetry_space_group_name_H-M "P 21/M"
_symmetry_group_IT_number 11
_symmetry_cell_setting 'monoclinic'
loop_
_space_group_symop_operation_xyz
x,y,z
-x,1/2+y,-z
-x,-y,-z
x,1/2-y,z
loop_
_atom_site_type_symbol
_atom_site_label
_atom_site_fract_x
_atom_site_fract_y
_atom_site_fract_z
Si Si1 0.229337 0.423205 0.914211
Si Si2 0.505028 0.080337 0.375956
Si Si3 0.645167 0.078583 0.080555
Si Si4 0.935789 0.590200 0.925385
Si Si5 0.578768 0.923429 0.931449
Si Si6 0.631056 0.921353 0.631216
Si Si7 0.928580 0.910583 0.204568
Si Si8 0.232035 0.076113 0.650900
O O1 0.241132 0.250000 0.919151
O O2 0.278191 0.515055 0.952106
O O3 0.249998 0.470506 0.763137
O O4 0.144774 0.470085 0.027979
O O5 0.492831 0.250000 0.411147
O O6 0.583717 0.048267 0.239116
O O7 0.441745 0.016456 0.357094
O O8 0.500000 0.000000 0.500000
O O9 0.652035 0.250000 0.045678
O O10 0.624438 0.991140 0.988071
O O11 0.945737 0.750000 0.862084
O O12 0.003738 0.496428 0.805736
O O13 0.940476 0.598476 0.057012
O O14 0.567260 0.750000 0.958545
O O15 0.627068 0.959626 0.769158
O O16 0.500000 0.000000 0.000000
O O17 0.633069 0.750000 0.610008
O O18 0.704916 0.988483 0.497653
O O19 0.930534 0.750000 0.257185
O O20 0.848053 0.985040 0.308956
O O21 0.226560 0.250000 0.652966
#
# Coordination Sequence:
#
# PCOD8072933 Si02
#       8
#     4   4   4   4   4   4   4   4
#     4   9  17  30  48  70  96 129 162 189 230 285
#     4  10  20  33  48  69  95 123 155 189 229 282
#     4  11  22  35  49  70  97 123 158 201 242 281
#     4   8  14  24  39  62  93 126 157 186 219 271
#     4  11  21  36  55  71  90 121 161 204 245 283
#     4   9  17  31  49  68  92 121 155 195 235 275
#     4   8  13  22  39  64  91 123 157 185 221 271
#     4   8  14  26  46  70  97 125 156 193 231 280
#
# _framework density 16.547784
#
# number of rings (size 3 to 8) (size 9 to 14) (size 15 to 20)
#    0.000    2.750    1.250    3.000    0.000    2.500 
#    0.000    1.875    0.000    3.000    0.000    0.875 
#    0.000    0.000    0.000    0.000    0.000    0.000 
#
# Total GULP energy -396606.877233 kJ/mol
# GULP energy per Si atom -12393.964914 kJ/mol
# Density = 1.651012 g / cm^3
# Si number density = 16.547784 Si / 1000 Ang^3
#
#
#
# Elastic Constant Matrix: (Units=GPa)
#
#
# Indices 1 2 3 4 5 6 
#
# 1 136.8068 54.1786 65.0023 0.0000 -13.3922 0.0000
# 2 54.1786 59.9098 35.9561 0.0000 -0.5715 0.0000
# 3 65.0023 35.9561 64.7404 0.0000 2.6960 0.0000
# 4 0.0000 0.0000 0.0000 18.4383 0.0000 -0.7449
# 5 -13.3922 -0.5715 2.6960 0.0000 26.9937 0.0000
# 6 0.0000 0.0000 0.0000 -0.7449 0.0000 28.8391
#
#
#
# Elastic Compliance Matrix: (Units=1/GPa)
#
#
# Indices 1 2 3 4 5 6 
#
# 1 0.018257 -0.007728 -0.014470 0.000000 0.010339 0.000000
# 2 -0.007728 0.028409 -0.007917 0.000000 -0.002442 0.000000
# 3 -0.014470 -0.007917 0.034823 0.000000 -0.010824 0.000000
# 4 0.000000 0.000000 0.000000 0.054291 0.000000 0.001402
# 5 0.010339 -0.002442 -0.010824 0.000000 0.043205 0.000000
# 6 0.000000 0.000000 0.000000 0.001402 0.000000 0.034711
#
#
# Mechanical properties :
#
#
# Convention : Reuss Voigt Hill
#
# Bulk Modulus (GPa) = 47.03891 63.52567 55.28229
# Shear Modulus (GPa) = 17.79286 21.94222 19.86754
#
# Velocity S-wave (km/s) = 3.28264 3.64537 3.46875
# Velocity P-wave (km/s) = 6.54641 7.49605 7.03727
#
# Compressibility (1/GPa) = 0.02125900
#
# Stress axis : x y z
#
# Youngs Moduli (GPa) = 54.77280 35.20067 28.71705
#
# Poissons Ratio (x) = 0.27202 0.41553
# Poissons Ratio (y) = 0.42327 0.22736
# Poissons Ratio (z) = 0.79255 0.27869
#
# Static dielectric constant tensor:
#      x y z
#    x 3.309510 0.000000 -0.293630 
#    y 0.000000 3.055270 0.000000 
#    z -0.293630 0.000000 3.147760 
# 
# 
# High freq. dielectric constant tensor:
#      x y z
#    x 1.638610 0.000000 -0.021010 
#    y 0.000000 1.616800 0.000000 
#    z -0.021010 0.000000 1.612430 
# 
# From -- ./inp_files/42474.got.cif
#   From: 2010.06.25/outbox.cif.g09.slc.cpg/sg11_22_cif.got.tgz:42474.got - 2010.06.27 23:14:04.
