data_PCOD8072303
_publ_section_title
;
Structure prediction by ZEFSAII (Michael W. Deem and Ramdas Pophale) SiO2 
 PCOD8072303
Probable space group: P 21/M
;
_chemical_formula_sum "Si O2"
_cell_formula_units_Z 32
_cell_length_a 9.221852
_cell_length_b 19.215064
_cell_length_c 13.004854
_cell_angle_alpha 90.000000
_cell_angle_beta 135.125319
_cell_angle_gamma 90.000000
_cell_volume 1625.917420
_symmetry_space_group_name_H-M "P 21/M"
_symmetry_group_IT_number 11
_symmetry_cell_setting 'monoclinic'
loop_
_space_group_symop_operation_xyz
x,y,z
-x,1/2+y,-z
-x,-y,-z
x,1/2-y,z
loop_
_atom_site_type_symbol
_atom_site_label
_atom_site_fract_x
_atom_site_fract_y
_atom_site_fract_z
Si Si1 0.185766 0.466132 0.889571
Si Si2 0.450683 0.466012 0.823325
Si Si3 0.407125 0.673653 0.030982
Si Si4 0.130454 0.828864 0.520592
Si Si5 0.396734 0.956448 0.594780
Si Si6 0.015939 0.829874 0.693674
Si Si7 0.857161 0.675714 0.189471
Si Si8 0.796531 0.952453 0.675844
O O1 0.262196 0.469014 0.808986
O O2 0.083938 0.389103 0.854491
O O3 0.016023 0.523479 0.830515
O O4 0.379238 0.476799 0.060406
O O5 0.558459 0.389435 0.870998
O O6 0.366117 0.488114 0.670579
O O7 0.369028 0.750000 0.065026
O O8 0.610845 0.678454 0.064937
O O9 0.222131 0.654446 0.861575
O O10 0.218537 0.750000 0.565451
O O11 0.311212 0.880527 0.578323
O O12 0.052780 0.850058 0.594081
O O13 0.938879 0.835459 0.346688
O O14 0.636091 0.945785 0.688005
O O15 0.274534 0.987848 0.437883
O O16 0.946965 0.750000 0.670467
O O17 0.827908 0.877201 0.639206
O O18 0.942027 0.750000 0.188696
#
# Coordination Sequence:
#
# PCOD8072303 Si02
#       8
#     4   4   4   4   4   4   4   4
#     4  10  19  35  58  84 110 140 188 234 284 333
#     4  10  21  35  58  88 108 146 187 235 287 329
#     4   9  18  34  55  83 115 141 175 230 291 336
#     4  10  21  37  59  86 111 145 190 233 283 332
#     4  11  25  38  55  81 116 156 189 232 273 334
#     4  10  21  37  61  87 112 143 187 239 283 332
#     4   9  18  32  54  83 113 143 178 231 288 332
#     4  11  23  40  55  80 115 153 192 225 283 332
#
# _framework density 19.681197000000001
#
# number of rings (size 3 to 8) (size 9 to 14) (size 15 to 20)
#    0.000    2.000    2.500    0.750    7.000    2.000 
#    0.000    0.000    0.000    1.500    0.000    0.000 
#    0.000    0.000    0.000    0.000    0.000    0.000 
#
# Total GULP energy -396642.807886 kJ/mol
# GULP energy per Si atom -12395.087746 kJ/mol
# Density = 1.963640 g / cm^3
# Si number density = 19.681197 Si / 1000 Ang^3
#
#
#
# Elastic Constant Matrix: (Units=GPa)
#
#
# Indices 1 2 3 4 5 6 
#
# 1 59.0500 25.9599 3.1916 0.0000 11.4355 0.0000
# 2 25.9599 123.9935 11.0366 0.0000 3.9137 0.0000
# 3 3.1916 11.0366 27.9901 0.0000 8.1320 0.0000
# 4 0.0000 0.0000 0.0000 31.6552 0.0000 3.8086
# 5 11.4355 3.9137 8.1320 0.0000 20.1726 0.0000
# 6 0.0000 0.0000 0.0000 3.8086 0.0000 20.2350
#
#
#
# Elastic Compliance Matrix: (Units=1/GPa)
#
#
# Indices 1 2 3 4 5 6 
#
# 1 0.021028 -0.004269 0.002841 0.000000 -0.012237 0.000000
# 2 -0.004269 0.009227 -0.003777 0.000000 0.002152 0.000000
# 3 0.002841 -0.003777 0.042075 0.000000 -0.017839 0.000000
# 4 0.000000 0.000000 0.000000 0.032322 0.000000 -0.006084
# 5 -0.012237 0.002152 -0.017839 0.000000 0.063283 0.000000
# 6 0.000000 0.000000 0.000000 -0.006084 0.000000 0.050565
#
#
# Mechanical properties :
#
#
# Convention : Reuss Voigt Hill
#
# Bulk Modulus (GPa) = 16.14992 32.37888 24.26440
# Shear Modulus (GPa) = 20.03609 25.80224 22.91917
#
# Velocity S-wave (km/s) = 3.19412 3.62471 3.41621
# Velocity P-wave (km/s) = 4.67192 5.83142 5.28357
#
# Compressibility (1/GPa) = 0.06191983
#
# Stress axis : x y z
#
# Youngs Moduli (GPa) = 47.55580 108.37782 23.76711
#
# Poissons Ratio (x) = 0.46268 -0.06752
# Poissons Ratio (y) = 0.20302 0.08976
# Poissons Ratio (z) = -0.13510 0.40932
#
# Static dielectric constant tensor:
#      x y z
#    x 3.216820 0.000000 0.149950 
#    y 0.000000 4.140650 0.000000 
#    z 0.149950 0.000000 3.480010 
# 
# 
# High freq. dielectric constant tensor:
#      x y z
#    x 1.715750 0.000000 0.020690 
#    y 0.000000 1.794180 0.000000 
#    z 0.020690 0.000000 1.763900 
# 
# From -- ./inp_files/32861.got.cif
#   From: 2010.06.25/outbox.cif.g09.slc.cpg/sg11_17_cif.got.tgz:32861.got - 2010.06.27 23:14:04.
