data_PCOD8072448
_publ_section_title
;
Structure prediction by ZEFSAII (Michael W. Deem and Ramdas Pophale) SiO2 
 PCOD8072448
Probable space group: P 21/M
;
_chemical_formula_sum "Si O2"
_cell_formula_units_Z 24
_cell_length_a 10.379222
_cell_length_b 13.013878
_cell_length_c 11.383027
_cell_angle_alpha 90.000000
_cell_angle_beta 55.881531
_cell_angle_gamma 90.000000
_cell_volume 1272.906385
_symmetry_space_group_name_H-M "P 21/M"
_symmetry_group_IT_number 11
_symmetry_cell_setting 'monoclinic'
loop_
_space_group_symop_operation_xyz
x,y,z
-x,1/2+y,-z
-x,-y,-z
x,1/2-y,z
loop_
_atom_site_type_symbol
_atom_site_label
_atom_site_fract_x
_atom_site_fract_y
_atom_site_fract_z
Si Si1 0.201717 0.365985 0.882549
Si Si2 0.976066 0.630346 0.262807
Si Si3 0.672985 0.567472 0.540002
Si Si4 0.739313 0.495599 0.939791
Si Si5 0.445404 0.370094 0.148623
Si Si6 0.487122 0.635816 0.414151
O O1 0.173610 0.250000 0.940744
O O2 0.085541 0.391782 0.836348
O O3 0.379008 0.380268 0.750290
O O4 0.169474 0.443636 0.004816
O O5 0.007515 0.750000 0.267607
O O6 0.852070 0.591358 0.421549
O O7 0.135943 0.568711 0.199578
O O8 0.635984 0.611296 0.685934
O O9 0.557615 0.622939 0.507957
O O10 0.649492 0.444507 0.543586
O O11 0.656055 0.577868 0.900420
O O12 0.618117 0.416942 0.060501
O O13 0.456763 0.250000 0.115116
O O14 0.415452 0.750000 0.441564
#
# Coordination Sequence:
#
# PCOD8072448 Si02
#       6
#     4   4   4   4   4   4
#     4   9  17  34  58  83 111 145 180 226 282 329
#     4  10  21  37  58  81 111 145 182 232 288 330
#     4  10  19  36  57  82 111 147 186 228 277 325
#     4  11  22  37  55  82 112 148 187 227 274 333
#     4  11  23  38  57  80 110 149 191 230 273 329
#     4   9  17  32  57  84 112 145 186 230 273 325
#
# _framework density 18.854488
#
# number of rings (size 3 to 8) (size 9 to 14) (size 15 to 20)
#    0.000    2.000    1.667    4.000    0.000    0.667 
#    0.000    2.500    0.000    0.000    0.000    0.000 
#    0.000    0.000    0.000    0.000    0.000    0.000 
#
# Total GULP energy -297674.430728 kJ/mol
# GULP energy per Si atom -12403.101280 kJ/mol
# Density = 1.881157 g / cm^3
# Si number density = 18.854488 Si / 1000 Ang^3
#
#
#
# Elastic Constant Matrix: (Units=GPa)
#
#
# Indices 1 2 3 4 5 6 
#
# 1 36.4932 33.3431 21.5317 0.0000 -10.6310 0.0000
# 2 33.3431 141.8147 46.7358 0.0000 -11.3292 0.0000
# 3 21.5317 46.7358 89.9931 0.0000 -8.9959 0.0000
# 4 0.0000 0.0000 0.0000 25.8396 0.0000 0.3081
# 5 -10.6310 -11.3292 -8.9959 0.0000 21.7097 0.0000
# 6 0.0000 0.0000 0.0000 0.3081 0.0000 22.3430
#
#
#
# Elastic Compliance Matrix: (Units=1/GPa)
#
#
# Indices 1 2 3 4 5 6 
#
# 1 0.040634 -0.006847 -0.004730 0.000000 0.014365 0.000000
# 2 -0.006847 0.009818 -0.003426 0.000000 0.000351 0.000000
# 3 -0.004730 -0.003426 0.014201 0.000000 0.001780 0.000000
# 4 0.000000 0.000000 0.000000 0.038707 0.000000 -0.000534
# 5 0.014365 0.000351 0.001780 0.000000 0.054018 0.000000
# 6 0.000000 0.000000 0.000000 -0.000534 0.000000 0.044764
#
#
# Mechanical properties :
#
#
# Convention : Reuss Voigt Hill
#
# Bulk Modulus (GPa) = 28.86248 52.39137 40.62693
# Shear Modulus (GPa) = 20.51729 25.09115 22.80422
#
# Velocity S-wave (km/s) = 3.30235 3.65194 3.48154
# Velocity P-wave (km/s) = 5.46644 6.75498 6.14458
#
# Compressibility (1/GPa) = 0.03464706
#
# Stress axis : x y z
#
# Youngs Moduli (GPa) = 24.60976 101.85001 70.41940
#
# Poissons Ratio (x) = 0.69741 0.33310
# Poissons Ratio (y) = 0.16851 0.24122
# Poissons Ratio (z) = 0.11641 0.34889
#
# Static dielectric constant tensor:
#      x y z
#    x 3.192510 0.000000 0.023480 
#    y 0.000000 3.638900 0.000000 
#    z 0.023480 0.000000 3.392860 
# 
# 
# High freq. dielectric constant tensor:
#      x y z
#    x 1.708760 0.000000 0.004050 
#    y 0.000000 1.748410 0.000000 
#    z 0.004050 0.000000 1.729570 
# 
# From -- ./inp_files/22301.got.cif
#   From: 2010.06.25/outbox.cif.g09.slc.cpg/sg11_12_cif.got.tgz:22301.got - 2010.06.27 23:14:04.
