data_PCOD8072314
_publ_section_title
;
Structure prediction by ZEFSAII (Michael W. Deem and Ramdas Pophale) SiO2 
 PCOD8072314
Probable space group: P 21/M
;
_chemical_formula_sum "Si O2"
_cell_formula_units_Z 32
_cell_length_a 14.410612
_cell_length_b 9.043002
_cell_length_c 24.572904
_cell_angle_alpha 90.000000
_cell_angle_beta 149.666231
_cell_angle_gamma 90.000000
_cell_volume 1617.239054
_symmetry_space_group_name_H-M "P 21/M"
_symmetry_group_IT_number 11
_symmetry_cell_setting 'monoclinic'
loop_
_space_group_symop_operation_xyz
x,y,z
-x,1/2+y,-z
-x,-y,-z
x,1/2-y,z
loop_
_atom_site_type_symbol
_atom_site_label
_atom_site_fract_x
_atom_site_fract_y
_atom_site_fract_z
Si Si1 0.807872 0.078581 0.399376
Si Si2 0.593697 0.424915 0.098484
Si Si3 0.982332 0.921092 0.686274
Si Si4 0.196308 0.425853 0.103925
Si Si5 0.329490 0.584969 0.277029
Si Si6 0.511003 0.574604 0.836483
Si Si7 0.690994 0.424407 0.613279
Si Si8 0.266918 0.412521 0.538356
O O1 0.842021 0.250000 0.410553
O O2 0.681585 0.018558 0.286436
O O3 0.705103 0.040304 0.403186
O O4 0.000000 0.000000 0.500000
O O5 0.575774 0.250000 0.083906
O O6 0.487754 0.479133 0.100027
O O7 0.806525 0.472915 0.207186
O O8 0.500000 0.500000 0.000000
O O9 0.962546 0.750000 0.693565
O O10 0.907586 0.946172 0.587619
O O11 0.863947 0.020762 0.666444
O O12 0.177975 0.250000 0.093599
O O13 0.282925 0.472080 0.205423
O O14 0.318978 0.483383 0.114515
O O15 0.000000 0.500000 0.000000
O O16 0.263100 0.750000 0.226053
O O17 0.245449 0.538027 0.292550
O O18 0.546070 0.586689 0.401143
O O19 0.514182 0.750000 0.835305
O O20 0.500000 0.500000 0.500000
O O21 0.664917 0.250000 0.591802
O O22 0.239044 0.250000 0.551543
#
# Coordination Sequence:
#
# PCOD8072314 Si02
#       8
#     4   4   4   4   4   4   4   4
#     4  11  21  35  56  87 119 154 199 239 296 362
#     4  10  22  42  65  85 115 156 201 250 299 352
#     4  10  21  39  61  88 122 162 203 249 311 367
#     4  11  23  41  64  91 121 158 204 249 299 361
#     4  10  21  38  59  85 119 159 199 246 302 356
#     4   9  20  40  63  84 114 156 195 236 292 358
#     4  11  22  37  59  88 124 165 206 250 304 366
#     4  10  19  35  58  84 119 156 194 244 300 356
#
# _framework density 19.786809999999999
#
# number of rings (size 3 to 8) (size 9 to 14) (size 15 to 20)
#    0.000    1.750    2.500    1.875    0.000    5.000 
#    0.000    7.500    0.000    0.000    0.000    0.000 
#    0.000    0.000    0.000    0.000    0.000    0.000 
#
# Total GULP energy -396644.227180 kJ/mol
# GULP energy per Si atom -12395.132099 kJ/mol
# Density = 1.974177 g / cm^3
# Si number density = 19.786810 Si / 1000 Ang^3
#
#
#
# Elastic Constant Matrix: (Units=GPa)
#
#
# Indices 1 2 3 4 5 6 
#
# 1 135.5039 47.5095 63.3471 0.0000 -6.7301 0.0000
# 2 47.5095 65.8552 42.6698 0.0000 -2.7253 0.0000
# 3 63.3471 42.6698 133.0734 0.0000 -4.1307 0.0000
# 4 0.0000 0.0000 0.0000 34.5200 0.0000 -1.6104
# 5 -6.7301 -2.7253 -4.1307 0.0000 31.7207 0.0000
# 6 0.0000 0.0000 0.0000 -1.6104 0.0000 34.2471
#
#
#
# Elastic Compliance Matrix: (Units=1/GPa)
#
#
# Indices 1 2 3 4 5 6 
#
# 1 0.011031 -0.005712 -0.003376 0.000000 0.001410 0.000000
# 2 -0.005712 0.022148 -0.004379 0.000000 0.000121 0.000000
# 3 -0.003376 -0.004379 0.010534 0.000000 0.000279 0.000000
# 4 0.000000 0.000000 0.000000 0.029032 0.000000 0.001365
# 5 0.001410 0.000121 0.000279 0.000000 0.031871 0.000000
# 6 0.000000 0.000000 0.000000 0.001365 0.000000 0.029264
#
#
# Mechanical properties :
#
#
# Convention : Reuss Voigt Hill
#
# Bulk Modulus (GPa) = 59.59585 71.27614 65.43600
# Shear Modulus (GPa) = 30.04687 32.15796 31.10242
#
# Velocity S-wave (km/s) = 3.90106 4.03578 3.96899
# Velocity P-wave (km/s) = 7.10460 7.60374 7.35841
#
# Compressibility (1/GPa) = 0.01677969
#
# Stress axis : x y z
#
# Youngs Moduli (GPa) = 90.65545 45.15089 94.92877
#
# Poissons Ratio (x) = 0.25792 0.32044
# Poissons Ratio (y) = 0.51786 0.41566
# Poissons Ratio (z) = 0.30601 0.19770
#
# Static dielectric constant tensor:
#      x y z
#    x 0.580860 0.000000 -0.286960 
#    y 0.000000 4.285030 0.000000 
#    z -0.286960 0.000000 3.591320 
# 
# 
# High freq. dielectric constant tensor:
#      x y z
#    x 1.784630 0.000000 0.001360 
#    y 0.000000 1.755240 0.000000 
#    z 0.001360 0.000000 1.770940 
# 
# From -- ./inp_files/55729.got.cif
#   From: 2010.06.25/outbox.cif.g09.slc.cpg/sg11_28_cif.got.tgz:55729.got - 2010.06.27 23:14:04.
