data_PCOD8072348
_publ_section_title
;
Structure prediction by ZEFSAII (Michael W. Deem and Ramdas Pophale) SiO2 
 PCOD8072348
Probable space group: P 21/M
;
_chemical_formula_sum "Si O2"
_cell_formula_units_Z 28
_cell_length_a 9.709655
_cell_length_b 8.870555
_cell_length_c 28.055623
_cell_angle_alpha 90.000000
_cell_angle_beta 142.057775
_cell_angle_gamma 90.000000
_cell_volume 1485.782996
_symmetry_space_group_name_H-M "P 21/M"
_symmetry_group_IT_number 11
_symmetry_cell_setting 'monoclinic'
loop_
_space_group_symop_operation_xyz
x,y,z
-x,1/2+y,-z
-x,-y,-z
x,1/2-y,z
loop_
_atom_site_type_symbol
_atom_site_label
_atom_site_fract_x
_atom_site_fract_y
_atom_site_fract_z
Si Si1 0.328633 0.076263 0.797762
Si Si2 0.866709 0.429781 0.507871
Si Si3 0.773521 0.924289 0.952712
Si Si4 0.023063 0.428853 0.362666
Si Si5 0.644684 0.572553 0.628869
Si Si6 0.728653 0.577934 0.051084
Si Si7 0.017724 0.578121 0.213633
O O1 0.341813 0.250000 0.784952
O O2 0.194492 0.058288 0.809989
O O3 0.574986 0.012278 0.872749
O O4 0.210319 0.977541 0.724720
O O5 0.883355 0.250000 0.509561
O O6 0.609116 0.486754 0.437603
O O7 0.000000 0.500000 0.500000
O O8 0.970904 0.487701 0.585367
O O9 0.760772 0.750000 0.934252
O O10 0.777693 0.945341 0.009947
O O11 0.000000 0.000000 0.000000
O O12 0.028449 0.250000 0.371785
O O13 0.229349 0.484543 0.384956
O O14 0.651029 0.750000 0.630833
O O15 0.771658 0.517101 0.710754
O O16 0.698515 0.750000 0.058093
O O17 0.935638 0.515337 0.139746
O O18 0.500000 0.500000 0.000000
O O19 0.100082 0.750000 0.233785
#
# Coordination Sequence:
#
# PCOD8072348 Si02
#       7
#     4   4   4   4   4   4   4
#     4  10  19  35  59  85 115 148 187 234 284 340
#     4  11  23  40  59  84 118 154 190 231 283 339
#     4  11  23  38  56  80 115 156 196 238 286 339
#     4  10  20  37  62  89 114 145 187 234 284 339
#     4   9  20  37  59  86 115 146 187 234 280 336
#     4  10  20  35  57  84 112 147 190 237 285 337
#     4   9  18  33  56  86 114 142 184 235 286 335
#
# _framework density 18.845282000000001
#
# number of rings (size 3 to 8) (size 9 to 14) (size 15 to 20)
#    0.000    2.000    1.429    2.143    0.000    3.429 
#    2.571    0.000    0.000    0.000    0.000    0.000 
#    0.000    0.000    0.000    0.000    0.000    0.000 
#
# Total GULP energy -347186.970438 kJ/mol
# GULP energy per Si atom -12399.534658 kJ/mol
# Density = 1.880239 g / cm^3
# Si number density = 18.845282 Si / 1000 Ang^3
#
#
#
# Elastic Constant Matrix: (Units=GPa)
#
#
# Indices 1 2 3 4 5 6 
#
# 1 76.1390 44.1859 57.9413 0.0000 2.3587 0.0000
# 2 44.1859 58.7906 34.5524 0.0000 1.0082 0.0000
# 3 57.9413 34.5524 138.8729 0.0000 -2.0105 0.0000
# 4 0.0000 0.0000 0.0000 38.4926 0.0000 0.0710
# 5 2.3587 1.0082 -2.0105 0.0000 28.1420 0.0000
# 6 0.0000 0.0000 0.0000 0.0710 0.0000 27.0965
#
#
#
# Elastic Compliance Matrix: (Units=1/GPa)
#
#
# Indices 1 2 3 4 5 6 
#
# 1 0.029309 -0.017311 -0.007956 0.000000 -0.002405 0.000000
# 2 -0.017311 0.030179 -0.000281 0.000000 0.000350 0.000000
# 3 -0.007956 -0.000281 0.010611 0.000000 0.001435 0.000000
# 4 0.000000 0.000000 0.000000 0.025979 0.000000 -0.000068
# 5 -0.002405 0.000350 0.001435 0.000000 0.035826 0.000000
# 6 0.000000 0.000000 0.000000 -0.000068 0.000000 0.036905
#
#
# Mechanical properties :
#
#
# Convention : Reuss Voigt Hill
#
# Bulk Modulus (GPa) = 52.62360 60.79574 56.70967
# Shear Modulus (GPa) = 22.10036 27.88776 24.99406
#
# Velocity S-wave (km/s) = 3.42822 3.85103 3.64576
# Velocity P-wave (km/s) = 6.60719 7.21833 6.91951
#
# Compressibility (1/GPa) = 0.01900288
#
# Stress axis : x y z
#
# Youngs Moduli (GPa) = 34.11906 33.13524 94.24073
#
# Poissons Ratio (x) = 0.57360 0.74981
# Poissons Ratio (y) = 0.59063 0.02650
# Poissons Ratio (z) = 0.27146 0.00932
#
# Static dielectric constant tensor:
#      x y z
#    x 3.260750 0.000000 -0.043600 
#    y 0.000000 3.500670 0.000000 
#    z -0.043600 0.000000 3.682930 
# 
# 
# High freq. dielectric constant tensor:
#      x y z
#    x 1.716090 0.000000 -0.004690 
#    y 0.000000 1.735670 0.000000 
#    z -0.004690 0.000000 1.749400 
# 
# From -- ./inp_files/24157.got.cif
#   From: 2010.06.25/outbox.cif.g09.slc.cpg/sg11_13_cif.got.tgz:24157.got - 2010.06.27 23:14:04.
