data_PCOD8072292
_publ_section_title
;
Structure prediction by ZEFSAII (Michael W. Deem and Ramdas Pophale) SiO2 
 PCOD8072292
Probable space group: P 21/M
;
_chemical_formula_sum "Si O2"
_cell_formula_units_Z 32
_cell_length_a 25.920788
_cell_length_b 9.032511
_cell_length_c 20.397718
_cell_angle_alpha 90.000000
_cell_angle_beta 159.886535
_cell_angle_gamma 90.000000
_cell_volume 1642.274241
_symmetry_space_group_name_H-M "P 21/M"
_symmetry_group_IT_number 11
_symmetry_cell_setting 'monoclinic'
loop_
_space_group_symop_operation_xyz
x,y,z
-x,1/2+y,-z
-x,-y,-z
x,1/2-y,z
loop_
_atom_site_type_symbol
_atom_site_label
_atom_site_fract_x
_atom_site_fract_y
_atom_site_fract_z
Si Si1 0.203117 0.075366 0.432397
Si Si2 0.479143 0.079071 0.675356
Si Si3 0.106395 0.074362 0.935914
Si Si4 0.189382 0.917748 0.909104
Si Si5 0.588343 0.427401 0.664373
Si Si6 0.346336 0.082590 0.740643
Si Si7 0.645478 0.584747 0.104314
Si Si8 0.119010 0.585001 0.682845
O O1 0.177910 0.250000 0.391529
O O2 0.340202 0.009963 0.550962
O O3 0.234375 0.043434 0.547171
O O4 0.053950 0.988741 0.231303
O O5 0.441484 0.250000 0.628092
O O6 0.500484 0.022364 0.625884
O O7 0.636395 0.047636 0.899927
O O8 0.113979 0.250000 0.957021
O O9 0.121534 0.037322 0.877214
O O10 0.242906 0.992801 0.136101
O O11 0.179433 0.750000 0.927277
O O12 0.090279 0.928534 0.725869
O O13 0.500000 0.500000 0.500000
O O14 0.595771 0.250000 0.666760
O O15 0.409863 0.250000 0.804830
O O16 0.273938 0.076014 0.727376
O O17 0.472616 0.958715 0.897054
O O18 0.660781 0.750000 0.095484
O O19 0.718176 0.475902 0.139068
O O20 0.109393 0.750000 0.646415
O O21 0.000000 0.500000 0.500000
#
# Coordination Sequence:
#
# PCOD8072292 Si02
#       8
#     4   4   4   4   4   4   4   4
#     4  10  19  35  58  82 112 150 191 232 283 339
#     4   8  16  33  60  87 108 140 189 233 273 330
#     4  11  23  37  56  88 122 151 188 233 283 337
#     4   9  19  38  59  77 104 147 195 239 286 346
#     4  10  20  39  65  92 120 154 192 228 274 332
#     4   9  19  34  54  75 101 142 186 230 283 344
#     4  10  20  34  50  74 104 137 184 235 289 347
#     4  11  23  36  52  73 103 141 187 239 293 344
#
# _framework density 19.485174000000001
#
# number of rings (size 3 to 8) (size 9 to 14) (size 15 to 20)
#    0.000    2.250    0.000    3.750    1.750    4.000 
#    0.000    3.750    0.000    0.000    0.000    0.000 
#    0.000    0.000    0.000    0.000    0.000    0.000 
#
# Total GULP energy -396530.812260 kJ/mol
# GULP energy per Si atom -12391.587883 kJ/mol
# Density = 1.944082 g / cm^3
# Si number density = 19.485174 Si / 1000 Ang^3
#
#
#
# Elastic Constant Matrix: (Units=GPa)
#
#
# Indices 1 2 3 4 5 6 
#
# 1 55.2300 27.5819 34.9737 0.0000 -5.1575 0.0000
# 2 27.5819 97.5998 41.9718 0.0000 -9.7093 0.0000
# 3 34.9737 41.9718 103.1756 0.0000 -6.9579 0.0000
# 4 0.0000 0.0000 0.0000 33.5799 0.0000 -0.0670
# 5 -5.1575 -9.7093 -6.9579 0.0000 31.4142 0.0000
# 6 0.0000 0.0000 0.0000 -0.0670 0.0000 24.9326
#
#
#
# Elastic Compliance Matrix: (Units=1/GPa)
#
#
# Indices 1 2 3 4 5 6 
#
# 1 0.024349 -0.003924 -0.006567 0.000000 0.001330 0.000000
# 2 -0.003924 0.013291 -0.003901 0.000000 0.002600 0.000000
# 3 -0.006567 -0.003901 0.013554 0.000000 0.000718 0.000000
# 4 0.000000 0.000000 0.000000 0.029780 0.000000 0.000080
# 5 0.001330 0.002600 0.000718 0.000000 0.033014 0.000000
# 6 0.000000 0.000000 0.000000 0.000080 0.000000 0.040108
#
#
# Mechanical properties :
#
#
# Convention : Reuss Voigt Hill
#
# Bulk Modulus (GPa) = 44.62764 51.67339 48.15052
# Shear Modulus (GPa) = 26.26717 28.08387 27.17552
#
# Velocity S-wave (km/s) = 3.67558 3.80056 3.73859
# Velocity P-wave (km/s) = 6.40049 6.77022 6.58795
#
# Compressibility (1/GPa) = 0.02240764
#
# Stress axis : x y z
#
# Youngs Moduli (GPa) = 41.06954 75.23712 73.77969
#
# Poissons Ratio (x) = 0.29527 0.48454
# Poissons Ratio (y) = 0.16118 0.28784
# Poissons Ratio (z) = 0.26972 0.29352
#
# Static dielectric constant tensor:
#      x y z
#    x 4.106400 0.000000 0.081860 
#    y 0.000000 3.398460 0.000000 
#    z 0.081860 0.000000 3.501990 
# 
# 
# High freq. dielectric constant tensor:
#      x y z
#    x 1.748710 0.000000 0.003710 
#    y 0.000000 1.746370 0.000000 
#    z 0.003710 0.000000 1.755500 
# 
# From -- ./inp_files/67183.got.cif
#   From: 2010.06.25/outbox.cif.g09.slc.cpg/sg11_34_cif.got.tgz:67183.got - 2010.06.27 23:14:04.
