data_PCOD8072003
_publ_section_title
;
Structure prediction by ZEFSAII (Michael W. Deem and Ramdas Pophale) SiO2 
 PCOD8072003
Probable space group: P 21/M
;
_chemical_formula_sum "Si O2"
_cell_formula_units_Z 32
_cell_length_a 11.822934
_cell_length_b 14.446268
_cell_length_c 9.221542
_cell_angle_alpha 90.000000
_cell_angle_beta 84.439161
_cell_angle_gamma 90.000000
_cell_volume 1567.601997
_symmetry_space_group_name_H-M "P 21/M"
_symmetry_group_IT_number 11
_symmetry_cell_setting 'monoclinic'
loop_
_space_group_symop_operation_xyz
x,y,z
-x,1/2+y,-z
-x,-y,-z
x,1/2-y,z
loop_
_atom_site_type_symbol
_atom_site_label
_atom_site_fract_x
_atom_site_fract_y
_atom_site_fract_z
Si Si1 0.384665 0.395672 0.333666
Si Si2 0.866619 0.647665 0.677685
Si Si3 0.632610 0.150531 0.285860
Si Si4 0.105249 0.359159 0.659306
Si Si5 0.935114 0.477757 0.860737
Si Si6 0.729568 0.351219 0.959849
Si Si7 0.467029 0.944447 0.147410
Si Si8 0.659845 0.946689 0.343523
O O1 0.270156 0.346783 0.294112
O O2 0.497835 0.342692 0.267104
O O3 0.387669 0.497553 0.266200
O O4 0.387688 0.397972 0.507552
O O5 0.913011 0.750000 0.712390
O O6 0.904544 0.620638 0.510611
O O7 0.921153 0.574759 0.779965
O O8 0.666642 0.250000 0.355937
O O9 0.659961 0.058261 0.374810
O O10 0.704062 0.138865 0.131845
O O11 0.111589 0.250000 0.690944
O O12 0.215668 0.409961 0.710079
O O13 0.998664 0.403446 0.753104
O O14 0.813112 0.433918 0.908117
O O15 0.000000 0.500000 0.000000
O O16 0.782190 0.250000 0.919726
O O17 0.610741 0.357715 0.886564
O O18 0.581908 0.916694 0.217295
O O19 0.500000 0.000000 0.000000
#
# Coordination Sequence:
#
# PCOD8072003 Si02
#       8
#     4   4   4   4   4   4   4   4
#     4  10  19  36  61  89 123 157 197 252 299 357
#     4  10  22  41  67  93 118 159 210 252 306 369
#     4  10  19  34  56  86 125 165 196 231 294 363
#     4  10  23  44  67  89 120 162 206 258 308 361
#     4  12  25  42  66  89 125 161 205 261 312 361
#     4  11  23  38  58  89 124 162 199 244 302 364
#     4  11  19  35  60  84 126 163 197 239 305 360
#     4  10  21  37  62  92 121 155 202 253 303 355
#
# _framework density 20.413345
#
# number of rings (size 3 to 8) (size 9 to 14) (size 15 to 20)
#    0.000    1.500    3.750    3.375    0.000    2.000 
#    0.000    2.500    0.000    0.000    0.000    0.000 
#    0.000    0.000    0.000    0.000    0.000    0.000 
#
# Total GULP energy -396643.112129 kJ/mol
# GULP energy per Si atom -12395.097254 kJ/mol
# Density = 2.036688 g / cm^3
# Si number density = 20.413345 Si / 1000 Ang^3
#
#
#
# Elastic Constant Matrix: (Units=GPa)
#
#
# Indices 1 2 3 4 5 6 
#
# 1 91.4314 49.4464 44.7254 0.0000 -0.2353 0.0000
# 2 49.4464 122.9747 29.0772 0.0000 12.0284 0.0000
# 3 44.7254 29.0772 81.0550 0.0000 9.6808 0.0000
# 4 0.0000 0.0000 0.0000 22.8965 0.0000 3.0941
# 5 -0.2353 12.0284 9.6808 0.0000 37.1521 0.0000
# 6 0.0000 0.0000 0.0000 3.0941 0.0000 14.7524
#
#
#
# Elastic Compliance Matrix: (Units=1/GPa)
#
#
# Indices 1 2 3 4 5 6 
#
# 1 0.018190 -0.005716 -0.008485 0.000000 0.004177 0.000000
# 2 -0.005716 0.010845 -0.000323 0.000000 -0.003463 0.000000
# 3 -0.008485 -0.000323 0.017679 0.000000 -0.004556 0.000000
# 4 0.000000 0.000000 0.000000 0.044949 0.000000 -0.009427
# 5 0.004177 -0.003463 -0.004556 0.000000 0.029251 0.000000
# 6 0.000000 0.000000 0.000000 -0.009427 0.000000 0.069763
#
#
# Mechanical properties :
#
#
# Convention : Reuss Voigt Hill
#
# Bulk Modulus (GPa) = 56.60593 60.21768 58.41180
# Shear Modulus (GPa) = 22.16168 26.44101 24.30134
#
# Velocity S-wave (km/s) = 3.29849 3.60291 3.45405
# Velocity P-wave (km/s) = 6.50360 6.84625 6.67712
#
# Compressibility (1/GPa) = 0.01766599
#
# Stress axis : x y z
#
# Youngs Moduli (GPa) = 54.97529 92.20660 56.56310
#
# Poissons Ratio (x) = 0.52707 0.47996
# Poissons Ratio (y) = 0.31425 0.01826
# Poissons Ratio (z) = 0.46648 0.02976
#
# Static dielectric constant tensor:
#      x y z
#    x 3.662910 0.000000 -0.113780 
#    y 0.000000 3.863010 0.000000 
#    z -0.113780 0.000000 3.667680 
# 
# 
# High freq. dielectric constant tensor:
#      x y z
#    x 1.794180 0.000000 -0.014910 
#    y 0.000000 1.801890 0.000000 
#    z -0.014910 0.000000 1.792300 
# 
# From -- ./inp_files/18087.got.cif
#   From: 2010.06.25/outbox.cif.g09.slc.cpg/sg11_10_cif.got.tgz:18087.got - 2010.06.27 23:14:04.
