data_PCOD8072369
_publ_section_title
;
Structure prediction by ZEFSAII (Michael W. Deem and Ramdas Pophale) SiO2 
 PCOD8072369
Probable space group: P 21/M
;
_chemical_formula_sum "Si O2"
_cell_formula_units_Z 20
_cell_length_a 21.025434
_cell_length_b 8.787750
_cell_length_c 7.748078
_cell_angle_alpha 90.000000
_cell_angle_beta 42.898272
_cell_angle_gamma 90.000000
_cell_volume 974.477051
_symmetry_space_group_name_H-M "P 21/M"
_symmetry_group_IT_number 11
_symmetry_cell_setting 'monoclinic'
loop_
_space_group_symop_operation_xyz
x,y,z
-x,1/2+y,-z
-x,-y,-z
x,1/2-y,z
loop_
_atom_site_type_symbol
_atom_site_label
_atom_site_fract_x
_atom_site_fract_y
_atom_site_fract_z
Si Si1 0.398310 0.569852 0.206893
Si Si2 0.087057 0.924478 0.627497
Si Si3 0.713227 0.072231 0.908386
Si Si4 0.101714 0.925653 0.997782
Si Si5 0.714255 0.928128 0.257943
O O1 0.404762 0.750000 0.200421
O O2 0.343065 0.515374 0.146813
O O3 0.344485 0.515089 0.482101
O O4 0.500000 0.500000 0.000000
O O5 0.055832 0.750000 0.671131
O O6 0.176954 0.962017 0.334384
O O7 0.112907 0.960133 0.773507
O O8 0.001806 0.029015 0.732596
O O9 0.695887 0.250000 0.975469
O O10 0.676385 0.977695 0.145375
O O11 0.119991 0.750000 0.006361
O O12 0.177188 0.026474 0.947138
O O13 0.700510 0.750000 0.310914
#
# Coordination Sequence:
#
# PCOD8072369 Si02
#       5
#     4   4   4   4   4
#     4  11  24  46  71  95 123 160 203 257 318 372
#     4   9  18  35  59  89 122 163 210 256 306 362
#     4  10  22  42  66  91 125 165 208 256 308 366
#     4  10  19  35  59  89 125 167 209 255 307 362
#     4  12  25  40  63  95 128 165 209 255 307 370
#
# _framework density 20.523828000000002
#
# number of rings (size 3 to 8) (size 9 to 14) (size 15 to 20)
#    0.000    1.600    2.000    3.000    0.000    4.800 
#    0.000    0.000    0.000    0.000    0.000    0.000 
#    0.000    0.000    0.000    0.000    0.000    0.000 
#
# Total GULP energy -248099.231395 kJ/mol
# GULP energy per Si atom -12404.961570 kJ/mol
# Density = 2.047711 g / cm^3
# Si number density = 20.523828 Si / 1000 Ang^3
#
#
#
# Elastic Constant Matrix: (Units=GPa)
#
#
# Indices 1 2 3 4 5 6 
#
# 1 87.1051 41.4743 75.9055 0.0000 14.8209 0.0000
# 2 41.4743 80.0176 38.2817 0.0000 3.8755 0.0000
# 3 75.9055 38.2817 91.5877 0.0000 2.6178 0.0000
# 4 0.0000 0.0000 0.0000 37.6460 0.0000 -3.9427
# 5 14.8209 3.8755 2.6178 0.0000 31.5807 0.0000
# 6 0.0000 0.0000 0.0000 -3.9427 0.0000 29.8098
#
#
#
# Elastic Compliance Matrix: (Units=1/GPa)
#
#
# Indices 1 2 3 4 5 6 
#
# 1 0.055716 -0.007540 -0.042403 0.000000 -0.021707 0.000000
# 2 -0.007540 0.016702 -0.000776 0.000000 0.001553 0.000000
# 3 -0.042403 -0.000776 0.045923 0.000000 0.016189 0.000000
# 4 0.000000 0.000000 0.000000 0.026936 0.000000 0.003563
# 5 -0.021707 0.001553 0.016189 0.000000 0.040320 0.000000
# 6 0.000000 0.000000 0.000000 0.003563 0.000000 0.034017
#
#
# Mechanical properties :
#
#
# Convention : Reuss Voigt Hill
#
# Bulk Modulus (GPa) = 59.17002 63.33702 61.25352
# Shear Modulus (GPa) = 15.30518 26.67721 20.99120
#
# Velocity S-wave (km/s) = 2.73376 3.60921 3.20155
# Velocity P-wave (km/s) = 6.23355 6.94951 6.60124
#
# Compressibility (1/GPa) = 0.01690045
#
# Stress axis : x y z
#
# Youngs Moduli (GPa) = 17.94830 59.87464 21.77554
#
# Poissons Ratio (x) = 0.45148 0.92336
# Poissons Ratio (y) = 0.13534 0.01690
# Poissons Ratio (z) = 0.76107 0.04647
#
# Static dielectric constant tensor:
#      x y z
#    x 3.794710 0.000000 0.026060 
#    y 0.000000 3.670840 0.000000 
#    z 0.026060 0.000000 3.653600 
# 
# 
# High freq. dielectric constant tensor:
#      x y z
#    x 1.806350 0.000000 0.003400 
#    y 0.000000 1.799240 0.000000 
#    z 0.003400 0.000000 1.803620 
# 
# From -- ./inp_files/23911.got.cif
#   From: 2010.06.25/outbox.cif.g09.slc.cpg/sg11_12_cif.got.tgz:23911.got - 2010.06.27 23:14:04.
