data_PCOD8072388
_publ_section_title
;
Structure prediction by ZEFSAII (Michael W. Deem and Ramdas Pophale) SiO2 
 PCOD8072388
Probable space group: P 21/M
;
_chemical_formula_sum "Si O2"
_cell_formula_units_Z 28
_cell_length_a 9.877218
_cell_length_b 8.576540
_cell_length_c 28.189915
_cell_angle_alpha 90.000000
_cell_angle_beta 142.811855
_cell_angle_gamma 90.000000
_cell_volume 1443.409699
_symmetry_space_group_name_H-M "P 21/M"
_symmetry_group_IT_number 11
_symmetry_cell_setting 'monoclinic'
loop_
_space_group_symop_operation_xyz
x,y,z
-x,1/2+y,-z
-x,-y,-z
x,1/2-y,z
loop_
_atom_site_type_symbol
_atom_site_label
_atom_site_fract_x
_atom_site_fract_y
_atom_site_fract_z
Si Si1 0.811139 0.928277 0.296631
Si Si2 0.711905 0.430880 0.534253
Si Si3 0.764168 0.568425 0.448443
Si Si4 0.464360 0.932850 0.699140
Si Si5 0.140092 0.433445 0.124991
Si Si6 0.360447 0.566258 0.005030
Si Si7 0.534505 0.567585 0.866441
O O1 0.746324 0.750000 0.267864
O O2 0.077888 0.952254 0.371687
O O3 0.723623 0.975411 0.324004
O O4 0.700770 0.036397 0.225554
O O5 0.500000 0.500000 0.500000
O O6 0.683075 0.250000 0.512092
O O7 0.732859 0.537499 0.494430
O O8 0.757339 0.750000 0.435363
O O9 0.563195 0.485308 0.362922
O O10 0.000000 0.500000 0.500000
O O11 0.421571 0.750000 0.693414
O O12 0.710564 0.978081 0.787492
O O13 0.118908 0.250000 0.113776
O O14 0.262305 0.494628 0.110838
O O15 0.892721 0.505237 0.063800
O O16 0.353526 0.750000 0.996676
O O17 0.474655 0.523135 0.086600
O O18 0.500000 0.500000 0.000000
O O19 0.558526 0.750000 0.883386
#
# Coordination Sequence:
#
# PCOD8072388 Si02
#       7
#     4   4   4   4   4   4   4
#     4  10  20  36  59  87 118 151 192 241 290 346
#     4  11  24  41  60  85 119 157 200 245 296 353
#     4  12  23  37  60  88 119 157 199 245 295 348
#     4  10  19  35  60  89 117 149 193 245 295 345
#     4   8  18  36  60  87 115 147 190 238 285 340
#     4  11  22  39  59  84 119 155 190 234 286 347
#     4  10  20  37  62  89 113 147 192 239 290 346
#
# _framework density 19.398513000000001
#
# number of rings (size 3 to 8) (size 9 to 14) (size 15 to 20)
#    0.000    1.714    1.429    4.714    0.000    1.714 
#    2.571    7.857    0.000    0.000    0.000    0.000 
#    0.000    0.000    0.000    0.000    0.000    0.000 
#
# Total GULP energy -347193.163914 kJ/mol
# GULP energy per Si atom -12399.755854 kJ/mol
# Density = 1.935436 g / cm^3
# Si number density = 19.398513 Si / 1000 Ang^3
#
#
#
# Elastic Constant Matrix: (Units=GPa)
#
#
# Indices 1 2 3 4 5 6 
#
# 1 120.8832 26.5521 61.5897 0.0000 1.0327 0.0000
# 2 26.5521 64.6291 31.4459 0.0000 5.9037 0.0000
# 3 61.5897 31.4459 117.0921 0.0000 -3.5486 0.0000
# 4 0.0000 0.0000 0.0000 31.0604 0.0000 -5.1771
# 5 1.0327 5.9037 -3.5486 0.0000 30.7653 0.0000
# 6 0.0000 0.0000 0.0000 -5.1771 0.0000 31.0265
#
#
#
# Elastic Compliance Matrix: (Units=1/GPa)
#
#
# Indices 1 2 3 4 5 6 
#
# 1 0.011546 -0.001978 -0.005562 0.000000 -0.000649 0.000000
# 2 -0.001978 0.018637 -0.004085 0.000000 -0.003981 0.000000
# 3 -0.005562 -0.004085 0.012636 0.000000 0.002428 0.000000
# 4 0.000000 0.000000 0.000000 0.033116 0.000000 0.005526
# 5 -0.000649 -0.003981 0.002428 0.000000 0.033570 0.000000
# 6 0.000000 0.000000 0.000000 0.005526 0.000000 0.033153
#
#
# Mechanical properties :
#
#
# Convention : Reuss Voigt Hill
#
# Bulk Modulus (GPa) = 51.10019 60.19776 55.64898
# Shear Modulus (GPa) = 28.99700 30.77156 29.88428
#
# Velocity S-wave (km/s) = 3.87047 3.98714 3.92924
# Velocity P-wave (km/s) = 6.80981 7.23159 7.02387
#
# Compressibility (1/GPa) = 0.01956940
#
# Stress axis : x y z
#
# Youngs Moduli (GPa) = 86.60908 53.65670 79.13668
#
# Poissons Ratio (x) = 0.10614 0.44013
# Poissons Ratio (y) = 0.17133 0.32329
# Poissons Ratio (z) = 0.48169 0.21920
#
# Static dielectric constant tensor:
#      x y z
#    x 3.366490 0.000000 0.084480 
#    y 0.000000 3.508940 0.000000 
#    z 0.084480 0.000000 3.785320 
# 
# 
# High freq. dielectric constant tensor:
#      x y z
#    x 1.735080 0.000000 -0.004360 
#    y 0.000000 1.756580 0.000000 
#    z -0.004360 0.000000 1.769090 
# 
# From -- ./inp_files/66872.got.cif
#   From: 2010.06.25/outbox.cif.g09.slc.cpg/sg11_34_cif.got.tgz:66872.got - 2010.06.27 23:14:04.
