data_PCOD8072022
_publ_section_title
;
Structure prediction by ZEFSAII (Michael W. Deem and Ramdas Pophale) SiO2 
 PCOD8072022
Probable space group: P 21/M
;
_chemical_formula_sum "Si O2"
_cell_formula_units_Z 32
_cell_length_a 19.393656
_cell_length_b 14.240423
_cell_length_c 14.684638
_cell_angle_alpha 90.000000
_cell_angle_beta 22.951318
_cell_angle_gamma 90.000000
_cell_volume 1581.442803
_symmetry_space_group_name_H-M "P 21/M"
_symmetry_group_IT_number 11
_symmetry_cell_setting 'monoclinic'
loop_
_space_group_symop_operation_xyz
x,y,z
-x,1/2+y,-z
-x,-y,-z
x,1/2-y,z
loop_
_atom_site_type_symbol
_atom_site_label
_atom_site_fract_x
_atom_site_fract_y
_atom_site_fract_z
Si Si1 0.174311 0.857785 0.494456
Si Si2 0.871690 0.357184 0.839419
Si Si3 0.213808 0.356975 0.523330
Si Si4 0.584675 0.006315 0.247636
Si Si5 0.838641 0.067760 0.684212
Si Si6 0.163554 0.142243 0.980574
Si Si7 0.727776 0.643396 0.345170
Si Si8 0.487684 0.990256 0.165985
O O1 0.207066 0.750000 0.478383
O O2 0.126689 0.869544 0.446577
O O3 0.357679 0.910110 0.289478
O O4 0.011810 0.896348 0.754398
O O5 0.857469 0.250000 0.887178
O O6 0.835543 0.365303 0.775959
O O7 0.061499 0.397073 0.642085
O O8 0.729615 0.412920 0.069311
O O9 0.252418 0.250000 0.452423
O O10 0.167121 0.371381 0.687449
O O11 0.393924 0.409134 0.281100
O O12 0.413749 0.059005 0.496571
O O13 0.548482 0.962261 0.192855
O O14 0.660478 0.918786 0.212731
O O15 0.660019 0.004622 0.892557
O O16 0.000000 0.000000 0.500000
O O17 0.198925 0.250000 0.968018
O O18 0.134733 0.136045 0.906244
O O19 0.643579 0.750000 0.448111
#
# Coordination Sequence:
#
# PCOD8072022 Si02
#       8
#     4   4   4   4   4   4   4   4
#     4  11  23  39  57  80 113 154 191 224 267 326
#     4  10  20  35  57  85 112 139 176 228 281 332
#     4   9  18  34  58  85 112 139 176 228 284 330
#     4  10  19  34  57  82 111 145 185 231 281 326
#     4  11  22  38  59  82 110 144 181 227 280 333
#     4  10  21  37  56  78 112 153 191 227 269 327
#     4   9  18  34  56  84 114 147 184 228 281 332
#     4  10  21  37  57  80 108 141 181 231 277 324
#
# _framework density 20.234687000000001
#
# number of rings (size 3 to 8) (size 9 to 14) (size 15 to 20)
#    0.000    2.000    0.000    4.500    0.000    4.000 
#    0.000    9.375    0.000    3.000    0.000    0.000 
#    0.000    0.000    0.000    0.000    0.000    0.000 
#
# Total GULP energy -396679.092348 kJ/mol
# GULP energy per Si atom -12396.221636 kJ/mol
# Density = 2.018863 g / cm^3
# Si number density = 20.234687 Si / 1000 Ang^3
#
#
#
# Elastic Constant Matrix: (Units=GPa)
#
#
# Indices 1 2 3 4 5 6 
#
# 1 78.3667 30.8840 43.9889 0.0000 -8.9630 0.0000
# 2 30.8840 72.9935 29.4411 0.0000 -3.4593 0.0000
# 3 43.9889 29.4411 103.7865 0.0000 4.8872 0.0000
# 4 0.0000 0.0000 0.0000 23.4767 0.0000 -5.6932
# 5 -8.9630 -3.4593 4.8872 0.0000 31.5981 0.0000
# 6 0.0000 0.0000 0.0000 -5.6932 0.0000 27.3717
#
#
#
# Elastic Compliance Matrix: (Units=1/GPa)
#
#
# Indices 1 2 3 4 5 6 
#
# 1 0.019427 -0.005078 -0.007078 0.000000 0.006049 0.000000
# 2 -0.005078 0.016978 -0.002703 0.000000 0.000836 0.000000
# 3 -0.007078 -0.002703 0.013610 0.000000 -0.004409 0.000000
# 4 0.000000 0.000000 0.000000 0.044858 0.000000 0.009330
# 5 0.006049 0.000836 -0.004409 0.000000 0.034137 0.000000
# 6 0.000000 0.000000 0.000000 0.009330 0.000000 0.038475
#
#
# Mechanical properties :
#
#
# Convention : Reuss Voigt Hill
#
# Bulk Modulus (GPa) = 49.27170 51.53054 50.40112
# Shear Modulus (GPa) = 24.51352 26.54480 25.52916
#
# Velocity S-wave (km/s) = 3.48438 3.62587 3.55583
# Velocity P-wave (km/s) = 6.37109 6.56132 6.46691
#
# Compressibility (1/GPa) = 0.02029563
#
# Stress axis : x y z
#
# Youngs Moduli (GPa) = 51.47532 58.89833 73.47713
#
# Poissons Ratio (x) = 0.29908 0.52009
# Poissons Ratio (y) = 0.26139 0.19864
# Poissons Ratio (z) = 0.36435 0.15923
#
# Static dielectric constant tensor:
#      x y z
#    x 4.668870 0.000000 0.214040 
#    y 0.000000 3.593900 0.000000 
#    z 0.214040 0.000000 3.705450 
# 
# 
# High freq. dielectric constant tensor:
#      x y z
#    x 1.795300 0.000000 0.003740 
#    y 0.000000 1.790850 0.000000 
#    z 0.003740 0.000000 1.779660 
# 
# From -- ./inp_files/54990.got.cif
#   From: 2010.06.25/outbox.cif.g09.slc.cpg/sg11_28_cif.got.tgz:54990.got - 2010.06.27 23:14:04.
