data_PCOD8072732
_publ_section_title
;
Structure prediction by ZEFSAII (Michael W. Deem and Ramdas Pophale) SiO2 
 PCOD8072732
Probable space group: P 21/M
;
_chemical_formula_sum "Si O2"
_cell_formula_units_Z 24
_cell_length_a 16.349468
_cell_length_b 13.806010
_cell_length_c 10.930435
_cell_angle_alpha 90.000000
_cell_angle_beta 30.364678
_cell_angle_gamma 90.000000
_cell_volume 1247.188457
_symmetry_space_group_name_H-M "P 21/M"
_symmetry_group_IT_number 11
_symmetry_cell_setting 'monoclinic'
loop_
_space_group_symop_operation_xyz
x,y,z
-x,1/2+y,-z
-x,-y,-z
x,1/2-y,z
loop_
_atom_site_type_symbol
_atom_site_label
_atom_site_fract_x
_atom_site_fract_y
_atom_site_fract_z
Si Si1 0.424012 0.858366 0.401728
Si Si2 0.178634 0.030587 0.739960
Si Si3 0.874220 0.012958 0.770097
Si Si4 0.752123 0.860230 0.110340
Si Si5 0.876583 0.637807 0.436154
Si Si6 0.611677 0.945436 0.950253
O O1 0.350766 0.750000 0.502975
O O2 0.564333 0.872212 0.320039
O O3 0.283989 0.933819 0.610604
O O4 0.498019 0.872770 0.171354
O O5 0.236995 0.107767 0.763727
O O6 0.191557 0.078754 0.590786
O O7 0.000000 0.000000 0.000000
O O8 0.940103 0.104484 0.763360
O O9 0.697253 0.023141 0.933949
O O10 0.000000 0.000000 0.500000
O O11 0.868211 0.921928 0.870777
O O12 0.811142 0.750000 0.020588
O O13 0.885337 0.750000 0.392168
O O14 0.751117 0.618633 0.707727
O O15 0.500000 0.000000 0.000000
#
# Coordination Sequence:
#
# PCOD8072732 Si02
#       6
#     4   4   4   4   4   4
#     4  10  22  40  64  88 117 157 204 254 304 361
#     4  12  23  39  60  88 126 161 199 247 299 359
#     4   9  20  37  60  88 120 156 194 245 299 348
#     4  10  21  40  63  88 118 161 204 242 302 363
#     4  11  22  39  60  88 125 164 201 246 302 360
#     4  10  19  39  67  87 119 154 202 259 306 347
#
# _framework density 19.243283000000002
#
# number of rings (size 3 to 8) (size 9 to 14) (size 15 to 20)
#    0.000    1.667    3.333    1.500    0.000    5.333 
#    0.000    1.667    0.000    0.000    0.000    0.000 
#    0.000    0.000    0.000    0.000    0.000    0.000 
#
# Total GULP energy -297514.026850 kJ/mol
# GULP energy per Si atom -12396.417785 kJ/mol
# Density = 1.919948 g / cm^3
# Si number density = 19.243283 Si / 1000 Ang^3
#
#
#
# Elastic Constant Matrix: (Units=GPa)
#
#
# Indices 1 2 3 4 5 6 
#
# 1 116.0130 43.4471 20.9300 0.0000 -2.2524 0.0000
# 2 43.4471 120.1527 42.8476 0.0000 -16.3459 0.0000
# 3 20.9300 42.8476 85.7419 0.0000 0.0898 0.0000
# 4 0.0000 0.0000 0.0000 33.9114 0.0000 -1.6503
# 5 -2.2524 -16.3459 0.0898 0.0000 27.0619 0.0000
# 6 0.0000 0.0000 0.0000 -1.6503 0.0000 25.3404
#
#
#
# Elastic Compliance Matrix: (Units=1/GPa)
#
#
# Indices 1 2 3 4 5 6 
#
# 1 0.010054 -0.003578 -0.000665 0.000000 -0.001322 0.000000
# 2 -0.003578 0.012533 -0.005397 0.000000 0.007290 0.000000
# 3 -0.000665 -0.005397 0.014526 0.000000 -0.003364 0.000000
# 4 0.000000 0.000000 0.000000 0.029582 0.000000 0.001927
# 5 -0.001322 0.007290 -0.003364 0.000000 0.041257 0.000000
# 6 0.000000 0.000000 0.000000 0.001927 0.000000 0.039588
#
#
# Mechanical properties :
#
#
# Convention : Reuss Voigt Hill
#
# Bulk Modulus (GPa) = 56.07765 59.59521 57.83643
# Shear Modulus (GPa) = 28.94096 31.57494 30.25795
#
# Velocity S-wave (km/s) = 3.88229 4.05511 3.96964
# Velocity P-wave (km/s) = 7.02146 7.27749 7.15062
#
# Compressibility (1/GPa) = 0.01783242
#
# Stress axis : x y z
#
# Youngs Moduli (GPa) = 99.46200 79.78779 68.84277
#
# Poissons Ratio (x) = 0.28552 0.04575
# Poissons Ratio (y) = 0.35592 0.37157
# Poissons Ratio (z) = 0.06610 0.43064
#
# Static dielectric constant tensor:
#      x y z
#    x 3.664400 0.000000 -0.162390 
#    y 0.000000 3.606140 0.000000 
#    z -0.162390 0.000000 3.446000 
# 
# 
# High freq. dielectric constant tensor:
#      x y z
#    x 1.770480 0.000000 0.005300 
#    y 0.000000 1.734740 0.000000 
#    z 0.005300 0.000000 1.745870 
# 
# From -- ./inp_files/17021.got.cif
#   From: 2010.06.25/outbox.cif.g09.slc.cpg/sg11_9_cif.got.tgz:17021.got - 2010.06.27 23:14:04.
