data_PCOD8072942
_publ_section_title
;
Structure prediction by ZEFSAII (Michael W. Deem and Ramdas Pophale) SiO2 
 PCOD8072942
Probable space group: P 21/M
;
_chemical_formula_sum "Si O2"
_cell_formula_units_Z 28
_cell_length_a 11.981497
_cell_length_b 9.000485
_cell_length_c 16.452892
_cell_angle_alpha 90.000000
_cell_angle_beta 122.686939
_cell_angle_gamma 90.000000
_cell_volume 1493.284196
_symmetry_space_group_name_H-M "P 21/M"
_symmetry_group_IT_number 11
_symmetry_cell_setting 'monoclinic'
loop_
_space_group_symop_operation_xyz
x,y,z
-x,1/2+y,-z
-x,-y,-z
x,1/2-y,z
loop_
_atom_site_type_symbol
_atom_site_label
_atom_site_fract_x
_atom_site_fract_y
_atom_site_fract_z
Si Si1 0.036872 0.073585 0.257979
Si Si2 0.744932 0.079477 0.181509
Si Si3 0.481453 0.076694 0.615812
Si Si4 0.708503 0.423440 0.579555
Si Si5 0.332630 0.417645 0.002422
Si Si6 0.028763 0.419737 0.928101
Si Si7 0.472581 0.922801 0.782004
O O1 0.050988 0.250000 0.258837
O O2 0.896632 0.021328 0.242515
O O3 0.152544 0.007888 0.358998
O O4 0.050518 0.005454 0.173519
O O5 0.746927 0.250000 0.157437
O O6 0.677159 0.054410 0.242704
O O7 0.653567 0.003799 0.076913
O O8 0.445701 0.250000 0.598509
O O9 0.618957 0.044128 0.623485
O O10 0.363099 0.984576 0.528694
O O11 0.496907 0.023688 0.713755
O O12 0.735573 0.250000 0.578330
O O13 0.376579 0.250000 0.001936
O O14 0.183925 0.429134 0.975032
O O15 0.426637 0.482505 0.109671
O O16 0.978310 0.250000 0.910733
O O17 0.000000 0.500000 0.000000
O O18 0.499222 0.750000 0.771012
#
# Coordination Sequence:
#
# PCOD8072942 Si02
#       7
#     4   4   4   4   4   4   4
#     4  10  20  35  56  79 106 144 181 220 269 321
#     4   9  19  35  54  79 110 145 183 221 265 316
#     4  10  22  38  57  84 109 136 176 222 271 325
#     4  10  21  39  60  82 108 139 175 221 274 326
#     4   9  19  33  51  76 107 145 184 221 267 315
#     4  10  20  33  48  75 110 144 183 225 267 318
#     4  10  20  35  55  80 111 144 180 224 270 316
#
# _framework density 18.750616999999998
#
# number of rings (size 3 to 8) (size 9 to 14) (size 15 to 20)
#    0.000    2.286    0.000    2.143    2.000    4.000 
#    0.000    0.714    0.000    0.000    0.000    0.000 
#    0.000    0.000    0.000    0.000    0.000    0.000 
#
# Total GULP energy -347249.451197 kJ/mol
# GULP energy per Si atom -12401.766114 kJ/mol
# Density = 1.870794 g / cm^3
# Si number density = 18.750617 Si / 1000 Ang^3
#
#
#
# Elastic Constant Matrix: (Units=GPa)
#
#
# Indices 1 2 3 4 5 6 
#
# 1 47.5110 28.5506 41.8917 0.0000 2.7575 0.0000
# 2 28.5506 83.4885 39.8285 0.0000 2.7542 0.0000
# 3 41.8917 39.8285 94.0797 0.0000 9.1535 0.0000
# 4 0.0000 0.0000 0.0000 39.5903 0.0000 -0.9379
# 5 2.7575 2.7542 9.1535 0.0000 31.4875 0.0000
# 6 0.0000 0.0000 0.0000 -0.9379 0.0000 23.6783
#
#
#
# Elastic Compliance Matrix: (Units=1/GPa)
#
#
# Indices 1 2 3 4 5 6 
#
# 1 0.036956 -0.005976 -0.014059 0.000000 0.001373 0.000000
# 2 -0.005976 0.015985 -0.004138 0.000000 0.000328 0.000000
# 3 -0.014059 -0.004138 0.019024 0.000000 -0.003937 0.000000
# 4 0.000000 0.000000 0.000000 0.025282 0.000000 0.001001
# 5 0.001373 0.000328 -0.003937 0.000000 0.032754 0.000000
# 6 0.000000 0.000000 0.000000 0.001001 0.000000 0.042272
#
#
# Mechanical properties :
#
#
# Convention : Reuss Voigt Hill
#
# Bulk Modulus (GPa) = 42.34031 49.51342 45.92686
# Shear Modulus (GPa) = 21.88254 26.60512 24.24383
#
# Velocity S-wave (km/s) = 3.41989 3.77091 3.59968
# Velocity P-wave (km/s) = 6.18255 6.73968 6.46712
#
# Compressibility (1/GPa) = 0.02361815
#
# Stress axis : x y z
#
# Youngs Moduli (GPa) = 27.05952 62.56050 52.56404
#
# Poissons Ratio (x) = 0.37386 0.73901
# Poissons Ratio (y) = 0.16171 0.21751
# Poissons Ratio (z) = 0.38044 0.25887
#
# Static dielectric constant tensor:
#      x y z
#    x 3.274640 0.000000 0.032690 
#    y 0.000000 3.561470 0.000000 
#    z 0.032690 0.000000 3.315060 
# 
# 
# High freq. dielectric constant tensor:
#      x y z
#    x 1.728920 0.000000 0.006610 
#    y 0.000000 1.733210 0.000000 
#    z 0.006610 0.000000 1.720410 
# 
# From -- ./inp_files/37919.got.cif
#   From: 2010.06.25/outbox.cif.g09.slc.cpg/sg11_19_cif.got.tgz:37919.got - 2010.06.27 23:14:04.
