data_PCOD8072918
_publ_section_title
;
Structure prediction by ZEFSAII (Michael W. Deem and Ramdas Pophale) SiO2 
 PCOD8072918
Probable space group: P 21/M
;
_chemical_formula_sum "Si O2"
_cell_formula_units_Z 32
_cell_length_a 22.768878
_cell_length_b 9.056570
_cell_length_c 16.921781
_cell_angle_alpha 90.000000
_cell_angle_beta 30.992771
_cell_angle_gamma 90.000000
_cell_volume 1796.799332
_symmetry_space_group_name_H-M "P 21/M"
_symmetry_group_IT_number 11
_symmetry_cell_setting 'monoclinic'
loop_
_space_group_symop_operation_xyz
x,y,z
-x,1/2+y,-z
-x,-y,-z
x,1/2-y,z
loop_
_atom_site_type_symbol
_atom_site_label
_atom_site_fract_x
_atom_site_fract_y
_atom_site_fract_z
Si Si1 0.099527 0.918909 0.840096
Si Si2 0.686973 0.421845 0.132648
Si Si3 0.867978 0.074849 0.488669
Si Si4 0.218790 0.425798 0.564645
Si Si5 0.866949 0.918430 0.817756
Si Si6 0.564719 0.579317 0.587431
Si Si7 0.119185 0.078316 0.372909
Si Si8 0.328409 0.916946 0.673738
O O1 0.066290 0.750000 0.857770
O O2 0.206969 0.925245 0.772665
O O3 0.122293 0.007698 0.733140
O O4 0.000000 0.000000 0.000000
O O5 0.714167 0.250000 0.105429
O O6 0.563767 0.453308 0.233931
O O7 0.683831 0.487757 0.225069
O O8 0.788894 0.490484 0.966148
O O9 0.850432 0.250000 0.509620
O O10 0.001236 0.030416 0.326721
O O11 0.794412 0.001145 0.504753
O O12 0.816976 0.005919 0.629126
O O13 0.204119 0.250000 0.575350
O O14 0.343953 0.473565 0.452495
O O15 0.858411 0.750000 0.854084
O O16 0.818765 0.938456 0.783701
O O17 0.584274 0.750000 0.548034
O O18 0.580073 0.503035 0.484694
O O19 0.102440 0.250000 0.413754
O O20 0.000000 0.000000 0.500000
O O21 0.373002 0.750000 0.629670
#
# Coordination Sequence:
#
# PCOD8072918 Si02
#       8
#     4   4   4   4   4   4   4   4
#     4  10  20  33  47  68 101 136 170 210 254 300
#     4  10  20  33  51  75 102 131 167 212 254 298
#     4  10  20  34  53  79 106 132 168 209 250 306
#     4  10  20  34  52  73  98 133 172 209 254 302
#     4   9  20  34  49  76 107 132 161 199 250 302
#     4   9  19  35  52  72  98 131 172 213 254 298
#     4   9  17  32  52  75 105 137 167 203 249 303
#     4   9  19  33  49  71  96 129 173 213 251 298
#
# _framework density 17.809445
#
# number of rings (size 3 to 8) (size 9 to 14) (size 15 to 20)
#    0.000    2.500    0.000    2.625    1.750    5.000 
#    0.000    0.000    0.000    0.750    0.000    0.000 
#    0.000    0.000    0.000    0.000    0.000    0.000 
#
# Total GULP energy -396683.569853 kJ/mol
# GULP energy per Si atom -12396.361558 kJ/mol
# Density = 1.776891 g / cm^3
# Si number density = 17.809445 Si / 1000 Ang^3
#
#
#
# Elastic Constant Matrix: (Units=GPa)
#
#
# Indices 1 2 3 4 5 6 
#
# 1 108.7261 39.8192 25.2368 0.0000 21.5406 0.0000
# 2 39.8192 79.1630 25.7717 0.0000 7.7191 0.0000
# 3 25.2368 25.7717 51.2020 0.0000 6.2325 0.0000
# 4 0.0000 0.0000 0.0000 27.5970 0.0000 8.1913
# 5 21.5406 7.7191 6.2325 0.0000 17.4466 0.0000
# 6 0.0000 0.0000 0.0000 8.1913 0.0000 29.3392
#
#
#
# Elastic Compliance Matrix: (Units=1/GPa)
#
#
# Indices 1 2 3 4 5 6 
#
# 1 0.014628 -0.004966 -0.002906 0.000000 -0.014825 0.000000
# 2 -0.004966 0.017087 -0.006250 0.000000 0.000805 0.000000
# 3 -0.002906 -0.006250 0.024396 0.000000 -0.002362 0.000000
# 4 0.000000 0.000000 0.000000 0.039510 0.000000 -0.011031
# 5 -0.014825 0.000805 -0.002362 0.000000 0.076110 0.000000
# 6 0.000000 0.000000 0.000000 -0.011031 0.000000 0.037164
#
#
# Mechanical properties :
#
#
# Convention : Reuss Voigt Hill
#
# Bulk Modulus (GPa) = 35.88596 46.74961 41.31778
# Shear Modulus (GPa) = 20.28996 24.76079 22.52537
#
# Velocity S-wave (km/s) = 3.37898 3.73274 3.56026
# Velocity P-wave (km/s) = 5.95123 6.69960 6.33647
#
# Compressibility (1/GPa) = 0.02786605
#
# Stress axis : x y z
#
# Youngs Moduli (GPa) = 68.36297 58.52534 40.99003
#
# Poissons Ratio (x) = 0.29066 0.11910
# Poissons Ratio (y) = 0.33951 0.25620
# Poissons Ratio (z) = 0.19863 0.36581
#
# Static dielectric constant tensor:
#      x y z
#    x 3.885550 0.000000 -0.047400 
#    y 0.000000 3.255380 0.000000 
#    z -0.047400 0.000000 3.220980 
# 
# 
# High freq. dielectric constant tensor:
#      x y z
#    x 1.693540 0.000000 0.007960 
#    y 0.000000 1.696020 0.000000 
#    z 0.007960 0.000000 1.663350 
# 
# From -- ./inp_files/61736.got.cif
#   From: 2010.06.25/outbox.cif.g09.slc.cpg/sg11_31_cif.got.tgz:61736.got - 2010.06.27 23:14:04.
