data_PCOD8072215
_publ_section_title
;
Structure prediction by ZEFSAII (Michael W. Deem and Ramdas Pophale) SiO2 
 PCOD8072215
Probable space group: P 21/M
;
_chemical_formula_sum "Si O2"
_cell_formula_units_Z 20
_cell_length_a 12.959754
_cell_length_b 16.264258
_cell_length_c 10.811963
_cell_angle_alpha 90.000000
_cell_angle_beta 23.532149
_cell_angle_gamma 90.000000
_cell_volume 909.903328
_symmetry_space_group_name_H-M "P 21/M"
_symmetry_group_IT_number 11
_symmetry_cell_setting 'monoclinic'
loop_
_space_group_symop_operation_xyz
x,y,z
-x,1/2+y,-z
-x,-y,-z
x,1/2-y,z
loop_
_atom_site_type_symbol
_atom_site_label
_atom_site_fract_x
_atom_site_fract_y
_atom_site_fract_z
Si Si1 0.049746 0.925452 0.351470
Si Si2 0.570471 0.986728 0.779363
Si Si3 0.700879 0.076900 0.414872
Si Si4 0.255753 0.391839 0.728489
Si Si5 0.706086 0.750000 0.508346
Si Si6 0.860169 0.250000 0.764265
O O1 0.061382 0.833385 0.397636
O O2 0.000000 0.000000 0.500000
O O3 0.824359 0.927996 0.495791
O O4 0.327024 0.941610 0.981246
O O5 0.630436 0.071259 0.639554
O O6 0.500000 0.000000 0.000000
O O7 0.473498 0.124646 0.593634
O O8 0.720030 0.983160 0.349772
O O9 0.972383 0.123300 0.099265
O O10 0.301277 0.330184 0.567760
O O11 0.972822 0.750000 0.293080
O O12 0.447528 0.750000 0.876124
#
# Coordination Sequence:
#
# PCOD8072215 Si02
#       6
#     4   4   4   4   2   2
#     4  10  21  36  57  88 121 157 206 254 307 366
#     4  10  20  36  60  85 114 155 204 249 290 360
#     4  10  19  35  56  81 111 152 193 231 295 358
#     4  10  21  34  55  82 115 149 186 243 298 350
#     4  12  24  38  58  93 122 149 204 258 314 368
#     4  12  22  36  62  87 122 163 200 266 316 356
#
# _framework density 21.980359
#
# number of rings (size 3 to 8) (size 9 to 14) (size 15 to 20)
#    0.000    1.600    0.000    6.000    0.000    3.200 
#    0.000    0.000    0.000   28.800    0.000    0.000 
#    0.000    0.000    0.000    0.000    0.000    0.000 
#
# Total GULP energy -247784.913001 kJ/mol
# GULP energy per Si atom -12389.245650 kJ/mol
# Density = 2.193033 g / cm^3
# Si number density = 21.980359 Si / 1000 Ang^3
#
#
#
# Elastic Constant Matrix: (Units=GPa)
#
#
# Indices 1 2 3 4 5 6 
#
# 1 71.2028 3.3620 60.5769 0.0000 -13.3435 0.0000
# 2 3.3620 101.2428 31.7373 0.0000 -1.2307 0.0000
# 3 60.5769 31.7373 134.6003 0.0000 -42.9470 0.0000
# 4 0.0000 0.0000 0.0000 29.0295 0.0000 8.8872
# 5 -13.3435 -1.2307 -42.9470 0.0000 57.5062 0.0000
# 6 0.0000 0.0000 0.0000 8.8872 0.0000 28.9121
#
#
#
# Elastic Compliance Matrix: (Units=1/GPa)
#
#
# Indices 1 2 3 4 5 6 
#
# 1 0.024085 0.003179 -0.012845 0.000000 -0.003936 0.000000
# 2 0.003179 0.011295 -0.004964 0.000000 -0.002728 0.000000
# 3 -0.012845 -0.004964 0.017587 0.000000 0.010047 0.000000
# 4 0.000000 0.000000 0.000000 0.038026 0.000000 -0.011689
# 5 -0.003936 -0.002728 0.010047 0.000000 0.023921 0.000000
# 6 0.000000 0.000000 0.000000 -0.011689 0.000000 0.038181
#
#
# Mechanical properties :
#
#
# Convention : Reuss Voigt Hill
#
# Bulk Modulus (GPa) = 42.18432 55.37757 48.78095
# Shear Modulus (GPa) = 26.28041 37.18087 31.73064
#
# Velocity S-wave (km/s) = 3.46154 4.11731 3.80358
# Velocity P-wave (km/s) = 5.93379 6.91750 6.44444
#
# Compressibility (1/GPa) = 0.02370549
#
# Stress axis : x y z
#
# Youngs Moduli (GPa) = 41.52048 88.53701 56.86177
#
# Poissons Ratio (x) = -0.28145 0.73037
# Poissons Ratio (y) = -0.13199 0.28228
# Poissons Ratio (z) = 0.53332 0.43952
#
# Static dielectric constant tensor:
#      x y z
#    x 5.707310 0.000000 -2.650990 
#    y 0.000000 3.913220 0.000000 
#    z -2.650990 0.000000 7.417570 
# 
# 
# High freq. dielectric constant tensor:
#      x y z
#    x 1.856580 0.000000 -0.035930 
#    y 0.000000 1.840270 0.000000 
#    z -0.035930 0.000000 1.882820 
# 
# From -- ./inp_files/4147.got.cif
#   From: 2010.06.25/outbox.cif.g09.slc.cpg/sg11_3_cif.got.tgz:4147.got - 2010.06.27 23:14:04.
