data_PCOD8072130
_publ_section_title
;
Structure prediction by ZEFSAII (Michael W. Deem and Ramdas Pophale) SiO2 
 PCOD8072130
Probable space group: P 21/M
;
_chemical_formula_sum "Si O2"
_cell_formula_units_Z 32
_cell_length_a 19.439268
_cell_length_b 8.772180
_cell_length_c 27.019399
_cell_angle_alpha 90.000000
_cell_angle_beta 21.166088
_cell_angle_gamma 90.000000
_cell_volume 1663.633909
_symmetry_space_group_name_H-M "P 21/M"
_symmetry_group_IT_number 11
_symmetry_cell_setting 'monoclinic'
loop_
_space_group_symop_operation_xyz
x,y,z
-x,1/2+y,-z
-x,-y,-z
x,1/2-y,z
loop_
_atom_site_type_symbol
_atom_site_label
_atom_site_fract_x
_atom_site_fract_y
_atom_site_fract_z
Si Si1 0.323846 0.919941 0.166415
Si Si2 0.039155 0.076665 0.525290
Si Si3 0.094900 0.929807 0.863464
Si Si4 0.281273 0.428972 0.830714
Si Si5 0.739398 0.577266 0.890150
Si Si6 0.287428 0.930073 0.441339
Si Si7 0.115264 0.071784 0.655306
Si Si8 0.294916 0.569753 0.630292
O O1 0.325750 0.750000 0.140710
O O2 0.167510 0.929851 0.312617
O O3 0.279261 0.047340 0.155832
O O4 0.529801 0.950301 0.054073
O O5 0.111811 0.250000 0.470855
O O6 0.195049 0.983904 0.452021
O O7 0.000000 0.000000 0.500000
O O8 0.111126 0.750000 0.855774
O O9 0.152301 0.985906 0.769878
O O10 0.245797 0.995909 0.801272
O O11 0.879556 0.983813 0.021716
O O12 0.267002 0.250000 0.832339
O O13 0.489840 0.476523 0.709900
O O14 0.810928 0.750000 0.850437
O O15 0.891206 0.463130 0.812524
O O16 0.260845 0.750000 0.465729
O O17 0.183097 0.014384 0.556336
O O18 0.154111 0.250000 0.633652
O O19 0.224927 0.984782 0.624345
O O20 0.500000 0.500000 0.500000
O O21 0.311461 0.750000 0.619087
#
# Coordination Sequence:
#
# PCOD8072130 Si02
#       8
#     4   4   4   4   4   4   4   4
#     4   9  19  36  58  84 113 146 185 234 287 341
#     4  11  23  40  60  84 117 153 191 237 290 346
#     4   9  19  37  59  84 115 151 189 231 280 336
#     4   9  19  36  60  87 114 148 189 234 281 333
#     4  10  19  34  59  86 111 145 189 235 286 340
#     4  11  22  38  61  87 114 147 193 242 290 344
#     4  12  24  38  57  84 119 154 193 239 290 346
#     4  11  23  39  59  85 119 155 193 235 289 344
#
# _framework density 19.235001
#
# number of rings (size 3 to 8) (size 9 to 14) (size 15 to 20)
#    0.000    1.750    1.250    3.375    0.000    5.000 
#    2.250    0.000    0.000    0.000    0.000    0.000 
#    0.000    0.000    0.000    0.000    0.000    0.000 
#
# Total GULP energy -396776.682106 kJ/mol
# GULP energy per Si atom -12399.271316 kJ/mol
# Density = 1.919122 g / cm^3
# Si number density = 19.235001 Si / 1000 Ang^3
#
#
#
# Elastic Constant Matrix: (Units=GPa)
#
#
# Indices 1 2 3 4 5 6 
#
# 1 106.2522 21.1553 44.9244 0.0000 -11.2292 0.0000
# 2 21.1553 60.4909 34.5450 0.0000 0.7023 0.0000
# 3 44.9244 34.5450 102.2914 0.0000 -21.7687 0.0000
# 4 0.0000 0.0000 0.0000 26.8056 0.0000 -3.1883
# 5 -11.2292 0.7023 -21.7687 0.0000 27.0250 0.0000
# 6 0.0000 0.0000 0.0000 -3.1883 0.0000 34.4416
#
#
#
# Elastic Compliance Matrix: (Units=1/GPa)
#
#
# Indices 1 2 3 4 5 6 
#
# 1 0.011702 -0.001678 -0.004259 0.000000 0.001475 0.000000
# 2 -0.001678 0.022014 -0.008409 0.000000 -0.008043 0.000000
# 3 -0.004259 -0.008409 0.017085 0.000000 0.012211 0.000000
# 4 0.000000 0.000000 0.000000 0.037721 0.000000 0.003492
# 5 0.001475 -0.008043 0.012211 0.000000 0.047661 0.000000
# 6 0.000000 0.000000 0.000000 0.003492 0.000000 0.029358
#
#
# Mechanical properties :
#
#
# Convention : Reuss Voigt Hill
#
# Bulk Modulus (GPa) = 45.22894 52.25376 48.74135
# Shear Modulus (GPa) = 24.80145 28.88178 26.84161
#
# Velocity S-wave (km/s) = 3.59471 3.87915 3.73963
# Velocity P-wave (km/s) = 6.38703 6.87668 6.63637
#
# Compressibility (1/GPa) = 0.02210974
#
# Stress axis : x y z
#
# Youngs Moduli (GPa) = 85.45403 45.42617 58.53147
#
# Poissons Ratio (x) = 0.07621 0.24928
# Poissons Ratio (y) = 0.14336 0.49220
# Poissons Ratio (z) = 0.36394 0.38199
#
# Static dielectric constant tensor:
#      x y z
#    x 3.416720 0.000000 -0.079280 
#    y 0.000000 3.663080 0.000000 
#    z -0.079280 0.000000 3.891250 
# 
# 
# High freq. dielectric constant tensor:
#      x y z
#    x 1.733300 0.000000 -0.010220 
#    y 0.000000 1.754600 0.000000 
#    z -0.010220 0.000000 1.762980 
# 
# From -- ./inp_files/73612.got.cif
#   From: 2010.06.25/outbox.cif.g09.slc.cpg/sg11_37_cif.got.tgz:73612.got - 2010.06.27 23:14:04.
