data_PCOD8072598
_publ_section_title
;
Structure prediction by ZEFSAII (Michael W. Deem and Ramdas Pophale) SiO2 
 PCOD8072598
Probable space group: P 21/M
;
_chemical_formula_sum "Si O2"
_cell_formula_units_Z 28
_cell_length_a 12.551390
_cell_length_b 9.283913
_cell_length_c 27.255253
_cell_angle_alpha 90.000000
_cell_angle_beta 152.873441
_cell_angle_gamma 90.000000
_cell_volume 1448.096409
_symmetry_space_group_name_H-M "P 21/M"
_symmetry_group_IT_number 11
_symmetry_cell_setting 'monoclinic'
loop_
_space_group_symop_operation_xyz
x,y,z
-x,1/2+y,-z
-x,-y,-z
x,1/2-y,z
loop_
_atom_site_type_symbol
_atom_site_label
_atom_site_fract_x
_atom_site_fract_y
_atom_site_fract_z
Si Si1 0.852948 0.579740 0.193820
Si Si2 0.472873 0.420167 0.096072
Si Si3 0.290599 0.585912 0.436804
Si Si4 0.001647 0.919038 0.148075
Si Si5 0.519435 0.084011 0.699340
Si Si6 0.155332 0.915834 0.490086
Si Si7 0.368645 0.084097 0.743709
O O1 0.797418 0.750000 0.169773
O O2 0.621807 0.493195 0.113804
O O3 0.941618 0.521320 0.177565
O O4 0.044254 0.538430 0.312964
O O5 0.521641 0.250000 0.116254
O O6 0.528155 0.485298 0.171585
O O7 0.203542 0.456352 0.974065
O O8 0.500000 0.500000 0.500000
O O9 0.336414 0.750000 0.441696
O O10 0.288595 0.559013 0.493724
O O11 0.036150 0.750000 0.166326
O O12 0.245269 0.985234 0.227660
O O13 0.492746 0.250000 0.673418
O O14 0.534452 0.067992 0.764317
O O15 0.287975 0.004858 0.585829
O O16 0.157854 0.750000 0.507083
O O17 0.890024 0.970257 0.376380
O O18 0.356678 0.250000 0.757358
#
# Coordination Sequence:
#
# PCOD8072598 Si02
#       7
#     4   4   4   4   4   4   4
#     4  10  19  37  59  78 112 153 185 225 282 337
#     4  11  22  36  57  85 114 145 190 239 276 324
#     4  10  20  33  53  80 113 149 183 223 273 330
#     4   9  20  37  57  84 115 146 184 235 284 326
#     4  10  21  38  61  84 109 148 191 226 276 345
#     4  10  20  36  55  81 116 145 180 232 281 325
#     4  10  21  39  60  82 112 150 188 226 279 341
#
# _framework density 19.335728
#
# number of rings (size 3 to 8) (size 9 to 14) (size 15 to 20)
#    0.000    2.000    1.429    2.143    0.000    4.000 
#    0.000    2.857    0.000    0.000    0.000    0.000 
#    0.000    0.000    0.000    0.000    0.000    0.000 
#
# Total GULP energy -347264.331091 kJ/mol
# GULP energy per Si atom -12402.297539 kJ/mol
# Density = 1.929172 g / cm^3
# Si number density = 19.335728 Si / 1000 Ang^3
#
#
#
# Elastic Constant Matrix: (Units=GPa)
#
#
# Indices 1 2 3 4 5 6 
#
# 1 85.3505 27.4865 35.5216 0.0000 -3.7897 0.0000
# 2 27.4865 53.2573 37.3026 0.0000 -4.6787 0.0000
# 3 35.5216 37.3026 88.8664 0.0000 -5.6120 0.0000
# 4 0.0000 0.0000 0.0000 25.8224 0.0000 -0.5136
# 5 -3.7897 -4.6787 -5.6120 0.0000 27.2547 0.0000
# 6 0.0000 0.0000 0.0000 -0.5136 0.0000 24.7875
#
#
#
# Elastic Compliance Matrix: (Units=1/GPa)
#
#
# Indices 1 2 3 4 5 6 
#
# 1 0.014942 -0.004971 -0.003859 0.000000 0.000430 0.000000
# 2 -0.004971 0.028393 -0.009794 0.000000 0.002166 0.000000
# 3 -0.003859 -0.009794 0.016987 0.000000 0.001280 0.000000
# 4 0.000000 0.000000 0.000000 0.038742 0.000000 0.000803
# 5 0.000430 0.002166 0.001280 0.000000 0.037386 0.000000
# 6 0.000000 0.000000 0.000000 0.000803 0.000000 0.040360
#
#
# Mechanical properties :
#
#
# Convention : Reuss Voigt Hill
#
# Bulk Modulus (GPa) = 43.33923 47.56619 45.45271
# Shear Modulus (GPa) = 22.54784 24.05050 23.29917
#
# Velocity S-wave (km/s) = 3.41856 3.53063 3.47505
# Velocity P-wave (km/s) = 6.16805 6.42449 6.29757
#
# Compressibility (1/GPa) = 0.02307379
#
# Stress axis : x y z
#
# Youngs Moduli (GPa) = 66.92341 35.22001 58.86714
#
# Poissons Ratio (x) = 0.17509 0.22716
# Poissons Ratio (y) = 0.33270 0.57656
# Poissons Ratio (z) = 0.25825 0.34496
#
# Static dielectric constant tensor:
#      x y z
#    x 3.676940 0.000000 0.010420 
#    y 0.000000 3.324780 0.000000 
#    z 0.010420 0.000000 3.533170 
# 
# 
# High freq. dielectric constant tensor:
#      x y z
#    x 1.767200 0.000000 0.000500 
#    y 0.000000 1.729110 0.000000 
#    z 0.000500 0.000000 1.755640 
# 
# From -- ./inp_files/71340.got.cif
#   From: 2010.06.25/outbox.cif.g09.slc.cpg/sg11_36_cif.got.tgz:71340.got - 2010.06.27 23:14:04.
