data_PCOD8072258
_publ_section_title
;
Structure prediction by ZEFSAII (Michael W. Deem and Ramdas Pophale) SiO2 
 PCOD8072258
Probable space group: P 21/M
;
_chemical_formula_sum "Si O2"
_cell_formula_units_Z 28
_cell_length_a 15.202719
_cell_length_b 9.122790
_cell_length_c 11.003534
_cell_angle_alpha 90.000000
_cell_angle_beta 65.818927
_cell_angle_gamma 90.000000
_cell_volume 1392.187136
_symmetry_space_group_name_H-M "P 21/M"
_symmetry_group_IT_number 11
_symmetry_cell_setting 'monoclinic'
loop_
_space_group_symop_operation_xyz
x,y,z
-x,1/2+y,-z
-x,-y,-z
x,1/2-y,z
loop_
_atom_site_type_symbol
_atom_site_label
_atom_site_fract_x
_atom_site_fract_y
_atom_site_fract_z
Si Si1 0.547097 0.425068 0.854920
Si Si2 0.140919 0.914812 0.601337
Si Si3 0.455096 0.075782 0.645670
Si Si4 0.081808 0.589329 0.016194
Si Si5 0.952179 0.414406 0.683590
Si Si6 0.746333 0.422243 0.228788
Si Si7 0.241551 0.583333 0.308812
O O1 0.540752 0.250000 0.873788
O O2 0.502804 0.470683 0.748411
O O3 0.657270 0.485750 0.790708
O O4 0.500000 0.500000 0.000000
O O5 0.103777 0.750000 0.636919
O O6 0.180699 0.973882 0.705920
O O7 0.232912 0.924963 0.459534
O O8 0.050235 0.001385 0.595456
O O9 0.462376 0.250000 0.623293
O O10 0.500000 0.000000 0.500000
O O11 0.345416 0.025377 0.717618
O O12 0.073834 0.750000 0.962486
O O13 0.192362 0.539103 0.927319
O O14 0.060202 0.589158 0.167637
O O15 0.000000 0.500000 0.000000
O O16 0.960902 0.250000 0.623898
O O17 0.855082 0.494096 0.689123
O O18 0.716608 0.250000 0.257020
O O19 0.241328 0.750000 0.261582
#
# Coordination Sequence:
#
# PCOD8072258 Si02
#       7
#     4   4   4   4   4   4   4
#     4  10  23  43  65  89 120 158 203 253 305 364
#     4  10  19  35  57  82 113 151 188 230 285 346
#     4  11  24  42  65  94 123 158 204 257 310 364
#     4  10  20  34  53  79 112 150 191 235 286 345
#     4  10  20  33  53  82 112 146 187 230 281 343
#     4  10  21  36  58  85 114 154 197 239 296 359
#     4   9  19  36  58  79 108 149 188 229 286 352
#
# _framework density 20.112238000000001
#
# number of rings (size 3 to 8) (size 9 to 14) (size 15 to 20)
#    0.000    2.000    1.429    1.714    2.000    4.571 
#    0.000    1.429    0.000    0.000    0.000    0.000 
#    0.000    0.000    0.000    0.000    0.000    0.000 
#
# Total GULP energy -346917.679638 kJ/mol
# GULP energy per Si atom -12389.917130 kJ/mol
# Density = 2.006646 g / cm^3
# Si number density = 20.112238 Si / 1000 Ang^3
#
#
#
# Elastic Constant Matrix: (Units=GPa)
#
#
# Indices 1 2 3 4 5 6 
#
# 1 132.5630 41.0895 49.8564 0.0000 -17.3597 0.0000
# 2 41.0895 55.3935 33.6942 0.0000 -7.4756 0.0000
# 3 49.8564 33.6942 107.2365 0.0000 -20.3164 0.0000
# 4 0.0000 0.0000 0.0000 29.7664 0.0000 -6.8188
# 5 -17.3597 -7.4756 -20.3164 0.0000 40.1407 0.0000
# 6 0.0000 0.0000 0.0000 -6.8188 0.0000 22.0804
#
#
#
# Elastic Compliance Matrix: (Units=1/GPa)
#
#
# Indices 1 2 3 4 5 6 
#
# 1 0.010696 -0.006017 -0.002675 0.000000 0.002151 0.000000
# 2 -0.006017 0.025719 -0.005386 0.000000 -0.000538 0.000000
# 3 -0.002675 -0.005386 0.013109 0.000000 0.004475 0.000000
# 4 0.000000 0.000000 0.000000 0.036152 0.000000 0.011164
# 5 0.002151 -0.000538 0.004475 0.000000 0.028008 0.000000
# 6 0.000000 0.000000 0.000000 0.011164 0.000000 0.048737
#
#
# Mechanical properties :
#
#
# Convention : Reuss Voigt Hill
#
# Bulk Modulus (GPa) = 46.79564 60.49703 53.64633
# Shear Modulus (GPa) = 25.29099 29.76769 27.52934
#
# Velocity S-wave (km/s) = 3.54996 3.85135 3.70372
# Velocity P-wave (km/s) = 6.33409 7.06557 6.70980
#
# Compressibility (1/GPa) = 0.02136951
#
# Stress axis : x y z
#
# Youngs Moduli (GPa) = 93.49016 38.88154 76.28496
#
# Poissons Ratio (x) = 0.23395 0.20405
# Poissons Ratio (y) = 0.56252 0.41085
# Poissons Ratio (z) = 0.25007 0.20940
#
# Static dielectric constant tensor:
#      x y z
#    x 3.715970 0.000000 -0.058570 
#    y 0.000000 3.367130 0.000000 
#    z -0.058570 0.000000 3.979530 
# 
# 
# High freq. dielectric constant tensor:
#      x y z
#    x 1.792760 0.000000 -0.002470 
#    y 0.000000 1.752090 0.000000 
#    z -0.002470 0.000000 1.807790 
# 
# From -- ./inp_files/37880.got.cif
#   From: 2010.06.25/outbox.cif.g09.slc.cpg/sg11_19_cif.got.tgz:37880.got - 2010.06.27 23:14:04.
