data_PCOD8072226
_publ_section_title
;
Structure prediction by ZEFSAII (Michael W. Deem and Ramdas Pophale) SiO2 
 PCOD8072226
Probable space group: P 21/M
;
_chemical_formula_sum "Si O2"
_cell_formula_units_Z 20
_cell_length_a 9.189070
_cell_length_b 9.586393
_cell_length_c 11.294321
_cell_angle_alpha 90.000000
_cell_angle_beta 77.461173
_cell_angle_gamma 90.000000
_cell_volume 971.187488
_symmetry_space_group_name_H-M "P 21/M"
_symmetry_group_IT_number 11
_symmetry_cell_setting 'monoclinic'
loop_
_space_group_symop_operation_xyz
x,y,z
-x,1/2+y,-z
-x,-y,-z
x,1/2-y,z
loop_
_atom_site_type_symbol
_atom_site_label
_atom_site_fract_x
_atom_site_fract_y
_atom_site_fract_z
Si Si1 0.793205 0.018928 0.870944
Si Si2 0.567998 0.250000 0.324712
Si Si3 0.100757 0.250000 0.501472
Si Si4 0.269599 0.750000 0.947430
Si Si5 0.920396 0.750000 0.976787
Si Si6 0.025791 0.250000 0.774658
Si Si7 0.248660 0.750000 0.483273
Si Si8 0.681141 0.965294 0.642933
O O1 0.924952 0.111161 0.790541
O O2 0.687855 0.966547 0.784229
O O3 0.698509 0.112184 0.979735
O O4 0.859197 0.887013 0.926414
O O5 0.620875 0.250000 0.181166
O O6 0.710705 0.250000 0.385188
O O7 0.469307 0.386615 0.367737
O O8 0.125966 0.250000 0.639154
O O9 0.173652 0.387904 0.434173
O O10 0.927851 0.250000 0.498836
O O11 0.098488 0.750000 0.936077
O O12 0.872925 0.750000 0.124436
O O13 0.325190 0.619513 0.406768
#
# Coordination Sequence:
#
# PCOD8072226 Si02
#       8
#     4   2   2   2   2   2   2   4
#     4  10  20  39  62  87 125 156 204 257 307 362
#     4  11  27  41  62  90 129 168 214 253 305 373
#     4  11  23  39  67  97 124 158 215 255 314 375
#     4  10  22  40  60  90 120 170 201 247 313 374
#     4  10  20  34  62  95 125 154 198 265 310 358
#     4  10  19  35  56  94 120 158 197 253 311 364
#     4  12  23  43  65  90 126 170 207 259 315 364
#     4  11  24  43  63  95 126 165 208 262 307 369
#
# _framework density 20.593347000000001
#
# number of rings (size 3 to 8) (size 9 to 14) (size 15 to 20)
#    0.000    1.600    2.000    5.400    2.800    2.400 
#    0.000    1.000    0.000    0.000    0.000    0.000 
#    0.000    0.000    0.000    0.000    0.000    0.000 
#
# Total GULP energy -248055.797325 kJ/mol
# GULP energy per Si atom -12402.789866 kJ/mol
# Density = 2.054648 g / cm^3
# Si number density = 20.593347 Si / 1000 Ang^3
#
#
#
# Elastic Constant Matrix: (Units=GPa)
#
#
# Indices 1 2 3 4 5 6 
#
# 1 60.0414 36.3677 48.8730 0.0000 4.1230 0.0000
# 2 36.3677 151.8448 54.4775 0.0000 -0.6797 0.0000
# 3 48.8730 54.4775 142.9886 0.0000 3.5014 0.0000
# 4 0.0000 0.0000 0.0000 -44.4964 0.0000 13.9304
# 5 4.1230 -0.6797 3.5014 0.0000 36.0970 0.0000
# 6 0.0000 0.0000 0.0000 13.9304 0.0000 5.7202
#
#
#
# Elastic Compliance Matrix: (Units=1/GPa)
#
#
# Indices 1 2 3 4 5 6 
#
# 1 0.024600 -0.003364 -0.007073 0.000000 -0.002187 0.000000
# 2 -0.003364 0.008095 -0.001952 0.000000 0.000726 0.000000
# 3 -0.007073 -0.001952 0.010160 0.000000 -0.000214 0.000000
# 4 0.000000 0.000000 0.000000 -0.012752 0.000000 0.031054
# 5 -0.002187 0.000726 -0.000214 0.000000 0.027987 0.000000
# 6 0.000000 0.000000 0.000000 0.031054 0.000000 0.099193
#
#
# Mechanical properties :
#
#
# Convention : Reuss Voigt Hill
#
# Bulk Modulus (GPa) = 55.31894 70.47903 62.89899
# Shear Modulus (GPa) = 26.58331 13.80794 20.19563
#
# Velocity S-wave (km/s) = 3.59676 2.59222 3.13499
# Velocity P-wave (km/s) = 6.64604 6.57708 6.61165
#
# Compressibility (1/GPa) = 0.01807699
#
# Stress axis : x y z
#
# Youngs Moduli (GPa) = 40.64970 123.53321 98.42440
#
# Poissons Ratio (x) = 0.41558 0.69616
# Poissons Ratio (y) = 0.13675 0.19213
# Poissons Ratio (z) = 0.28752 0.24114
#
# Static dielectric constant tensor:
#      x y z
#    x 3.443570 0.000000 0.204790 
#    y 0.000000 4.099680 0.000000 
#    z 0.204790 0.000000 3.923140 
# 
# 
# High freq. dielectric constant tensor:
#      x y z
#    x 1.777540 0.000000 0.017950 
#    y 0.000000 1.825710 0.000000 
#    z 0.017950 0.000000 1.818510 
# 
# From -- ./inp_files/27374.got.cif
#   From: 2010.06.25/outbox.cif.g09.slc.cpg/sg11_14_cif.got.tgz:27374.got - 2010.06.27 23:14:04.
