data_PCOD8072256
_publ_section_title
;
Structure prediction by ZEFSAII (Michael W. Deem and Ramdas Pophale) SiO2 
 PCOD8072256
Probable space group: P 21/M
;
_chemical_formula_sum "Si O2"
_cell_formula_units_Z 32
_cell_length_a 20.743487
_cell_length_b 9.111943
_cell_length_c 26.660284
_cell_angle_alpha 90.000000
_cell_angle_beta 160.154167
_cell_angle_gamma 90.000000
_cell_volume 1710.744294
_symmetry_space_group_name_H-M "P 21/M"
_symmetry_group_IT_number 11
_symmetry_cell_setting 'monoclinic'
loop_
_space_group_symop_operation_xyz
x,y,z
-x,1/2+y,-z
-x,-y,-z
x,1/2-y,z
loop_
_atom_site_type_symbol
_atom_site_label
_atom_site_fract_x
_atom_site_fract_y
_atom_site_fract_z
Si Si1 0.909701 0.420635 0.202411
Si Si2 0.723119 0.080532 0.786976
Si Si3 0.975160 0.923288 0.428970
Si Si4 0.298954 0.576570 0.846739
Si Si5 0.637974 0.081246 0.344770
Si Si6 0.253748 0.421333 0.010560
Si Si7 0.323362 0.420442 0.524682
Si Si8 0.939944 0.578073 0.032148
O O1 0.903881 0.250000 0.185543
O O2 0.825824 0.454930 0.195495
O O3 0.125740 0.484208 0.358477
O O4 0.784409 0.499774 0.069397
O O5 0.758731 0.250000 0.826041
O O6 0.498110 0.050252 0.613822
O O7 0.842898 0.037595 0.824628
O O8 0.793602 0.990529 0.886094
O O9 0.935307 0.750000 0.405966
O O10 0.165006 0.954966 0.537244
O O11 0.800472 0.000747 0.273358
O O12 0.000000 0.000000 0.500000
O O13 0.323394 0.750000 0.854752
O O14 0.500000 0.500000 0.000000
O O15 0.622241 0.250000 0.348914
O O16 0.467750 0.038391 0.182848
O O17 0.617778 0.988550 0.379820
O O18 0.228447 0.250000 0.982578
O O19 0.106218 0.477929 0.945523
O O20 0.291060 0.250000 0.511325
O O21 0.900842 0.750000 0.001509
#
# Coordination Sequence:
#
# PCOD8072256 Si02
#       8
#     4   4   4   4   4   4   4   4
#     4  10  23  40  57  80 112 149 187 229 277 332
#     4   9  17  29  52  81 108 143 182 225 279 330
#     4  11  24  41  62  90 119 151 189 235 285 338
#     4  11  24  43  63  86 116 152 192 235 286 345
#     4  10  21  37  58  84 112 144 186 232 278 328
#     4  10  21  36  55  81 114 150 186 230 278 329
#     4  10  19  35  57  82 110 145 187 231 277 328
#     4   9  17  31  50  78 113 143 179 228 277 328
#
# _framework density 18.705309
#
# number of rings (size 3 to 8) (size 9 to 14) (size 15 to 20)
#    0.000    2.000    2.500    0.750    1.750    3.000 
#    0.000    0.625    0.000    0.000    0.000    0.000 
#    0.000    0.000    0.000    0.000    0.000    0.000 
#
# Total GULP energy -396755.902018 kJ/mol
# GULP energy per Si atom -12398.621938 kJ/mol
# Density = 1.866274 g / cm^3
# Si number density = 18.705309 Si / 1000 Ang^3
#
#
#
# Elastic Constant Matrix: (Units=GPa)
#
#
# Indices 1 2 3 4 5 6 
#
# 1 63.0416 37.7671 46.4020 0.0000 -4.7001 0.0000
# 2 37.7671 57.4507 45.1858 0.0000 0.1139 0.0000
# 3 46.4020 45.1858 141.2184 0.0000 6.8768 0.0000
# 4 0.0000 0.0000 0.0000 29.7880 0.0000 -3.8748
# 5 -4.7001 0.1139 6.8768 0.0000 33.3959 0.0000
# 6 0.0000 0.0000 0.0000 -3.8748 0.0000 25.3064
#
#
#
# Elastic Compliance Matrix: (Units=1/GPa)
#
#
# Indices 1 2 3 4 5 6 
#
# 1 0.028953 -0.015186 -0.004905 0.000000 0.005137 0.000000
# 2 -0.015186 0.031296 -0.004965 0.000000 -0.001222 0.000000
# 3 -0.004905 -0.004965 0.010419 0.000000 -0.002819 0.000000
# 4 0.000000 0.000000 0.000000 0.034253 0.000000 0.005245
# 5 0.005137 -0.001222 -0.002819 0.000000 0.031251 0.000000
# 6 0.000000 0.000000 0.000000 0.005245 0.000000 0.040319
#
#
# Mechanical properties :
#
#
# Convention : Reuss Voigt Hill
#
# Bulk Modulus (GPa) = 48.64328 57.82453 53.23391
# Shear Modulus (GPa) = 21.41748 26.52177 23.96963
#
# Velocity S-wave (km/s) = 3.38745 3.76955 3.58360
# Velocity P-wave (km/s) = 6.43127 7.06587 6.75603
#
# Compressibility (1/GPa) = 0.02055782
#
# Stress axis : x y z
#
# Youngs Moduli (GPa) = 34.53847 31.95251 95.98234
#
# Poissons Ratio (x) = 0.48523 0.47075
# Poissons Ratio (y) = 0.52450 0.47651
# Poissons Ratio (z) = 0.16940 0.15863
#
# Static dielectric constant tensor:
#      x y z
#    x 3.815560 0.000000 0.271520 
#    y 0.000000 3.445330 0.000000 
#    z 0.271520 0.000000 3.781400 
# 
# 
# High freq. dielectric constant tensor:
#      x y z
#    x 1.725100 0.000000 0.019480 
#    y 0.000000 1.723930 0.000000 
#    z 0.019480 0.000000 1.731700 
# 
# From -- ./inp_files/72149.got.cif
#   From: 2010.06.25/outbox.cif.g09.slc.cpg/sg11_37_cif.got.tgz:72149.got - 2010.06.27 23:14:04.
