data_PCOD8072676
_publ_section_title
;
Structure prediction by ZEFSAII (Michael W. Deem and Ramdas Pophale) SiO2 
 PCOD8072676
Probable space group: P 21/M
;
_chemical_formula_sum "Si O2"
_cell_formula_units_Z 28
_cell_length_a 9.577566
_cell_length_b 13.825755
_cell_length_c 11.138418
_cell_angle_alpha 90.000000
_cell_angle_beta 112.292642
_cell_angle_gamma 90.000000
_cell_volume 1364.679218
_symmetry_space_group_name_H-M "P 21/M"
_symmetry_group_IT_number 11
_symmetry_cell_setting 'monoclinic'
loop_
_space_group_symop_operation_xyz
x,y,z
-x,1/2+y,-z
-x,-y,-z
x,1/2-y,z
loop_
_atom_site_type_symbol
_atom_site_label
_atom_site_fract_x
_atom_site_fract_y
_atom_site_fract_z
Si Si1 0.515104 0.475198 0.209296
Si Si2 0.886718 0.639411 0.136003
Si Si3 0.964255 0.360813 0.562786
Si Si4 0.001792 0.861728 0.921958
Si Si5 0.298725 0.964055 0.949835
Si Si6 0.693814 0.862834 0.686409
Si Si7 0.240907 0.038626 0.535627
O O1 0.602971 0.421754 0.128308
O O2 0.441071 0.394459 0.269820
O O3 0.628531 0.542522 0.321969
O O4 0.387639 0.543567 0.105408
O O5 0.835008 0.750000 0.101154
O O6 0.734123 0.576855 0.093389
O O7 0.991926 0.625539 0.284815
O O8 0.983076 0.601942 0.052756
O O9 0.919734 0.250000 0.519733
O O10 0.820295 0.428473 0.491091
O O11 0.104927 0.389279 0.524658
O O12 0.039866 0.750000 0.934073
O O13 0.851998 0.885945 0.800007
O O14 0.139736 0.911628 0.900855
O O15 0.674373 0.750000 0.649978
O O16 0.684281 0.926127 0.563091
#
# Coordination Sequence:
#
# PCOD8072676 Si02
#       7
#     4   4   4   4   4   4   4
#     4  11  25  40  62  92 128 167 209 252 320 374
#     4  10  19  37  65  93 119 155 210 261 309 361
#     4  10  22  39  66  95 122 163 216 268 311 367
#     4  10  22  39  65  95 121 160 212 262 305 366
#     4  11  22  41  65  93 124 167 204 261 317 371
#     4  11  24  42  65  93 128 169 211 258 314 376
#     4  11  23  42  62  91 130 169 212 256 313 382
#
# _framework density 20.517641999999999
#
# number of rings (size 3 to 8) (size 9 to 14) (size 15 to 20)
#    0.000    1.429    2.857    2.143    4.000    1.143 
#    0.000    3.571    0.000    0.857    0.000    0.000 
#    0.000    0.000    0.000    0.000    0.000    0.000 
#
# Total GULP energy -347262.989451 kJ/mol
# GULP energy per Si atom -12402.249623 kJ/mol
# Density = 2.047094 g / cm^3
# Si number density = 20.517642 Si / 1000 Ang^3
#
#
#
# Elastic Constant Matrix: (Units=GPa)
#
#
# Indices 1 2 3 4 5 6 
#
# 1 114.2010 47.2009 38.6384 0.0000 -9.5598 0.0000
# 2 47.2009 78.4867 42.6983 0.0000 -2.9921 0.0000
# 3 38.6384 42.6983 107.7428 0.0000 -9.8090 0.0000
# 4 0.0000 0.0000 0.0000 24.7800 0.0000 -3.8672
# 5 -9.5598 -2.9921 -9.8090 0.0000 33.7947 0.0000
# 6 0.0000 0.0000 0.0000 -3.8672 0.0000 20.1267
#
#
#
# Elastic Compliance Matrix: (Units=1/GPa)
#
#
# Indices 1 2 3 4 5 6 
#
# 1 0.012115 -0.006310 -0.001626 0.000000 0.002397 0.000000
# 2 -0.006310 0.019536 -0.005633 0.000000 -0.001690 0.000000
# 3 -0.001626 -0.005633 0.012335 0.000000 0.002622 0.000000
# 4 0.000000 0.000000 0.000000 0.041603 0.000000 0.007994
# 5 0.002397 -0.001690 0.002622 0.000000 0.030880 0.000000
# 6 0.000000 0.000000 0.000000 0.007994 0.000000 0.051221
#
#
# Mechanical properties :
#
#
# Convention : Reuss Voigt Hill
#
# Bulk Modulus (GPa) = 59.35203 61.94507 60.64855
# Shear Modulus (GPa) = 24.94458 27.19980 26.07219
#
# Velocity S-wave (km/s) = 3.49056 3.64494 3.56858
# Velocity P-wave (km/s) = 6.72573 6.92609 6.82665
#
# Compressibility (1/GPa) = 0.01684862
#
# Stress axis : x y z
#
# Youngs Moduli (GPa) = 82.54070 51.18795 81.06704
#
# Poissons Ratio (x) = 0.32300 0.13180
# Poissons Ratio (y) = 0.52084 0.45665
# Poissons Ratio (z) = 0.13420 0.28834
#
# Static dielectric constant tensor:
#      x y z
#    x 3.700960 0.000000 -0.122040 
#    y 0.000000 3.688950 0.000000 
#    z -0.122040 0.000000 3.828880 
# 
# 
# High freq. dielectric constant tensor:
#      x y z
#    x 1.804030 0.000000 -0.009670 
#    y 0.000000 1.788640 0.000000 
#    z -0.009670 0.000000 1.815380 
# 
# From -- ./inp_files/31738.got.cif
#   From: 2010.06.25/outbox.cif.g09.slc.cpg/sg11_16_cif.got.tgz:31738.got - 2010.06.27 23:14:04.
