data_PCOD8072573
_publ_section_title
;
Structure prediction by ZEFSAII (Michael W. Deem and Ramdas Pophale) SiO2 
 PCOD8072573
Probable space group: P 21/M
;
_chemical_formula_sum "Si O2"
_cell_formula_units_Z 28
_cell_length_a 8.093001
_cell_length_b 18.463832
_cell_length_c 8.612489
_cell_angle_alpha 90.000000
_cell_angle_beta 84.737106
_cell_angle_gamma 90.000000
_cell_volume 1281.520015
_symmetry_space_group_name_H-M "P 21/M"
_symmetry_group_IT_number 11
_symmetry_cell_setting 'monoclinic'
loop_
_space_group_symop_operation_xyz
x,y,z
-x,1/2+y,-z
-x,-y,-z
x,1/2-y,z
loop_
_atom_site_type_symbol
_atom_site_label
_atom_site_fract_x
_atom_site_fract_y
_atom_site_fract_z
Si Si1 0.542704 0.969944 0.662683
Si Si2 0.096694 0.670237 0.741045
Si Si3 0.892368 0.566207 0.566801
Si Si4 0.125785 0.335818 0.731634
Si Si5 0.211520 0.665515 0.068770
Si Si6 0.574828 0.170199 0.445376
Si Si7 0.530740 0.886458 0.211536
O O1 0.739015 0.972336 0.662373
O O2 0.485834 0.886317 0.681435
O O3 0.500000 0.000000 0.500000
O O4 0.458259 0.025351 0.791677
O O5 0.014498 0.750000 0.771436
O O6 0.227267 0.674808 0.588469
O O7 0.966008 0.610576 0.703516
O O8 0.183547 0.645192 0.892268
O O9 0.843011 0.620543 0.431105
O O10 0.000000 0.500000 0.500000
O O11 0.124741 0.250000 0.698055
O O12 0.283069 0.354651 0.832465
O O13 0.950776 0.361900 0.820695
O O14 0.226948 0.750000 0.094556
O O15 0.391036 0.633164 0.097703
O O16 0.496105 0.250000 0.421298
O O17 0.534831 0.144653 0.620524
#
# Coordination Sequence:
#
# PCOD8072573 Si02
#       7
#     4   4   4   4   4   4   4
#     4  10  20  36  56  90 123 151 197 263 313 363
#     4  10  23  41  62  91 128 167 204 252 314 376
#     4  12  22  37  66  89 125 162 207 263 317 364
#     4  11  22  38  66  95 120 160 215 264 311 374
#     4  10  22  42  62  89 131 168 206 255 312 378
#     4  10  19  36  62  88 119 159 208 258 313 370
#     4  11  21  39  65  94 124 162 210 261 321 369
#
# _framework density 21.849055
#
# number of rings (size 3 to 8) (size 9 to 14) (size 15 to 20)
#    0.000    1.429    2.857    5.143    0.000    2.857 
#    2.571    3.571    0.000    0.000    0.000    0.000 
#    0.000    0.000    0.000    0.000    0.000    0.000 
#
# Total GULP energy -346957.573281 kJ/mol
# GULP energy per Si atom -12391.341903 kJ/mol
# Density = 2.179933 g / cm^3
# Si number density = 21.849055 Si / 1000 Ang^3
#
#
#
# Elastic Constant Matrix: (Units=GPa)
#
#
# Indices 1 2 3 4 5 6 
#
# 1 103.9761 34.1874 17.5632 0.0000 32.1317 0.0000
# 2 34.1874 138.7572 25.4431 0.0000 23.9155 0.0000
# 3 17.5632 25.4431 53.8186 0.0000 21.6925 0.0000
# 4 0.0000 0.0000 0.0000 22.8075 0.0000 7.8895
# 5 32.1317 23.9155 21.6925 0.0000 31.8662 0.0000
# 6 0.0000 0.0000 0.0000 7.8895 0.0000 40.9497
#
#
#
# Elastic Compliance Matrix: (Units=1/GPa)
#
#
# Indices 1 2 3 4 5 6 
#
# 1 0.014272 -0.001333 0.001888 0.000000 -0.014676 0.000000
# 2 -0.001333 0.008552 -0.002154 0.000000 -0.003608 0.000000
# 3 0.001888 -0.002154 0.026321 0.000000 -0.018205 0.000000
# 4 0.000000 0.000000 0.000000 0.046976 0.000000 -0.009051
# 5 -0.014676 -0.003608 -0.018205 0.000000 0.061280 0.000000
# 6 0.000000 0.000000 0.000000 -0.009051 0.000000 0.026164
#
#
# Mechanical properties :
#
#
# Convention : Reuss Voigt Hill
#
# Bulk Modulus (GPa) = 21.76401 50.10436 35.93419
# Shear Modulus (GPa) = 24.74283 33.74854 29.24568
#
# Velocity S-wave (km/s) = 3.36883 3.93443 3.66257
# Velocity P-wave (km/s) = 5.01146 6.60466 5.86243
#
# Compressibility (1/GPa) = 0.04594741
#
# Stress axis : x y z
#
# Youngs Moduli (GPa) = 70.06554 116.93085 37.99275
#
# Poissons Ratio (x) = 0.15589 -0.07173
# Poissons Ratio (y) = 0.09341 0.08183
# Poissons Ratio (z) = -0.13229 0.25184
#
# Static dielectric constant tensor:
#      x y z
#    x 4.170420 0.000000 0.051060 
#    y 0.000000 4.488140 0.000000 
#    z 0.051060 0.000000 3.613470 
# 
# 
# High freq. dielectric constant tensor:
#      x y z
#    x 1.865220 0.000000 0.004100 
#    y 0.000000 1.875110 0.000000 
#    z 0.004100 0.000000 1.822080 
# 
# From -- ./inp_files/14029.got.cif
#   From: 2010.06.25/outbox.cif.g09.slc.cpg/sg11_8_cif.got.tgz:14029.got - 2010.06.27 23:14:04.
