data_PCOD8072405
_publ_section_title
;
Structure prediction by ZEFSAII (Michael W. Deem and Ramdas Pophale) SiO2 
 PCOD8072405
Probable space group: P 21/M
;
_chemical_formula_sum "Si O2"
_cell_formula_units_Z 32
_cell_length_a 16.644791
_cell_length_b 17.394191
_cell_length_c 9.967144
_cell_angle_alpha 90.000000
_cell_angle_beta 34.286490
_cell_angle_gamma 90.000000
_cell_volume 1625.612960
_symmetry_space_group_name_H-M "P 21/M"
_symmetry_group_IT_number 11
_symmetry_cell_setting 'monoclinic'
loop_
_space_group_symop_operation_xyz
x,y,z
-x,1/2+y,-z
-x,-y,-z
x,1/2-y,z
loop_
_atom_site_type_symbol
_atom_site_label
_atom_site_fract_x
_atom_site_fract_y
_atom_site_fract_z
Si Si1 0.878342 0.069405 0.065431
Si Si2 0.383104 0.660070 0.510414
Si Si3 0.326297 0.657839 0.033285
Si Si4 0.957339 0.430505 0.657393
Si Si5 0.178661 0.413661 0.724690
Si Si6 0.535596 0.160333 0.884298
Si Si7 0.220653 0.159682 0.390047
Si Si8 0.431778 0.339158 0.506167
O O1 0.755151 0.131552 0.219161
O O2 0.820031 0.004164 0.245678
O O3 0.923556 0.038519 0.855021
O O4 0.012372 0.111821 0.952916
O O5 0.365389 0.750000 0.522932
O O6 0.399072 0.622597 0.340969
O O7 0.522631 0.640225 0.405453
O O8 0.304083 0.750000 0.057190
O O9 0.177309 0.615447 0.214270
O O10 0.384615 0.627010 0.095875
O O11 0.445719 0.629660 0.762713
O O12 0.000000 0.500000 0.500000
O O13 0.089418 0.371021 0.482497
O O14 0.243700 0.390425 0.492194
O O15 0.275436 0.374995 0.704580
O O16 0.566132 0.250000 0.843170
O O17 0.366677 0.145676 0.109324
O O18 0.197847 0.250000 0.455993
O O19 0.414722 0.250000 0.502184
#
# Coordination Sequence:
#
# PCOD8072405 Si02
#       8
#     4   4   4   4   4   4   4   4
#     4  10  23  40  57  84 127 164 200 250 308 371
#     4  10  21  38  60  89 122 160 205 255 311 366
#     4  10  19  37  63  89 117 155 209 261 301 360
#     4  11  24  40  59  87 124 165 205 254 304 372
#     4  10  21  37  59  88 121 156 196 252 306 360
#     4   9  19  36  59  89 121 148 194 262 312 354
#     4  10  20  39  65  90 117 160 209 253 304 361
#     4  10  19  35  61  90 115 150 209 261 301 358
#
# _framework density 19.684882999999999
#
# number of rings (size 3 to 8) (size 9 to 14) (size 15 to 20)
#    0.000    2.000    2.500    0.750    0.000    7.000 
#    2.250    1.250    0.000    6.750    0.000    0.000 
#    0.000    0.000    0.000    0.000    0.000    0.000 
#
# Total GULP energy -396589.712860 kJ/mol
# GULP energy per Si atom -12393.428527 kJ/mol
# Density = 1.964008 g / cm^3
# Si number density = 19.684883 Si / 1000 Ang^3
#
#
#
# Elastic Constant Matrix: (Units=GPa)
#
#
# Indices 1 2 3 4 5 6 
#
# 1 24.1306 115.2622 63.5453 0.0000 -5.5681 0.0000
# 2 115.2622 11.6716 44.8307 0.0000 -6.1259 0.0000
# 3 63.5453 44.8307 90.5871 0.0000 -8.6453 0.0000
# 4 0.0000 0.0000 0.0000 30.2553 0.0000 -2.5032
# 5 -5.5681 -6.1259 -8.6453 0.0000 43.6356 0.0000
# 6 0.0000 0.0000 0.0000 -2.5032 0.0000 23.9195
#
#
#
# Elastic Compliance Matrix: (Units=1/GPa)
#
#
# Indices 1 2 3 4 5 6 
#
# 1 0.001555 0.012308 -0.007133 0.000000 0.000513 0.000000
# 2 0.012308 0.003002 -0.010121 0.000000 -0.000013 0.000000
# 3 -0.007133 -0.010121 0.021230 0.000000 0.001875 0.000000
# 4 0.000000 0.000000 0.000000 0.033341 0.000000 0.003489
# 5 0.000513 -0.000013 0.001875 0.000000 0.023352 0.000000
# 6 0.000000 0.000000 0.000000 0.003489 0.000000 0.042172
#
#
# Mechanical properties :
#
#
# Convention : Reuss Voigt Hill
#
# Bulk Modulus (GPa) = 62.90932 63.74065 63.32498
# Shear Modulus (GPa) = 35.75425 13.07882 24.41654
#
# Velocity S-wave (km/s) = 4.26647 2.58041 3.52571
# Velocity P-wave (km/s) = 7.50319 6.42875 6.98666
#
# Compressibility (1/GPa) = 0.01589590
#
# Stress axis : x y z
#
# Youngs Moduli (GPa) = 642.95797 333.07518 47.10255
#
# Poissons Ratio (x) = -4.09932 0.33598
# Poissons Ratio (y) = -7.91321 0.47671
# Poissons Ratio (z) = 4.58617 3.37092
#
# Static dielectric constant tensor:
#      x y z
#    x 3.930710 0.000000 0.000230 
#    y 0.000000 3.342130 0.000000 
#    z 0.000230 0.000000 3.695400 
# 
# 
# High freq. dielectric constant tensor:
#      x y z
#    x 1.784340 0.000000 -0.011930 
#    y 0.000000 1.739970 0.000000 
#    z -0.011930 0.000000 1.768000 
# 
# From -- ./inp_files/41613.got.cif
#   From: 2010.06.25/outbox.cif.g09.slc.cpg/sg11_21_cif.got.tgz:41613.got - 2010.06.27 23:14:04.
