data_PCOD8072781
_publ_section_title
;
Structure prediction by ZEFSAII (Michael W. Deem and Ramdas Pophale) SiO2 
 PCOD8072781
Probable space group: P 21/M
;
_chemical_formula_sum "Si O2"
_cell_formula_units_Z 32
_cell_length_a 14.354849
_cell_length_b 9.233498
_cell_length_c 16.198547
_cell_angle_alpha 90.000000
_cell_angle_beta 97.280553
_cell_angle_gamma 90.000000
_cell_volume 2129.733503
_symmetry_space_group_name_H-M "P 21/M"
_symmetry_group_IT_number 11
_symmetry_cell_setting 'monoclinic'
loop_
_space_group_symop_operation_xyz
x,y,z
-x,1/2+y,-z
-x,-y,-z
x,1/2-y,z
loop_
_atom_site_type_symbol
_atom_site_label
_atom_site_fract_x
_atom_site_fract_y
_atom_site_fract_z
Si Si1 0.447742 0.919508 0.067599
Si Si2 0.235869 0.083595 0.678505
Si Si3 0.142373 0.586449 0.531770
Si Si4 0.071142 0.080164 0.949072
Si Si5 0.629600 0.582211 0.171226
Si Si6 0.048406 0.413568 0.386681
Si Si7 0.953067 0.915856 0.240837
Si Si8 0.715305 0.920594 0.010278
O O1 0.436004 0.750000 0.046426
O O2 0.516359 0.941356 0.155067
O O3 0.345660 0.994693 0.066940
O O4 0.500000 0.000000 0.000000
O O5 0.248621 0.250000 0.652285
O O6 0.326005 0.019574 0.739020
O O7 0.147957 0.066412 0.729262
O O8 0.223732 0.989308 0.594626
O O9 0.173079 0.750000 0.514868
O O10 0.129220 0.500208 0.444708
O O11 0.046293 0.583639 0.571452
O O12 0.054221 0.250000 0.954419
O O13 0.054121 0.028353 0.853601
O O14 0.176187 0.040030 0.989559
O O15 0.000000 0.000000 0.000000
O O16 0.657022 0.750000 0.174993
O O17 0.680731 0.518979 0.095408
O O18 0.083113 0.250000 0.376015
O O19 0.030805 0.488402 0.296451
O O20 0.986437 0.750000 0.248976
O O21 0.696202 0.750000 0.999186
#
# Coordination Sequence:
#
# PCOD8072781 Si02
#       8
#     4   4   4   4   4   4   4   4
#     4   9  16  25  39  58  78 101 131 165 200 240
#     4   9  14  23  39  54  72 102 134 160 190 232
#     4   9  16  24  33  51  76  99 125 158 192 227
#     4  10  20  32  45  60  79 105 137 175 216 252
#     4   8  13  23  39  56  75 101 132 161 193 237
#     4   9  16  25  37  52  71  96 128 162 193 230
#     4   9  16  27  42  55  70  99 133 165 204 241
#     4   9  16  29  43  55  75 103 134 168 207 246
#
# _framework density 15.025354
#
# number of rings (size 3 to 8) (size 9 to 14) (size 15 to 20)
#    0.000    3.000    1.250    1.875    0.000    4.000 
#    0.000    3.125    0.000    0.000    0.000    0.000 
#    0.000    0.000    0.000    1.125    0.000   14.250 
#
# Total GULP energy -396561.621460 kJ/mol
# GULP energy per Si atom -12392.550671 kJ/mol
# Density = 1.499116 g / cm^3
# Si number density = 15.025354 Si / 1000 Ang^3
#
#
#
# Elastic Constant Matrix: (Units=GPa)
#
#
# Indices 1 2 3 4 5 6 
#
# 1 70.3023 39.8875 47.9074 0.0000 25.4016 0.0000
# 2 39.8875 85.1808 51.1861 0.0000 22.0831 0.0000
# 3 47.9074 51.1861 84.6463 0.0000 34.6845 0.0000
# 4 0.0000 0.0000 0.0000 24.0495 0.0000 5.9014
# 5 25.4016 22.0831 34.6845 0.0000 28.3781 0.0000
# 6 0.0000 0.0000 0.0000 5.9014 0.0000 19.7202
#
#
#
# Elastic Compliance Matrix: (Units=1/GPa)
#
#
# Indices 1 2 3 4 5 6 
#
# 1 0.025764 -0.004980 -0.007429 0.000000 -0.010106 0.000000
# 2 -0.004980 0.019433 -0.009140 0.000000 0.000507 0.000000
# 3 -0.007429 -0.009140 0.031865 0.000000 -0.025184 0.000000
# 4 0.000000 0.000000 0.000000 0.044876 0.000000 -0.013429
# 5 -0.010106 0.000507 -0.025184 0.000000 0.074670 0.000000
# 6 0.000000 0.000000 0.000000 -0.013429 0.000000 0.054728
#
#
# Mechanical properties :
#
#
# Convention : Reuss Voigt Hill
#
# Bulk Modulus (GPa) = 29.44422 57.56570 43.50496
# Shear Modulus (GPa) = 16.35289 21.17279 18.76284
#
# Velocity S-wave (km/s) = 3.30260 3.75792 3.53759
# Velocity P-wave (km/s) = 5.84652 7.56471 6.76042
#
# Compressibility (1/GPa) = 0.03396252
#
# Stress axis : x y z
#
# Youngs Moduli (GPa) = 38.81377 51.45930 31.38252
#
# Poissons Ratio (x) = 0.25628 0.23314
# Poissons Ratio (y) = 0.19330 0.28685
# Poissons Ratio (z) = 0.28835 0.47036
#
# Static dielectric constant tensor:
#      x y z
#    x 2.753220 0.000000 0.505520 
#    y 0.000000 2.964240 0.000000 
#    z 0.505520 0.000000 2.944590 
# 
# 
# High freq. dielectric constant tensor:
#      x y z
#    x 1.529530 0.000000 0.047690 
#    y 0.000000 1.573590 0.000000 
#    z 0.047690 0.000000 1.558150 
# 
# From -- ./inp_files/51329.got.cif
#   From: 2010.06.25/outbox.cif.g09.slc.cpg/sg11_26_cif.got.tgz:51329.got - 2010.06.27 23:14:04.
