data_PCOD8072327
_publ_section_title
;
Structure prediction by ZEFSAII (Michael W. Deem and Ramdas Pophale) SiO2 
 PCOD8072327
Probable space group: P 21/M
;
_chemical_formula_sum "Si O2"
_cell_formula_units_Z 28
_cell_length_a 14.403757
_cell_length_b 8.390401
_cell_length_c 13.174341
_cell_angle_alpha 90.000000
_cell_angle_beta 123.011337
_cell_angle_gamma 90.000000
_cell_volume 1335.128260
_symmetry_space_group_name_H-M "P 21/M"
_symmetry_group_IT_number 11
_symmetry_cell_setting 'monoclinic'
loop_
_space_group_symop_operation_xyz
x,y,z
-x,1/2+y,-z
-x,-y,-z
x,1/2-y,z
loop_
_atom_site_type_symbol
_atom_site_label
_atom_site_fract_x
_atom_site_fract_y
_atom_site_fract_z
Si Si1 0.048059 0.436699 0.301931
Si Si2 0.382078 0.562648 0.567964
Si Si3 0.395899 0.935699 0.999433
Si Si4 0.173461 0.564768 0.567553
Si Si5 0.241627 0.937225 0.297669
Si Si6 0.386643 0.437213 0.217400
Si Si7 0.175544 0.434353 0.782893
O O1 0.047311 0.250000 0.322081
O O2 0.091318 0.527703 0.426853
O O3 0.124667 0.477639 0.250649
O O4 0.924092 0.499768 0.206112
O O5 0.394774 0.750000 0.567036
O O6 0.298107 0.519114 0.608549
O O7 0.333932 0.496914 0.432630
O O8 0.501447 0.488451 0.666121
O O9 0.411884 0.750000 0.030192
O O10 0.285739 0.964939 0.869100
O O11 0.500000 0.000000 0.000000
O O12 0.384219 0.028648 0.097473
O O13 0.162969 0.750000 0.589815
O O14 0.141875 0.459099 0.645499
O O15 0.223445 0.750000 0.300156
O O16 0.281649 0.979752 0.208577
O O17 0.378956 0.250000 0.230848
O O18 0.196643 0.250000 0.819619
#
# Coordination Sequence:
#
# PCOD8072327 Si02
#       7
#     4   4   4   4   4   4   4
#     4  11  22  38  59  87 120 157 198 245 296 353
#     4   8  17  32  55  85 120 155 192 236 287 341
#     4  12  26  45  65  89 119 155 196 243 292 347
#     4  10  19  35  58  88 123 159 196 242 295 353
#     4  10  20  37  58  86 121 158 197 244 296 351
#     4  11  21  37  60  88 119 157 200 245 294 350
#     4  12  24  40  61  87 117 155 198 245 298 355
#
# _framework density 20.971768999999998
#
# number of rings (size 3 to 8) (size 9 to 14) (size 15 to 20)
#    0.000    1.429    0.000    7.714    0.000    1.143 
#    0.000    7.857    0.000    0.000    0.000    0.000 
#    0.000    0.000    0.000    0.000    0.000    0.000 
#
# Total GULP energy -347311.431013 kJ/mol
# GULP energy per Si atom -12403.979679 kJ/mol
# Density = 2.092404 g / cm^3
# Si number density = 20.971769 Si / 1000 Ang^3
#
#
#
# Elastic Constant Matrix: (Units=GPa)
#
#
# Indices 1 2 3 4 5 6 
#
# 1 157.4765 26.5586 44.7621 0.0000 1.8391 0.0000
# 2 26.5586 75.2133 6.7519 0.0000 3.4375 0.0000
# 3 44.7621 6.7519 50.4558 0.0000 -3.8916 0.0000
# 4 0.0000 0.0000 0.0000 29.5453 0.0000 -2.3240
# 5 1.8391 3.4375 -3.8916 0.0000 36.2094 0.0000
# 6 0.0000 0.0000 0.0000 -2.3240 0.0000 34.0449
#
#
#
# Elastic Compliance Matrix: (Units=1/GPa)
#
#
# Indices 1 2 3 4 5 6 
#
# 1 0.008962 -0.002425 -0.007708 0.000000 -0.001053 0.000000
# 2 -0.002425 0.014193 0.000159 0.000000 -0.001207 0.000000
# 3 -0.007708 0.000159 0.026888 0.000000 0.003266 0.000000
# 4 0.000000 0.000000 0.000000 0.034029 0.000000 0.002323
# 5 -0.001053 -0.001207 0.003266 0.000000 0.028136 0.000000
# 6 0.000000 0.000000 0.000000 0.002323 0.000000 0.029532
#
#
# Mechanical properties :
#
#
# Convention : Reuss Voigt Hill
#
# Bulk Modulus (GPa) = 33.22758 48.81009 41.01884
# Shear Modulus (GPa) = 29.11738 33.63145 31.37441
#
# Velocity S-wave (km/s) = 3.73018 4.00891 3.87205
# Velocity P-wave (km/s) = 5.86776 6.68978 6.29221
#
# Compressibility (1/GPa) = 0.03009548
#
# Stress axis : x y z
#
# Youngs Moduli (GPa) = 111.57912 70.45924 37.19144
#
# Poissons Ratio (x) = 0.17084 0.28666
# Poissons Ratio (y) = 0.27053 -0.00590
# Poissons Ratio (z) = 0.86002 -0.01118
#
# Static dielectric constant tensor:
#      x y z
#    x 3.951760 0.000000 -0.099160 
#    y 0.000000 3.635750 0.000000 
#    z -0.099160 0.000000 3.280850 
# 
# 
# High freq. dielectric constant tensor:
#      x y z
#    x 1.840570 0.000000 0.000440 
#    y 0.000000 1.819000 0.000000 
#    z 0.000440 0.000000 1.795800 
# 
# From -- ./inp_files/38403.got.cif
#   From: 2010.06.25/outbox.cif.g09.slc.cpg/sg11_20_cif.got.tgz:38403.got - 2010.06.27 23:14:04.
