data_PCOD8072552
_publ_section_title
;
Structure prediction by ZEFSAII (Michael W. Deem and Ramdas Pophale) SiO2 
 PCOD8072552
Probable space group: P 21/M
;
_chemical_formula_sum "Si O2"
_cell_formula_units_Z 24
_cell_length_a 7.600171
_cell_length_b 16.920692
_cell_length_c 11.378200
_cell_angle_alpha 90.000000
_cell_angle_beta 57.041648
_cell_angle_gamma 90.000000
_cell_volume 1227.753825
_symmetry_space_group_name_H-M "P 21/M"
_symmetry_group_IT_number 11
_symmetry_cell_setting 'monoclinic'
loop_
_space_group_symop_operation_xyz
x,y,z
-x,1/2+y,-z
-x,-y,-z
x,1/2-y,z
loop_
_atom_site_type_symbol
_atom_site_label
_atom_site_fract_x
_atom_site_fract_y
_atom_site_fract_z
Si Si1 0.159431 0.419452 0.252471
Si Si2 0.132212 0.659593 0.455138
Si Si3 0.457130 0.952417 0.256541
Si Si4 0.890612 0.509419 0.164547
Si Si5 0.055695 0.837173 0.210099
Si Si6 0.532117 0.660619 0.027529
O O1 0.280819 0.494600 0.258891
O O2 0.322494 0.359396 0.135214
O O3 0.050010 0.371717 0.395638
O O4 0.987064 0.447770 0.221258
O O5 0.189387 0.750000 0.466292
O O6 0.340215 0.604967 0.392505
O O7 0.051130 0.652425 0.351818
O O8 0.638889 0.005747 0.249638
O O9 0.579671 0.899547 0.115788
O O10 0.909358 0.599287 0.201850
O O11 0.000000 0.500000 0.000000
O O12 0.972536 0.750000 0.206428
O O13 0.291145 0.848938 0.075757
O O14 0.575413 0.750000 0.054582
#
# Coordination Sequence:
#
# PCOD8072552 Si02
#       6
#     4   4   4   4   4   4
#     4  12  22  40  62  89 125 153 199 260 300 347
#     4  10  22  42  64  88 119 162 202 246 305 360
#     4  11  22  38  65  85 120 162 205 239 298 364
#     4  12  23  37  62  95 119 156 203 248 300 356
#     4   9  20  39  62  86 118 158 203 243 298 363
#     4  10  19  36  61  86 117 159 197 244 300 352
#
# _framework density 19.547892999999998
#
# number of rings (size 3 to 8) (size 9 to 14) (size 15 to 20)
#    0.000    1.333    5.000    4.000    0.000    2.000 
#    0.000    0.000    0.000    2.000    0.000    0.000 
#    0.000    0.000    0.000    0.000    0.000    0.000 
#
# Total GULP energy -297614.386719 kJ/mol
# GULP energy per Si atom -12400.599447 kJ/mol
# Density = 1.950340 g / cm^3
# Si number density = 19.547893 Si / 1000 Ang^3
#
#
#
# Elastic Constant Matrix: (Units=GPa)
#
#
# Indices 1 2 3 4 5 6 
#
# 1 75.9794 23.4800 30.3939 0.0000 -4.5245 0.0000
# 2 23.4800 81.1424 38.0801 0.0000 -1.3935 0.0000
# 3 30.3939 38.0801 140.3697 0.0000 -20.0578 0.0000
# 4 0.0000 0.0000 0.0000 23.1035 0.0000 -1.4564
# 5 -4.5245 -1.3935 -20.0578 0.0000 18.0777 0.0000
# 6 0.0000 0.0000 0.0000 -1.4564 0.0000 23.4525
#
#
#
# Elastic Compliance Matrix: (Units=1/GPa)
#
#
# Indices 1 2 3 4 5 6 
#
# 1 0.015141 -0.003318 -0.002226 0.000000 0.001064 0.000000
# 2 -0.003318 0.015067 -0.003948 0.000000 -0.004049 0.000000
# 3 -0.002226 -0.003948 0.010166 0.000000 0.010418 0.000000
# 4 0.000000 0.000000 0.000000 0.043454 0.000000 0.002699
# 5 0.001064 -0.004049 0.010418 0.000000 0.066829 0.000000
# 6 0.000000 0.000000 0.000000 0.002699 0.000000 0.042807
#
#
# Mechanical properties :
#
#
# Convention : Reuss Voigt Hill
#
# Bulk Modulus (GPa) = 46.75185 53.48884 50.12034
# Shear Modulus (GPa) = 22.77100 26.62924 24.70012
#
# Velocity S-wave (km/s) = 3.41674 3.69488 3.55853
# Velocity P-wave (km/s) = 6.28761 6.75464 6.52530
#
# Compressibility (1/GPa) = 0.02138953
#
# Stress axis : x y z
#
# Youngs Moduli (GPa) = 66.04672 66.36903 98.37101
#
# Poissons Ratio (x) = 0.22023 0.21900
# Poissons Ratio (y) = 0.21916 0.38833
# Poissons Ratio (z) = 0.14704 0.26200
#
# Static dielectric constant tensor:
#      x y z
#    x 3.370960 0.000000 -0.105000 
#    y 0.000000 3.773190 0.000000 
#    z -0.105000 0.000000 3.604850 
# 
# 
# High freq. dielectric constant tensor:
#      x y z
#    x 1.740420 0.000000 -0.010660 
#    y 0.000000 1.771970 0.000000 
#    z -0.010660 0.000000 1.762560 
# 
# From -- ./inp_files/32186.got.cif
#   From: 2010.06.25/outbox.cif.g09.slc.cpg/sg11_17_cif.got.tgz:32186.got - 2010.06.27 23:14:04.
