data_PCOD8072278
_publ_section_title
;
Structure prediction by ZEFSAII (Michael W. Deem and Ramdas Pophale) SiO2 
 PCOD8072278
Probable space group: P 21/M
;
_chemical_formula_sum "Si O2"
_cell_formula_units_Z 32
_cell_length_a 8.825941
_cell_length_b 14.564298
_cell_length_c 21.220747
_cell_angle_alpha 90.000000
_cell_angle_beta 40.070169
_cell_angle_gamma 90.000000
_cell_volume 1755.948658
_symmetry_space_group_name_H-M "P 21/M"
_symmetry_group_IT_number 11
_symmetry_cell_setting 'monoclinic'
loop_
_space_group_symop_operation_xyz
x,y,z
-x,1/2+y,-z
-x,-y,-z
x,1/2-y,z
loop_
_atom_site_type_symbol
_atom_site_label
_atom_site_fract_x
_atom_site_fract_y
_atom_site_fract_z
Si Si1 0.938146 0.075005 0.571348
Si Si2 0.817035 0.490908 0.745899
Si Si3 0.422750 0.355704 0.729540
Si Si4 0.402182 0.147050 0.385157
Si Si5 0.183374 0.979467 0.738130
Si Si6 0.458969 0.353808 0.224768
Si Si7 0.026367 0.855786 0.899961
Si Si8 0.583309 0.856265 0.123514
O O1 0.698058 0.126073 0.629190
O O2 0.154797 0.146662 0.500383
O O3 0.932175 0.033997 0.642782
O O4 0.000000 0.000000 0.500000
O O5 0.663118 0.583271 0.788492
O O6 0.646430 0.411152 0.826018
O O7 0.024190 0.505735 0.728536
O O8 0.365086 0.250000 0.731247
O O9 0.260541 0.420921 0.738936
O O10 0.361976 0.378879 0.821187
O O11 0.507096 0.250000 0.352821
O O12 0.588835 0.078039 0.357300
O O13 0.371594 0.115121 0.322081
O O14 0.038242 0.921802 0.835937
O O15 0.382784 0.250000 0.234376
O O16 0.740368 0.366380 0.131614
O O17 0.000489 0.750000 0.885818
O O18 0.806619 0.887207 0.011787
O O19 0.523642 0.750000 0.133317
#
# Coordination Sequence:
#
# PCOD8072278 Si02
#       8
#     4   4   4   4   4   4   4   4
#     4  11  18  37  61  77 101 141 190 231 267 313
#     4  11  23  34  54  82 115 147 176 222 275 332
#     4  10  21  37  57  81 108 142 185 231 271 316
#     4  10  19  35  58  79 103 140 185 229 271 315
#     4  11  22  35  53  81 119 147 172 218 278 337
#     4   9  18  33  54  80 104 137 185 231 266 310
#     4   9  18  36  61  83 106 141 185 228 269 318
#     4   9  19  37  60  82 104 140 190 230 264 316
#
# _framework density 18.223766999999999
#
# number of rings (size 3 to 8) (size 9 to 14) (size 15 to 20)
#    0.000    2.000    2.500    3.750    0.000    5.000 
#    0.000    0.000    0.000    3.000    0.000    0.000 
#    0.000    0.000    0.000    0.000    0.000    0.000 
#
# Total GULP energy -396830.293115 kJ/mol
# GULP energy per Si atom -12400.946660 kJ/mol
# Density = 1.818229 g / cm^3
# Si number density = 18.223767 Si / 1000 Ang^3
#
#
#
# Elastic Constant Matrix: (Units=GPa)
#
#
# Indices 1 2 3 4 5 6 
#
# 1 121.2276 63.4488 40.0606 0.0000 -8.5328 0.0000
# 2 63.4488 94.9769 40.5201 0.0000 -4.1671 0.0000
# 3 40.0606 40.5201 130.5461 0.0000 -12.7332 0.0000
# 4 0.0000 0.0000 0.0000 29.9107 0.0000 -5.7785
# 5 -8.5328 -4.1671 -12.7332 0.0000 13.6092 0.0000
# 6 0.0000 0.0000 0.0000 -5.7785 0.0000 15.4445
#
#
#
# Elastic Compliance Matrix: (Units=1/GPa)
#
#
# Indices 1 2 3 4 5 6 
#
# 1 0.013207 -0.008164 -0.001051 0.000000 0.004798 0.000000
# 2 -0.008164 0.017183 -0.003097 0.000000 -0.002755 0.000000
# 3 -0.001051 -0.003097 0.009670 0.000000 0.007440 0.000000
# 4 0.000000 0.000000 0.000000 0.036038 0.000000 0.013483
# 5 0.004798 -0.002755 0.007440 0.000000 0.082605 0.000000
# 6 0.000000 0.000000 0.000000 0.013483 0.000000 0.069793
#
#
# Mechanical properties :
#
#
# Convention : Reuss Voigt Hill
#
# Bulk Modulus (GPa) = 64.78303 70.53442 67.65873
# Shear Modulus (GPa) = 19.36004 25.30761 22.33383
#
# Velocity S-wave (km/s) = 3.26291 3.73059 3.50456
# Velocity P-wave (km/s) = 7.05842 7.57265 7.32005
#
# Compressibility (1/GPa) = 0.01543614
#
# Stress axis : x y z
#
# Youngs Moduli (GPa) = 75.71881 58.19671 103.41770
#
# Poissons Ratio (x) = 0.47511 0.10867
# Poissons Ratio (y) = 0.61816 0.32027
# Poissons Ratio (z) = 0.07957 0.18023
#
# Static dielectric constant tensor:
#      x y z
#    x 2.995680 0.000000 -0.148610 
#    y 0.000000 3.534220 0.000000 
#    z -0.148610 0.000000 3.603910 
# 
# 
# High freq. dielectric constant tensor:
#      x y z
#    x 1.672040 0.000000 -0.013560 
#    y 0.000000 1.722710 0.000000 
#    z -0.013560 0.000000 1.712130 
# 
# From -- ./inp_files/47449.got.cif
#   From: 2010.06.25/outbox.cif.g09.slc.cpg/sg11_24_cif.got.tgz:47449.got - 2010.06.27 23:14:04.
