data_PCOD8072006
_publ_section_title
;
Structure prediction by ZEFSAII (Michael W. Deem and Ramdas Pophale) SiO2 
 PCOD8072006
Probable space group: P 21/M
;
_chemical_formula_sum "Si O2"
_cell_formula_units_Z 28
_cell_length_a 10.217005
_cell_length_b 11.764359
_cell_length_c 14.541941
_cell_angle_alpha 90.000000
_cell_angle_beta 124.186154
_cell_angle_gamma 90.000000
_cell_volume 1445.883760
_symmetry_space_group_name_H-M "P 21/M"
_symmetry_group_IT_number 11
_symmetry_cell_setting 'monoclinic'
loop_
_space_group_symop_operation_xyz
x,y,z
-x,1/2+y,-z
-x,-y,-z
x,1/2-y,z
loop_
_atom_site_type_symbol
_atom_site_label
_atom_site_fract_x
_atom_site_fract_y
_atom_site_fract_z
Si Si1 0.623564 0.021885 0.330921
Si Si2 0.661280 0.378593 0.704680
Si Si3 0.782766 0.380974 0.562327
Si Si4 0.738896 0.918760 0.097385
Si Si5 0.874084 0.624850 0.341348
Si Si6 0.985993 0.381533 0.936616
Si Si7 0.588632 0.373476 0.119855
O O1 0.664645 0.107389 0.429776
O O2 0.576864 0.086550 0.220145
O O3 0.476572 0.946265 0.300874
O O4 0.780895 0.947392 0.379817
O O5 0.601111 0.250000 0.667036
O O6 0.704752 0.435619 0.623107
O O7 0.810049 0.382636 0.829990
O O8 0.812827 0.250000 0.597517
O O9 0.956375 0.435149 0.611935
O O10 0.702254 0.051884 0.099962
O O11 0.768606 0.862887 0.207933
O O12 0.891915 0.896951 0.097515
O O13 0.587401 0.863735 0.989767
O O14 0.900697 0.750000 0.394036
O O15 0.013513 0.250000 0.990546
O O16 0.000000 0.500000 0.000000
O O17 0.667655 0.250000 0.149781
#
# Coordination Sequence:
#
# PCOD8072006 Si02
#       7
#     4   4   4   4   4   4   4
#     4  11  21  34  54  85 114 144 187 243 291 341
#     4  10  21  37  57  82 114 153 197 240 289 351
#     4  10  20  36  57  78 108 153 193 235 290 348
#     4  10  20  36  58  81 109 151 195 236 284 354
#     4  10  19  34  57  80 105 143 192 237 281 342
#     4  11  22  38  61  87 119 158 200 245 295 354
#     4  10  21  35  55  83 115 147 184 238 301 349
#
# _framework density 19.365319
#
# number of rings (size 3 to 8) (size 9 to 14) (size 15 to 20)
#    0.000    1.714    1.429    3.857    0.000    0.571 
#    0.000    4.286    0.000    2.571    0.000    0.000 
#    0.000    0.000    0.000    0.000    0.000    0.000 
#
# Total GULP energy -346953.080940 kJ/mol
# GULP energy per Si atom -12391.181462 kJ/mol
# Density = 1.932124 g / cm^3
# Si number density = 19.365319 Si / 1000 Ang^3
#
#
#
# Elastic Constant Matrix: (Units=GPa)
#
#
# Indices 1 2 3 4 5 6 
#
# 1 93.7386 53.4186 8.3748 0.0000 5.5883 0.0000
# 2 53.4186 115.1930 25.0447 0.0000 -3.9585 0.0000
# 3 8.3748 25.0447 85.6299 0.0000 0.4670 0.0000
# 4 0.0000 0.0000 0.0000 21.4854 0.0000 -2.7389
# 5 5.5883 -3.9585 0.4670 0.0000 28.3251 0.0000
# 6 0.0000 0.0000 0.0000 -2.7389 0.0000 12.3220
#
#
#
# Elastic Compliance Matrix: (Units=1/GPa)
#
#
# Indices 1 2 3 4 5 6 
#
# 1 0.014959 -0.007219 0.000670 0.000000 -0.003971 0.000000
# 2 -0.007219 0.012806 -0.003057 0.000000 0.003264 0.000000
# 3 0.000670 -0.003057 0.012511 0.000000 -0.000766 0.000000
# 4 0.000000 0.000000 0.000000 0.047900 0.000000 0.010647
# 5 -0.003971 0.003264 -0.000766 0.000000 0.036557 0.000000
# 6 0.000000 0.000000 0.000000 0.010647 0.000000 0.083522
#
#
# Mechanical properties :
#
#
# Convention : Reuss Voigt Hill
#
# Bulk Modulus (GPa) = 47.47625 52.02641 49.75133
# Shear Modulus (GPa) = 21.32311 26.27475 23.79893
#
# Velocity S-wave (km/s) = 3.32188 3.68746 3.50944
# Velocity P-wave (km/s) = 6.26758 6.71222 6.49371
#
# Compressibility (1/GPa) = 0.02106317
#
# Stress axis : x y z
#
# Youngs Moduli (GPa) = 66.85078 78.09105 79.93010
#
# Poissons Ratio (x) = 0.56374 -0.05356
# Poissons Ratio (y) = 0.48259 0.24435
# Poissons Ratio (z) = -0.04479 0.23873
#
# Static dielectric constant tensor:
#      x y z
#    x 3.606020 0.000000 -0.029820 
#    y 0.000000 3.814480 0.000000 
#    z -0.029820 0.000000 3.553170 
# 
# 
# High freq. dielectric constant tensor:
#      x y z
#    x 1.759190 0.000000 0.004050 
#    y 0.000000 1.749450 0.000000 
#    z 0.004050 0.000000 1.751710 
# 
# From -- ./inp_files/21275.got.cif
#   From: 2010.06.25/outbox.cif.g09.slc.cpg/sg11_11_cif.got.tgz:21275.got - 2010.06.27 23:14:04.
