data_PCOD8072235
_publ_section_title
;
Structure prediction by ZEFSAII (Michael W. Deem and Ramdas Pophale) SiO2 
 PCOD8072235
Probable space group: P 21/M
;
_chemical_formula_sum "Si O2"
_cell_formula_units_Z 32
_cell_length_a 22.481339
_cell_length_b 8.619361
_cell_length_c 28.430774
_cell_angle_alpha 90.000000
_cell_angle_beta 18.387050
_cell_angle_gamma 90.000000
_cell_volume 1737.781652
_symmetry_space_group_name_H-M "P 21/M"
_symmetry_group_IT_number 11
_symmetry_cell_setting 'monoclinic'
loop_
_space_group_symop_operation_xyz
x,y,z
-x,1/2+y,-z
-x,-y,-z
x,1/2-y,z
loop_
_atom_site_type_symbol
_atom_site_label
_atom_site_fract_x
_atom_site_fract_y
_atom_site_fract_z
Si Si1 0.711952 0.067197 0.594833
Si Si2 0.997746 0.432551 0.303283
Si Si3 0.995935 0.934832 0.806973
Si Si4 0.707185 0.566525 0.842323
Si Si5 0.301110 0.933152 0.900812
Si Si6 0.001694 0.568955 0.050034
Si Si7 0.998877 0.433139 0.552594
Si Si8 0.707569 0.934205 0.347359
O O1 0.737803 0.250000 0.582631
O O2 0.814083 0.010910 0.470158
O O3 0.494907 0.024498 0.754662
O O4 0.807983 0.983183 0.566901
O O5 0.990911 0.250000 0.303606
O O6 0.998133 0.501674 0.250609
O O7 0.185299 0.484089 0.190593
O O8 0.973487 0.750000 0.826508
O O9 0.190621 0.986430 0.684884
O O10 0.817345 0.016101 0.964957
O O11 0.701783 0.750000 0.840940
O O12 0.815176 0.498138 0.716602
O O13 0.500000 0.500000 0.000000
O O14 0.336585 0.750000 0.876165
O O15 0.187481 0.983311 0.939210
O O16 0.002398 0.750000 0.043413
O O17 0.816488 0.517241 0.217940
O O18 0.000000 0.500000 0.000000
O O19 0.985980 0.250000 0.560437
O O20 0.000000 0.500000 0.500000
O O21 0.708186 0.750000 0.354032
O O22 0.500000 0.000000 0.500000
#
# Coordination Sequence:
#
# PCOD8072235 Si02
#       8
#     4   4   4   4   4   4   4   4
#     4  10  20  37  58  81 108 142 180 223 271 322
#     4   8  18  35  55  78 107 138 176 221 266 315
#     4  10  19  35  57  80 105 140 180 222 268 317
#     4  10  20  37  57  81 112 147 184 226 273 325
#     4  10  21  37  53  78 112 144 178 221 267 320
#     4   9  20  36  54  76 106 139 178 223 268 316
#     4  11  22  38  58  82 111 145 183 228 276 327
#     4  10  21  37  54  78 108 139 174 218 266 320
#
# _framework density 18.414282
#
# number of rings (size 3 to 8) (size 9 to 14) (size 15 to 20)
#    0.000    2.250    0.000    4.500    0.000    5.000 
#    0.000   15.000    0.000    0.000    0.000    0.000 
#    0.000    0.000    0.000    0.000    0.000    0.000 
#
# Total GULP energy -396803.965485 kJ/mol
# GULP energy per Si atom -12400.123921 kJ/mol
# Density = 1.837237 g / cm^3
# Si number density = 18.414282 Si / 1000 Ang^3
#
#
#
# Elastic Constant Matrix: (Units=GPa)
#
#
# Indices 1 2 3 4 5 6 
#
# 1 166.7845 36.8374 87.1361 0.0000 19.1124 0.0000
# 2 36.8374 69.5072 32.3682 0.0000 3.7113 0.0000
# 3 87.1361 32.3682 137.8737 0.0000 -14.5103 0.0000
# 4 0.0000 0.0000 0.0000 34.1315 0.0000 -2.5477
# 5 19.1124 3.7113 -14.5103 0.0000 24.2170 0.0000
# 6 0.0000 0.0000 0.0000 -2.5477 0.0000 30.6603
#
#
#
# Elastic Compliance Matrix: (Units=1/GPa)
#
#
# Indices 1 2 3 4 5 6 
#
# 1 0.013242 -0.001666 -0.009660 0.000000 -0.015984 0.000000
# 2 -0.001666 0.016967 -0.003272 0.000000 -0.003246 0.000000
# 3 -0.009660 -0.003272 0.015990 0.000000 0.017706 0.000000
# 4 0.000000 0.000000 0.000000 0.029481 0.000000 0.002450
# 5 -0.015984 -0.003246 0.017706 0.000000 0.065015 0.000000
# 6 0.000000 0.000000 0.000000 0.002450 0.000000 0.032819
#
#
# Mechanical properties :
#
#
# Convention : Reuss Voigt Hill
#
# Bulk Modulus (GPa) = 58.81411 76.31655 67.56533
# Shear Modulus (GPa) = 23.99481 32.32334 28.15907
#
# Velocity S-wave (km/s) = 3.61370 4.19422 3.91474
# Velocity P-wave (km/s) = 7.02997 8.06161 7.56340
#
# Compressibility (1/GPa) = 0.01700272
#
# Stress axis : x y z
#
# Youngs Moduli (GPa) = 75.51510 58.93803 62.53963
#
# Poissons Ratio (x) = 0.09820 0.60415
# Poissons Ratio (y) = 0.12582 0.20462
# Poissons Ratio (z) = 0.72949 0.19284
#
# Static dielectric constant tensor:
#      x y z
#    x 3.437420 0.000000 -0.008570 
#    y 0.000000 3.427860 0.000000 
#    z -0.008570 0.000000 3.425890 
# 
# 
# High freq. dielectric constant tensor:
#      x y z
#    x 1.720090 0.000000 0.000170 
#    y 0.000000 1.717800 0.000000 
#    z 0.000170 0.000000 1.719700 
# 
# From -- ./inp_files/71976.got.cif
#   From: 2010.06.25/outbox.cif.g09.slc.cpg/sg11_36_cif.got.tgz:71976.got - 2010.06.27 23:14:04.
