data_PCOD8072457
_publ_section_title
;
Structure prediction by ZEFSAII (Michael W. Deem and Ramdas Pophale) SiO2 
 PCOD8072457
Probable space group: P 21/M
;
_chemical_formula_sum "Si O2"
_cell_formula_units_Z 32
_cell_length_a 21.545337
_cell_length_b 8.832933
_cell_length_c 28.009515
_cell_angle_alpha 90.000000
_cell_angle_beta 18.786380
_cell_angle_gamma 90.000000
_cell_volume 1716.621380
_symmetry_space_group_name_H-M "P 21/M"
_symmetry_group_IT_number 11
_symmetry_cell_setting 'monoclinic'
loop_
_space_group_symop_operation_xyz
x,y,z
-x,1/2+y,-z
-x,-y,-z
x,1/2-y,z
loop_
_atom_site_type_symbol
_atom_site_label
_atom_site_fract_x
_atom_site_fract_y
_atom_site_fract_z
Si Si1 0.981817 0.426827 0.564684
Si Si2 0.801370 0.571040 0.357987
Si Si3 0.900481 0.570569 0.181637
Si Si4 0.600089 0.928979 0.321628
Si Si5 0.705390 0.571917 0.841045
Si Si6 0.976646 0.074909 0.314954
Si Si7 0.300830 0.925520 0.848772
Si Si8 0.285577 0.077527 0.421207
O O1 0.940158 0.250000 0.589507
O O2 0.803469 0.499601 0.723018
O O3 0.000000 0.500000 0.500000
O O4 0.183358 0.459034 0.445296
O O5 0.789499 0.750000 0.366005
O O6 0.844104 0.504448 0.274388
O O7 0.603204 0.506183 0.521868
O O8 0.972905 0.518892 0.268435
O O9 0.896997 0.750000 0.185944
O O10 0.747978 0.510554 0.254005
O O11 0.114584 0.514215 0.012635
O O12 0.574826 0.750000 0.342509
O O13 0.682667 0.975451 0.210526
O O14 0.687056 0.750000 0.845605
O O15 0.830083 0.534253 0.797177
O O16 0.500000 0.500000 0.000000
O O17 0.963779 0.250000 0.311456
O O18 0.792217 0.032742 0.481277
O O19 0.278693 0.750000 0.850062
O O20 0.484931 0.948051 0.749626
O O21 0.237817 0.250000 0.471332
#
# Coordination Sequence:
#
# PCOD8072457 Si02
#       8
#     4   4   4   4   4   4   4   4
#     4  10  20  36  57  85 117 151 189 231 277 331
#     4  11  21  36  56  79 108 147 188 225 271 328
#     4   9  21  37  53  78 112 143 179 229 280 328
#     4  11  21  35  56  81 107 141 184 230 277 327
#     4  10  21  38  60  86 116 150 186 230 281 334
#     4  10  20  35  57  83 113 143 181 229 274 320
#     4  10  19  36  58  80 107 141 182 227 273 329
#     4   9  18  33  57  82 108 143 187 224 264 325
#
# _framework density 18.641268
#
# number of rings (size 3 to 8) (size 9 to 14) (size 15 to 20)
#    0.000    2.000    1.250    2.625    0.000    2.000 
#    2.250    3.750    0.000    0.000    0.000    0.000 
#    0.000    0.000    0.000    0.000    0.000    0.000 
#
# Total GULP energy -396857.018053 kJ/mol
# GULP energy per Si atom -12401.781814 kJ/mol
# Density = 1.859884 g / cm^3
# Si number density = 18.641268 Si / 1000 Ang^3
#
#
#
# Elastic Constant Matrix: (Units=GPa)
#
#
# Indices 1 2 3 4 5 6 
#
# 1 138.3663 46.5137 60.6192 0.0000 2.8630 0.0000
# 2 46.5137 72.6165 39.7068 0.0000 -0.8422 0.0000
# 3 60.6192 39.7068 104.7758 0.0000 -4.1776 0.0000
# 4 0.0000 0.0000 0.0000 20.3385 0.0000 -0.0847
# 5 2.8630 -0.8422 -4.1776 0.0000 27.4354 0.0000
# 6 0.0000 0.0000 0.0000 -0.0847 0.0000 30.2480
#
#
#
# Elastic Compliance Matrix: (Units=1/GPa)
#
#
# Indices 1 2 3 4 5 6 
#
# 1 0.010781 -0.004383 -0.004655 0.000000 -0.001968 0.000000
# 2 -0.004383 0.019159 -0.004712 0.000000 0.000328 0.000000
# 3 -0.004655 -0.004712 0.014122 0.000000 0.002491 0.000000
# 4 0.000000 0.000000 0.000000 0.049168 0.000000 0.000138
# 5 -0.001968 0.000328 0.002491 0.000000 0.037044 0.000000
# 6 0.000000 0.000000 0.000000 0.000138 0.000000 0.033060
#
#
# Mechanical properties :
#
#
# Convention : Reuss Voigt Hill
#
# Bulk Modulus (GPa) = 60.37669 67.71532 64.04600
# Shear Modulus (GPa) = 25.46428 26.86565 26.16496
#
# Velocity S-wave (km/s) = 3.69998 3.80042 3.75054
# Velocity P-wave (km/s) = 7.12124 7.46069 7.29294
#
# Compressibility (1/GPa) = 0.01656268
#
# Stress axis : x y z
#
# Youngs Moduli (GPa) = 92.75946 52.19602 70.81108
#
# Poissons Ratio (x) = 0.22878 0.32960
# Poissons Ratio (y) = 0.40657 0.33363
# Poissons Ratio (z) = 0.43176 0.24593
#
# Static dielectric constant tensor:
#      x y z
#    x 3.707770 0.000000 -0.092140 
#    y 0.000000 3.398370 0.000000 
#    z -0.092140 0.000000 3.441160 
# 
# 
# High freq. dielectric constant tensor:
#      x y z
#    x 1.732640 0.000000 -0.009700 
#    y 0.000000 1.720800 0.000000 
#    z -0.009700 0.000000 1.717390 
# 
# From -- ./inp_files/72102.got.cif
#   From: 2010.06.25/outbox.cif.g09.slc.cpg/sg11_37_cif.got.tgz:72102.got - 2010.06.27 23:14:04.
