data_PCOD8072497
_publ_section_title
;
Structure prediction by ZEFSAII (Michael W. Deem and Ramdas Pophale) SiO2 
 PCOD8072497
Probable space group: P 21/M
;
_chemical_formula_sum "Si O2"
_cell_formula_units_Z 32
_cell_length_a 16.668956
_cell_length_b 17.465721
_cell_length_c 12.579483
_cell_angle_alpha 90.000000
_cell_angle_beta 154.357250
_cell_angle_gamma 90.000000
_cell_volume 1584.905342
_symmetry_space_group_name_H-M "P 21/M"
_symmetry_group_IT_number 11
_symmetry_cell_setting 'monoclinic'
loop_
_space_group_symop_operation_xyz
x,y,z
-x,1/2+y,-z
-x,-y,-z
x,1/2-y,z
loop_
_atom_site_type_symbol
_atom_site_label
_atom_site_fract_x
_atom_site_fract_y
_atom_site_fract_z
Si Si1 0.471999 0.415535 0.843825
Si Si2 0.563023 0.406148 0.188985
Si Si3 0.303067 0.339563 0.048521
Si Si4 0.982965 0.159240 0.972023
Si Si5 0.420682 0.659555 0.445323
Si Si6 0.686467 0.339884 0.909918
Si Si7 0.024751 0.916334 0.253624
Si Si8 0.933824 0.904485 0.710179
O O1 0.489038 0.506263 0.852658
O O2 0.605586 0.381701 0.914635
O O3 0.259212 0.388767 0.580022
O O4 0.546564 0.385784 0.045439
O O5 0.420534 0.353166 0.082642
O O6 0.770146 0.387101 0.474223
O O7 0.259253 0.250000 0.006347
O O8 0.414564 0.372302 0.284890
O O9 0.111889 0.387418 0.815783
O O10 0.012192 0.250000 0.005140
O O11 0.098019 0.124226 0.207440
O O12 0.053281 0.123504 0.946304
O O13 0.771271 0.132561 0.732159
O O14 0.425871 0.750000 0.453006
O O15 0.427824 0.631470 0.331248
O O16 0.663534 0.250000 0.898592
O O17 0.904570 0.357562 0.155765
O O18 0.012869 0.006814 0.228151
#
# Coordination Sequence:
#
# PCOD8072497 Si02
#       8
#     4   4   4   4   4   4   4   4
#     4  10  23  42  65  85 114 164 205 241 296 355
#     4  10  23  44  61  84 122 158 201 252 293 343
#     4  11  22  37  60  89 120 158 200 242 297 354
#     4  10  19  36  59  85 123 157 190 244 302 351
#     4   8  17  34  55  82 118 153 185 236 295 344
#     4  10  21  39  61  89 122 155 197 246 297 351
#     4  11  22  37  60  89 119 157 201 241 295 359
#     4  10  22  39  59  89 122 154 197 246 297 353
#
# _framework density 20.190480999999998
#
# number of rings (size 3 to 8) (size 9 to 14) (size 15 to 20)
#    0.000    2.000    1.250    2.625    1.750    3.000 
#    0.000    6.875    0.000    0.000    0.000    0.000 
#    0.000    0.000    0.000    0.000    0.000    0.000 
#
# Total GULP energy -396843.374419 kJ/mol
# GULP energy per Si atom -12401.355451 kJ/mol
# Density = 2.014453 g / cm^3
# Si number density = 20.190481 Si / 1000 Ang^3
#
#
#
# Elastic Constant Matrix: (Units=GPa)
#
#
# Indices 1 2 3 4 5 6 
#
# 1 106.0450 9.4477 34.9892 0.0000 -9.1286 0.0000
# 2 9.4477 31.2270 19.4152 0.0000 -6.7385 0.0000
# 3 34.9892 19.4152 55.6853 0.0000 -9.9878 0.0000
# 4 0.0000 0.0000 0.0000 17.4278 0.0000 -2.3666
# 5 -9.1286 -6.7385 -9.9878 0.0000 29.4352 0.0000
# 6 0.0000 0.0000 0.0000 -2.3666 0.0000 30.1039
#
#
#
# Elastic Compliance Matrix: (Units=1/GPa)
#
#
# Indices 1 2 3 4 5 6 
#
# 1 0.011995 0.001538 -0.007819 0.000000 0.001419 0.000000
# 2 0.001538 0.041736 -0.014608 0.000000 0.005075 0.000000
# 3 -0.007819 -0.014608 0.028674 0.000000 0.003961 0.000000
# 4 0.000000 0.000000 0.000000 0.057999 0.000000 0.004559
# 5 0.001419 0.005075 0.003961 0.000000 0.036919 0.000000
# 6 0.000000 0.000000 0.000000 0.004559 0.000000 0.033577
#
#
# Mechanical properties :
#
#
# Convention : Reuss Voigt Hill
#
# Bulk Modulus (GPa) = 24.61324 35.62905 30.12114
# Shear Modulus (GPa) = 18.78159 24.00041 21.39100
#
# Velocity S-wave (km/s) = 3.05326 3.45149 3.25847
# Velocity P-wave (km/s) = 4.96456 5.79383 5.39515
#
# Compressibility (1/GPa) = 0.04062854
#
# Stress axis : x y z
#
# Youngs Moduli (GPa) = 83.36945 23.96032 34.87429
#
# Poissons Ratio (x) = -0.03686 0.27267
# Poissons Ratio (y) = -0.12826 0.50944
# Poissons Ratio (z) = 0.65184 0.35001
#
# Static dielectric constant tensor:
#      x y z
#    x 3.647840 0.000000 -0.098990 
#    y 0.000000 3.509480 0.000000 
#    z -0.098990 0.000000 3.830450 
# 
# 
# High freq. dielectric constant tensor:
#      x y z
#    x 1.792570 0.000000 0.004640 
#    y 0.000000 1.779620 0.000000 
#    z 0.004640 0.000000 1.788250 
# 
# From -- ./inp_files/40006.got.cif
#   From: 2010.06.25/outbox.cif.g09.slc.cpg/sg11_21_cif.got.tgz:40006.got - 2010.06.27 23:14:04.
