data_PCOD8072132
_publ_section_title
;
Structure prediction by ZEFSAII (Michael W. Deem and Ramdas Pophale) SiO2 
 PCOD8072132
Probable space group: P 21/M
;
_chemical_formula_sum "Si O2"
_cell_formula_units_Z 32
_cell_length_a 18.775930
_cell_length_b 13.663252
_cell_length_c 12.498395
_cell_angle_alpha 90.000000
_cell_angle_beta 29.304407
_cell_angle_gamma 90.000000
_cell_volume 1569.342351
_symmetry_space_group_name_H-M "P 21/M"
_symmetry_group_IT_number 11
_symmetry_cell_setting 'monoclinic'
loop_
_space_group_symop_operation_xyz
x,y,z
-x,1/2+y,-z
-x,-y,-z
x,1/2-y,z
loop_
_atom_site_type_symbol
_atom_site_label
_atom_site_fract_x
_atom_site_fract_y
_atom_site_fract_z
Si Si1 0.875927 0.443291 0.227557
Si Si2 0.946621 0.423924 0.485015
Si Si3 0.348742 0.000050 0.804065
Si Si4 0.511084 0.359816 0.004042
Si Si5 0.608851 0.366494 0.446672
Si Si6 0.279143 0.007264 0.373650
Si Si7 0.896651 0.858232 0.914865
Si Si8 0.710133 0.355666 0.937814
O O1 0.767547 0.383563 0.291656
O O2 0.772318 0.514776 0.434740
O O3 0.960760 0.371134 0.197478
O O4 0.000000 0.500000 0.000000
O O5 0.863200 0.487517 0.507008
O O6 0.000000 0.500000 0.500000
O O7 0.067938 0.365614 0.258690
O O8 0.846460 0.347442 0.678936
O O9 0.399699 0.910891 0.661909
O O10 0.275667 0.947315 0.001555
O O11 0.478694 0.072005 0.675066
O O12 0.228948 0.062829 0.895274
O O13 0.515754 0.250000 0.954308
O O14 0.598212 0.422730 0.801830
O O15 0.344487 0.393037 0.238940
O O16 0.571279 0.372249 0.045079
O O17 0.576254 0.250000 0.488107
O O18 0.834528 0.750000 0.018256
O O19 0.699655 0.250000 0.011286
#
# Coordination Sequence:
#
# PCOD8072132 Si02
#       8
#     4   4   4   4   4   4   4   4
#     4  11  22  41  63  86 121 166 203 253 303 354
#     4  10  19  35  58  83 121 155 188 241 293 354
#     4  11  22  39  62  87 122 152 198 258 301 351
#     4   9  18  36  59  85 115 150 192 239 295 359
#     4  11  24  41  61  87 118 158 204 250 306 360
#     4   9  20  35  59  85 116 150 196 241 297 350
#     4  11  22  39  63  89 120 159 204 246 298 361
#     4  10  19  34  59  86 114 156 194 233 298 363
#
# _framework density 20.390706999999999
#
# number of rings (size 3 to 8) (size 9 to 14) (size 15 to 20)
#    0.000    1.750    2.500    2.250    0.000    3.500 
#    0.000    2.500    0.000    0.000    0.000    0.000 
#    0.000    0.000    0.000    0.000    0.000    0.000 
#
# Total GULP energy -396547.637085 kJ/mol
# GULP energy per Si atom -12392.113659 kJ/mol
# Density = 2.034430 g / cm^3
# Si number density = 20.390707 Si / 1000 Ang^3
#
#
#
# Elastic Constant Matrix: (Units=GPa)
#
#
# Indices 1 2 3 4 5 6 
#
# 1 58.7286 39.2214 21.8289 0.0000 -0.2742 0.0000
# 2 39.2214 117.1915 36.6247 0.0000 0.9425 0.0000
# 3 21.8289 36.6247 92.9111 0.0000 7.6417 0.0000
# 4 0.0000 0.0000 0.0000 20.6668 0.0000 -0.5539
# 5 -0.2742 0.9425 7.6417 0.0000 32.1097 0.0000
# 6 0.0000 0.0000 0.0000 -0.5539 0.0000 23.8670
#
#
#
# Elastic Compliance Matrix: (Units=1/GPa)
#
#
# Indices 1 2 3 4 5 6 
#
# 1 0.022517 -0.006688 -0.002739 0.000000 0.001041 0.000000
# 2 -0.006688 0.011731 -0.003080 0.000000 0.000332 0.000000
# 3 -0.002739 -0.003080 0.012867 0.000000 -0.002995 0.000000
# 4 0.000000 0.000000 0.000000 0.048417 0.000000 0.001124
# 5 0.001041 0.000332 -0.002995 0.000000 0.031855 0.000000
# 6 0.000000 0.000000 0.000000 0.001124 0.000000 0.041925
#
#
# Mechanical properties :
#
#
# Convention : Reuss Voigt Hill
#
# Bulk Modulus (GPa) = 45.24921 51.57568 48.41245
# Shear Modulus (GPa) = 24.78984 26.73912 25.76448
#
# Velocity S-wave (km/s) = 3.49053 3.62517 3.55849
# Velocity P-wave (km/s) = 6.20358 6.54760 6.37791
#
# Compressibility (1/GPa) = 0.02209983
#
# Stress axis : x y z
#
# Youngs Moduli (GPa) = 44.41042 85.24087 77.71713
#
# Poissons Ratio (x) = 0.57011 0.21290
# Poissons Ratio (y) = 0.29703 0.23940
# Poissons Ratio (z) = 0.12166 0.26257
#
# Static dielectric constant tensor:
#      x y z
#    x 3.602140 0.000000 -0.103910 
#    y 0.000000 3.541400 0.000000 
#    z -0.103910 0.000000 3.562330 
# 
# 
# High freq. dielectric constant tensor:
#      x y z
#    x 1.787470 0.000000 -0.001290 
#    y 0.000000 1.787170 0.000000 
#    z -0.001290 0.000000 1.801110 
# 
# From -- ./inp_files/41650.got.cif
#   From: 2010.06.25/outbox.cif.g09.slc.cpg/sg11_21_cif.got.tgz:41650.got - 2010.06.27 23:14:04.
