data_PCOD8072731
_publ_section_title
;
Structure prediction by ZEFSAII (Michael W. Deem and Ramdas Pophale) SiO2 
 PCOD8072731
Probable space group: P 21/M
;
_chemical_formula_sum "Si O2"
_cell_formula_units_Z 28
_cell_length_a 13.903986
_cell_length_b 21.774772
_cell_length_c 8.671400
_cell_angle_alpha 90.000000
_cell_angle_beta 151.197929
_cell_angle_gamma 90.000000
_cell_volume 1264.840452
_symmetry_space_group_name_H-M "P 21/M"
_symmetry_group_IT_number 11
_symmetry_cell_setting 'monoclinic'
loop_
_space_group_symop_operation_xyz
x,y,z
-x,1/2+y,-z
-x,-y,-z
x,1/2-y,z
loop_
_atom_site_type_symbol
_atom_site_label
_atom_site_fract_x
_atom_site_fract_y
_atom_site_fract_z
Si Si1 0.757639 0.319849 0.247600
Si Si2 0.820413 0.679500 0.322577
Si Si3 0.897972 0.905325 0.710653
Si Si4 0.293642 0.371090 0.135868
Si Si5 0.132453 0.500784 0.837101
Si Si6 0.949739 0.319021 0.829125
Si Si7 0.489993 0.587086 0.289104
O O1 0.686725 0.250000 0.127332
O O2 0.783949 0.335167 0.466170
O O3 0.961731 0.331335 0.442651
O O4 0.589540 0.363075 0.942479
O O5 0.776629 0.750000 0.302567
O O6 0.801007 0.639197 0.447209
O O7 0.659087 0.655757 0.968156
O O8 0.713112 0.932595 0.549726
O O9 0.021688 0.960879 0.813374
O O10 0.053527 0.866663 0.033962
O O11 0.495072 0.384274 0.516506
O O12 0.159926 0.432544 0.936769
O O13 0.166011 0.320809 0.050486
O O14 0.000000 0.500000 0.500000
O O15 0.348739 0.528100 0.097324
O O16 0.916609 0.250000 0.846028
#
# Coordination Sequence:
#
# PCOD8072731 Si02
#       7
#     4   4   4   4   4   4   4
#     4   9  18  37  63  89 126 170 207 257 320 378
#     4  10  19  39  66  93 125 167 211 256 318 383
#     4  11  23  40  67  96 122 171 207 264 321 370
#     4  10  21  39  64  93 125 168 209 261 322 369
#     4  12  23  45  66  89 132 168 215 262 313 376
#     4   9  19  38  64  93 126 164 210 261 318 377
#     4  11  24  40  63  96 126 165 214 262 315 376
#
# _framework density 22.137179
#
# number of rings (size 3 to 8) (size 9 to 14) (size 15 to 20)
#    0.000    1.714    2.857    3.000    0.000    6.286 
#    2.571    0.000    0.000    0.000    0.000    0.000 
#    0.000    0.000    0.000    0.000    0.000    0.000 
#
# Total GULP energy -347183.101233 kJ/mol
# GULP energy per Si atom -12399.396473 kJ/mol
# Density = 2.208679 g / cm^3
# Si number density = 22.137179 Si / 1000 Ang^3
#
#
#
# Elastic Constant Matrix: (Units=GPa)
#
#
# Indices 1 2 3 4 5 6 
#
# 1 65.3846 11.3982 14.8616 0.0000 -1.0209 0.0000
# 2 11.3982 69.6431 18.5786 0.0000 7.7250 0.0000
# 3 14.8616 18.5786 94.8507 0.0000 -18.7144 0.0000
# 4 0.0000 0.0000 0.0000 33.3483 0.0000 -7.6921
# 5 -1.0209 7.7250 -18.7144 0.0000 35.7191 0.0000
# 6 0.0000 0.0000 0.0000 -7.6921 0.0000 36.5979
#
#
#
# Elastic Compliance Matrix: (Units=1/GPa)
#
#
# Indices 1 2 3 4 5 6 
#
# 1 0.016140 -0.002034 -0.002178 0.000000 -0.000240 0.000000
# 2 -0.002034 0.016398 -0.004020 0.000000 -0.005711 0.000000
# 3 -0.002178 -0.004020 0.013195 0.000000 0.007720 0.000000
# 4 0.000000 0.000000 0.000000 0.031514 0.000000 0.006624
# 5 -0.000240 -0.005711 0.007720 0.000000 0.033269 0.000000
# 6 0.000000 0.000000 0.000000 0.006624 0.000000 0.028716
#
#
# Mechanical properties :
#
#
# Convention : Reuss Voigt Hill
#
# Bulk Modulus (GPa) = 34.16582 35.50614 34.83598
# Shear Modulus (GPa) = 30.22031 33.46907 31.84469
#
# Velocity S-wave (km/s) = 3.69879 3.89253 3.79689
# Velocity P-wave (km/s) = 5.80591 6.02298 5.91544
#
# Compressibility (1/GPa) = 0.02926901
#
# Stress axis : x y z
#
# Youngs Moduli (GPa) = 61.95808 60.98435 75.78782
#
# Poissons Ratio (x) = 0.12404 0.16505
# Poissons Ratio (y) = 0.12602 0.30466
# Poissons Ratio (z) = 0.13493 0.24515
#
# Static dielectric constant tensor:
#      x y z
#    x 3.821980 0.000000 -0.410440 
#    y 0.000000 4.094720 0.000000 
#    z -0.410440 0.000000 4.133760 
# 
# 
# High freq. dielectric constant tensor:
#      x y z
#    x 1.857000 0.000000 -0.027930 
#    y 0.000000 1.871620 0.000000 
#    z -0.027930 0.000000 1.874870 
# 
# From -- ./inp_files/23236.got.cif
#   From: 2010.06.25/outbox.cif.g09.slc.cpg/sg11_12_cif.got.tgz:23236.got - 2010.06.27 23:14:04.
