data_PCOD8072301
_publ_section_title
;
Structure prediction by ZEFSAII (Michael W. Deem and Ramdas Pophale) SiO2 
 PCOD8072301
Probable space group: P 21/M
;
_chemical_formula_sum "Si O2"
_cell_formula_units_Z 32
_cell_length_a 12.064064
_cell_length_b 8.632341
_cell_length_c 29.009837
_cell_angle_alpha 90.000000
_cell_angle_beta 149.182688
_cell_angle_gamma 90.000000
_cell_volume 1547.725294
_symmetry_space_group_name_H-M "P 21/M"
_symmetry_group_IT_number 11
_symmetry_cell_setting 'monoclinic'
loop_
_space_group_symop_operation_xyz
x,y,z
-x,1/2+y,-z
-x,-y,-z
x,1/2-y,z
loop_
_atom_site_type_symbol
_atom_site_label
_atom_site_fract_x
_atom_site_fract_y
_atom_site_fract_z
Si Si1 0.871255 0.932366 0.997466
Si Si2 0.519676 0.928874 0.305707
Si Si3 0.403123 0.566308 0.418884
Si Si4 0.032081 0.933295 0.775740
Si Si5 0.218450 0.568459 0.676868
Si Si6 0.925971 0.930156 0.839961
Si Si7 0.609681 0.069415 0.163950
Si Si8 0.232976 0.070481 0.518486
O O1 0.863583 0.750000 0.986897
O O2 0.986141 0.968983 0.086593
O O3 0.628586 0.005430 0.914530
O O4 0.000000 0.000000 0.000000
O O5 0.446428 0.750000 0.280396
O O6 0.725867 0.958409 0.412683
O O7 0.586086 0.979634 0.278375
O O8 0.327084 0.035405 0.255322
O O9 0.500000 0.500000 0.500000
O O10 0.395755 0.750000 0.418777
O O11 0.562139 0.503208 0.435789
O O12 0.163661 0.507448 0.322546
O O13 0.006924 0.750000 0.761461
O O14 0.037074 0.981243 0.831383
O O15 0.257882 0.992592 0.833355
O O16 0.240169 0.750000 0.673242
O O17 0.240210 0.533844 0.738510
O O18 0.992132 0.494604 0.578481
O O19 0.965633 0.750000 0.864416
O O20 0.570280 0.250000 0.143636
O O21 0.213166 0.250000 0.499193
#
# Coordination Sequence:
#
# PCOD8072301 Si02
#       8
#     4   4   4   4   4   4   4   4
#     4  11  23  41  66  94 124 159 199 244 299 362
#     4  11  21  36  56  83 119 156 198 247 299 356
#     4  11  21  36  57  84 119 160 205 248 298 353
#     4  10  21  40  63  87 117 157 203 247 297 359
#     4  10  19  35  58  83 114 155 198 244 300 359
#     4  11  23  39  62  90 120 157 202 252 303 358
#     4   9  20  39  62  86 117 155 196 241 300 359
#     4   9  19  34  54  80 115 156 196 241 298 358
#
# _framework density 20.675505000000001
#
# number of rings (size 3 to 8) (size 9 to 14) (size 15 to 20)
#    0.000    1.750    1.250    3.375    0.000    4.000 
#    0.000    5.625    0.000    0.000    0.000    0.000 
#    0.000    0.000    0.000    0.000    0.000    0.000 
#
# Total GULP energy -396763.474665 kJ/mol
# GULP energy per Si atom -12398.858583 kJ/mol
# Density = 2.062845 g / cm^3
# Si number density = 20.675505 Si / 1000 Ang^3
#
#
#
# Elastic Constant Matrix: (Units=GPa)
#
#
# Indices 1 2 3 4 5 6 
#
# 1 171.7749 31.9577 61.6195 0.0000 11.3452 0.0000
# 2 31.9577 41.3305 22.7153 0.0000 -0.8251 0.0000
# 3 61.6195 22.7153 114.2426 0.0000 6.6144 0.0000
# 4 0.0000 0.0000 0.0000 26.2798 0.0000 -0.4095
# 5 11.3452 -0.8251 6.6144 0.0000 36.7712 0.0000
# 6 0.0000 0.0000 0.0000 -0.4095 0.0000 22.1124
#
#
#
# Elastic Compliance Matrix: (Units=1/GPa)
#
#
# Indices 1 2 3 4 5 6 
#
# 1 0.007949 -0.004369 -0.003306 0.000000 -0.001956 0.000000
# 2 -0.004369 0.029658 -0.003696 0.000000 0.002678 0.000000
# 3 -0.003306 -0.003696 0.011335 0.000000 -0.001102 0.000000
# 4 0.000000 0.000000 0.000000 0.038063 0.000000 0.000705
# 5 -0.001956 0.002678 -0.001102 0.000000 0.028057 0.000000
# 6 0.000000 0.000000 0.000000 0.000705 0.000000 0.045237
#
#
# Mechanical properties :
#
#
# Convention : Reuss Voigt Hill
#
# Bulk Modulus (GPa) = 38.16536 62.21479 50.19007
# Shear Modulus (GPa) = 26.07245 31.10304 28.58774
#
# Velocity S-wave (km/s) = 3.55495 3.88279 3.72248
# Velocity P-wave (km/s) = 5.94555 7.08928 6.54245
#
# Compressibility (1/GPa) = 0.02620177
#
# Stress axis : x y z
#
# Youngs Moduli (GPa) = 125.79531 33.71784 88.22260
#
# Poissons Ratio (x) = 0.14731 0.29164
# Poissons Ratio (y) = 0.54958 0.32604
# Poissons Ratio (z) = 0.41585 0.12461
#
# Static dielectric constant tensor:
#      x y z
#    x 4.027320 0.000000 0.168090 
#    y 0.000000 3.446090 0.000000 
#    z 0.168090 0.000000 3.801230 
# 
# 
# High freq. dielectric constant tensor:
#      x y z
#    x 1.824980 0.000000 0.001160 
#    y 0.000000 1.780980 0.000000 
#    z 0.001160 0.000000 1.812980 
# 
# From -- ./inp_files/38205.got.cif
#   From: 2010.06.25/outbox.cif.g09.slc.cpg/sg11_20_cif.got.tgz:38205.got - 2010.06.27 23:14:04.
