data_PCOD8072239
_publ_section_title
;
Structure prediction by ZEFSAII (Michael W. Deem and Ramdas Pophale) SiO2 
 PCOD8072239
Probable space group: P 21/M
;
_chemical_formula_sum "Si O2"
_cell_formula_units_Z 32
_cell_length_a 15.276252
_cell_length_b 9.255777
_cell_length_c 11.918683
_cell_angle_alpha 90.000000
_cell_angle_beta 88.936723
_cell_angle_gamma 90.000000
_cell_volume 1684.935104
_symmetry_space_group_name_H-M "P 21/M"
_symmetry_group_IT_number 11
_symmetry_cell_setting 'monoclinic'
loop_
_space_group_symop_operation_xyz
x,y,z
-x,1/2+y,-z
-x,-y,-z
x,1/2-y,z
loop_
_atom_site_type_symbol
_atom_site_label
_atom_site_fract_x
_atom_site_fract_y
_atom_site_fract_z
Si Si1 0.253235 0.578463 0.637606
Si Si2 0.094707 0.582130 0.794210
Si Si3 0.339901 0.584123 0.994738
Si Si4 0.596660 0.081018 0.763103
Si Si5 0.424300 0.583620 0.760330
Si Si6 0.898008 0.583814 0.755773
Si Si7 0.837620 0.920888 0.003602
Si Si8 0.237535 0.578790 0.384808
O O1 0.253784 0.750000 0.639641
O O2 0.168986 0.522538 0.708179
O O3 0.341648 0.520128 0.693685
O O4 0.248396 0.520695 0.510932
O O5 0.109792 0.750000 0.823926
O O6 0.096426 0.491740 0.908913
O O7 0.001347 0.559163 0.737401
O O8 0.306615 0.750000 0.001339
O O9 0.409080 0.563516 0.893385
O O10 0.258793 0.481195 0.971796
O O11 0.386348 0.537998 0.108563
O O12 0.581327 0.250000 0.748528
O O13 0.678435 0.027045 0.687697
O O14 0.510228 0.002181 0.720829
O O15 0.439390 0.750000 0.728995
O O16 0.872135 0.750000 0.737854
O O17 0.849936 0.488791 0.664120
O O18 0.869112 0.532752 0.879824
O O19 0.838253 0.750000 0.019727
O O20 0.227150 0.750000 0.380705
#
# Coordination Sequence:
#
# PCOD8072239 Si02
#       8
#     4   4   4   4   4   4   4   4
#     4   9  19  37  59  81 106 145 192 228 268 325
#     4  10  20  38  60  80 112 151 183 220 274 335
#     4  10  19  35  57  80 107 149 185 215 277 341
#     4  10  21  35  54  82 112 142 181 225 275 329
#     4  10  20  35  57  81 108 144 184 223 272 332
#     4  10  22  37  56  84 114 146 182 226 277 326
#     4  11  21  33  54  86 116 141 179 229 275 323
#     4  10  21  38  59  80 108 147 189 231 271 322
#
# _framework density 18.991828999999999
#
# number of rings (size 3 to 8) (size 9 to 14) (size 15 to 20)
#    0.000    2.000    2.500    1.125    0.000    3.500 
#    0.000    1.250    0.000    0.000    0.000    0.000 
#    0.000    0.000    0.000    0.000    0.000    0.000 
#
# Total GULP energy -396921.790770 kJ/mol
# GULP energy per Si atom -12403.805962 kJ/mol
# Density = 1.894860 g / cm^3
# Si number density = 18.991829 Si / 1000 Ang^3
#
#
#
# Elastic Constant Matrix: (Units=GPa)
#
#
# Indices 1 2 3 4 5 6 
#
# 1 121.5980 34.1535 46.2194 0.0000 12.2654 0.0000
# 2 34.1535 41.5126 29.0727 0.0000 5.4461 0.0000
# 3 46.2194 29.0727 123.0819 0.0000 15.8339 0.0000
# 4 0.0000 0.0000 0.0000 16.0184 0.0000 9.0130
# 5 12.2654 5.4461 15.8339 0.0000 18.5413 0.0000
# 6 0.0000 0.0000 0.0000 9.0130 0.0000 32.5857
#
#
#
# Elastic Compliance Matrix: (Units=1/GPa)
#
#
# Indices 1 2 3 4 5 6 
#
# 1 0.011491 -0.007528 -0.002071 0.000000 -0.003622 0.000000
# 2 -0.007528 0.033944 -0.005110 0.000000 -0.000626 0.000000
# 3 -0.002071 -0.005110 0.010942 0.000000 -0.006473 0.000000
# 4 0.000000 0.000000 0.000000 0.073935 0.000000 -0.020450
# 5 -0.003622 -0.000626 -0.006473 0.000000 0.062041 0.000000
# 6 0.000000 0.000000 0.000000 -0.020450 0.000000 0.036345
#
#
# Mechanical properties :
#
#
# Convention : Reuss Voigt Hill
#
# Bulk Modulus (GPa) = 37.09474 56.12039 46.60756
# Shear Modulus (GPa) = 18.71943 25.21223 21.96583
#
# Velocity S-wave (km/s) = 3.14292 3.64748 3.40456
# Velocity P-wave (km/s) = 5.72232 6.88133 6.32842
#
# Compressibility (1/GPa) = 0.02695800
#
# Stress axis : x y z
#
# Youngs Moduli (GPa) = 87.02652 29.46050 91.38980
#
# Poissons Ratio (x) = 0.22179 0.18925
# Poissons Ratio (y) = 0.65516 0.46702
# Poissons Ratio (z) = 0.18022 0.15055
#
# Static dielectric constant tensor:
#      x y z
#    x 3.467190 0.000000 -0.007060 
#    y 0.000000 3.248840 0.000000 
#    z -0.007060 0.000000 3.590250 
# 
# 
# High freq. dielectric constant tensor:
#      x y z
#    x 1.746210 0.000000 0.001440 
#    y 0.000000 1.715620 0.000000 
#    z 0.001440 0.000000 1.738630 
# 
# From -- ./inp_files/38080.got.cif
#   From: 2010.06.25/outbox.cif.g09.slc.cpg/sg11_20_cif.got.tgz:38080.got - 2010.06.27 23:14:04.
