data_PCOD8072998
_publ_section_title
;
Structure prediction by ZEFSAII (Michael W. Deem and Ramdas Pophale) SiO2 
 PCOD8072998
Probable space group: P 21/M
;
_chemical_formula_sum "Si O2"
_cell_formula_units_Z 24
_cell_length_a 21.287761
_cell_length_b 8.784338
_cell_length_c 22.523220
_cell_angle_alpha 90.000000
_cell_angle_beta 18.365719
_cell_angle_gamma 90.000000
_cell_volume 1327.064604
_symmetry_space_group_name_H-M "P 21/M"
_symmetry_group_IT_number 11
_symmetry_cell_setting 'monoclinic'
loop_
_space_group_symop_operation_xyz
x,y,z
-x,1/2+y,-z
-x,-y,-z
x,1/2-y,z
loop_
_atom_site_type_symbol
_atom_site_label
_atom_site_fract_x
_atom_site_fract_y
_atom_site_fract_z
Si Si1 0.890825 0.927816 0.269903
Si Si2 0.539623 0.430580 0.299092
Si Si3 0.081343 0.070200 0.986907
Si Si4 0.607296 0.070201 0.988564
Si Si5 0.197110 0.428703 0.296476
Si Si6 0.287279 0.927456 0.977802
O O1 0.892690 0.750000 0.251361
O O2 0.680296 0.980739 0.484836
O O3 0.055706 0.963069 0.172229
O O4 0.934610 0.022411 0.171622
O O5 0.572241 0.250000 0.273560
O O6 0.695656 0.508708 0.203236
O O7 0.578330 0.490060 0.197179
O O8 0.086503 0.250000 0.976845
O O9 0.000000 0.000000 0.000000
O O10 0.643544 0.250000 0.953323
O O11 0.382150 0.027023 0.172823
O O12 0.648229 0.999724 0.017291
O O13 0.765544 0.993866 0.802527
O O14 0.168683 0.250000 0.317455
O O15 0.000000 0.500000 0.500000
O O16 0.326894 0.750000 0.947842
#
# Coordination Sequence:
#
# PCOD8072998 Si02
#       6
#     4   4   4   4   4   4
#     4   9  18  34  56  79 103 131 166 209 253 298
#     4   9  18  34  55  78 103 130 164 206 251 300
#     4  11  22  36  54  75 103 136 170 208 249 296
#     4   9  18  33  53  75 100 132 171 212 252 297
#     4  10  20  33  50  73 102 135 171 212 256 302
#     4   8  15  30  53  79 102 128 166 209 251 297
#
# _framework density 18.085027
#
# number of rings (size 3 to 8) (size 9 to 14) (size 15 to 20)
#    0.000    2.667    0.000    3.000    0.000    3.333 
#    0.000    8.333    0.000    4.000    0.000    0.000 
#    0.000    0.000    0.000    0.000    0.000    0.000 
#
# Total GULP energy -297584.966287 kJ/mol
# GULP energy per Si atom -12399.373595 kJ/mol
# Density = 1.804386 g / cm^3
# Si number density = 18.085027 Si / 1000 Ang^3
#
#
#
# Elastic Constant Matrix: (Units=GPa)
#
#
# Indices 1 2 3 4 5 6 
#
# 1 148.3943 38.5821 59.5069 0.0000 4.4935 0.0000
# 2 38.5821 58.6493 41.4888 0.0000 0.6507 0.0000
# 3 59.5069 41.4888 155.6600 0.0000 -6.4932 0.0000
# 4 0.0000 0.0000 0.0000 28.0663 0.0000 1.8780
# 5 4.4935 0.6507 -6.4932 0.0000 14.2225 0.0000
# 6 0.0000 0.0000 0.0000 1.8780 0.0000 24.3703
#
#
#
# Elastic Compliance Matrix: (Units=1/GPa)
#
#
# Indices 1 2 3 4 5 6 
#
# 1 0.008902 -0.004062 -0.002477 0.000000 -0.003758 0.000000
# 2 -0.004062 0.023047 -0.004669 0.000000 -0.001903 0.000000
# 3 -0.002477 -0.004669 0.008825 0.000000 0.005025 0.000000
# 4 0.000000 0.000000 0.000000 0.035815 0.000000 -0.002760
# 5 -0.003758 -0.001903 0.005025 0.000000 0.073880 0.000000
# 6 0.000000 0.000000 0.000000 -0.002760 0.000000 0.041246
#
#
# Mechanical properties :
#
#
# Convention : Reuss Voigt Hill
#
# Bulk Modulus (GPa) = 54.47446 71.31769 62.89607
# Shear Modulus (GPa) = 22.70134 28.20688 25.45411
#
# Velocity S-wave (km/s) = 3.54680 3.95356 3.75569
# Velocity P-wave (km/s) = 6.85272 7.76924 7.32533
#
# Compressibility (1/GPa) = 0.01835723
#
# Stress axis : x y z
#
# Youngs Moduli (GPa) = 112.33300 43.38974 113.30899
#
# Poissons Ratio (x) = 0.17625 0.28069
# Poissons Ratio (y) = 0.45631 0.52907
# Poissons Ratio (z) = 0.27827 0.20260
#
# Static dielectric constant tensor:
#      x y z
#    x 3.788310 0.000000 0.079600 
#    y 0.000000 3.154090 0.000000 
#    z 0.079600 0.000000 3.496100 
# 
# 
# High freq. dielectric constant tensor:
#      x y z
#    x 1.706110 0.000000 0.001960 
#    y 0.000000 1.681500 0.000000 
#    z 0.001960 0.000000 1.705120 
# 
# From -- ./inp_files/66386.got.cif
#   From: 2010.06.25/outbox.cif.g09.slc.cpg/sg11_34_cif.got.tgz:66386.got - 2010.06.27 23:14:04.
