data_PCOD8072473
_publ_section_title
;
Structure prediction by ZEFSAII (Michael W. Deem and Ramdas Pophale) SiO2 
 PCOD8072473
Probable space group: P 21/M
;
_chemical_formula_sum "Si O2"
_cell_formula_units_Z 32
_cell_length_a 9.926985
_cell_length_b 16.982837
_cell_length_c 16.316463
_cell_angle_alpha 90.000000
_cell_angle_beta 142.962838
_cell_angle_gamma 90.000000
_cell_volume 1656.876759
_symmetry_space_group_name_H-M "P 21/M"
_symmetry_group_IT_number 11
_symmetry_cell_setting 'monoclinic'
loop_
_space_group_symop_operation_xyz
x,y,z
-x,1/2+y,-z
-x,-y,-z
x,1/2-y,z
loop_
_atom_site_type_symbol
_atom_site_label
_atom_site_fract_x
_atom_site_fract_y
_atom_site_fract_z
Si Si1 0.973933 0.607956 0.239764
Si Si2 0.556591 0.156989 0.590601
Si Si3 0.238662 0.157404 0.286000
Si Si4 0.094132 0.895588 0.477075
Si Si5 0.458422 0.159794 0.053829
Si Si6 0.883935 0.425873 0.211551
Si Si7 0.190857 0.426636 0.510792
Si Si8 0.529749 0.838856 0.759898
O O1 0.197532 0.619053 0.294600
O O2 0.015112 0.639657 0.351941
O O3 0.890435 0.518612 0.200857
O O4 0.780551 0.659933 0.105876
O O5 0.570207 0.250000 0.614371
O O6 0.432406 0.137436 0.445394
O O7 0.424594 0.114930 0.601079
O O8 0.195857 0.250000 0.262520
O O9 0.009472 0.114812 0.197022
O O10 0.315480 0.122422 0.235388
O O11 0.272713 0.838878 0.606075
O O12 0.878698 0.900916 0.431573
O O13 0.216287 0.979321 0.521693
O O14 0.546235 0.250000 0.100467
O O15 0.438906 0.121463 0.135800
O O16 0.631501 0.105808 0.087843
O O17 0.999377 0.400800 0.353283
O O18 0.610148 0.750000 0.808553
#
# Coordination Sequence:
#
# PCOD8072473 Si02
#       8
#     4   4   4   4   4   4   4   4
#     4  11  23  36  58  86 116 151 185 233 288 343
#     4  10  20  35  55  84 118 150 186 229 286 342
#     4   9  18  33  56  85 110 142 191 239 275 326
#     4  10  19  36  58  87 117 142 190 236 281 330
#     4  11  23  40  57  78 114 154 190 231 284 341
#     4  10  20  36  58  84 112 149 191 234 280 339
#     4   9  20  34  58  88 115 149 180 240 285 330
#     4  10  20  34  57  82 109 146 191 233 272 332
#
# _framework density 19.313447
#
# number of rings (size 3 to 8) (size 9 to 14) (size 15 to 20)
#    0.000    2.000    2.500    1.125    1.750    3.000 
#    0.000    1.875    0.000    0.000    0.000    0.000 
#    0.000    0.000    0.000    0.000    0.000    0.000 
#
# Total GULP energy -396821.238047 kJ/mol
# GULP energy per Si atom -12400.663689 kJ/mol
# Density = 1.926949 g / cm^3
# Si number density = 19.313447 Si / 1000 Ang^3
#
#
#
# Elastic Constant Matrix: (Units=GPa)
#
#
# Indices 1 2 3 4 5 6 
#
# 1 143.4799 44.3267 52.1626 0.0000 8.3530 0.0000
# 2 44.3267 55.8432 15.8988 0.0000 4.0247 0.0000
# 3 52.1626 15.8988 88.5855 0.0000 2.9107 0.0000
# 4 0.0000 0.0000 0.0000 23.0627 0.0000 5.1599
# 5 8.3530 4.0247 2.9107 0.0000 26.8197 0.0000
# 6 0.0000 0.0000 0.0000 5.1599 0.0000 26.0554
#
#
#
# Elastic Compliance Matrix: (Units=1/GPa)
#
#
# Indices 1 2 3 4 5 6 
#
# 1 0.011238 -0.007294 -0.005248 0.000000 -0.001836 0.000000
# 2 -0.007294 0.023770 0.000071 0.000000 -0.001303 0.000000
# 3 -0.005248 0.000071 0.014364 0.000000 0.000065 0.000000
# 4 0.000000 0.000000 0.000000 0.045370 0.000000 -0.008985
# 5 -0.001836 -0.001303 0.000065 0.000000 0.038046 0.000000
# 6 0.000000 0.000000 0.000000 -0.008985 0.000000 0.040159
#
#
# Mechanical properties :
#
#
# Convention : Reuss Voigt Hill
#
# Bulk Modulus (GPa) = 40.93058 56.96498 48.94778
# Shear Modulus (GPa) = 24.26813 26.88893 25.57853
#
# Velocity S-wave (km/s) = 3.54862 3.73532 3.64316
# Velocity P-wave (km/s) = 6.16677 6.93992 6.56474
#
# Compressibility (1/GPa) = 0.02443161
#
# Stress axis : x y z
#
# Youngs Moduli (GPa) = 88.98623 42.06913 69.61992
#
# Poissons Ratio (x) = 0.30684 0.36535
# Poissons Ratio (y) = 0.64904 -0.00498
# Poissons Ratio (z) = 0.46698 -0.00301
#
# Static dielectric constant tensor:
#      x y z
#    x 3.751330 0.000000 -0.116640 
#    y 0.000000 3.357680 0.000000 
#    z -0.116640 0.000000 3.257730 
# 
# 
# High freq. dielectric constant tensor:
#      x y z
#    x 1.765660 0.000000 0.000550 
#    y 0.000000 1.742540 0.000000 
#    z 0.000550 0.000000 1.720150 
# 
# From -- ./inp_files/48281.got.cif
#   From: 2010.06.25/outbox.cif.g09.slc.cpg/sg11_25_cif.got.tgz:48281.got - 2010.06.27 23:14:04.
