data_PCOD8072332
_publ_section_title
;
Structure prediction by ZEFSAII (Michael W. Deem and Ramdas Pophale) SiO2 
 PCOD8072332
Probable space group: P 21/M
;
_chemical_formula_sum "Si O2"
_cell_formula_units_Z 32
_cell_length_a 14.933201
_cell_length_b 18.824147
_cell_length_c 11.210442
_cell_angle_alpha 90.000000
_cell_angle_beta 149.559326
_cell_angle_gamma 90.000000
_cell_volume 1596.597745
_symmetry_space_group_name_H-M "P 21/M"
_symmetry_group_IT_number 11
_symmetry_cell_setting 'monoclinic'
loop_
_space_group_symop_operation_xyz
x,y,z
-x,1/2+y,-z
-x,-y,-z
x,1/2-y,z
loop_
_atom_site_type_symbol
_atom_site_label
_atom_site_fract_x
_atom_site_fract_y
_atom_site_fract_z
Si Si1 0.499750 0.063462 0.318829
Si Si2 0.949836 0.671244 0.089689
Si Si3 0.321701 0.577846 0.141328
Si Si4 0.426552 0.169559 0.431029
Si Si5 0.362742 0.420395 0.905721
Si Si6 0.144475 0.940429 0.171261
Si Si7 0.955962 0.833751 0.367430
Si Si8 0.294969 0.581697 0.838149
O O1 0.487084 0.137489 0.374083
O O2 0.681218 0.025632 0.569012
O O3 0.350685 0.006913 0.185125
O O4 0.488478 0.078192 0.166063
O O5 0.030007 0.750000 0.184500
O O6 0.099966 0.621449 0.212162
O O7 0.894137 0.650627 0.160870
O O8 0.785161 0.666490 0.810182
O O9 0.496212 0.624226 0.370582
O O10 0.174020 0.593162 0.072787
O O11 0.260711 0.596948 0.938591
O O12 0.496557 0.250000 0.519880
O O13 0.277151 0.498156 0.784295
O O14 0.199129 0.365615 0.726717
O O15 0.502161 0.396245 0.963013
O O16 0.000000 0.000000 0.000000
O O17 0.975940 0.750000 0.418089
O O18 0.144952 0.872406 0.600404
#
# Coordination Sequence:
#
# PCOD8072332 Si02
#       8
#     4   4   4   4   4   4   4   4
#     4  10  19  36  60  84 115 148 201 251 295 350
#     4  10  21  37  57  87 119 149 197 251 302 352
#     4  10  22  39  57  83 119 157 194 242 294 365
#     4  10  19  35  59  81 113 154 190 239 295 353
#     4  10  21  41  67  91 120 165 211 261 311 365
#     4  11  21  33  58  91 119 156 195 247 307 362
#     4  11  23  41  66  92 125 162 204 268 320 365
#     4  10  23  42  61  93 125 163 210 254 306 378
#
# _framework density 20.042618999999998
#
# number of rings (size 3 to 8) (size 9 to 14) (size 15 to 20)
#    0.000    1.750    1.250    4.125    1.750    3.000 
#    9.000    0.000    0.000    0.000    0.000    0.000 
#    0.000    0.000    0.000    0.000    0.000    0.000 
#
# Total GULP energy -396670.007945 kJ/mol
# GULP energy per Si atom -12395.937748 kJ/mol
# Density = 1.999700 g / cm^3
# Si number density = 20.042619 Si / 1000 Ang^3
#
#
#
# Elastic Constant Matrix: (Units=GPa)
#
#
# Indices 1 2 3 4 5 6 
#
# 1 89.4632 36.0572 22.0574 0.0000 10.7695 0.0000
# 2 36.0572 95.7086 31.6304 0.0000 4.1152 0.0000
# 3 22.0574 31.6304 76.4930 0.0000 4.6974 0.0000
# 4 0.0000 0.0000 0.0000 30.8596 0.0000 1.3112
# 5 10.7695 4.1152 4.6974 0.0000 29.8524 0.0000
# 6 0.0000 0.0000 0.0000 1.3112 0.0000 25.0394
#
#
#
# Elastic Compliance Matrix: (Units=1/GPa)
#
#
# Indices 1 2 3 4 5 6 
#
# 1 0.013937 -0.004435 -0.001932 0.000000 -0.004112 0.000000
# 2 -0.004435 0.013537 -0.004344 0.000000 0.000418 0.000000
# 3 -0.001932 -0.004344 0.015497 0.000000 -0.001143 0.000000
# 4 0.000000 0.000000 0.000000 0.032477 0.000000 -0.001701
# 5 -0.004112 0.000418 -0.001143 0.000000 0.035104 0.000000
# 6 0.000000 0.000000 0.000000 -0.001701 0.000000 0.040026
#
#
# Mechanical properties :
#
#
# Convention : Reuss Voigt Hill
#
# Bulk Modulus (GPa) = 46.40999 49.01723 47.71361
# Shear Modulus (GPa) = 27.90427 28.61158 28.25793
#
# Velocity S-wave (km/s) = 3.73533 3.78238 3.75893
# Velocity P-wave (km/s) = 6.46603 6.60187 6.53430
#
# Compressibility (1/GPa) = 0.02154708
#
# Stress axis : x y z
#
# Youngs Moduli (GPa) = 71.75264 73.87118 64.52907
#
# Poissons Ratio (x) = 0.32763 0.12469
# Poissons Ratio (y) = 0.31823 0.28034
# Poissons Ratio (z) = 0.13865 0.32093
#
# Static dielectric constant tensor:
#      x y z
#    x 3.633560 0.000000 -0.010620 
#    y 0.000000 3.449380 0.000000 
#    z -0.010620 0.000000 3.621910 
# 
# 
# High freq. dielectric constant tensor:
#      x y z
#    x 1.775710 0.000000 0.001730 
#    y 0.000000 1.777310 0.000000 
#    z 0.001730 0.000000 1.779590 
# 
# From -- ./inp_files/40045.got.cif
#   From: 2010.06.25/outbox.cif.g09.slc.cpg/sg11_21_cif.got.tgz:40045.got - 2010.06.27 23:14:04.
