data_PCOD8072742
_publ_section_title
;
Structure prediction by ZEFSAII (Michael W. Deem and Ramdas Pophale) SiO2 
 PCOD8072742
Probable space group: P 21/M
;
_chemical_formula_sum "Si O2"
_cell_formula_units_Z 22
_cell_length_a 6.902236
_cell_length_b 14.372534
_cell_length_c 11.584333
_cell_angle_alpha 90.000000
_cell_angle_beta 108.437537
_cell_angle_gamma 90.000000
_cell_volume 1090.206827
_symmetry_space_group_name_H-M "P 21/M"
_symmetry_group_IT_number 11
_symmetry_cell_setting 'monoclinic'
loop_
_space_group_symop_operation_xyz
x,y,z
-x,1/2+y,-z
-x,-y,-z
x,1/2-y,z
loop_
_atom_site_type_symbol
_atom_site_label
_atom_site_fract_x
_atom_site_fract_y
_atom_site_fract_z
Si Si1 0.932265 0.421955 0.822037
Si Si2 0.002332 0.905514 0.427741
Si Si3 0.663498 0.250000 0.482648
Si Si4 0.181532 0.394667 0.089699
Si Si5 0.138897 0.750000 0.896255
Si Si6 0.668824 0.250000 0.830640
Si Si7 0.511293 0.250000 0.204275
Si Si8 0.678617 0.750000 0.389645
O O1 0.017678 0.435291 0.709634
O O2 0.797080 0.508465 0.840112
O O3 0.779378 0.336506 0.792312
O O4 0.124443 0.406847 0.944175
O O5 0.204434 0.844532 0.488764
O O6 0.810138 0.843138 0.429103
O O7 0.000000 0.000000 0.500000
O O8 0.521984 0.250000 0.343349
O O9 0.506660 0.250000 0.557090
O O10 0.395692 0.341685 0.137272
O O11 0.001552 0.340359 0.121663
O O12 0.256685 0.750000 0.797630
O O13 0.310340 0.750000 0.027931
O O14 0.427696 0.250000 0.756996
#
# Coordination Sequence:
#
# PCOD8072742 Si02
#       8
#     4   4   2   4   2   2   2   2
#     4  10  20  43  63  89 128 152 206 248 303 360
#     4  11  26  41  66  90 122 167 204 251 302 365
#     4  11  26  45  58  94 127 159 210 251 299 365
#     4   9  22  40  63  90 123 164 187 259 306 349
#     4   9  21  38  61  92 122 157 203 245 303 360
#     4  10  19  40  66  89 119 158 203 258 298 353
#     4  11  24  38  66  87 126 159 203 244 306 364
#     4  11  24  43  65  88 120 165 205 256 300 358
#
# _framework density 20.179658
#
# number of rings (size 3 to 8) (size 9 to 14) (size 15 to 20)
#    0.000    1.818    1.818    1.091    7.636    3.636 
#    0.000    2.727    0.000    0.000    0.000    0.000 
#    0.000    0.000    0.000    0.000    0.000    0.000 
#
# Total GULP energy -272852.332950 kJ/mol
# GULP energy per Si atom -12402.378770 kJ/mol
# Density = 2.013373 g / cm^3
# Si number density = 20.179658 Si / 1000 Ang^3
#
#
#
# Elastic Constant Matrix: (Units=GPa)
#
#
# Indices 1 2 3 4 5 6 
#
# 1 92.9601 49.4219 30.9800 0.0000 -2.6391 0.0000
# 2 49.4219 161.3581 54.3605 0.0000 -3.9896 0.0000
# 3 30.9800 54.3605 97.4503 0.0000 -0.2310 0.0000
# 4 0.0000 0.0000 0.0000 103.5746 0.0000 41.3565
# 5 -2.6391 -3.9896 -0.2310 0.0000 24.9238 0.0000
# 6 0.0000 0.0000 0.0000 41.3565 0.0000 41.1773
#
#
#
# Elastic Compliance Matrix: (Units=1/GPa)
#
#
# Indices 1 2 3 4 5 6 
#
# 1 0.013312 -0.003240 -0.002423 0.000000 0.000869 0.000000
# 2 -0.003240 0.008455 -0.003684 0.000000 0.000976 0.000000
# 3 -0.002423 -0.003684 0.013085 0.000000 -0.000725 0.000000
# 4 0.000000 0.000000 0.000000 0.016119 0.000000 -0.016189
# 5 0.000869 0.000976 -0.000725 0.000000 0.040364 0.000000
# 6 0.000000 0.000000 0.000000 -0.016189 0.000000 0.040545
#
#
# Mechanical properties :
#
#
# Convention : Reuss Voigt Hill
#
# Bulk Modulus (GPa) = 61.88510 69.03257 65.45884
# Shear Modulus (GPa) = 32.05977 48.40224 40.23100
#
# Velocity S-wave (km/s) = 3.99020 4.90283 4.46987
# Velocity P-wave (km/s) = 7.20850 8.14454 7.69078
#
# Compressibility (1/GPa) = 0.01615898
#
# Stress axis : x y z
#
# Youngs Moduli (GPa) = 75.12234 118.27396 76.42184
#
# Poissons Ratio (x) = 0.38315 0.18515
# Poissons Ratio (y) = 0.24336 0.28156
# Poissons Ratio (z) = 0.18200 0.43575
#
# Static dielectric constant tensor:
#      x y z
#    x 3.418950 0.000000 0.095870 
#    y 0.000000 3.888990 0.000000 
#    z 0.095870 0.000000 3.757620 
# 
# 
# High freq. dielectric constant tensor:
#      x y z
#    x 1.774280 0.000000 0.002420 
#    y 0.000000 1.799010 0.000000 
#    z 0.002420 0.000000 1.798020 
# 
# From -- ./inp_files/4287.got.cif
#   From: 2010.06.25/outbox.cif.g09.slc.cpg/sg11_3_cif.got.tgz:4287.got - 2010.06.27 23:14:04.
