data_PCOD8072639
_publ_section_title
;
Structure prediction by ZEFSAII (Michael W. Deem and Ramdas Pophale) SiO2 
 PCOD8072639
Probable space group: P 21/M
;
_chemical_formula_sum "Si O2"
_cell_formula_units_Z 32
_cell_length_a 15.265070
_cell_length_b 10.150772
_cell_length_c 18.419435
_cell_angle_alpha 90.000000
_cell_angle_beta 144.341912
_cell_angle_gamma 90.000000
_cell_volume 1663.808198
_symmetry_space_group_name_H-M "P 21/M"
_symmetry_group_IT_number 11
_symmetry_cell_setting 'monoclinic'
loop_
_space_group_symop_operation_xyz
x,y,z
-x,1/2+y,-z
-x,-y,-z
x,1/2-y,z
loop_
_atom_site_type_symbol
_atom_site_label
_atom_site_fract_x
_atom_site_fract_y
_atom_site_fract_z
Si Si1 0.055248 0.092102 0.897622
Si Si2 0.404516 0.099849 0.727068
Si Si3 0.081887 0.096004 0.752410
Si Si4 0.764977 0.408723 0.482993
Si Si5 0.281272 0.943859 0.287619
Si Si6 0.273465 0.894393 0.119324
Si Si7 0.389148 0.099618 0.887380
Si Si8 0.451265 0.610666 0.543269
O O1 0.069600 0.250000 0.921286
O O2 0.105270 0.047270 0.850932
O O3 0.884698 0.043486 0.792464
O O4 0.155952 0.009903 0.021714
O O5 0.359467 0.250000 0.674662
O O6 0.565383 0.061307 0.801981
O O7 0.412637 0.087184 0.818348
O O8 0.283967 0.991039 0.620663
O O9 0.058943 0.250000 0.742694
O O10 0.221703 0.055143 0.796916
O O11 0.931634 0.040209 0.614500
O O12 0.759629 0.250000 0.465324
O O13 0.659955 0.468215 0.477779
O O14 0.276788 0.870126 0.208021
O O15 0.388933 0.874583 0.419368
O O16 0.371449 0.078954 0.335494
O O17 0.229293 0.750000 0.056533
O O18 0.419131 0.250000 0.933764
O O19 0.500000 0.000000 0.000000
O O20 0.443884 0.750000 0.576805
#
# Coordination Sequence:
#
# PCOD8072639 Si02
#       8
#     4   4   4   4   4   4   4   4
#     4  11  22  37  58  81 109 147 194 239 277 327
#     4  10  22  39  57  84 120 152 182 227 289 343
#     4   9  19  37  61  86 112 145 188 237 285 324
#     4  10  19  37  62  85 111 146 190 237 277 330
#     4  11  21  35  55  80 110 148 183 231 287 332
#     4  11  23  37  53  77 114 153 185 227 286 339
#     4  10  21  39  62  86 116 153 190 230 278 334
#     4  10  20  35  57  82 109 146 193 236 275 332
#
# _framework density 19.232987000000001
#
# number of rings (size 3 to 8) (size 9 to 14) (size 15 to 20)
#    0.000    1.750    2.500    2.250    0.000    2.500 
#    0.000    1.250    0.000    0.000    0.000    0.000 
#    0.000    0.000    0.000    0.000    0.000    0.000 
#
# Total GULP energy -396425.548806 kJ/mol
# GULP energy per Si atom -12388.298400 kJ/mol
# Density = 1.918921 g / cm^3
# Si number density = 19.232987 Si / 1000 Ang^3
#
#
#
# Elastic Constant Matrix: (Units=GPa)
#
#
# Indices 1 2 3 4 5 6 
#
# 1 78.5647 15.1334 17.1269 0.0000 0.7491 0.0000
# 2 15.1334 71.1347 59.5755 0.0000 -0.6666 0.0000
# 3 17.1269 59.5755 100.4393 0.0000 1.9391 0.0000
# 4 0.0000 0.0000 0.0000 54.0121 0.0000 13.9092
# 5 0.7491 -0.6666 1.9391 0.0000 26.3321 0.0000
# 6 0.0000 0.0000 0.0000 13.9092 0.0000 22.9652
#
#
#
# Elastic Compliance Matrix: (Units=1/GPa)
#
#
# Indices 1 2 3 4 5 6 
#
# 1 0.013345 -0.001872 -0.001159 0.000000 -0.000342 0.000000
# 2 -0.001872 0.028296 -0.016503 0.000000 0.001985 0.000000
# 3 -0.001159 -0.016503 0.019978 0.000000 -0.001856 0.000000
# 4 0.000000 0.000000 0.000000 0.021936 0.000000 -0.013286
# 5 -0.000342 0.001985 -0.001856 0.000000 0.038173 0.000000
# 6 0.000000 0.000000 0.000000 -0.013286 0.000000 0.051591
#
#
# Mechanical properties :
#
#
# Convention : Reuss Voigt Hill
#
# Bulk Modulus (GPa) = 44.34139 48.20117 46.27128
# Shear Modulus (GPa) = 22.73736 31.21539 26.97638
#
# Velocity S-wave (km/s) = 3.44205 4.03303 3.74921
# Velocity P-wave (km/s) = 6.23714 6.84129 6.54619
#
# Compressibility (1/GPa) = 0.02255229
#
# Stress axis : x y z
#
# Youngs Moduli (GPa) = 74.93578 35.34098 50.05435
#
# Poissons Ratio (x) = 0.06615 0.05800
# Poissons Ratio (y) = 0.14026 0.82603
# Poissons Ratio (z) = 0.08683 0.58322
#
# Static dielectric constant tensor:
#      x y z
#    x 3.738670 0.000000 0.102390 
#    y 0.000000 3.446360 0.000000 
#    z 0.102390 0.000000 3.514090 
# 
# 
# High freq. dielectric constant tensor:
#      x y z
#    x 1.761540 0.000000 0.002920 
#    y 0.000000 1.731020 0.000000 
#    z 0.002920 0.000000 1.743890 
# 
# From -- ./inp_files/60430.got.cif
#   From: 2010.06.25/outbox.cif.g09.slc.cpg/sg11_31_cif.got.tgz:60430.got - 2010.06.27 23:14:04.
