data_PCOD8072182
_publ_section_title
;
Structure prediction by ZEFSAII (Michael W. Deem and Ramdas Pophale) SiO2 
 PCOD8072182
Probable space group: P 21/M
;
_chemical_formula_sum "Si O2"
_cell_formula_units_Z 32
_cell_length_a 14.603635
_cell_length_b 8.765310
_cell_length_c 26.079884
_cell_angle_alpha 90.000000
_cell_angle_beta 149.337022
_cell_angle_gamma 90.000000
_cell_volume 1702.523802
_symmetry_space_group_name_H-M "P 21/M"
_symmetry_group_IT_number 11
_symmetry_cell_setting 'monoclinic'
loop_
_space_group_symop_operation_xyz
x,y,z
-x,1/2+y,-z
-x,-y,-z
x,1/2-y,z
loop_
_atom_site_type_symbol
_atom_site_label
_atom_site_fract_x
_atom_site_fract_y
_atom_site_fract_z
Si Si1 0.013992 0.068325 0.950543
Si Si2 0.313723 0.929788 0.393404
Si Si3 0.698322 0.569382 0.433387
Si Si4 0.288511 0.922848 0.773936
Si Si5 0.061974 0.570192 0.363618
Si Si6 0.642788 0.077085 0.304176
Si Si7 0.695254 0.069271 0.725315
Si Si8 0.382704 0.569273 0.108460
O O1 0.017985 0.250000 0.955629
O O2 0.846263 0.006829 0.836526
O O3 0.000000 0.000000 0.000000
O O4 0.190746 0.007684 0.006969
O O5 0.339648 0.750000 0.406432
O O6 0.157144 0.980747 0.356808
O O7 0.262371 0.988600 0.311914
O O8 0.500000 0.000000 0.500000
O O9 0.711315 0.750000 0.440223
O O10 0.839390 0.504944 0.541190
O O11 0.745784 0.507013 0.399742
O O12 0.499824 0.508107 0.351840
O O13 0.309524 0.750000 0.804228
O O14 0.229870 0.923614 0.685232
O O15 0.481295 0.009672 0.870721
O O16 0.141662 0.010078 0.737020
O O17 0.062277 0.750000 0.371157
O O18 0.592868 0.250000 0.295704
O O19 0.459357 0.985192 0.201102
O O20 0.694228 0.250000 0.726197
O O21 0.365239 0.750000 0.098835
#
# Coordination Sequence:
#
# PCOD8072182 Si02
#       8
#     4   4   4   4   4   4   4   4
#     4  11  21  35  57  85 116 153 192 235 285 340
#     4  10  20  38  59  82 111 149 191 237 287 335
#     4  11  20  32  53  78 111 151 188 230 280 335
#     4   9  20  37  56  78 106 147 190 232 282 339
#     4  11  22  34  55  82 109 144 187 236 287 337
#     4   9  19  34  52  76 108 144 185 228 276 332
#     4   9  20  36  55  81 114 151 191 229 280 338
#     4  10  19  35  55  78 110 144 180 227 280 336
#
# _framework density 18.795624
#
# number of rings (size 3 to 8) (size 9 to 14) (size 15 to 20)
#    0.750    1.250    1.250    3.375    0.000    2.000 
#    0.000    3.125    0.000    0.750    0.000    0.000 
#    0.000    0.000    0.000    0.000    0.000    0.000 
#
# Total GULP energy -396691.307533 kJ/mol
# GULP energy per Si atom -12396.603360 kJ/mol
# Density = 1.875284 g / cm^3
# Si number density = 18.795624 Si / 1000 Ang^3
#
#
#
# Elastic Constant Matrix: (Units=GPa)
#
#
# Indices 1 2 3 4 5 6 
#
# 1 86.9652 22.8814 30.9503 0.0000 18.9023 0.0000
# 2 22.8814 85.3651 19.0860 0.0000 13.7950 0.0000
# 3 30.9503 19.0860 77.4357 0.0000 12.9029 0.0000
# 4 0.0000 0.0000 0.0000 25.6660 0.0000 8.5884
# 5 18.9023 13.7950 12.9029 0.0000 31.9865 0.0000
# 6 0.0000 0.0000 0.0000 8.5884 0.0000 23.7398
#
#
#
# Elastic Compliance Matrix: (Units=1/GPa)
#
#
# Indices 1 2 3 4 5 6 
#
# 1 0.014955 -0.002016 -0.004452 0.000000 -0.006172 0.000000
# 2 -0.002016 0.013278 -0.001835 0.000000 -0.003795 0.000000
# 3 -0.004452 -0.001835 0.015626 0.000000 -0.002881 0.000000
# 4 0.000000 0.000000 0.000000 0.044328 0.000000 -0.016037
# 5 -0.006172 -0.003795 -0.002881 0.000000 0.037710 0.000000
# 6 0.000000 0.000000 0.000000 -0.016037 0.000000 0.047925
#
#
# Mechanical properties :
#
#
# Convention : Reuss Voigt Hill
#
# Bulk Modulus (GPa) = 36.69182 43.95570 40.32376
# Shear Modulus (GPa) = 25.06111 28.06833 26.56472
#
# Velocity S-wave (km/s) = 3.65547 3.86857 3.76353
# Velocity P-wave (km/s) = 6.11395 6.58721 6.35499
#
# Compressibility (1/GPa) = 0.02725403
#
# Stress axis : x y z
#
# Youngs Moduli (GPa) = 66.86586 75.31132 63.99726
#
# Poissons Ratio (x) = 0.15181 0.28493
# Poissons Ratio (y) = 0.13479 0.11741
# Poissons Ratio (z) = 0.29770 0.13817
#
# Static dielectric constant tensor:
#      x y z
#    x 3.535780 0.000000 0.069190 
#    y 0.000000 3.364050 0.000000 
#    z 0.069190 0.000000 3.358520 
# 
# 
# High freq. dielectric constant tensor:
#      x y z
#    x 1.723710 0.000000 0.014610 
#    y 0.000000 1.731880 0.000000 
#    z 0.014610 0.000000 1.709630 
# 
# From -- ./inp_files/71628.got.cif
#   From: 2010.06.25/outbox.cif.g09.slc.cpg/sg11_36_cif.got.tgz:71628.got - 2010.06.27 23:14:04.
