data_PCOD8072407
_publ_section_title
;
Structure prediction by ZEFSAII (Michael W. Deem and Ramdas Pophale) SiO2 
 PCOD8072407
Probable space group: P 21/M
;
_chemical_formula_sum "Si O2"
_cell_formula_units_Z 32
_cell_length_a 15.188510
_cell_length_b 20.334870
_cell_length_c 15.187765
_cell_angle_alpha 90.000000
_cell_angle_beta 160.278880
_cell_angle_gamma 90.000000
_cell_volume 1582.887064
_symmetry_space_group_name_H-M "P 21/M"
_symmetry_group_IT_number 11
_symmetry_cell_setting 'monoclinic'
loop_
_space_group_symop_operation_xyz
x,y,z
-x,1/2+y,-z
-x,-y,-z
x,1/2-y,z
loop_
_atom_site_type_symbol
_atom_site_label
_atom_site_fract_x
_atom_site_fract_y
_atom_site_fract_z
Si Si1 0.598572 0.974029 0.901978
Si Si2 0.130205 0.900890 0.369906
Si Si3 0.867715 0.673537 0.632385
Si Si4 0.589574 0.118908 0.910421
Si Si5 0.514008 0.896060 0.986916
Si Si6 0.782417 0.577315 0.716862
Si Si7 0.774231 0.075802 0.726458
Si Si8 0.046556 0.675002 0.453943
O O1 0.369854 0.943266 0.630062
O O2 0.545244 0.962447 0.957063
O O3 0.614908 0.049341 0.884875
O O4 0.870310 0.943411 0.130032
O O5 0.182404 0.879030 0.318747
O O6 0.099019 0.835672 0.399421
O O7 0.851853 0.750000 0.648212
O O8 0.648542 0.661202 0.352064
O O9 0.826632 0.623114 0.673887
O O10 0.147973 0.661211 0.851482
O O11 0.539227 0.092697 0.961235
O O12 0.274499 0.855296 0.725250
O O13 0.775489 0.855138 0.226849
O O14 0.501693 0.594562 0.492052
O O15 0.792503 0.499280 0.707623
O O16 0.005674 0.594616 0.996693
O O17 0.035146 0.750000 0.466708
#
# Coordination Sequence:
#
# PCOD8072407 Si02
#       8
#     4   4   4   4   4   4   4   4
#     4  10  20  36  58  87 121 146 181 240 300 334
#     4  10  20  35  57  88 117 146 182 231 284 346
#     4  12  27  43  58  83 119 158 197 235 284 344
#     4  12  23  39  62  83 110 154 199 237 280 339
#     4  10  22  36  57  85 113 148 193 244 285 328
#     4  10  21  37  58  84 112 142 177 233 282 325
#     4  10  19  35  62  88 107 135 184 227 280 340
#     4  10  21  37  55  78 115 153 185 227 282 336
#
# _framework density 20.216224
#
# number of rings (size 3 to 8) (size 9 to 14) (size 15 to 20)
#    0.000    1.500    0.000    5.625    0.000    5.000 
#    0.000    6.250    0.000    0.000    0.000    0.000 
#    0.000    0.000    0.000    0.000    0.000    0.000 
#
# Total GULP energy -396724.897405 kJ/mol
# GULP energy per Si atom -12397.653044 kJ/mol
# Density = 2.017021 g / cm^3
# Si number density = 20.216224 Si / 1000 Ang^3
#
#
#
# Elastic Constant Matrix: (Units=GPa)
#
#
# Indices 1 2 3 4 5 6 
#
# 1 82.3793 7.8252 72.9260 0.0000 -80.0226 0.0000
# 2 7.8252 85.6973 25.7166 0.0000 6.8131 0.0000
# 3 72.9260 25.7166 142.5792 0.0000 98.0881 0.0000
# 4 0.0000 0.0000 0.0000 13.8406 0.0000 -1.0953
# 5 -80.0226 6.8131 98.0881 0.0000 -181.2200 0.0000
# 6 0.0000 0.0000 0.0000 -1.0953 0.0000 19.2410
#
#
#
# Elastic Compliance Matrix: (Units=1/GPa)
#
#
# Indices 1 2 3 4 5 6 
#
# 1 0.008831 -0.000040 -0.001331 0.000000 -0.004621 0.000000
# 2 -0.000040 0.012265 -0.001837 0.000000 -0.000516 0.000000
# 3 -0.001331 -0.001837 0.005588 0.000000 0.003543 0.000000
# 4 0.000000 0.000000 0.000000 0.072578 0.000000 0.004132
# 5 -0.004621 -0.000516 0.003543 0.000000 -0.001579 0.000000
# 6 0.000000 0.000000 0.000000 0.004132 0.000000 0.052207
#
#
# Mechanical properties :
#
#
# Convention : Reuss Voigt Hill
#
# Bulk Modulus (GPa) = 49.33491 58.17681 53.75586
# Shear Modulus (GPa) = 30.66318 -16.01513 7.32403
#
# Velocity S-wave (km/s) = 3.89879 -2.81764 1.90544
# Velocity P-wave (km/s) = 6.68760 4.27250 5.61152
#
# Compressibility (1/GPa) = 0.02026962
#
# Stress axis : x y z
#
# Youngs Moduli (GPa) = 113.23228 81.53349 178.95310
#
# Poissons Ratio (x) = 0.00324 0.23811
# Poissons Ratio (y) = 0.00450 0.32875
# Poissons Ratio (z) = 0.15066 0.14978
#
# Static dielectric constant tensor:
#      x y z
#    x 3.757640 0.000000 0.012570 
#    y 0.000000 3.492780 0.000000 
#    z 0.012570 0.000000 3.836700 
# 
# 
# High freq. dielectric constant tensor:
#      x y z
#    x 1.797330 0.000000 0.003510 
#    y 0.000000 1.764590 0.000000 
#    z 0.003510 0.000000 1.816420 
# 
# From -- ./inp_files/52699.got.cif
#   From: 2010.06.25/outbox.cif.g09.slc.cpg/sg11_27_cif.got.tgz:52699.got - 2010.06.27 23:14:04.
