data_PCOD8072091
_publ_section_title
;
Structure prediction by ZEFSAII (Michael W. Deem and Ramdas Pophale) SiO2 
 PCOD8072091
Probable space group: P 21/M
;
_chemical_formula_sum "Si O2"
_cell_formula_units_Z 32
_cell_length_a 12.330467
_cell_length_b 9.337075
_cell_length_c 14.503093
_cell_angle_alpha 90.000000
_cell_angle_beta 82.944310
_cell_angle_gamma 90.000000
_cell_volume 1657.103657
_symmetry_space_group_name_H-M "P 21/M"
_symmetry_group_IT_number 11
_symmetry_cell_setting 'monoclinic'
loop_
_space_group_symop_operation_xyz
x,y,z
-x,1/2+y,-z
-x,-y,-z
x,1/2-y,z
loop_
_atom_site_type_symbol
_atom_site_label
_atom_site_fract_x
_atom_site_fract_y
_atom_site_fract_z
Si Si1 0.383257 0.576330 0.496862
Si Si2 0.282148 0.409474 0.847758
Si Si3 0.411360 0.906942 0.960830
Si Si4 0.253183 0.916681 0.333100
Si Si5 0.013112 0.583200 0.405789
Si Si6 0.767412 0.092086 0.865032
Si Si7 0.780668 0.582806 0.350878
Si Si8 0.100177 0.089703 0.022763
O O1 0.500000 0.500000 0.500000
O O2 0.395209 0.750000 0.502226
O O3 0.335148 0.521449 0.402608
O O4 0.297219 0.519790 0.581342
O O5 0.332994 0.250000 0.837720
O O6 0.238582 0.456629 0.753327
O O7 0.376057 0.519177 0.868988
O O8 0.187230 0.413150 0.932363
O O9 0.457788 0.750000 0.931543
O O10 0.314572 0.893948 0.042836
O O11 0.500000 0.000000 0.000000
O O12 0.255792 0.750000 0.351896
O O13 0.127428 0.971462 0.350412
O O14 0.291685 0.956302 0.224652
O O15 0.018831 0.750000 0.427867
O O16 0.000000 0.500000 0.500000
O O17 0.908551 0.548297 0.353060
O O18 0.821369 0.250000 0.842360
O O19 0.857771 0.977336 0.885521
O O20 0.754543 0.750000 0.374974
O O21 0.062437 0.250000 0.049181
O O22 0.000000 0.000000 0.000000
#
# Coordination Sequence:
#
# PCOD8072091 Si02
#       8
#     4   4   4   4   4   4   4   4
#     4  11  23  40  60  84 115 152 192 238 288 341
#     4   9  20  37  56  79 109 147 188 229 274 333
#     4  10  20  35  57  83 110 145 187 236 285 332
#     4   9  19  36  59  83 111 149 189 229 281 342
#     4  10  19  34  58  84 112 147 188 233 283 340
#     4   9  19  36  57  79 106 142 186 230 272 328
#     4  10  21  37  59  86 114 149 193 236 285 343
#     4  10  20  34  53  79 112 148 182 222 271 325
#
# _framework density 19.310801999999999
#
# number of rings (size 3 to 8) (size 9 to 14) (size 15 to 20)
#    0.000    2.250    1.250    1.125    1.750    2.500 
#    0.000    4.375    0.000    0.000    0.000    0.000 
#    0.000    0.000    0.000    0.000    0.000    0.000 
#
# Total GULP energy -396558.826906 kJ/mol
# GULP energy per Si atom -12392.463341 kJ/mol
# Density = 1.926685 g / cm^3
# Si number density = 19.310802 Si / 1000 Ang^3
#
#
#
# Elastic Constant Matrix: (Units=GPa)
#
#
# Indices 1 2 3 4 5 6 
#
# 1 103.0839 52.4610 36.5114 0.0000 37.9556 0.0000
# 2 52.4610 113.3870 45.0028 0.0000 28.8682 0.0000
# 3 36.5114 45.0028 129.3876 0.0000 41.8076 0.0000
# 4 0.0000 0.0000 0.0000 29.6513 0.0000 3.8699
# 5 37.9556 28.8682 41.8076 0.0000 34.4465 0.0000
# 6 0.0000 0.0000 0.0000 3.8699 0.0000 33.9584
#
#
#
# Elastic Compliance Matrix: (Units=1/GPa)
#
#
# Indices 1 2 3 4 5 6 
#
# 1 0.018293 -0.004548 0.002799 0.000000 -0.019742 0.000000
# 2 -0.004548 0.012503 -0.002137 0.000000 -0.002873 0.000000
# 3 0.002799 -0.002137 0.013326 0.000000 -0.017467 0.000000
# 4 0.000000 0.000000 0.000000 0.034234 0.000000 -0.003901
# 5 -0.019742 -0.002873 -0.017467 0.000000 0.074391 0.000000
# 6 0.000000 0.000000 0.000000 -0.003901 0.000000 0.029892
#
#
# Mechanical properties :
#
#
# Convention : Reuss Voigt Hill
#
# Bulk Modulus (GPa) = 27.51032 68.20100 47.85566
# Shear Modulus (GPa) = 24.68763 33.73679 29.21221
#
# Velocity S-wave (km/s) = 3.57940 4.18430 3.89361
# Velocity P-wave (km/s) = 5.59998 7.66412 6.71187
#
# Compressibility (1/GPa) = 0.03635000
#
# Stress axis : x y z
#
# Youngs Moduli (GPa) = 54.66491 79.97792 75.04083
#
# Poissons Ratio (x) = 0.36377 -0.21003
# Poissons Ratio (y) = 0.24864 0.16036
# Poissons Ratio (z) = -0.15300 0.17091
#
# Static dielectric constant tensor:
#      x y z
#    x 5.278610 0.000000 0.086700 
#    y 0.000000 3.163230 0.000000 
#    z 0.086700 0.000000 3.488260 
# 
# 
# High freq. dielectric constant tensor:
#      x y z
#    x 1.746600 0.000000 0.016340 
#    y 0.000000 1.745880 0.000000 
#    z 0.016340 0.000000 1.756290 
# 
# From -- ./inp_files/38071.got.cif
#   From: 2010.06.25/outbox.cif.g09.slc.cpg/sg11_20_cif.got.tgz:38071.got - 2010.06.27 23:14:04.
