data_PCOD8072905
_publ_section_title
;
Structure prediction by ZEFSAII (Michael W. Deem and Ramdas Pophale) SiO2 
 PCOD8072905
Probable space group: P 21/M
;
_chemical_formula_sum "Si O2"
_cell_formula_units_Z 32
_cell_length_a 24.093257
_cell_length_b 9.382276
_cell_length_c 12.128179
_cell_angle_alpha 90.000000
_cell_angle_beta 49.411605
_cell_angle_gamma 90.000000
_cell_volume 2081.956654
_symmetry_space_group_name_H-M "P 21/M"
_symmetry_group_IT_number 11
_symmetry_cell_setting 'monoclinic'
loop_
_space_group_symop_operation_xyz
x,y,z
-x,1/2+y,-z
-x,-y,-z
x,1/2-y,z
loop_
_atom_site_type_symbol
_atom_site_label
_atom_site_fract_x
_atom_site_fract_y
_atom_site_fract_z
Si Si1 0.892123 0.085021 0.630864
Si Si2 0.512175 0.581510 0.597472
Si Si3 0.667862 0.592437 0.346831
Si Si4 0.615246 0.912906 0.164138
Si Si5 0.749527 0.415276 0.940938
Si Si6 0.797638 0.415354 0.123854
Si Si7 0.985042 0.916078 0.355265
Si Si8 0.961231 0.081470 0.952470
O O1 0.901860 0.250000 0.590429
O O2 0.808646 0.049819 0.770203
O O3 0.943439 0.041368 0.667114
O O4 0.914092 0.997587 0.493572
O O5 0.500000 0.500000 0.500000
O O6 0.493038 0.750000 0.610417
O O7 0.598277 0.561620 0.517124
O O8 0.459555 0.504914 0.755252
O O9 0.698265 0.750000 0.329713
O O10 0.638866 0.579346 0.260105
O O11 0.735403 0.487263 0.280511
O O12 0.603049 0.750000 0.140869
O O13 0.678861 0.986659 0.009366
O O14 0.725915 0.250000 0.968850
O O15 0.786036 0.452595 0.010927
O O16 0.790376 0.250000 0.155457
O O17 0.877279 0.470216 0.056183
O O18 0.968795 0.750000 0.385452
O O19 0.998507 0.962180 0.212399
O O20 0.965698 0.250000 0.965829
O O21 0.000000 0.000000 0.000000
#
# Coordination Sequence:
#
# PCOD8072905 Si02
#       8
#     4   4   4   4   4   4   4   4
#     4   9  16  27  44  63  82 105 136 171 208 252
#     4   9  15  23  33  47  70  99 131 165 198 235
#     4   8  15  24  34  50  71  95 128 168 201 232
#     4   9  16  23  32  50  75 101 133 166 195 236
#     4   9  15  25  40  56  77 106 134 166 205 243
#     4   9  16  27  41  55  74 101 134 168 205 247
#     4   9  17  30  44  60  83 106 133 171 213 253
#     4  10  20  33  46  61  82 109 140 175 214 254
#
# _framework density 15.370157000000001
#
# number of rings (size 3 to 8) (size 9 to 14) (size 15 to 20)
#    0.000    3.000    1.250    1.500    0.000    5.000 
#    0.000    0.000    0.000    0.000    0.000    0.000 
#    0.000    0.000    0.000    1.125    0.000   14.875 
#
# Total GULP energy -396591.352678 kJ/mol
# GULP energy per Si atom -12393.479771 kJ/mol
# Density = 1.533517 g / cm^3
# Si number density = 15.370157 Si / 1000 Ang^3
#
#
#
# Elastic Constant Matrix: (Units=GPa)
#
#
# Indices 1 2 3 4 5 6 
#
# 1 44.7371 35.2889 50.1287 0.0000 -13.4156 0.0000
# 2 35.2889 77.7694 61.8498 0.0000 -18.4755 0.0000
# 3 50.1287 61.8498 115.5032 0.0000 -28.9138 0.0000
# 4 0.0000 0.0000 0.0000 29.6398 0.0000 -7.7374
# 5 -13.4156 -18.4755 -28.9138 0.0000 25.4616 0.0000
# 6 0.0000 0.0000 0.0000 -7.7374 0.0000 19.9786
#
#
#
# Elastic Compliance Matrix: (Units=1/GPa)
#
#
# Indices 1 2 3 4 5 6 
#
# 1 0.046776 -0.008796 -0.015396 0.000000 0.000781 0.000000
# 2 -0.008796 0.024300 -0.008300 0.000000 0.003572 0.000000
# 3 -0.015396 -0.008300 0.022698 0.000000 0.011641 0.000000
# 4 0.000000 0.000000 0.000000 0.037533 0.000000 0.014536
# 5 0.000781 0.003572 0.011641 0.000000 0.055498 0.000000
# 6 0.000000 0.000000 0.000000 0.014536 0.000000 0.055683
#
#
# Mechanical properties :
#
#
# Convention : Reuss Voigt Hill
#
# Bulk Modulus (GPa) = 34.73357 59.17161 46.95259
# Shear Modulus (GPa) = 15.76949 21.06548 18.41748
#
# Velocity S-wave (km/s) = 3.20657 3.70610 3.46535
# Velocity P-wave (km/s) = 6.02964 7.54287 6.82830
#
# Compressibility (1/GPa) = 0.02879059
#
# Stress axis : x y z
#
# Youngs Moduli (GPa) = 21.37845 41.15286 44.05620
#
# Poissons Ratio (x) = 0.36197 0.67827
# Poissons Ratio (y) = 0.18804 0.36569
# Poissons Ratio (z) = 0.32913 0.34159
#
# Static dielectric constant tensor:
#      x y z
#    x 2.620660 0.000000 -0.479260 
#    y 0.000000 3.010580 0.000000 
#    z -0.479260 0.000000 3.177130 
# 
# 
# High freq. dielectric constant tensor:
#      x y z
#    x 1.529860 0.000000 -0.043730 
#    y 0.000000 1.595350 0.000000 
#    z -0.043730 0.000000 1.584550 
# 
# From -- ./inp_files/42531.got.cif
#   From: 2010.06.25/outbox.cif.g09.slc.cpg/sg11_22_cif.got.tgz:42531.got - 2010.06.27 23:14:04.
