data_PCOD8072608
_publ_section_title
;
Structure prediction by ZEFSAII (Michael W. Deem and Ramdas Pophale) SiO2 
 PCOD8072608
Probable space group: P 21/M
;
_chemical_formula_sum "Si O2"
_cell_formula_units_Z 28
_cell_length_a 27.027660
_cell_length_b 8.829658
_cell_length_c 9.480417
_cell_angle_alpha 90.000000
_cell_angle_beta 139.975292
_cell_angle_gamma 90.000000
_cell_volume 1455.024695
_symmetry_space_group_name_H-M "P 21/M"
_symmetry_group_IT_number 11
_symmetry_cell_setting 'monoclinic'
loop_
_space_group_symop_operation_xyz
x,y,z
-x,1/2+y,-z
-x,-y,-z
x,1/2-y,z
loop_
_atom_site_type_symbol
_atom_site_label
_atom_site_fract_x
_atom_site_fract_y
_atom_site_fract_z
Si Si1 0.559182 0.572297 0.735075
Si Si2 0.433327 0.570371 0.948649
Si Si3 0.742589 0.069770 0.480483
Si Si4 0.827917 0.084198 0.386874
Si Si5 0.920246 0.574052 0.364596
Si Si6 0.691585 0.083266 0.877299
Si Si7 0.216862 0.427778 0.146204
O O1 0.500000 0.500000 0.500000
O O2 0.546252 0.750000 0.727696
O O3 0.548353 0.486125 0.856437
O O4 0.642434 0.539357 0.853856
O O5 0.439112 0.750000 0.955645
O O6 0.500000 0.500000 0.000000
O O7 0.347025 0.517420 0.716439
O O8 0.747207 0.250000 0.503942
O O9 0.786405 0.014065 0.434241
O O10 0.788904 0.990483 0.708021
O O11 0.862620 0.250000 0.500132
O O12 0.894105 0.979192 0.464442
O O13 0.767619 0.106040 0.131511
O O14 0.933529 0.750000 0.404910
O O15 0.000000 0.500000 0.500000
O O16 0.860288 0.534085 0.109049
O O17 0.651731 0.250000 0.771321
O O18 0.710922 0.013970 0.766861
O O19 0.233695 0.250000 0.184135
#
# Coordination Sequence:
#
# PCOD8072608 Si02
#       7
#     4   4   4   4   4   4   4
#     4  12  25  40  59  83 113 151 197 250 303 355
#     4  11  24  43  61  85 119 159 204 250 304 357
#     4  10  21  39  61  85 118 158 199 241 293 356
#     4   9  18  36  61  86 113 150 191 235 286 343
#     4  10  21  38  61  90 121 153 192 238 287 346
#     4  10  19  37  60  82 111 149 193 242 293 348
#     4  10  22  37  57  89 121 152 195 241 288 345
#
# _framework density 19.243659999999998
#
# number of rings (size 3 to 8) (size 9 to 14) (size 15 to 20)
#    0.000    1.714    1.429    3.000    2.000    4.000 
#    0.000    0.714    0.000    0.000    0.000    0.000 
#    0.000    0.000    0.000    0.000    0.000    0.000 
#
# Total GULP energy -347113.982906 kJ/mol
# GULP energy per Si atom -12396.927961 kJ/mol
# Density = 1.919986 g / cm^3
# Si number density = 19.243660 Si / 1000 Ang^3
#
#
#
# Elastic Constant Matrix: (Units=GPa)
#
#
# Indices 1 2 3 4 5 6 
#
# 1 169.7372 60.0405 63.0505 0.0000 -3.5068 0.0000
# 2 60.0405 84.7186 44.4491 0.0000 1.7325 0.0000
# 3 63.0505 44.4491 72.8945 0.0000 -11.9429 0.0000
# 4 0.0000 0.0000 0.0000 30.3443 0.0000 -1.3346
# 5 -3.5068 1.7325 -11.9429 0.0000 32.2815 0.0000
# 6 0.0000 0.0000 0.0000 -1.3346 0.0000 39.2189
#
#
#
# Elastic Compliance Matrix: (Units=1/GPa)
#
#
# Indices 1 2 3 4 5 6 
#
# 1 0.009372 -0.003338 -0.006254 0.000000 -0.001116 0.000000
# 2 -0.003338 0.019392 -0.009759 0.000000 -0.005014 0.000000
# 3 -0.006254 -0.009759 0.026670 0.000000 0.009711 0.000000
# 4 0.000000 0.000000 0.000000 0.033004 0.000000 0.001123
# 5 -0.001116 -0.005014 0.009711 0.000000 0.034718 0.000000
# 6 0.000000 0.000000 0.000000 0.001123 0.000000 0.025536
#
#
# Mechanical properties :
#
#
# Convention : Reuss Voigt Hill
#
# Bulk Modulus (GPa) = 59.76576 73.60338 66.68457
# Shear Modulus (GPa) = 25.91037 31.02296 28.46667
#
# Velocity S-wave (km/s) = 3.67336 4.01947 3.85031
# Velocity P-wave (km/s) = 7.00830 7.73774 7.38204
#
# Compressibility (1/GPa) = 0.01673199
#
# Stress axis : x y z
#
# Youngs Moduli (GPa) = 106.69757 51.56686 37.49549
#
# Poissons Ratio (x) = 0.17213 0.23450
# Poissons Ratio (y) = 0.35616 0.36592
# Poissons Ratio (z) = 0.66730 0.50325
#
# Static dielectric constant tensor:
#      x y z
#    x 3.589090 0.000000 -0.031420 
#    y 0.000000 3.839370 0.000000 
#    z -0.031420 0.000000 3.358480 
# 
# 
# High freq. dielectric constant tensor:
#      x y z
#    x 1.758720 0.000000 -0.008900 
#    y 0.000000 1.757180 0.000000 
#    z -0.008900 0.000000 1.730840 
# 
# From -- ./inp_files/28637.got.cif
#   From: 2010.06.25/outbox.cif.g09.slc.cpg/sg11_15_cif.got.tgz:28637.got - 2010.06.27 23:14:04.
