data_PCOD8072175
_publ_section_title
;
Structure prediction by ZEFSAII (Michael W. Deem and Ramdas Pophale) SiO2 
 PCOD8072175
Probable space group: P 21/M
;
_chemical_formula_sum "Si O2"
_cell_formula_units_Z 32
_cell_length_a 9.121504
_cell_length_b 28.631538
_cell_length_c 12.555535
_cell_angle_alpha 90.000000
_cell_angle_beta 29.443831
_cell_angle_gamma 90.000000
_cell_volume 1611.876630
_symmetry_space_group_name_H-M "P 21/M"
_symmetry_group_IT_number 11
_symmetry_cell_setting 'monoclinic'
loop_
_space_group_symop_operation_xyz
x,y,z
-x,1/2+y,-z
-x,-y,-z
x,1/2-y,z
loop_
_atom_site_type_symbol
_atom_site_label
_atom_site_fract_x
_atom_site_fract_y
_atom_site_fract_z
Si Si1 0.422354 0.861120 0.391721
Si Si2 0.321633 0.389754 0.332861
Si Si3 0.202562 0.196457 0.991126
Si Si4 0.642390 0.420334 0.763244
Si Si5 0.615538 0.487618 0.124872
Si Si6 0.769550 0.481420 0.263927
Si Si7 0.720061 0.856989 0.861313
Si Si8 0.343448 0.874374 0.668711
O O1 0.554453 0.813763 0.255709
O O2 0.496682 0.902151 0.260989
O O3 0.550028 0.868041 0.431185
O O4 0.073511 0.861284 0.636080
O O5 0.498735 0.435689 0.184745
O O6 0.375638 0.352341 0.202430
O O7 0.440672 0.367994 0.366591
O O8 0.976465 0.402123 0.567940
O O9 0.105591 0.250000 0.046109
O O10 0.353844 0.186298 0.012259
O O11 0.913850 0.164277 0.156326
O O12 0.628822 0.476575 0.769085
O O13 0.436278 0.402830 0.990577
O O14 0.694954 0.501020 0.195093
O O15 0.937237 0.495904 0.865579
O O16 0.500000 0.500000 0.500000
O O17 0.804277 0.425421 0.240345
#
# Coordination Sequence:
#
# PCOD8072175 Si02
#       8
#     4   4   4   4   4   4   4   4
#     4   9  18  34  58  82 108 142 184 234 282 332
#     4  10  22  35  53  83 119 158 189 230 285 336
#     4  10  21  39  65  88 105 137 186 238 292 350
#     4  10  19  35  54  79 115 158 199 233 272 322
#     4  10  20  32  50  80 115 153 203 239 268 323
#     4  10  20  33  53  83 118 158 196 239 285 328
#     4   9  20  37  57  81 113 146 183 229 281 340
#     4  10  21  37  58  86 119 149 187 238 288 341
#
# _framework density 19.852633999999998
#
# number of rings (size 3 to 8) (size 9 to 14) (size 15 to 20)
#    0.000    2.250    0.000    3.375    0.000    8.500 
#    0.000    0.625    0.000    3.000    0.000    0.000 
#    0.000    0.000    0.000    0.000    0.000    0.000 
#
# Total GULP energy -396456.972056 kJ/mol
# GULP energy per Si atom -12389.280377 kJ/mol
# Density = 1.980745 g / cm^3
# Si number density = 19.852634 Si / 1000 Ang^3
#
#
#
# Elastic Constant Matrix: (Units=GPa)
#
#
# Indices 1 2 3 4 5 6 
#
# 1 132.9774 37.6912 52.5090 0.0000 16.9132 0.0000
# 2 37.6912 90.8163 34.0288 0.0000 -9.0272 0.0000
# 3 52.5090 34.0288 115.5445 0.0000 6.1672 0.0000
# 4 0.0000 0.0000 0.0000 23.3012 0.0000 -2.0193
# 5 16.9132 -9.0272 6.1672 0.0000 29.4433 0.0000
# 6 0.0000 0.0000 0.0000 -2.0193 0.0000 17.8661
#
#
#
# Elastic Compliance Matrix: (Units=1/GPa)
#
#
# Indices 1 2 3 4 5 6 
#
# 1 0.010818 -0.003873 -0.003419 0.000000 -0.006686 0.000000
# 2 -0.003873 0.014415 -0.002872 0.000000 0.007246 0.000000
# 3 -0.003419 -0.002872 0.011121 0.000000 -0.001246 0.000000
# 4 0.000000 0.000000 0.000000 0.043341 0.000000 0.004898
# 5 -0.006686 0.007246 -0.001246 0.000000 0.040287 0.000000
# 6 0.000000 0.000000 0.000000 0.004898 0.000000 0.056525
#
#
# Mechanical properties :
#
#
# Convention : Reuss Voigt Hill
#
# Bulk Modulus (GPa) = 62.39875 65.31069 63.85472
# Shear Modulus (GPa) = 24.73077 28.46274 26.59675
#
# Velocity S-wave (km/s) = 3.53330 3.79053 3.66417
# Velocity P-wave (km/s) = 6.93865 7.21988 7.08066
#
# Compressibility (1/GPa) = 0.01602596
#
# Stress axis : x y z
#
# Youngs Moduli (GPa) = 92.43592 69.37124 89.92308
#
# Poissons Ratio (x) = 0.26871 0.30742
# Poissons Ratio (y) = 0.35805 0.25825
# Poissons Ratio (z) = 0.31601 0.19923
#
# Static dielectric constant tensor:
#      x y z
#    x 3.945430 0.000000 0.448160 
#    y 0.000000 2.979340 0.000000 
#    z 0.448160 0.000000 3.607870 
# 
# 
# High freq. dielectric constant tensor:
#      x y z
#    x 1.772480 0.000000 0.014330 
#    y 0.000000 1.735200 0.000000 
#    z 0.014330 0.000000 1.788060 
# 
# From -- ./inp_files/33207.got.cif
#   From: 2010.06.25/outbox.cif.g09.slc.cpg/sg11_17_cif.got.tgz:33207.got - 2010.06.27 23:14:04.
