data_PCOD8072601
_publ_section_title
;
Structure prediction by ZEFSAII (Michael W. Deem and Ramdas Pophale) SiO2 
 PCOD8072601
Probable space group: P 21/M
;
_chemical_formula_sum "Si O2"
_cell_formula_units_Z 20
_cell_length_a 16.143718
_cell_length_b 9.953661
_cell_length_c 8.787168
_cell_angle_alpha 90.000000
_cell_angle_beta 137.197582
_cell_angle_gamma 90.000000
_cell_volume 959.416260
_symmetry_space_group_name_H-M "P 21/M"
_symmetry_group_IT_number 11
_symmetry_cell_setting 'monoclinic'
loop_
_space_group_symop_operation_xyz
x,y,z
-x,1/2+y,-z
-x,-y,-z
x,1/2-y,z
loop_
_atom_site_type_symbol
_atom_site_label
_atom_site_fract_x
_atom_site_fract_y
_atom_site_fract_z
Si Si1 0.825538 0.898357 0.776029
Si Si2 0.364302 0.404478 0.966416
Si Si3 0.851151 0.106032 0.320948
Si Si4 0.573458 0.903200 0.302727
Si Si5 0.998089 0.030684 0.242178
O O1 0.813125 0.750000 0.826647
O O2 0.690878 0.953376 0.555574
O O3 0.906659 0.888557 0.732695
O O4 0.884830 0.988997 0.984647
O O5 0.358378 0.250000 0.018799
O O6 0.466780 0.490033 0.195215
O O7 0.236643 0.479172 0.823535
O O8 0.393025 0.406411 0.828404
O O9 0.780956 0.250000 0.238843
O O10 0.944547 0.120036 0.306019
O O11 0.928380 0.092090 0.581018
O O12 0.535667 0.750000 0.296006
#
# Coordination Sequence:
#
# PCOD8072601 Si02
#       5
#     4   4   4   4   4
#     4  10  19  37  59  84 115 150 188 235 287 339
#     4  10  20  35  57  84 114 148 191 239 283 336
#     4  11  22  37  58  86 119 155 191 233 281 340
#     4   9  18  35  58  83 112 147 187 236 287 338
#     4  10  22  36  56  86 117 153 191 231 281 342
#
# _framework density 20.84601
#
# number of rings (size 3 to 8) (size 9 to 14) (size 15 to 20)
#    0.000    2.000    2.000    1.800    0.000    4.800 
#    0.000    3.000    0.000    0.000    0.000    0.000 
#    0.000    0.000    0.000    0.000    0.000    0.000 
#
# Total GULP energy -247865.976359 kJ/mol
# GULP energy per Si atom -12393.298818 kJ/mol
# Density = 2.079856 g / cm^3
# Si number density = 20.846010 Si / 1000 Ang^3
#
#
#
# Elastic Constant Matrix: (Units=GPa)
#
#
# Indices 1 2 3 4 5 6 
#
# 1 45.1771 28.1634 31.3159 0.0000 12.2176 0.0000
# 2 28.1634 142.9957 52.6042 0.0000 25.8636 0.0000
# 3 31.3159 52.6042 128.9788 0.0000 26.4204 0.0000
# 4 0.0000 0.0000 0.0000 17.2580 0.0000 11.2501
# 5 12.2176 25.8636 26.4204 0.0000 34.9847 0.0000
# 6 0.0000 0.0000 0.0000 11.2501 0.0000 10.7930
#
#
#
# Elastic Compliance Matrix: (Units=1/GPa)
#
#
# Indices 1 2 3 4 5 6 
#
# 1 0.028508 -0.003113 -0.004832 0.000000 -0.004006 0.000000
# 2 -0.003113 0.009124 -0.002137 0.000000 -0.004044 0.000000
# 3 -0.004832 -0.002137 0.010799 0.000000 -0.004888 0.000000
# 4 0.000000 0.000000 0.000000 0.180783 0.000000 -0.188438
# 5 -0.004006 -0.004044 -0.004888 0.000000 0.036664 0.000000
# 6 0.000000 0.000000 0.000000 -0.188438 0.000000 0.289070
#
#
# Mechanical properties :
#
#
# Convention : Reuss Voigt Hill
#
# Bulk Modulus (GPa) = 35.37515 60.14650 47.76083
# Shear Modulus (GPa) = 8.55381 26.27834 17.41608
#
# Velocity S-wave (km/s) = 2.02787 3.55434 2.89357
# Velocity P-wave (km/s) = 4.74232 6.76460 5.84163
#
# Compressibility (1/GPa) = 0.02826843
#
# Stress axis : x y z
#
# Youngs Moduli (GPa) = 35.07772 109.60209 92.59897
#
# Poissons Ratio (x) = 0.34117 0.44740
# Poissons Ratio (y) = 0.10919 0.19788
# Poissons Ratio (z) = 0.16948 0.23422
#
# Static dielectric constant tensor:
#      x y z
#    x 3.550810 0.000000 0.176700 
#    y 0.000000 3.759640 0.000000 
#    z 0.176700 0.000000 3.822460 
# 
# 
# High freq. dielectric constant tensor:
#      x y z
#    x 1.796890 0.000000 0.013380 
#    y 0.000000 1.810790 0.000000 
#    z 0.013380 0.000000 1.818270 
# 
# From -- ./inp_files/26004.got.cif
#   From: 2010.06.25/outbox.cif.g09.slc.cpg/sg11_14_cif.got.tgz:26004.got - 2010.06.27 23:14:04.
