data_PCOD8072769
_publ_section_title
;
Structure prediction by ZEFSAII (Michael W. Deem and Ramdas Pophale) SiO2 
 PCOD8072769
Probable space group: P 21/M
;
_chemical_formula_sum "Si O2"
_cell_formula_units_Z 32
_cell_length_a 17.086154
_cell_length_b 9.296449
_cell_length_c 23.020569
_cell_angle_alpha 90.000000
_cell_angle_beta 149.118614
_cell_angle_gamma 90.000000
_cell_volume 1876.795542
_symmetry_space_group_name_H-M "P 21/M"
_symmetry_group_IT_number 11
_symmetry_cell_setting 'monoclinic'
loop_
_space_group_symop_operation_xyz
x,y,z
-x,1/2+y,-z
-x,-y,-z
x,1/2-y,z
loop_
_atom_site_type_symbol
_atom_site_label
_atom_site_fract_x
_atom_site_fract_y
_atom_site_fract_z
Si Si1 0.919981 0.582283 0.215008
Si Si2 0.826802 0.087311 0.328361
Si Si3 0.082073 0.584405 0.433365
Si Si4 0.634554 0.417245 0.315788
Si Si5 0.345234 0.585554 0.900816
Si Si6 0.323032 0.919353 0.134647
Si Si7 0.946867 0.916605 0.101816
Si Si8 0.128702 0.586298 0.112838
O O1 0.877510 0.750000 0.193750
O O2 0.768015 0.489416 0.125899
O O3 0.985634 0.545375 0.193186
O O4 0.044921 0.537080 0.343377
O O5 0.878933 0.250000 0.373358
O O6 0.731065 0.029186 0.321874
O O7 0.718860 0.075392 0.204341
O O8 0.979646 0.996885 0.415634
O O9 0.041754 0.750000 0.416832
O O10 0.260367 0.555747 0.560222
O O11 0.588662 0.250000 0.280515
O O12 0.484164 0.511302 0.223489
O O13 0.371153 0.750000 0.936802
O O14 0.500000 0.500000 0.000000
O O15 0.331208 0.750000 0.126574
O O16 0.288045 0.950454 0.181606
O O17 0.191924 0.987344 0.010541
O O18 0.896551 0.750000 0.064005
O O19 0.106806 0.944745 0.168022
O O20 0.090681 0.750000 0.075339
O O21 0.000000 0.500000 0.000000
#
# Coordination Sequence:
#
# PCOD8072769 Si02
#       8
#     4   4   4   4   4   4   4   4
#     4   9  18  32  50  71  92 120 158 195 233 279
#     4   9  19  33  48  66  89 122 161 196 233 278
#     4   9  18  33  51  70  92 120 159 201 235 272
#     4  10  20  33  49  69  95 126 158 194 236 280
#     4  10  20  32  45  64  94 128 158 192 235 277
#     4  10  20  31  46  73 101 122 153 194 236 279
#     4   9  17  31  52  72  95 126 155 187 234 290
#     4   8  15  29  47  68  94 123 152 186 230 281
#
# _framework density 17.050339000000001
#
# number of rings (size 3 to 8) (size 9 to 14) (size 15 to 20)
#    0.000    2.750    0.000    1.125    1.750    2.500 
#    0.000    0.000    0.000    0.750    0.000    0.000 
#    0.000    0.000    0.000    0.000    0.000    0.625 
#
# Total GULP energy -396517.297923 kJ/mol
# GULP energy per Si atom -12391.165560 kJ/mol
# Density = 1.701153 g / cm^3
# Si number density = 17.050339 Si / 1000 Ang^3
#
#
#
# Elastic Constant Matrix: (Units=GPa)
#
#
# Indices 1 2 3 4 5 6 
#
# 1 134.2622 37.5979 39.8912 0.0000 -2.1160 0.0000
# 2 37.5979 57.9842 24.9214 0.0000 4.0445 0.0000
# 3 39.8912 24.9214 52.1534 0.0000 5.1582 0.0000
# 4 0.0000 0.0000 0.0000 16.5759 0.0000 2.3034
# 5 -2.1160 4.0445 5.1582 0.0000 13.6253 0.0000
# 6 0.0000 0.0000 0.0000 2.3034 0.0000 23.1986
#
#
#
# Elastic Compliance Matrix: (Units=1/GPa)
#
#
# Indices 1 2 3 4 5 6 
#
# 1 0.010769 -0.004522 -0.006622 0.000000 0.005522 0.000000
# 2 -0.004522 0.023692 -0.007374 0.000000 -0.004943 0.000000
# 3 -0.006622 -0.007374 0.028724 0.000000 -0.009714 0.000000
# 4 0.000000 0.000000 0.000000 0.061173 0.000000 -0.006074
# 5 0.005522 -0.004943 -0.009714 0.000000 0.079395 0.000000
# 6 0.000000 0.000000 0.000000 -0.006074 0.000000 0.043709
#
#
# Mechanical properties :
#
#
# Convention : Reuss Voigt Hill
#
# Bulk Modulus (GPa) = 38.24213 49.91342 44.07777
# Shear Modulus (GPa) = 17.05239 20.14589 18.59914
#
# Velocity S-wave (km/s) = 3.16590 3.44110 3.30637
# Velocity P-wave (km/s) = 5.98678 6.71759 6.36268
#
# Compressibility (1/GPa) = 0.02614917
#
# Stress axis : x y z
#
# Youngs Moduli (GPa) = 92.85952 42.20837 34.81419
#
# Poissons Ratio (x) = 0.19085 0.23056
# Poissons Ratio (y) = 0.41987 0.25671
# Poissons Ratio (z) = 0.61496 0.31124
#
# Static dielectric constant tensor:
#      x y z
#    x 3.841960 0.000000 -0.075030 
#    y 0.000000 3.312280 0.000000 
#    z -0.075030 0.000000 3.047410 
# 
# 
# High freq. dielectric constant tensor:
#      x y z
#    x 1.665420 0.000000 -0.002550 
#    y 0.000000 1.662320 0.000000 
#    z -0.002550 0.000000 1.629520 
# 
# From -- ./inp_files/61763.got.cif
#   From: 2010.06.25/outbox.cif.g09.slc.cpg/sg11_31_cif.got.tgz:61763.got - 2010.06.27 23:14:04.
