data_PCOD8072711
_publ_section_title
;
Structure prediction by ZEFSAII (Michael W. Deem and Ramdas Pophale) SiO2 
 PCOD8072711
Probable space group: P 21/M
;
_chemical_formula_sum "Si O2"
_cell_formula_units_Z 28
_cell_length_a 9.003949
_cell_length_b 12.849331
_cell_length_c 16.073590
_cell_angle_alpha 90.000000
_cell_angle_beta 47.869446
_cell_angle_gamma 90.000000
_cell_volume 1379.135125
_symmetry_space_group_name_H-M "P 21/M"
_symmetry_group_IT_number 11
_symmetry_cell_setting 'monoclinic'
loop_
_space_group_symop_operation_xyz
x,y,z
-x,1/2+y,-z
-x,-y,-z
x,1/2-y,z
loop_
_atom_site_type_symbol
_atom_site_label
_atom_site_fract_x
_atom_site_fract_y
_atom_site_fract_z
Si Si1 0.518581 0.870450 0.731810
Si Si2 0.033016 0.530415 0.196993
Si Si3 0.646039 0.074353 0.043306
Si Si4 0.569222 0.517061 0.379960
Si Si5 0.199946 0.631287 0.470522
Si Si6 0.313488 0.133897 0.046815
Si Si7 0.120246 0.988884 0.343448
O O1 0.571229 0.750000 0.702070
O O2 0.338237 0.889722 0.866335
O O3 0.461084 0.912069 0.662340
O O4 0.705581 0.930513 0.700523
O O5 0.094141 0.408273 0.159361
O O6 0.132375 0.562061 0.247977
O O7 0.798392 0.552051 0.285506
O O8 0.143834 0.599161 0.083588
O O9 0.464568 0.136473 0.068270
O O10 0.602742 0.948718 0.053398
O O11 0.500000 0.500000 0.500000
O O12 0.437056 0.609428 0.389619
O O13 0.152882 0.750000 0.510212
O O14 0.120099 0.606805 0.407882
O O15 0.087743 0.553595 0.576040
O O16 0.291263 0.250000 0.017979
#
# Coordination Sequence:
#
# PCOD8072711 Si02
#       7
#     4   4   4   4   4   4   4
#     4  11  22  39  64  90 118 161 210 255 308 367
#     4  10  20  38  62  88 125 163 196 252 311 357
#     4   9  19  35  57  92 122 154 197 261 304 356
#     4  11  24  42  59  86 129 162 202 258 308 366
#     4  10  22  39  61  88 123 166 207 250 311 369
#     4   9  17  33  61  94 122 155 202 252 307 364
#     4  10  19  38  65  91 121 156 207 270 296 354
#
# _framework density 20.302579000000001
#
# number of rings (size 3 to 8) (size 9 to 14) (size 15 to 20)
#    0.857    1.143    2.857    0.857    0.000    2.286 
#    0.000    9.286    0.000    0.000    0.000    0.000 
#    0.000    0.000    0.000    0.000    0.000    0.000 
#
# Total GULP energy -346950.091741 kJ/mol
# GULP energy per Si atom -12391.074705 kJ/mol
# Density = 2.025637 g / cm^3
# Si number density = 20.302579 Si / 1000 Ang^3
#
#
#
# Elastic Constant Matrix: (Units=GPa)
#
#
# Indices 1 2 3 4 5 6 
#
# 1 84.0344 10.8153 45.9554 0.0000 -7.0997 0.0000
# 2 10.8153 61.5426 13.8838 0.0000 7.5987 0.0000
# 3 45.9554 13.8838 117.9482 0.0000 -1.0456 0.0000
# 4 0.0000 0.0000 0.0000 15.0834 0.0000 1.1994
# 5 -7.0997 7.5987 -1.0456 0.0000 41.7372 0.0000
# 6 0.0000 0.0000 0.0000 1.1994 0.0000 11.3243
#
#
#
# Elastic Compliance Matrix: (Units=1/GPa)
#
#
# Indices 1 2 3 4 5 6 
#
# 1 0.015552 -0.001767 -0.005826 0.000000 0.002821 0.000000
# 2 -0.001767 0.017301 -0.001379 0.000000 -0.003485 0.000000
# 3 -0.005826 -0.001379 0.010907 0.000000 -0.000467 0.000000
# 4 0.000000 0.000000 0.000000 0.066861 0.000000 -0.007082
# 5 0.002821 -0.003485 -0.000467 0.000000 0.025062 0.000000
# 6 0.000000 0.000000 0.000000 -0.007082 0.000000 0.089056
#
#
# Mechanical properties :
#
#
# Convention : Reuss Voigt Hill
#
# Bulk Modulus (GPa) = 38.73763 44.98157 41.85960
# Shear Modulus (GPa) = 19.89752 26.48703 23.19227
#
# Velocity S-wave (km/s) = 3.13397 3.61586 3.38351
# Velocity P-wave (km/s) = 5.67602 6.29574 5.99390
#
# Compressibility (1/GPa) = 0.02581469
#
# Stress axis : x y z
#
# Youngs Moduli (GPa) = 64.30085 57.80079 91.68782
#
# Poissons Ratio (x) = 0.10213 0.53421
# Poissons Ratio (y) = 0.11362 0.12643
# Poissons Ratio (z) = 0.37464 0.07970
#
# Static dielectric constant tensor:
#      x y z
#    x 3.533770 0.000000 -0.015370 
#    y 0.000000 3.305310 0.000000 
#    z -0.015370 0.000000 3.880970 
# 
# 
# High freq. dielectric constant tensor:
#      x y z
#    x 1.777810 0.000000 -0.002900 
#    y 0.000000 1.760220 0.000000 
#    z -0.002900 0.000000 1.801020 
# 
# From -- ./inp_files/47576.got.cif
#   From: 2010.06.25/outbox.cif.g09.slc.cpg/sg11_24_cif.got.tgz:47576.got - 2010.06.27 23:14:04.
