data_PCOD8072716
_publ_section_title
;
Structure prediction by ZEFSAII (Michael W. Deem and Ramdas Pophale) SiO2 
 PCOD8072716
Probable space group: P 21/M
;
_chemical_formula_sum "Si O2"
_cell_formula_units_Z 32
_cell_length_a 24.673509
_cell_length_b 14.013956
_cell_length_c 9.668007
_cell_angle_alpha 90.000000
_cell_angle_beta 153.005715
_cell_angle_gamma 90.000000
_cell_volume 1517.366040
_symmetry_space_group_name_H-M "P 21/M"
_symmetry_group_IT_number 11
_symmetry_cell_setting 'monoclinic'
loop_
_space_group_symop_operation_xyz
x,y,z
-x,1/2+y,-z
-x,-y,-z
x,1/2-y,z
loop_
_atom_site_type_symbol
_atom_site_label
_atom_site_fract_x
_atom_site_fract_y
_atom_site_fract_z
Si Si1 0.641330 0.643096 0.158930
Si Si2 0.776141 0.475268 0.605613
Si Si3 0.194333 0.646100 0.593981
Si Si4 0.611825 0.114325 0.759590
Si Si5 0.104361 0.139233 0.704331
Si Si6 0.651019 0.605994 0.874104
Si Si7 0.632471 0.142236 0.493483
Si Si8 0.992765 0.521257 0.268625
O O1 0.655530 0.750000 0.250488
O O2 0.712455 0.573556 0.421071
O O3 0.693146 0.641221 0.120942
O O4 0.503679 0.610813 0.841734
O O5 0.767703 0.399227 0.464430
O O6 0.715816 0.431487 0.603981
O O7 0.913139 0.498037 0.953751
O O8 0.133647 0.750000 0.429427
O O9 0.110961 0.574426 0.488328
O O10 0.311677 0.668169 0.951368
O O11 0.475308 0.153147 0.458146
O O12 0.664923 0.135535 0.728844
O O13 0.624743 0.004552 0.824729
O O14 0.062335 0.250000 0.606760
O O15 0.080515 0.091626 0.798130
O O16 0.246332 0.133935 0.000321
O O17 0.029633 0.079161 0.421760
O O18 0.654906 0.250000 0.492326
#
# Coordination Sequence:
#
# PCOD8072716 Si02
#       8
#     4   4   4   4   4   4   4   4
#     4  10  21  39  64  93 131 172 208 255 320 381
#     4  12  24  43  65  91 129 169 217 260 312 375
#     4  12  25  43  66  95 130 169 214 261 317 379
#     4  10  20  39  68  97 129 165 204 262 323 376
#     4  11  23  42  68  96 126 165 217 267 313 374
#     4  10  19  38  67  98 127 162 211 264 320 373
#     4  10  22  39  63  97 131 168 210 257 317 379
#     4  11  26  45  62  91 131 171 211 266 320 368
#
# _framework density 21.089175999999998
#
# number of rings (size 3 to 8) (size 9 to 14) (size 15 to 20)
#    0.000    1.250    2.500    3.000    1.750    3.500 
#    2.250    0.000    0.000    0.000    0.000    0.000 
#    0.000    0.000    0.000    0.000    0.000    0.000 
#
# Total GULP energy -396862.337603 kJ/mol
# GULP energy per Si atom -12401.948050 kJ/mol
# Density = 2.104118 g / cm^3
# Si number density = 21.089176 Si / 1000 Ang^3
#
#
#
# Elastic Constant Matrix: (Units=GPa)
#
#
# Indices 1 2 3 4 5 6 
#
# 1 97.8722 32.0270 38.2871 0.0000 4.2267 0.0000
# 2 32.0270 138.3301 41.1058 0.0000 -6.3120 0.0000
# 3 38.2871 41.1058 121.8515 0.0000 -12.9420 0.0000
# 4 0.0000 0.0000 0.0000 18.3659 0.0000 -0.8508
# 5 4.2267 -6.3120 -12.9420 0.0000 29.1247 0.0000
# 6 0.0000 0.0000 0.0000 -0.8508 0.0000 8.2196
#
#
#
# Elastic Compliance Matrix: (Units=1/GPa)
#
#
# Indices 1 2 3 4 5 6 
#
# 1 0.012462 -0.001974 -0.003660 0.000000 -0.003863 0.000000
# 2 -0.001974 0.008356 -0.002074 0.000000 0.001176 0.000000
# 3 -0.003660 -0.002074 0.010564 0.000000 0.004776 0.000000
# 4 0.000000 0.000000 0.000000 0.054711 0.000000 0.005663
# 5 -0.003863 0.001176 0.004776 0.000000 0.037273 0.000000
# 6 0.000000 0.000000 0.000000 0.005663 0.000000 0.122246
#
#
# Mechanical properties :
#
#
# Convention : Reuss Voigt Hill
#
# Bulk Modulus (GPa) = 62.63271 64.54372 63.58822
# Shear Modulus (GPa) = 18.77237 27.58430 23.17834
#
# Velocity S-wave (km/s) = 2.98676 3.62053 3.31881
# Velocity P-wave (km/s) = 6.45428 6.93896 6.70101
#
# Compressibility (1/GPa) = 0.01596610
#
# Stress axis : x y z
#
# Youngs Moduli (GPa) = 80.24432 119.67488 94.66530
#
# Poissons Ratio (x) = 0.23623 0.34648
# Poissons Ratio (y) = 0.15839 0.19631
# Poissons Ratio (z) = 0.29370 0.24817
#
# Static dielectric constant tensor:
#      x y z
#    x 3.736820 0.000000 0.083260 
#    y 0.000000 3.942100 0.000000 
#    z 0.083260 0.000000 3.836270 
# 
# 
# High freq. dielectric constant tensor:
#      x y z
#    x 1.820740 0.000000 0.003580 
#    y 0.000000 1.844200 0.000000 
#    z 0.003580 0.000000 1.821520 
# 
# From -- ./inp_files/27801.got.cif
#   From: 2010.06.25/outbox.cif.g09.slc.cpg/sg11_14_cif.got.tgz:27801.got - 2010.06.27 23:14:04.
