data_PCOD8072662
_publ_section_title
;
Structure prediction by ZEFSAII (Michael W. Deem and Ramdas Pophale) SiO2 
 PCOD8072662
Probable space group: P 21/M
;
_chemical_formula_sum "Si O2"
_cell_formula_units_Z 28
_cell_length_a 28.274366
_cell_length_b 8.802811
_cell_length_c 5.221425
_cell_angle_alpha 90.000000
_cell_angle_beta 108.208657
_cell_angle_gamma 90.000000
_cell_volume 1234.504126
_symmetry_space_group_name_H-M "P 21/M"
_symmetry_group_IT_number 11
_symmetry_cell_setting 'monoclinic'
loop_
_space_group_symop_operation_xyz
x,y,z
-x,1/2+y,-z
-x,-y,-z
x,1/2-y,z
loop_
_atom_site_type_symbol
_atom_site_label
_atom_site_fract_x
_atom_site_fract_y
_atom_site_fract_z
Si Si1 0.465402 0.587715 0.750087
Si Si2 0.647664 0.429213 0.117298
Si Si3 0.803069 0.069073 0.902086
Si Si4 0.974760 0.068133 0.707284
Si Si5 0.695838 0.569740 0.697645
Si Si6 0.861648 0.429184 0.503814
Si Si7 0.432141 0.412493 0.270498
O O1 0.442843 0.750000 0.807565
O O2 0.421190 0.498480 0.523301
O O3 0.509509 0.624365 0.620699
O O4 0.500000 0.500000 0.000000
O O5 0.655576 0.250000 0.108089
O O6 0.677964 0.490921 0.406375
O O7 0.663580 0.512645 0.882335
O O8 0.588385 0.481985 0.011052
O O9 0.793745 0.250000 0.884357
O O10 0.830285 0.009907 0.692170
O O11 0.751744 0.981684 0.843848
O O12 0.836622 0.017166 0.198172
O O13 0.978998 0.250000 0.713812
O O14 0.917852 0.010439 0.611536
O O15 0.000000 0.000000 0.500000
O O16 0.000000 0.000000 0.000000
O O17 0.693007 0.750000 0.662116
O O18 0.862652 0.250000 0.520421
O O19 0.403226 0.250000 0.215828
#
# Coordination Sequence:
#
# PCOD8072662 Si02
#       7
#     4   4   4   4   4   4   4
#     4  10  21  37  60  87 120 159 202 249 306 368
#     4  12  26  45  69  96 127 170 218 259 310 386
#     4  10  19  37  63  89 117 159 214 262 307 376
#     4  11  22  39  61  91 129 172 217 265 320 377
#     4  12  26  45  67  97 133 166 203 264 332 383
#     4   9  19  35  60  88 120 165 214 259 310 376
#     4  10  22  40  60  87 121 159 202 255 312 368
#
# _framework density 22.681170000000002
#
# number of rings (size 3 to 8) (size 9 to 14) (size 15 to 20)
#    0.000    1.429    0.000    5.571    2.000    5.143 
#    0.000    4.286    0.000    0.000    0.000    0.000 
#    0.000    0.000    0.000    0.000    0.000    0.000 
#
# Total GULP energy -347005.274136 kJ/mol
# GULP energy per Si atom -12393.045505 kJ/mol
# Density = 2.262955 g / cm^3
# Si number density = 22.681170 Si / 1000 Ang^3
#
#
#
# Elastic Constant Matrix: (Units=GPa)
#
#
# Indices 1 2 3 4 5 6 
#
# 1 62.1755 1.4606 9.4380 0.0000 2.6490 0.0000
# 2 1.4606 157.4102 52.5650 0.0000 -0.7778 0.0000
# 3 9.4380 52.5650 158.2498 0.0000 -3.9066 0.0000
# 4 0.0000 0.0000 0.0000 38.2164 0.0000 3.3513
# 5 2.6490 -0.7778 -3.9066 0.0000 39.0187 0.0000
# 6 0.0000 0.0000 0.0000 3.3513 0.0000 29.1316
#
#
#
# Elastic Compliance Matrix: (Units=1/GPa)
#
#
# Indices 1 2 3 4 5 6 
#
# 1 0.016292 0.000199 -0.001068 0.000000 -0.001209 0.000000
# 2 0.000199 0.007148 -0.002389 0.000000 -0.000110 0.000000
# 3 -0.001068 -0.002389 0.007195 0.000000 0.000745 0.000000
# 4 0.000000 0.000000 0.000000 0.026433 0.000000 -0.003041
# 5 -0.001209 -0.000110 0.000745 0.000000 0.025783 0.000000
# 6 0.000000 0.000000 0.000000 -0.003041 0.000000 0.034677
#
#
# Mechanical properties :
#
#
# Convention : Reuss Voigt Hill
#
# Bulk Modulus (GPa) = 41.45824 56.08476 48.77150
# Shear Modulus (GPa) = 37.85480 42.23148 40.04314
#
# Velocity S-wave (km/s) = 4.08977 4.31973 4.20632
# Velocity P-wave (km/s) = 6.37338 7.04707 6.71867
#
# Compressibility (1/GPa) = 0.02412066
#
# Stress axis : x y z
#
# Youngs Moduli (GPa) = 61.37830 139.89524 138.99035
#
# Poissons Ratio (x) = -0.02790 0.14841
# Poissons Ratio (y) = -0.01224 0.33205
# Poissons Ratio (z) = 0.06554 0.33421
#
# Static dielectric constant tensor:
#      x y z
#    x 12.739490 0.000000 0.042000 
#    y 0.000000 4.030360 0.000000 
#    z 0.042000 0.000000 4.235790 
# 
# 
# High freq. dielectric constant tensor:
#      x y z
#    x 1.909250 0.000000 -0.005690 
#    y 0.000000 1.893490 0.000000 
#    z -0.005690 0.000000 1.916620 
# 
# From -- ./inp_files/9714.got.cif
#   From: 2010.06.25/outbox.cif.g09.slc.cpg/sg11_5_cif.got.tgz:9714.got - 2010.06.27 23:14:04.
