data_PCOD8072415
_publ_section_title
;
Structure prediction by ZEFSAII (Michael W. Deem and Ramdas Pophale) SiO2 
 PCOD8072415
Probable space group: P 21/M
;
_chemical_formula_sum "Si O2"
_cell_formula_units_Z 32
_cell_length_a 17.379684
_cell_length_b 13.277380
_cell_length_c 12.392272
_cell_angle_alpha 90.000000
_cell_angle_beta 146.696154
_cell_angle_gamma 90.000000
_cell_volume 1570.145755
_symmetry_space_group_name_H-M "P 21/M"
_symmetry_group_IT_number 11
_symmetry_cell_setting 'monoclinic'
loop_
_space_group_symop_operation_xyz
x,y,z
-x,1/2+y,-z
-x,-y,-z
x,1/2-y,z
loop_
_atom_site_type_symbol
_atom_site_label
_atom_site_fract_x
_atom_site_fract_y
_atom_site_fract_z
Si Si1 0.658068 0.461348 0.682616
Si Si2 0.100693 0.367067 0.721750
Si Si3 0.917457 0.554180 0.064460
Si Si4 0.353678 0.548180 0.738499
Si Si5 0.171335 0.865758 0.949294
Si Si6 0.360841 0.130591 0.887790
Si Si7 0.207972 0.631223 0.363994
Si Si8 0.177490 0.631275 0.712341
O O1 0.500000 0.500000 0.500000
O O2 0.683318 0.385848 0.814303
O O3 0.686104 0.399887 0.605774
O O4 0.772040 0.553702 0.823840
O O5 0.100242 0.250000 0.697746
O O6 0.111798 0.381954 0.862509
O O7 0.231673 0.411147 0.808092
O O8 0.959207 0.415015 0.506899
O O9 0.047092 0.599396 0.148165
O O10 0.947164 0.436654 0.133318
O O11 0.360405 0.427955 0.771373
O O12 0.245063 0.572260 0.516764
O O13 0.312799 0.600110 0.803691
O O14 0.502921 0.597343 0.883627
O O15 0.124568 0.750000 0.901479
O O16 0.188604 0.907558 0.848308
O O17 0.357232 0.250000 0.862031
O O18 0.217067 0.750000 0.394657
O O19 0.169394 0.750000 0.707547
#
# Coordination Sequence:
#
# PCOD8072415 Si02
#       8
#     4   4   4   4   4   4   4   4
#     4  10  25  44  65  90 125 167 219 266 329 378
#     4  10  20  36  61  96 131 163 205 261 314 377
#     4  10  22  39  66  94 125 165 210 266 318 384
#     4  11  23  37  62  91 128 174 211 261 327 381
#     4   9  21  39  64  92 126 170 213 261 321 383
#     4  10  23  38  55  88 133 172 214 261 321 385
#     4  12  24  43  68  94 128 170 218 272 323 384
#     4  10  19  35  62  94 125 164 210 252 313 391
#
# _framework density 20.380274
#
# number of rings (size 3 to 8) (size 9 to 14) (size 15 to 20)
#    0.750    1.000    1.250    3.000    3.500    2.000 
#    0.000    1.875    0.000    3.750    0.000    0.000 
#    0.000    0.000    0.000    0.000    0.000    0.000 
#
# Total GULP energy -396557.340805 kJ/mol
# GULP energy per Si atom -12392.416900 kJ/mol
# Density = 2.033389 g / cm^3
# Si number density = 20.380274 Si / 1000 Ang^3
#
#
#
# Elastic Constant Matrix: (Units=GPa)
#
#
# Indices 1 2 3 4 5 6 
#
# 1 88.8604 26.9853 40.5258 0.0000 9.5833 0.0000
# 2 26.9853 72.0633 32.4142 0.0000 3.7478 0.0000
# 3 40.5258 32.4142 90.8037 0.0000 8.8953 0.0000
# 4 0.0000 0.0000 0.0000 28.0270 0.0000 -2.1428
# 5 9.5833 3.7478 8.8953 0.0000 37.8590 0.0000
# 6 0.0000 0.0000 0.0000 -2.1428 0.0000 30.2014
#
#
#
# Elastic Compliance Matrix: (Units=1/GPa)
#
#
# Indices 1 2 3 4 5 6 
#
# 1 0.014844 -0.003051 -0.005320 0.000000 -0.002206 0.000000
# 2 -0.003051 0.017161 -0.004783 0.000000 0.000197 0.000000
# 3 -0.005320 -0.004783 0.015268 0.000000 -0.001767 0.000000
# 4 0.000000 0.000000 0.000000 0.035875 0.000000 0.002545
# 5 -0.002206 0.000197 -0.001767 0.000000 0.027368 0.000000
# 6 0.000000 0.000000 0.000000 0.002545 0.000000 0.033292
#
#
# Mechanical properties :
#
#
# Convention : Reuss Voigt Hill
#
# Bulk Modulus (GPa) = 47.70133 50.17533 48.93833
# Shear Modulus (GPa) = 28.23218 29.33760 28.78489
#
# Velocity S-wave (km/s) = 3.72596 3.79820 3.76225
# Velocity P-wave (km/s) = 6.47818 6.62632 6.55267
#
# Compressibility (1/GPa) = 0.02096377
#
# Stress axis : x y z
#
# Youngs Moduli (GPa) = 67.36648 58.27316 65.49799
#
# Poissons Ratio (x) = 0.17780 0.34843
# Poissons Ratio (y) = 0.20554 0.31330
# Poissons Ratio (z) = 0.35837 0.27875
#
# Static dielectric constant tensor:
#      x y z
#    x 3.619600 0.000000 0.020950 
#    y 0.000000 3.672670 0.000000 
#    z 0.020950 0.000000 3.758680 
# 
# 
# High freq. dielectric constant tensor:
#      x y z
#    x 1.789200 0.000000 0.000820 
#    y 0.000000 1.801760 0.000000 
#    z 0.000820 0.000000 1.787390 
# 
# From -- ./inp_files/39671.got.cif
#   From: 2010.06.25/outbox.cif.g09.slc.cpg/sg11_20_cif.got.tgz:39671.got - 2010.06.27 23:14:04.
