data_PCOD8072220
_publ_section_title
;
Structure prediction by ZEFSAII (Michael W. Deem and Ramdas Pophale) SiO2 
 PCOD8072220
Probable space group: P 21/M
;
_chemical_formula_sum "Si O2"
_cell_formula_units_Z 32
_cell_length_a 9.798230
_cell_length_b 14.278858
_cell_length_c 14.428240
_cell_angle_alpha 90.000000
_cell_angle_beta 123.440985
_cell_angle_gamma 90.000000
_cell_volume 1684.444862
_symmetry_space_group_name_H-M "P 21/M"
_symmetry_group_IT_number 11
_symmetry_cell_setting 'monoclinic'
loop_
_space_group_symop_operation_xyz
x,y,z
-x,1/2+y,-z
-x,-y,-z
x,1/2-y,z
loop_
_atom_site_type_symbol
_atom_site_label
_atom_site_fract_x
_atom_site_fract_y
_atom_site_fract_z
Si Si1 0.055316 0.012537 0.368527
Si Si2 0.595380 0.353664 0.368570
Si Si3 0.040147 0.856705 0.829722
Si Si4 0.179254 0.971834 0.031643
Si Si5 0.718548 0.144706 0.613824
Si Si6 0.238221 0.467470 0.620224
Si Si7 0.733598 0.852711 0.850517
Si Si8 0.431148 0.858574 0.247726
O O1 0.004812 0.099638 0.285786
O O2 0.170206 0.056815 0.491962
O O3 0.902242 0.957073 0.355708
O O4 0.140490 0.933328 0.337232
O O5 0.647565 0.250000 0.356160
O O6 0.602836 0.365158 0.481578
O O7 0.716945 0.422840 0.361694
O O8 0.410702 0.377651 0.273818
O O9 0.102331 0.750000 0.837535
O O10 0.893099 0.857026 0.847184
O O11 0.178084 0.922589 0.930230
O O12 0.277609 0.903007 0.136645
O O13 0.270505 0.072809 0.066377
O O14 0.000000 0.000000 0.000000
O O15 0.795181 0.250000 0.648290
O O16 0.601482 0.125649 0.656324
O O17 0.392790 0.404606 0.707547
O O18 0.713736 0.750000 0.888150
O O19 0.441005 0.750000 0.223716
#
# Coordination Sequence:
#
# PCOD8072220 Si02
#       8
#     4   4   4   4   4   4   4   4
#     4  10  22  38  56  82 116 154 191 235 290 350
#     4   9  17  31  53  80 112 142 182 235 285 339
#     4  10  21  35  55  81 111 152 195 235 277 338
#     4  10  19  35  56  82 118 150 188 237 295 339
#     4   9  19  33  54  83 113 148 186 232 289 344
#     4  10  22  37  56  84 116 151 190 235 295 351
#     4   9  17  30  54  85 113 143 185 236 288 335
#     4  11  22  36  58  87 116 152 194 241 293 347
#
# _framework density 18.997357999999998
#
# number of rings (size 3 to 8) (size 9 to 14) (size 15 to 20)
#    0.000    2.250    1.250    1.875    1.750    3.000 
#    0.000    3.750    0.000    0.000    0.000    0.000 
#    0.000    0.000    0.000    0.000    0.000    0.000 
#
# Total GULP energy -396594.302264 kJ/mol
# GULP energy per Si atom -12393.571946 kJ/mol
# Density = 1.895412 g / cm^3
# Si number density = 18.997358 Si / 1000 Ang^3
#
#
#
# Elastic Constant Matrix: (Units=GPa)
#
#
# Indices 1 2 3 4 5 6 
#
# 1 47.1997 28.0474 18.8438 0.0000 11.6168 0.0000
# 2 28.0474 133.4337 73.8581 0.0000 1.6846 0.0000
# 3 18.8438 73.8581 100.9186 0.0000 14.2428 0.0000
# 4 0.0000 0.0000 0.0000 37.0905 0.0000 0.9605
# 5 11.6168 1.6846 14.2428 0.0000 20.6274 0.0000
# 6 0.0000 0.0000 0.0000 0.9605 0.0000 18.1814
#
#
#
# Elastic Compliance Matrix: (Units=1/GPa)
#
#
# Indices 1 2 3 4 5 6 
#
# 1 0.028699 -0.007038 0.002207 0.000000 -0.017112 0.000000
# 2 -0.007038 0.015010 -0.011143 0.000000 0.010432 0.000000
# 3 0.002207 -0.011143 0.019610 0.000000 -0.013873 0.000000
# 4 0.000000 0.000000 0.000000 0.026998 0.000000 -0.001426
# 5 -0.017112 0.010432 -0.013873 0.000000 0.066844 0.000000
# 6 0.000000 0.000000 0.000000 -0.001426 0.000000 0.055076
#
#
# Mechanical properties :
#
#
# Convention : Reuss Voigt Hill
#
# Bulk Modulus (GPa) = 31.87679 58.11671 44.99675
# Shear Modulus (GPa) = 19.63530 25.90005 22.76768
#
# Velocity S-wave (km/s) = 3.21842 3.69636 3.46564
# Velocity P-wave (km/s) = 5.53417 6.99113 6.30487
#
# Compressibility (1/GPa) = 0.03137079
#
# Stress axis : x y z
#
# Youngs Moduli (GPa) = 34.84413 66.62152 50.99375
#
# Poissons Ratio (x) = 0.46889 -0.11255
# Poissons Ratio (y) = 0.24524 0.56825
# Poissons Ratio (z) = -0.07691 0.74239
#
# Static dielectric constant tensor:
#      x y z
#    x 3.096510 0.000000 0.186520 
#    y 0.000000 3.936780 0.000000 
#    z 0.186520 0.000000 3.668950 
# 
# 
# High freq. dielectric constant tensor:
#      x y z
#    x 1.700390 0.000000 0.015720 
#    y 0.000000 1.755560 0.000000 
#    z 0.015720 0.000000 1.739530 
# 
# From -- ./inp_files/47647.got.cif
#   From: 2010.06.25/outbox.cif.g09.slc.cpg/sg11_24_cif.got.tgz:47647.got - 2010.06.27 23:14:04.
