data_PCOD8072480
_publ_section_title
;
Structure prediction by ZEFSAII (Michael W. Deem and Ramdas Pophale) SiO2 
 PCOD8072480
Probable space group: P 21/M
;
_chemical_formula_sum "Si O2"
_cell_formula_units_Z 32
_cell_length_a 12.379084
_cell_length_b 8.876690
_cell_length_c 15.063446
_cell_angle_alpha 90.000000
_cell_angle_beta 91.686765
_cell_angle_gamma 90.000000
_cell_volume 1654.533906
_symmetry_space_group_name_H-M "P 21/M"
_symmetry_group_IT_number 11
_symmetry_cell_setting 'monoclinic'
loop_
_space_group_symop_operation_xyz
x,y,z
-x,1/2+y,-z
-x,-y,-z
x,1/2-y,z
loop_
_atom_site_type_symbol
_atom_site_label
_atom_site_fract_x
_atom_site_fract_y
_atom_site_fract_z
Si Si1 0.488899 0.422092 0.875396
Si Si2 0.727564 0.572554 0.440550
Si Si3 0.038253 0.072628 0.591513
Si Si4 0.696313 0.927299 0.636823
Si Si5 0.673789 0.573345 0.976093
Si Si6 0.098832 0.571450 0.055408
Si Si7 0.882953 0.427631 0.742077
Si Si8 0.524981 0.575291 0.327431
O O1 0.521724 0.250000 0.896162
O O2 0.596480 0.521529 0.893381
O O3 0.447561 0.444527 0.775042
O O4 0.389022 0.470916 0.935143
O O5 0.713524 0.750000 0.445084
O O6 0.836588 0.528188 0.391099
O O7 0.732598 0.509872 0.541231
O O8 0.626078 0.507801 0.384229
O O9 0.023107 0.250000 0.581318
O O10 0.972795 0.010945 0.675033
O O11 0.000000 0.000000 0.500000
O O12 0.710989 0.750000 0.644369
O O13 0.767482 0.002828 0.715105
O O14 0.573314 0.971081 0.647708
O O15 0.696832 0.750000 0.968617
O O16 0.787582 0.488044 0.979306
O O17 0.095390 0.750000 0.043962
O O18 0.085362 0.522998 0.157967
O O19 0.000000 0.500000 0.000000
O O20 0.871539 0.250000 0.735515
O O21 0.500181 0.750000 0.349276
#
# Coordination Sequence:
#
# PCOD8072480 Si02
#       8
#     4   4   4   4   4   4   4   4
#     4   9  19  35  57  83 109 144 189 233 278 336
#     4   9  19  34  53  78 108 144 180 224 276 324
#     4  10  19  36  59  82 109 143 185 231 275 326
#     4  11  21  34  54  81 113 145 183 231 278 327
#     4  10  20  36  59  84 111 146 186 232 287 340
#     4  11  24  41  59  84 116 150 190 236 285 341
#     4  10  22  38  60  85 110 147 190 228 275 337
#     4  10  20  35  54  77 109 147 186 225 273 334
#
# _framework density 19.340796000000001
#
# number of rings (size 3 to 8) (size 9 to 14) (size 15 to 20)
#    0.000    2.000    1.250    2.250    0.000    6.000 
#    0.000    5.000    0.000    0.000    0.000    0.000 
#    0.000    0.000    0.000    0.000    0.000    0.000 
#
# Total GULP energy -396846.191165 kJ/mol
# GULP energy per Si atom -12401.443474 kJ/mol
# Density = 1.929678 g / cm^3
# Si number density = 19.340796 Si / 1000 Ang^3
#
#
#
# Elastic Constant Matrix: (Units=GPa)
#
#
# Indices 1 2 3 4 5 6 
#
# 1 152.9068 33.3222 67.4826 0.0000 8.8656 0.0000
# 2 33.3222 32.3786 30.5233 0.0000 5.8680 0.0000
# 3 67.4826 30.5233 100.8970 0.0000 15.0276 0.0000
# 4 0.0000 0.0000 0.0000 26.0656 0.0000 -0.1011
# 5 8.8656 5.8680 15.0276 0.0000 34.9891 0.0000
# 6 0.0000 0.0000 0.0000 -0.1011 0.0000 29.3233
#
#
#
# Elastic Compliance Matrix: (Units=1/GPa)
#
#
# Indices 1 2 3 4 5 6 
#
# 1 0.009954 -0.005585 -0.005055 0.000000 0.000586 0.000000
# 2 -0.005585 0.046439 -0.010004 0.000000 -0.002076 0.000000
# 3 -0.005055 -0.010004 0.016963 0.000000 -0.004327 0.000000
# 4 0.000000 0.000000 0.000000 0.038365 0.000000 0.000132
# 5 0.000586 -0.002076 -0.004327 0.000000 0.030639 0.000000
# 6 0.000000 0.000000 0.000000 0.000132 0.000000 0.034103
#
#
# Mechanical properties :
#
#
# Convention : Reuss Voigt Hill
#
# Bulk Modulus (GPa) = 31.18376 60.98207 46.08292
# Shear Modulus (GPa) = 21.88742 28.39922 25.14332
#
# Velocity S-wave (km/s) = 3.36768 3.83607 3.60948
# Velocity P-wave (km/s) = 5.59285 7.15677 6.42259
#
# Compressibility (1/GPa) = 0.03206797
#
# Stress axis : x y z
#
# Youngs Moduli (GPa) = 100.46134 21.53341 58.95109
#
# Poissons Ratio (x) = 0.12026 0.29802
# Poissons Ratio (y) = 0.56104 0.58977
# Poissons Ratio (z) = 0.50786 0.21543
#
# Static dielectric constant tensor:
#      x y z
#    x 3.983850 0.000000 -0.046160 
#    y 0.000000 3.391520 0.000000 
#    z -0.046160 0.000000 3.782640 
# 
# 
# High freq. dielectric constant tensor:
#      x y z
#    x 1.761420 0.000000 -0.004980 
#    y 0.000000 1.737930 0.000000 
#    z -0.004980 0.000000 1.758880 
# 
# From -- ./inp_files/38062.got.cif
#   From: 2010.06.25/outbox.cif.g09.slc.cpg/sg11_20_cif.got.tgz:38062.got - 2010.06.27 23:14:04.
