data_PCOD8072347
_publ_section_title
;
Structure prediction by ZEFSAII (Michael W. Deem and Ramdas Pophale) SiO2 
 PCOD8072347
Probable space group: P 21/M
;
_chemical_formula_sum "Si O2"
_cell_formula_units_Z 32
_cell_length_a 28.726097
_cell_length_b 8.740346
_cell_length_c 11.382737
_cell_angle_alpha 90.000000
_cell_angle_beta 34.565895
_cell_angle_gamma 90.000000
_cell_volume 1621.458446
_symmetry_space_group_name_H-M "P 21/M"
_symmetry_group_IT_number 11
_symmetry_cell_setting 'monoclinic'
loop_
_space_group_symop_operation_xyz
x,y,z
-x,1/2+y,-z
-x,-y,-z
x,1/2-y,z
loop_
_atom_site_type_symbol
_atom_site_label
_atom_site_fract_x
_atom_site_fract_y
_atom_site_fract_z
Si Si1 0.334733 0.068594 0.107257
Si Si2 0.589747 0.072401 0.823678
Si Si3 0.580893 0.431588 0.279945
Si Si4 0.263699 0.572327 0.642325
Si Si5 0.888423 0.571310 0.152373
Si Si6 0.821533 0.070066 0.688662
Si Si7 0.956089 0.571369 0.264897
Si Si8 0.737386 0.429391 0.094481
O O1 0.336756 0.250000 0.100609
O O2 0.355198 0.010643 0.193975
O O3 0.244955 0.013287 0.254926
O O4 0.405305 0.000839 0.877275
O O5 0.579302 0.250000 0.877050
O O6 0.641579 0.051299 0.595114
O O7 0.500000 0.000000 0.000000
O O8 0.500000 0.500000 0.500000
O O9 0.576921 0.250000 0.278697
O O10 0.653190 0.490315 0.214116
O O11 0.238600 0.750000 0.688942
O O12 0.204073 0.479769 0.679867
O O13 0.251107 0.500718 0.799379
O O14 0.899620 0.750000 0.108093
O O15 0.909127 0.526844 0.242957
O O16 0.950013 0.483676 0.936348
O O17 0.809561 0.250000 0.694925
O O18 0.911772 0.015850 0.464062
O O19 0.809617 0.027989 0.851870
O O20 0.953860 0.750000 0.295886
O O21 0.730276 0.250000 0.126755
#
# Coordination Sequence:
#
# PCOD8072347 Si02
#       8
#     4   4   4   4   4   4   4   4
#     4  11  22  37  56  79 112 149 190 235 284 341
#     4  11  24  39  58  84 114 149 191 238 290 348
#     4  10  20  35  57  83 110 142 187 240 292 341
#     4  10  21  39  60  80 111 153 189 227 283 347
#     4  10  21  36  56  86 117 148 185 231 282 332
#     4  10  19  35  59  85 114 146 186 238 288 336
#     4  10  20  35  58  86 117 148 186 232 280 340
#     4   8  18  36  56  79 109 147 187 229 282 341
#
# _framework density 19.735320000000002
#
# number of rings (size 3 to 8) (size 9 to 14) (size 15 to 20)
#    0.000    2.000    0.000    4.500    1.750    4.500 
#    0.000    4.375    0.000    0.000    0.000    0.000 
#    0.000    0.000    0.000    0.000    0.000    0.000 
#
# Total GULP energy -396818.270222 kJ/mol
# GULP energy per Si atom -12400.570944 kJ/mol
# Density = 1.969040 g / cm^3
# Si number density = 19.735320 Si / 1000 Ang^3
#
#
#
# Elastic Constant Matrix: (Units=GPa)
#
#
# Indices 1 2 3 4 5 6 
#
# 1 65.3022 23.2817 25.3796 0.0000 8.5301 0.0000
# 2 23.2817 95.7251 38.2073 0.0000 4.7381 0.0000
# 3 25.3796 38.2073 132.2467 0.0000 5.9708 0.0000
# 4 0.0000 0.0000 0.0000 37.6703 0.0000 -3.3955
# 5 8.5301 4.7381 5.9708 0.0000 26.8734 0.0000
# 6 0.0000 0.0000 0.0000 -3.3955 0.0000 24.3626
#
#
#
# Elastic Compliance Matrix: (Units=1/GPa)
#
#
# Indices 1 2 3 4 5 6 
#
# 1 0.017962 -0.003218 -0.002309 0.000000 -0.004621 0.000000
# 2 -0.003218 0.012433 -0.002951 0.000000 -0.000515 0.000000
# 3 -0.002309 -0.002951 0.008890 0.000000 -0.000722 0.000000
# 4 0.000000 0.000000 0.000000 0.026884 0.000000 0.003747
# 5 -0.004621 -0.000515 -0.000722 0.000000 0.038930 0.000000
# 6 0.000000 0.000000 0.000000 0.003747 0.000000 0.041569
#
#
# Mechanical properties :
#
#
# Convention : Reuss Voigt Hill
#
# Bulk Modulus (GPa) = 44.78636 51.89014 48.33825
# Shear Modulus (GPa) = 29.22865 31.54162 30.38513
#
# Velocity S-wave (km/s) = 3.85259 4.00213 3.92807
# Velocity P-wave (km/s) = 6.52171 6.90696 6.71710
#
# Compressibility (1/GPa) = 0.02232823
#
# Stress axis : x y z
#
# Youngs Moduli (GPa) = 55.67405 80.43323 112.48775
#
# Poissons Ratio (x) = 0.25886 0.25969
# Poissons Ratio (y) = 0.17918 0.33196
# Poissons Ratio (z) = 0.12853 0.23736
#
# Static dielectric constant tensor:
#      x y z
#    x 3.559570 0.000000 0.209080 
#    y 0.000000 3.534920 0.000000 
#    z 0.209080 0.000000 3.783410 
# 
# 
# High freq. dielectric constant tensor:
#      x y z
#    x 1.749990 0.000000 0.009070 
#    y 0.000000 1.767070 0.000000 
#    z 0.009070 0.000000 1.784100 
# 
# From -- ./inp_files/45167.got.cif
#   From: 2010.06.25/outbox.cif.g09.slc.cpg/sg11_23_cif.got.tgz:45167.got - 2010.06.27 23:14:04.
