data_PCOD8072150
_publ_section_title
;
Structure prediction by ZEFSAII (Michael W. Deem and Ramdas Pophale) SiO2 
 PCOD8072150
Probable space group: P 21/M
;
_chemical_formula_sum "Si O2"
_cell_formula_units_Z 24
_cell_length_a 7.541271
_cell_length_b 20.070839
_cell_length_c 12.706123
_cell_angle_alpha 90.000000
_cell_angle_beta 34.612449
_cell_angle_gamma 90.000000
_cell_volume 1092.417704
_symmetry_space_group_name_H-M "P 21/M"
_symmetry_group_IT_number 11
_symmetry_cell_setting 'monoclinic'
loop_
_space_group_symop_operation_xyz
x,y,z
-x,1/2+y,-z
-x,-y,-z
x,1/2-y,z
loop_
_atom_site_type_symbol
_atom_site_label
_atom_site_fract_x
_atom_site_fract_y
_atom_site_fract_z
Si Si1 0.615041 0.984530 0.315543
Si Si2 0.912817 0.956263 0.729451
Si Si3 0.397141 0.051518 0.907202
Si Si4 0.788718 0.325091 0.696933
Si Si5 0.116979 0.676699 0.593509
Si Si6 0.377660 0.110609 0.516411
O O1 0.741880 0.959602 0.141306
O O2 0.800391 0.943194 0.317903
O O3 0.260439 0.960579 0.513417
O O4 0.612649 0.065237 0.328752
O O5 0.840605 0.877236 0.748839
O O6 0.690710 0.001738 0.768987
O O7 0.864832 0.970396 0.879743
O O8 0.512498 0.126639 0.872865
O O9 0.734442 0.250000 0.766238
O O10 0.769331 0.326615 0.581576
O O11 0.124336 0.351597 0.570759
O O12 0.982436 0.750000 0.684752
O O13 0.418287 0.664556 0.521001
#
# Coordination Sequence:
#
# PCOD8072150 Si02
#       6
#     4   4   4   4   4   4
#     4  10  19  36  59  85 116 148 184 242 288 329
#     4  10  20  34  62  87 113 153 189 239 284 338
#     4  11  20  36  60  89 116 149 196 236 285 344
#     4  11  21  35  60  84 114 156 190 234 290 339
#     4  10  21  38  59  85 115 154 193 232 287 343
#     4  10  19  34  60  87 111 150 190 233 286 337
#
# _framework density 21.969618000000001
#
# number of rings (size 3 to 8) (size 9 to 14) (size 15 to 20)
#    0.000    1.667    5.000    2.000    0.000    0.667 
#    0.000    7.500    7.333    0.000    0.000    0.000 
#    0.000    0.000    0.000    0.000    0.000    0.000 
#
# Total GULP energy -297363.182751 kJ/mol
# GULP energy per Si atom -12390.132615 kJ/mol
# Density = 2.191961 g / cm^3
# Si number density = 21.969618 Si / 1000 Ang^3
#
#
#
# Elastic Constant Matrix: (Units=GPa)
#
#
# Indices 1 2 3 4 5 6 
#
# 1 68.2227 29.2933 2.8753 0.0000 8.2483 0.0000
# 2 29.2933 158.3965 23.7075 0.0000 0.7992 0.0000
# 3 2.8753 23.7075 58.5961 0.0000 3.8960 0.0000
# 4 0.0000 0.0000 0.0000 22.4026 0.0000 2.4826
# 5 8.2483 0.7992 3.8960 0.0000 29.1268 0.0000
# 6 0.0000 0.0000 0.0000 2.4826 0.0000 31.0794
#
#
#
# Elastic Compliance Matrix: (Units=1/GPa)
#
#
# Indices 1 2 3 4 5 6 
#
# 1 0.016548 -0.003153 0.000776 0.000000 -0.004703 0.000000
# 2 -0.003153 0.007322 -0.002879 0.000000 0.001077 0.000000
# 3 0.000776 -0.002879 0.018366 0.000000 -0.002597 0.000000
# 4 0.000000 0.000000 0.000000 0.045036 0.000000 -0.003597
# 5 -0.004703 0.001077 -0.002597 0.000000 0.035982 0.000000
# 6 0.000000 0.000000 0.000000 -0.003597 0.000000 0.032463
#
#
# Mechanical properties :
#
#
# Convention : Reuss Voigt Hill
#
# Bulk Modulus (GPa) = 31.52235 44.10752 37.81493
# Shear Modulus (GPa) = 28.28015 31.81104 30.04559
#
# Velocity S-wave (km/s) = 3.59170 3.80933 3.70212
# Velocity P-wave (km/s) = 5.61959 6.28237 5.96020
#
# Compressibility (1/GPa) = 0.03172352
#
# Stress axis : x y z
#
# Youngs Moduli (GPa) = 60.43204 136.57785 54.44989
#
# Poissons Ratio (x) = 0.43059 -0.04227
# Poissons Ratio (y) = 0.19052 0.15678
# Poissons Ratio (z) = -0.04691 0.39324
#
# Static dielectric constant tensor:
#      x y z
#    x 4.001030 0.000000 0.169680 
#    y 0.000000 4.602400 0.000000 
#    z 0.169680 0.000000 3.647620 
# 
# 
# High freq. dielectric constant tensor:
#      x y z
#    x 1.870210 0.000000 0.013710 
#    y 0.000000 1.877210 0.000000 
#    z 0.013710 0.000000 1.840210 
# 
# From -- ./inp_files/32599.got.cif
#   From: 2010.06.25/outbox.cif.g09.slc.cpg/sg11_17_cif.got.tgz:32599.got - 2010.06.27 23:14:04.
