data_PCOD8072686
_publ_section_title
;
Structure prediction by ZEFSAII (Michael W. Deem and Ramdas Pophale) SiO2 
 PCOD8072686
Probable space group: P 21/M
;
_chemical_formula_sum "Si O2"
_cell_formula_units_Z 32
_cell_length_a 15.058042
_cell_length_b 17.766248
_cell_length_c 15.059460
_cell_angle_alpha 90.000000
_cell_angle_beta 152.771527
_cell_angle_gamma 90.000000
_cell_volume 1843.327755
_symmetry_space_group_name_H-M "P 21/M"
_symmetry_group_IT_number 11
_symmetry_cell_setting 'monoclinic'
loop_
_space_group_symop_operation_xyz
x,y,z
-x,1/2+y,-z
-x,-y,-z
x,1/2-y,z
loop_
_atom_site_type_symbol
_atom_site_label
_atom_site_fract_x
_atom_site_fract_y
_atom_site_fract_z
Si Si1 0.865194 0.533380 0.135182
Si Si2 0.920247 0.537931 0.517331
Si Si3 0.078058 0.607090 0.921159
Si Si4 0.070617 0.163271 0.930626
Si Si5 0.293663 0.838265 0.279781
Si Si6 0.719575 0.838411 0.705755
Si Si7 0.517394 0.461995 0.920347
Si Si8 0.179003 0.662815 0.821112
O O1 0.910312 0.480740 0.091114
O O2 0.022760 0.517527 0.351762
O O3 0.882181 0.618746 0.117493
O O4 0.648619 0.517265 0.977514
O O5 0.689898 0.547961 0.310008
O O6 0.000000 0.500000 0.500000
O O7 0.015246 0.620340 0.616852
O O8 0.124486 0.657785 0.876398
O O9 0.861367 0.622748 0.761729
O O10 0.236520 0.622262 0.137519
O O11 0.086672 0.250000 0.918504
O O12 0.224889 0.141487 0.144027
O O13 0.856030 0.142636 0.774736
O O14 0.292105 0.750000 0.259295
O O15 0.503297 0.868012 0.495969
O O16 0.740310 0.750000 0.708926
O O17 0.500000 0.500000 0.000000
O O18 0.616638 0.379543 0.015287
O O19 0.194153 0.750000 0.805483
#
# Coordination Sequence:
#
# PCOD8072686 Si02
#       8
#     4   4   4   4   4   4   4   4
#     4  10  22  34  55  80 104 136 184 228 274 323
#     4  10  19  38  61  76 105 146 177 216 278 336
#     4   9  18  32  47  75 110 138 170 218 270 316
#     4   9  19  37  52  72 106 142 180 224 268 312
#     4   9  17  30  51  73 105 148 179 210 261 318
#     4   9  17  30  51  73 105 148 179 210 261 318
#     4  10  19  38  61  76 105 146 177 216 278 336
#     4  10  21  34  56  89 116 137 180 232 268 322
#
# _framework density 17.359908000000001
#
# number of rings (size 3 to 8) (size 9 to 14) (size 15 to 20)
#    0.000    2.750    2.500    1.875    0.000    7.500 
#    0.000    2.500    0.000    0.000    0.000    0.000 
#    0.000    0.000    0.000    0.000    0.000    0.000 
#
# Total GULP energy -396749.473459 kJ/mol
# GULP energy per Si atom -12398.421046 kJ/mol
# Density = 1.732040 g / cm^3
# Si number density = 17.359908 Si / 1000 Ang^3
#
#
#
# Elastic Constant Matrix: (Units=GPa)
#
#
# Indices 1 2 3 4 5 6 
#
# 1 94.8190 68.8488 62.0109 0.0000 -0.7538 0.0000
# 2 68.8488 102.7849 54.0809 0.0000 -5.7787 0.0000
# 3 62.0109 54.0809 169.5771 0.0000 19.4292 0.0000
# 4 0.0000 0.0000 0.0000 19.1008 0.0000 -1.6769
# 5 -0.7538 -5.7787 19.4292 0.0000 23.5049 0.0000
# 6 0.0000 0.0000 0.0000 -1.6769 0.0000 25.0865
#
#
#
# Elastic Compliance Matrix: (Units=1/GPa)
#
#
# Indices 1 2 3 4 5 6 
#
# 1 0.022758 -0.012896 -0.004341 0.000000 0.001148 0.000000
# 2 -0.012896 0.019998 -0.002406 0.000000 0.006491 0.000000
# 3 -0.004341 -0.002406 0.009207 0.000000 -0.008342 0.000000
# 4 0.000000 0.000000 0.000000 0.052663 0.000000 0.003520
# 5 0.001148 0.006491 -0.008342 0.000000 0.051072 0.000000
# 6 0.000000 0.000000 0.000000 0.003520 0.000000 0.040097
#
#
# Mechanical properties :
#
#
# Convention : Reuss Voigt Hill
#
# Bulk Modulus (GPa) = 78.87347 81.89580 80.38464
# Shear Modulus (GPa) = 20.89369 25.68779 23.29074
#
# Velocity S-wave (km/s) = 3.47300 3.85088 3.66681
# Velocity P-wave (km/s) = 7.84954 8.18841 8.02076
#
# Compressibility (1/GPa) = 0.01267853
#
# Stress axis : x y z
#
# Youngs Moduli (GPa) = 43.94028 50.00583 108.60802
#
# Poissons Ratio (x) = 0.64485 0.47148
# Poissons Ratio (y) = 0.56663 0.26128
# Poissons Ratio (z) = 0.19075 0.12030
#
# Static dielectric constant tensor:
#      x y z
#    x 3.182010 0.000000 0.152280 
#    y 0.000000 3.076670 0.000000 
#    z 0.152280 0.000000 3.714080 
# 
# 
# High freq. dielectric constant tensor:
#      x y z
#    x 1.667170 0.000000 0.002920 
#    y 0.000000 1.656830 0.000000 
#    z 0.002920 0.000000 1.677370 
# 
# From -- ./inp_files/52592.got.cif
#   From: 2010.06.25/outbox.cif.g09.slc.cpg/sg11_27_cif.got.tgz:52592.got - 2010.06.27 23:14:04.
