data_PCOD8072212
_publ_section_title
;
Structure prediction by ZEFSAII (Michael W. Deem and Ramdas Pophale) SiO2 
 PCOD8072212
Probable space group: P 21/M
;
_chemical_formula_sum "Si O2"
_cell_formula_units_Z 32
_cell_length_a 20.694495
_cell_length_b 9.058487
_cell_length_c 25.447905
_cell_angle_alpha 90.000000
_cell_angle_beta 21.845721
_cell_angle_gamma 90.000000
_cell_volume 1775.138642
_symmetry_space_group_name_H-M "P 21/M"
_symmetry_group_IT_number 11
_symmetry_cell_setting 'monoclinic'
loop_
_space_group_symop_operation_xyz
x,y,z
-x,1/2+y,-z
-x,-y,-z
x,1/2-y,z
loop_
_atom_site_type_symbol
_atom_site_label
_atom_site_fract_x
_atom_site_fract_y
_atom_site_fract_z
Si Si1 0.173314 0.576978 0.136410
Si Si2 0.921083 0.424064 0.401476
Si Si3 0.361318 0.576689 0.568044
Si Si4 0.478415 0.077925 0.854754
Si Si5 0.988903 0.581300 0.167175
Si Si6 0.647940 0.077770 0.152582
Si Si7 0.577242 0.422693 0.598406
Si Si8 0.873506 0.079920 0.556061
O O1 0.203156 0.750000 0.121173
O O2 0.086253 0.509287 0.253651
O O3 0.053982 0.541283 0.176303
O O4 0.359956 0.500983 0.987677
O O5 0.953008 0.250000 0.372683
O O6 0.750277 0.470478 0.498387
O O7 0.899807 0.478908 0.477079
O O8 0.500000 0.500000 0.500000
O O9 0.370799 0.750000 0.569579
O O10 0.402167 0.531846 0.477510
O O11 0.169563 0.523353 0.728805
O O12 0.430811 0.250000 0.886988
O O13 0.676220 0.053333 0.723136
O O14 0.453351 0.008452 0.816389
O O15 0.925311 0.750000 0.212641
O O16 0.145153 0.552806 0.008270
O O17 0.603090 0.250000 0.181029
O O18 0.584986 0.014159 0.255916
O O19 0.539149 0.250000 0.634037
O O20 0.922663 0.250000 0.520452
O O21 0.000000 0.000000 0.500000
#
# Coordination Sequence:
#
# PCOD8072212 Si02
#       8
#     4   4   4   4   4   4   4   4
#     4  10  20  33  54  87 115 141 182 235 281 322
#     4  10  19  36  57  82 112 144 187 232 275 330
#     4  11  23  38  58  82 111 149 186 225 276 333
#     4  10  19  35  56  80 112 150 185 225 277 333
#     4   9  19  35  53  80 115 144 179 225 275 328
#     4  10  20  33  55  87 115 142 181 234 282 320
#     4  10  20  36  57  83 112 144 188 230 274 332
#     4  10  22  38  57  81 112 148 186 228 277 333
#
# _framework density 18.026762999999999
#
# number of rings (size 3 to 8) (size 9 to 14) (size 15 to 20)
#    0.000    2.000    2.500    2.250    0.000    5.500 
#    0.000    1.250    0.000    0.000    0.000    0.000 
#    0.000    0.000    0.000    0.000    0.000    0.000 
#
# Total GULP energy -396908.434733 kJ/mol
# GULP energy per Si atom -12403.388585 kJ/mol
# Density = 1.798573 g / cm^3
# Si number density = 18.026763 Si / 1000 Ang^3
#
#
#
# Elastic Constant Matrix: (Units=GPa)
#
#
# Indices 1 2 3 4 5 6 
#
# 1 111.3601 51.9879 66.0492 0.0000 -1.6499 0.0000
# 2 51.9879 87.6515 67.5012 0.0000 -0.2775 0.0000
# 3 66.0492 67.5012 132.3759 0.0000 9.5605 0.0000
# 4 0.0000 0.0000 0.0000 35.4202 0.0000 0.1910
# 5 -1.6499 -0.2775 9.5605 0.0000 26.2907 0.0000
# 6 0.0000 0.0000 0.0000 0.1910 0.0000 30.2462
#
#
#
# Elastic Compliance Matrix: (Units=1/GPa)
#
#
# Indices 1 2 3 4 5 6 
#
# 1 0.014036 -0.004576 -0.004858 0.000000 0.002599 0.000000
# 2 -0.004576 0.020651 -0.008465 0.000000 0.003009 0.000000
# 3 -0.004858 -0.008465 0.014709 0.000000 -0.005743 0.000000
# 4 0.000000 0.000000 0.000000 0.028233 0.000000 -0.000178
# 5 0.002599 0.003009 -0.005743 0.000000 0.040320 0.000000
# 6 0.000000 0.000000 0.000000 -0.000178 0.000000 0.033063
#
#
# Mechanical properties :
#
#
# Convention : Reuss Voigt Hill
#
# Bulk Modulus (GPa) = 73.53044 78.05156 75.79100
# Shear Modulus (GPa) = 26.13140 28.11470 27.12305
#
# Velocity S-wave (km/s) = 3.81148 3.95347 3.88312
# Velocity P-wave (km/s) = 7.76196 8.01446 7.88922
#
# Compressibility (1/GPa) = 0.01359981
#
# Stress axis : x y z
#
# Youngs Moduli (GPa) = 71.24734 48.42383 67.98578
#
# Poissons Ratio (x) = 0.22158 0.33024
# Poissons Ratio (y) = 0.32601 0.57547
# Poissons Ratio (z) = 0.34609 0.40989
#
# Static dielectric constant tensor:
#      x y z
#    x 3.146930 0.000000 0.152940 
#    y 0.000000 3.334720 0.000000 
#    z 0.152940 0.000000 3.445020 
# 
# 
# High freq. dielectric constant tensor:
#      x y z
#    x 1.671970 0.000000 0.011480 
#    y 0.000000 1.704780 0.000000 
#    z 0.011480 0.000000 1.709200 
# 
# From -- ./inp_files/72064.got.cif
#   From: 2010.06.25/outbox.cif.g09.slc.cpg/sg11_37_cif.got.tgz:72064.got - 2010.06.27 23:14:04.
