data_PCOD8072583
_publ_section_title
;
Structure prediction by ZEFSAII (Michael W. Deem and Ramdas Pophale) SiO2 
 PCOD8072583
Probable space group: P 21/M
;
_chemical_formula_sum "Si O2"
_cell_formula_units_Z 32
_cell_length_a 17.995230
_cell_length_b 14.918510
_cell_length_c 12.144302
_cell_angle_alpha 90.000000
_cell_angle_beta 28.625384
_cell_angle_gamma 90.000000
_cell_volume 1561.939345
_symmetry_space_group_name_H-M "P 21/M"
_symmetry_group_IT_number 11
_symmetry_cell_setting 'monoclinic'
loop_
_space_group_symop_operation_xyz
x,y,z
-x,1/2+y,-z
-x,-y,-z
x,1/2-y,z
loop_
_atom_site_type_symbol
_atom_site_label
_atom_site_fract_x
_atom_site_fract_y
_atom_site_fract_z
Si Si1 0.863620 0.031834 0.340328
Si Si2 0.683553 0.649183 0.282579
Si Si3 0.158655 0.529253 0.876955
Si Si4 0.672819 0.645677 0.042252
Si Si5 0.346991 0.847898 0.774116
Si Si6 0.285791 0.851588 0.094584
Si Si7 0.483301 0.499910 0.151210
Si Si8 0.974279 0.144351 0.400357
O O1 0.698020 0.991515 0.586184
O O2 0.916317 0.105501 0.359893
O O3 0.856089 0.070987 0.225651
O O4 0.999018 0.955821 0.154202
O O5 0.755231 0.750000 0.195992
O O6 0.807476 0.578141 0.167289
O O7 0.530492 0.641491 0.557418
O O8 0.632546 0.629231 0.222504
O O9 0.301210 0.576909 0.748214
O O10 0.649192 0.750000 0.039863
O O11 0.851878 0.614270 0.793226
O O12 0.562218 0.586036 0.107767
O O13 0.314118 0.750000 0.765187
O O14 0.247598 0.857877 0.014988
O O15 0.323538 0.750000 0.081411
O O16 0.139578 0.888670 0.353982
O O17 0.439162 0.908785 0.911299
O O18 0.500000 0.500000 0.000000
O O19 0.970592 0.250000 0.390290
#
# Coordination Sequence:
#
# PCOD8072583 Si02
#       8
#     4   4   4   4   4   4   4   4
#     4  11  24  39  57  91 126 164 204 244 312 365
#     4  10  19  36  63  91 119 157 204 257 311 363
#     4  11  22  38  60  88 129 159 202 254 304 367
#     4  10  22  39  63  94 121 155 207 256 305 364
#     4  10  21  37  60  90 120 158 204 250 310 364
#     4  10  22  40  62  87 120 162 208 254 303 366
#     4  12  24  39  60  90 122 165 203 251 309 365
#     4  10  21  41  65  89 120 162 208 258 307 361
#
# _framework density 20.487351
#
# number of rings (size 3 to 8) (size 9 to 14) (size 15 to 20)
#    0.000    1.500    2.500    2.625    0.000    3.000 
#    0.000    2.500    0.000    0.000    0.000    0.000 
#    0.000    0.000    0.000    0.000    0.000    0.000 
#
# Total GULP energy -396612.815502 kJ/mol
# GULP energy per Si atom -12394.150484 kJ/mol
# Density = 2.044072 g / cm^3
# Si number density = 20.487351 Si / 1000 Ang^3
#
#
#
# Elastic Constant Matrix: (Units=GPa)
#
#
# Indices 1 2 3 4 5 6 
#
# 1 82.6001 36.9792 33.2698 0.0000 2.2561 0.0000
# 2 36.9792 68.8411 27.8078 0.0000 -2.9746 0.0000
# 3 33.2698 27.8078 148.0763 0.0000 5.0787 0.0000
# 4 0.0000 0.0000 0.0000 18.5522 0.0000 4.5911
# 5 2.2561 -2.9746 5.0787 0.0000 31.7835 0.0000
# 6 0.0000 0.0000 0.0000 4.5911 0.0000 20.2791
#
#
#
# Elastic Compliance Matrix: (Units=1/GPa)
#
#
# Indices 1 2 3 4 5 6 
#
# 1 0.016669 -0.008151 -0.002160 0.000000 -0.001601 0.000000
# 2 -0.008151 0.019826 -0.001986 0.000000 0.002751 0.000000
# 3 -0.002160 -0.001986 0.007655 0.000000 -0.001256 0.000000
# 4 0.000000 0.000000 0.000000 0.057101 0.000000 -0.012928
# 5 -0.001601 0.002751 -0.001256 0.000000 0.032035 0.000000
# 6 0.000000 0.000000 0.000000 -0.012928 0.000000 0.052239
#
#
# Mechanical properties :
#
#
# Convention : Reuss Voigt Hill
#
# Bulk Modulus (GPa) = 51.13507 55.07013 53.10260
# Shear Modulus (GPa) = 23.08015 27.55367 25.31691
#
# Velocity S-wave (km/s) = 3.36006 3.67128 3.51911
# Velocity P-wave (km/s) = 6.32984 6.70145 6.51830
#
# Compressibility (1/GPa) = 0.01955605
#
# Stress axis : x y z
#
# Youngs Moduli (GPa) = 59.99089 50.43928 130.64108
#
# Poissons Ratio (x) = 0.41113 0.28214
# Poissons Ratio (y) = 0.48898 0.25948
# Poissons Ratio (z) = 0.12956 0.10018
#
# Static dielectric constant tensor:
#      x y z
#    x 3.573290 0.000000 0.113020 
#    y 0.000000 3.629960 0.000000 
#    z 0.113020 0.000000 4.135670 
# 
# 
# High freq. dielectric constant tensor:
#      x y z
#    x 1.789680 0.000000 0.007070 
#    y 0.000000 1.788740 0.000000 
#    z 0.007070 0.000000 1.824420 
# 
# From -- ./inp_files/41665.got.cif
#   From: 2010.06.25/outbox.cif.g09.slc.cpg/sg11_21_cif.got.tgz:41665.got - 2010.06.27 23:14:04.
