data_PCOD8072651
_publ_section_title
;
Structure prediction by ZEFSAII (Michael W. Deem and Ramdas Pophale) SiO2 
 PCOD8072651
Probable space group: P 21/M
;
_chemical_formula_sum "Si O2"
_cell_formula_units_Z 32
_cell_length_a 14.955467
_cell_length_b 16.875774
_cell_length_c 12.303206
_cell_angle_alpha 90.000000
_cell_angle_beta 31.382514
_cell_angle_gamma 90.000000
_cell_volume 1617.001843
_symmetry_space_group_name_H-M "P 21/M"
_symmetry_group_IT_number 11
_symmetry_cell_setting 'monoclinic'
loop_
_space_group_symop_operation_xyz
x,y,z
-x,1/2+y,-z
-x,-y,-z
x,1/2-y,z
loop_
_atom_site_type_symbol
_atom_site_label
_atom_site_fract_x
_atom_site_fract_y
_atom_site_fract_z
Si Si1 0.002595 0.159155 0.473988
Si Si2 0.085343 0.841121 0.673908
Si Si3 0.467095 0.886795 0.315982
Si Si4 0.632136 0.897068 0.920461
Si Si5 0.322468 0.920102 0.096635
Si Si6 0.407984 0.159559 0.584330
Si Si7 0.881855 0.552369 0.048349
Si Si8 0.399597 0.950845 0.777064
O O1 0.950482 0.250000 0.540430
O O2 0.985324 0.129933 0.368173
O O3 0.870070 0.110933 0.685550
O O4 0.201088 0.146813 0.302092
O O5 0.039214 0.750000 0.744282
O O6 0.287582 0.853682 0.463627
O O7 0.002054 0.893186 0.852287
O O8 0.530430 0.838583 0.354822
O O9 0.455331 0.980950 0.356482
O O10 0.599737 0.871645 0.079237
O O11 0.672822 0.989473 0.871680
O O12 0.466563 0.874269 0.018714
O O13 0.363676 0.907028 0.927361
O O14 0.382693 0.250000 0.570839
O O15 0.232276 0.110081 0.757664
O O16 0.546523 0.115653 0.365068
O O17 0.769549 0.495330 0.089340
O O18 0.000000 0.500000 0.000000
#
# Coordination Sequence:
#
# PCOD8072651 Si02
#       8
#     4   4   4   4   4   4   4   4
#     4  11  23  37  58  91 127 158 195 247 308 364
#     4  11  21  34  57  91 126 155 191 249 307 358
#     4  10  19  37  62  89 118 155 201 247 301 357
#     4  10  21  38  63  89 116 157 203 250 297 355
#     4  10  21  41  61  87 118 160 207 249 290 357
#     4  11  22  38  60  86 117 155 199 248 304 363
#     4  11  22  39  60  88 120 156 201 253 302 359
#     4  10  22  40  62  85 115 161 205 247 295 358
#
# _framework density 19.789711
#
# number of rings (size 3 to 8) (size 9 to 14) (size 15 to 20)
#    0.000    1.500    1.250    6.375    0.000    3.000 
#    2.250    0.625    0.000    0.000    0.000    0.000 
#    0.000    0.000    0.000    0.000    0.000    0.000 
#
# Total GULP energy -396874.299620 kJ/mol
# GULP energy per Si atom -12402.321863 kJ/mol
# Density = 1.974467 g / cm^3
# Si number density = 19.789711 Si / 1000 Ang^3
#
#
#
# Elastic Constant Matrix: (Units=GPa)
#
#
# Indices 1 2 3 4 5 6 
#
# 1 77.2307 30.7380 33.7246 0.0000 5.5570 0.0000
# 2 30.7380 79.2386 43.6655 0.0000 9.2420 0.0000
# 3 33.7246 43.6655 113.8185 0.0000 0.9379 0.0000
# 4 0.0000 0.0000 0.0000 11.4841 0.0000 3.2142
# 5 5.5570 9.2420 0.9379 0.0000 33.0051 0.0000
# 6 0.0000 0.0000 0.0000 3.2142 0.0000 22.0742
#
#
#
# Elastic Compliance Matrix: (Units=1/GPa)
#
#
# Indices 1 2 3 4 5 6 
#
# 1 0.016147 -0.004401 -0.003085 0.000000 -0.001399 0.000000
# 2 -0.004401 0.017840 -0.005506 0.000000 -0.004098 0.000000
# 3 -0.003085 -0.005506 0.011798 0.000000 0.001726 0.000000
# 4 0.000000 0.000000 0.000000 0.090776 0.000000 -0.013218
# 5 -0.001399 -0.004098 0.001726 0.000000 0.031632 0.000000
# 6 0.000000 0.000000 0.000000 -0.013218 0.000000 0.047226
#
#
# Mechanical properties :
#
#
# Convention : Reuss Voigt Hill
#
# Bulk Modulus (GPa) = 50.50106 54.06045 52.28075
# Shear Modulus (GPa) = 20.16101 24.12335 22.14218
#
# Velocity S-wave (km/s) = 3.19527 3.49518 3.34859
# Velocity P-wave (km/s) = 6.25997 6.60796 6.43632
#
# Compressibility (1/GPa) = 0.01980156
#
# Stress axis : x y z
#
# Youngs Moduli (GPa) = 61.92956 56.05531 84.75955
#
# Poissons Ratio (x) = 0.24669 0.26145
# Poissons Ratio (y) = 0.27254 0.46670
# Poissons Ratio (z) = 0.19103 0.30865
#
# Static dielectric constant tensor:
#      x y z
#    x 3.676370 0.000000 -0.054100 
#    y 0.000000 3.612370 0.000000 
#    z -0.054100 0.000000 3.657380 
# 
# 
# High freq. dielectric constant tensor:
#      x y z
#    x 1.766330 0.000000 -0.003460 
#    y 0.000000 1.765410 0.000000 
#    z -0.003460 0.000000 1.779180 
# 
# From -- ./inp_files/39970.got.cif
#   From: 2010.06.25/outbox.cif.g09.slc.cpg/sg11_20_cif.got.tgz:39970.got - 2010.06.27 23:14:04.
