data_PCOD8072033
_publ_section_title
;
Structure prediction by ZEFSAII (Michael W. Deem and Ramdas Pophale) SiO2 
 PCOD8072033
Probable space group: P 21/M
;
_chemical_formula_sum "Si O2"
_cell_formula_units_Z 32
_cell_length_a 20.615797
_cell_length_b 8.914670
_cell_length_c 12.182047
_cell_angle_alpha 90.000000
_cell_angle_beta 128.081176
_cell_angle_gamma 90.000000
_cell_volume 1762.285976
_symmetry_space_group_name_H-M "P 21/M"
_symmetry_group_IT_number 11
_symmetry_cell_setting 'monoclinic'
loop_
_space_group_symop_operation_xyz
x,y,z
-x,1/2+y,-z
-x,-y,-z
x,1/2-y,z
loop_
_atom_site_type_symbol
_atom_site_label
_atom_site_fract_x
_atom_site_fract_y
_atom_site_fract_z
Si Si1 0.521731 0.077359 0.361338
Si Si2 0.540235 0.574389 0.937612
Si Si3 0.277111 0.074041 0.924232
Si Si4 0.983552 0.426066 0.648640
Si Si5 0.121963 0.076198 0.626047
Si Si6 0.778422 0.427703 0.909810
Si Si7 0.630869 0.923295 0.643626
Si Si8 0.046836 0.071415 0.947947
O O1 0.547733 0.250000 0.403749
O O2 0.513271 0.032605 0.225290
O O3 0.433770 0.048506 0.326143
O O4 0.591726 0.973224 0.487014
O O5 0.541501 0.750000 0.958593
O O6 0.500000 0.500000 0.000000
O O7 0.633564 0.516751 0.020040
O O8 0.277430 0.250000 0.957617
O O9 0.215647 0.042497 0.758705
O O10 0.248093 0.980320 0.997821
O O11 0.975482 0.250000 0.633566
O O12 0.061941 0.483337 0.660023
O O13 0.996513 0.477989 0.786918
O O14 0.899469 0.494902 0.511012
O O15 0.107168 0.250000 0.590893
O O16 0.789595 0.250000 0.919553
O O17 0.710305 0.476060 0.749879
O O18 0.862019 0.506694 0.961470
O O19 0.656650 0.750000 0.663139
O O20 0.051585 0.250000 0.963970
O O21 0.000000 0.000000 0.000000
#
# Coordination Sequence:
#
# PCOD8072033 Si02
#       8
#     4   4   4   4   4   4   4   4
#     4   9  18  34  55  81 112 148 189 234 285 334
#     4  10  21  37  57  80 114 153 189 231 282 338
#     4  10  19  37  58  81 112 149 188 233 282 329
#     4   9  18  33  54  80 112 145 179 225 279 329
#     4   9  17  31  55  82 109 142 184 230 276 328
#     4  12  23  35  57  88 115 145 189 237 282 337
#     4  10  19  34  57  83 113 146 185 235 286 336
#     4  11  23  41  60  82 115 154 192 232 284 339
#
# _framework density 18.158232999999999
#
# number of rings (size 3 to 8) (size 9 to 14) (size 15 to 20)
#    0.000    2.000    2.500    1.875    0.000    3.000 
#    0.000    1.250    0.000    6.000    0.000    0.000 
#    0.000    0.000    0.000    0.000    0.000    0.000 
#
# Total GULP energy -396852.890072 kJ/mol
# GULP energy per Si atom -12401.652815 kJ/mol
# Density = 1.811690 g / cm^3
# Si number density = 18.158233 Si / 1000 Ang^3
#
#
#
# Elastic Constant Matrix: (Units=GPa)
#
#
# Indices 1 2 3 4 5 6 
#
# 1 109.7125 41.8329 66.3373 0.0000 -7.3592 0.0000
# 2 41.8329 66.9282 52.8742 0.0000 -2.1910 0.0000
# 3 66.3373 52.8742 136.7050 0.0000 -5.6493 0.0000
# 4 0.0000 0.0000 0.0000 35.6000 0.0000 -1.0872
# 5 -7.3592 -2.1910 -5.6493 0.0000 25.9622 0.0000
# 6 0.0000 0.0000 0.0000 -1.0872 0.0000 28.8648
#
#
#
# Elastic Compliance Matrix: (Units=1/GPa)
#
#
# Indices 1 2 3 4 5 6 
#
# 1 0.014072 -0.004897 -0.004830 0.000000 0.002524 0.000000
# 2 -0.004897 0.023220 -0.006641 0.000000 -0.000874 0.000000
# 3 -0.004830 -0.006641 0.012258 0.000000 0.000738 0.000000
# 4 0.000000 0.000000 0.000000 0.028122 0.000000 0.001059
# 5 0.002524 -0.000874 0.000738 0.000000 0.039320 0.000000
# 6 0.000000 0.000000 0.000000 0.001059 0.000000 0.034684
#
#
# Mechanical properties :
#
#
# Convention : Reuss Voigt Hill
#
# Bulk Modulus (GPa) = 59.47447 70.60385 65.03916
# Shear Modulus (GPa) = 26.31360 28.23882 27.27621
#
# Velocity S-wave (km/s) = 3.81087 3.94782 3.87995
# Velocity P-wave (km/s) = 7.22414 7.72964 7.48116
#
# Compressibility (1/GPa) = 0.01681394
#
# Stress axis : x y z
#
# Youngs Moduli (GPa) = 71.06436 43.06667 81.58064
#
# Poissons Ratio (x) = 0.21089 0.39404
# Poissons Ratio (y) = 0.34800 0.54175
# Poissons Ratio (z) = 0.34325 0.28599
#
# Static dielectric constant tensor:
#      x y z
#    x 3.053830 0.000000 0.039350 
#    y 0.000000 3.321090 0.000000 
#    z 0.039350 0.000000 3.578450 
# 
# 
# High freq. dielectric constant tensor:
#      x y z
#    x 1.675050 0.000000 0.006000 
#    y 0.000000 1.702080 0.000000 
#    z 0.006000 0.000000 1.721120 
# 
# From -- ./inp_files/42901.got.cif
#   From: 2010.06.25/outbox.cif.g09.slc.cpg/sg11_22_cif.got.tgz:42901.got - 2010.06.27 23:14:04.
