data_PCOD8072178
_publ_section_title
;
Structure prediction by ZEFSAII (Michael W. Deem and Ramdas Pophale) SiO2 
 PCOD8072178
Probable space group: P 21/M
;
_chemical_formula_sum "Si O2"
_cell_formula_units_Z 28
_cell_length_a 11.762170
_cell_length_b 9.267055
_cell_length_c 14.911497
_cell_angle_alpha 90.000000
_cell_angle_beta 107.926215
_cell_angle_gamma 90.000000
_cell_volume 1546.457848
_symmetry_space_group_name_H-M "P 21/M"
_symmetry_group_IT_number 11
_symmetry_cell_setting 'monoclinic'
loop_
_space_group_symop_operation_xyz
x,y,z
-x,1/2+y,-z
-x,-y,-z
x,1/2-y,z
loop_
_atom_site_type_symbol
_atom_site_label
_atom_site_fract_x
_atom_site_fract_y
_atom_site_fract_z
Si Si1 0.674687 0.081166 0.745464
Si Si2 0.383658 0.915994 0.070478
Si Si3 0.790960 0.415443 0.454102
Si Si4 0.856164 0.580041 0.296049
Si Si5 0.121190 0.580642 0.334594
Si Si6 0.345053 0.080930 0.887975
Si Si7 0.484711 0.583809 0.588222
O O1 0.649298 0.250000 0.719930
O O2 0.686131 0.053027 0.854293
O O3 0.795957 0.025017 0.727034
O O4 0.564442 0.988998 0.683430
O O5 0.374294 0.750000 0.039683
O O6 0.523070 0.959307 0.115562
O O7 0.320616 0.008610 0.978100
O O8 0.832796 0.250000 0.454780
O O9 0.852932 0.506610 0.391712
O O10 0.833079 0.483027 0.559416
O O11 0.649591 0.429101 0.410144
O O12 0.842857 0.750000 0.307926
O O13 0.751528 0.520485 0.206340
O O14 0.983679 0.539756 0.282164
O O15 0.138619 0.750000 0.345412
O O16 0.327257 0.250000 0.896620
O O17 0.500000 0.500000 0.500000
O O18 0.521859 0.750000 0.582878
#
# Coordination Sequence:
#
# PCOD8072178 Si02
#       7
#     4   4   4   4   4   4   4
#     4  10  19  35  55  76 106 138 172 211 254 310
#     4   9  18  32  54  77  98 131 167 206 261 313
#     4  10  20  34  51  74 104 137 171 212 258 300
#     4  10  20  34  54  76  99 136 178 213 255 304
#     4   9  18  34  52  72 104 140 172 209 256 305
#     4   9  18  33  51  75 102 126 165 216 258 302
#     4  11  21  33  51  76 106 137 170 209 255 302
#
# _framework density 18.105892000000001
#
# number of rings (size 3 to 8) (size 9 to 14) (size 15 to 20)
#    0.000    2.286    1.429    1.714    0.000    3.429 
#    0.000    4.286    0.000    0.000    0.000    0.000 
#    0.000    0.000    0.000    0.000    0.000    0.000 
#
# Total GULP energy -347216.826886 kJ/mol
# GULP energy per Si atom -12400.600960 kJ/mol
# Density = 1.806468 g / cm^3
# Si number density = 18.105892 Si / 1000 Ang^3
#
#
#
# Elastic Constant Matrix: (Units=GPa)
#
#
# Indices 1 2 3 4 5 6 
#
# 1 96.1884 26.9910 61.3449 0.0000 -7.3657 0.0000
# 2 26.9910 45.1220 29.0026 0.0000 -7.1421 0.0000
# 3 61.3449 29.0026 114.5077 0.0000 -12.8234 0.0000
# 4 0.0000 0.0000 0.0000 31.0348 0.0000 -3.2115
# 5 -7.3657 -7.1421 -12.8234 0.0000 26.6907 0.0000
# 6 0.0000 0.0000 0.0000 -3.2115 0.0000 20.9800
#
#
#
# Elastic Compliance Matrix: (Units=1/GPa)
#
#
# Indices 1 2 3 4 5 6 
#
# 1 0.016713 -0.005115 -0.007710 0.000000 -0.000461 0.000000
# 2 -0.005115 0.028465 -0.003989 0.000000 0.004289 0.000000
# 3 -0.007710 -0.003989 0.014284 0.000000 0.003668 0.000000
# 4 0.000000 0.000000 0.000000 0.032740 0.000000 0.005012
# 5 -0.000461 0.004289 0.003668 0.000000 0.040249 0.000000
# 6 0.000000 0.000000 0.000000 0.005012 0.000000 0.048432
#
#
# Mechanical properties :
#
#
# Convention : Reuss Voigt Hill
#
# Bulk Modulus (GPa) = 38.70743 54.49945 46.60344
# Shear Modulus (GPa) = 22.40923 24.97309 23.69116
#
# Velocity S-wave (km/s) = 3.52188 3.71789 3.62121
# Velocity P-wave (km/s) = 6.16141 6.97109 6.57872
#
# Compressibility (1/GPa) = 0.02583484
#
# Stress axis : x y z
#
# Youngs Moduli (GPa) = 59.83278 35.13138 70.00596
#
# Poissons Ratio (x) = 0.17969 0.53973
# Poissons Ratio (y) = 0.30604 0.27926
# Poissons Ratio (z) = 0.46130 0.14014
#
# Static dielectric constant tensor:
#      x y z
#    x 3.516150 0.000000 0.030830 
#    y 0.000000 3.261070 0.000000 
#    z 0.030830 0.000000 3.380360 
# 
# 
# High freq. dielectric constant tensor:
#      x y z
#    x 1.701150 0.000000 -0.004360 
#    y 0.000000 1.683240 0.000000 
#    z -0.004360 0.000000 1.698920 
# 
# From -- ./inp_files/37420.got.cif
#   From: 2010.06.25/outbox.cif.g09.slc.cpg/sg11_19_cif.got.tgz:37420.got - 2010.06.27 23:14:04.
