data_PCOD8072936
_publ_section_title
;
Structure prediction by ZEFSAII (Michael W. Deem and Ramdas Pophale) SiO2 
 PCOD8072936
Probable space group: P 21/M
;
_chemical_formula_sum "Si O2"
_cell_formula_units_Z 28
_cell_length_a 18.340711
_cell_length_b 8.825381
_cell_length_c 16.431419
_cell_angle_alpha 90.000000
_cell_angle_beta 142.718078
_cell_angle_gamma 90.000000
_cell_volume 1611.050215
_symmetry_space_group_name_H-M "P 21/M"
_symmetry_group_IT_number 11
_symmetry_cell_setting 'monoclinic'
loop_
_space_group_symop_operation_xyz
x,y,z
-x,1/2+y,-z
-x,-y,-z
x,1/2-y,z
loop_
_atom_site_type_symbol
_atom_site_label
_atom_site_fract_x
_atom_site_fract_y
_atom_site_fract_z
Si Si1 0.412160 0.922154 0.305617
Si Si2 0.475479 0.076308 0.207387
Si Si3 0.642813 0.423566 0.572479
Si Si4 0.163718 0.074158 0.712224
Si Si5 0.748432 0.420855 0.504003
Si Si6 0.408325 0.572192 0.981364
Si Si7 0.924632 0.924942 0.543763
O O1 0.406903 0.750000 0.269695
O O2 0.317994 0.948561 0.297667
O O3 0.390209 0.029487 0.208162
O O4 0.541966 0.954385 0.460251
O O5 0.449841 0.250000 0.162575
O O6 0.613635 0.046603 0.353207
O O7 0.443064 0.972720 0.102991
O O8 0.593452 0.250000 0.517739
O O9 0.752726 0.445295 0.606076
O O10 0.188813 0.250000 0.750555
O O11 0.148552 0.037893 0.603329
O O12 0.273607 0.977956 0.842993
O O13 0.044545 0.025237 0.655038
O O14 0.786353 0.250000 0.514152
O O15 0.840572 0.536823 0.545393
O O16 0.418287 0.750000 0.980396
O O17 0.500000 0.500000 0.000000
O O18 0.962274 0.750000 0.580206
#
# Coordination Sequence:
#
# PCOD8072936 Si02
#       7
#     4   4   4   4   4   4   4
#     4   9  15  25  42  64  92 126 163 201 241 286
#     4  10  20  33  48  69  99 133 167 201 242 291
#     4   8  15  26  40  62  94 129 162 197 240 290
#     4  10  21  37  54  71  95 128 163 199 242 286
#     4   9  17  29  46  69  98 131 163 197 239 286
#     4  12  24  37  53  74 100 129 163 200 239 284
#     4  10  20  33  51  74  97 123 159 202 243 285
#
# _framework density 17.379968000000002
#
# number of rings (size 3 to 8) (size 9 to 14) (size 15 to 20)
#    0.000    2.286    0.000    4.714    0.000    7.429 
#    0.000    0.000    0.000    0.000    0.000    1.000 
#    0.000    0.000    0.000    0.000    0.000    0.000 
#
# Total GULP energy -347084.912524 kJ/mol
# GULP energy per Si atom -12395.889733 kJ/mol
# Density = 1.734041 g / cm^3
# Si number density = 17.379968 Si / 1000 Ang^3
#
#
#
# Elastic Constant Matrix: (Units=GPa)
#
#
# Indices 1 2 3 4 5 6 
#
# 1 127.3786 43.6699 44.0566 0.0000 -18.9197 0.0000
# 2 43.6699 92.9768 32.9181 0.0000 -3.7991 0.0000
# 3 44.0566 32.9181 54.5038 0.0000 -8.9615 0.0000
# 4 0.0000 0.0000 0.0000 24.4169 0.0000 -1.3329
# 5 -18.9197 -3.7991 -8.9615 0.0000 20.4968 0.0000
# 6 0.0000 0.0000 0.0000 -1.3329 0.0000 31.6557
#
#
#
# Elastic Compliance Matrix: (Units=1/GPa)
#
#
# Indices 1 2 3 4 5 6 
#
# 1 0.012479 -0.003088 -0.006920 0.000000 0.007921 0.000000
# 2 -0.003088 0.014470 -0.006757 0.000000 -0.003122 0.000000
# 3 -0.006920 -0.006757 0.028839 0.000000 0.004969 0.000000
# 4 0.000000 0.000000 0.000000 0.041050 0.000000 0.001728
# 5 0.007921 -0.003122 0.004969 0.000000 0.057694 0.000000
# 6 0.000000 0.000000 0.000000 0.001728 0.000000 0.031663
#
#
# Mechanical properties :
#
#
# Convention : Reuss Voigt Hill
#
# Bulk Modulus (GPa) = 44.92555 57.34982 51.13768
# Shear Modulus (GPa) = 22.01257 25.59485 23.80371
#
# Velocity S-wave (km/s) = 3.56272 3.84169 3.70483
# Velocity P-wave (km/s) = 6.54440 7.26274 6.91291
#
# Compressibility (1/GPa) = 0.02225905
#
# Stress axis : x y z
#
# Youngs Moduli (GPa) = 80.13398 69.10699 34.67545
#
# Poissons Ratio (x) = 0.21338 0.23995
# Poissons Ratio (y) = 0.24742 0.23430
# Poissons Ratio (z) = 0.55452 0.46696
#
# Static dielectric constant tensor:
#      x y z
#    x 3.502010 0.000000 -0.298610 
#    y 0.000000 3.314820 0.000000 
#    z -0.298610 0.000000 2.968370 
# 
# 
# High freq. dielectric constant tensor:
#      x y z
#    x 1.679630 0.000000 -0.027350 
#    y 0.000000 1.685330 0.000000 
#    z -0.027350 0.000000 1.622220 
# 
# From -- ./inp_files/42374.got.cif
#   From: 2010.06.25/outbox.cif.g09.slc.cpg/sg11_22_cif.got.tgz:42374.got - 2010.06.27 23:14:04.
