data_PCOD8072873
_publ_section_title
;
Structure prediction by ZEFSAII (Michael W. Deem and Ramdas Pophale) SiO2 
 PCOD8072873
Probable space group: P 21/M
;
_chemical_formula_sum "Si O2"
_cell_formula_units_Z 24
_cell_length_a 26.229044
_cell_length_b 8.979525
_cell_length_c 11.531109
_cell_angle_alpha 90.000000
_cell_angle_beta 151.081259
_cell_angle_gamma 90.000000
_cell_volume 1313.303492
_symmetry_space_group_name_H-M "P 21/M"
_symmetry_group_IT_number 11
_symmetry_cell_setting 'monoclinic'
loop_
_space_group_symop_operation_xyz
x,y,z
-x,1/2+y,-z
-x,-y,-z
x,1/2-y,z
loop_
_atom_site_type_symbol
_atom_site_label
_atom_site_fract_x
_atom_site_fract_y
_atom_site_fract_z
Si Si1 0.104944 0.413569 0.227752
Si Si2 0.383517 0.421919 0.897245
Si Si3 0.375914 0.578319 0.635783
Si Si4 0.800226 0.586593 0.832516
Si Si5 0.999404 0.427478 0.623496
Si Si6 0.799624 0.074334 0.375515
O O1 0.085792 0.250000 0.246393
O O2 0.158178 0.390132 0.212154
O O3 0.175395 0.520015 0.445809
O O4 0.000000 0.500000 0.000000
O O5 0.349556 0.250000 0.821610
O O6 0.360416 0.490010 0.724419
O O7 0.316511 0.499736 0.869456
O O8 0.505201 0.441903 0.173556
O O9 0.349505 0.750000 0.608167
O O10 0.301516 0.520298 0.381780
O O11 0.767302 0.750000 0.816406
O O12 0.894999 0.517496 0.099370
O O13 0.999297 0.250000 0.615450
O O14 0.891788 0.482297 0.472730
O O15 0.000000 0.500000 0.500000
O O16 0.789101 0.250000 0.347210
#
# Coordination Sequence:
#
# PCOD8072873 Si02
#       6
#     4   4   4   4   4   4
#     4  11  20  31  49  77 111 143 174 212 264 324
#     4  10  20  33  49  77 114 147 180 217 260 314
#     4  10  20  32  50  78 112 147 182 216 257 316
#     4  10  20  35  53  76 111 143 175 219 266 317
#     4  10  23  41  57  78 105 137 178 226 272 318
#     4  11  21  35  54  78 110 142 178 220 265 320
#
# _framework density 18.274528
#
# number of rings (size 3 to 8) (size 9 to 14) (size 15 to 20)
#    0.000    1.667    3.333    2.000    0.000    4.667 
#    0.000    0.000    0.000    1.000    0.000    0.000 
#    0.000    0.000    0.000    0.000    0.000    0.000 
#
# Total GULP energy -297377.437344 kJ/mol
# GULP energy per Si atom -12390.726556 kJ/mol
# Density = 1.823293 g / cm^3
# Si number density = 18.274528 Si / 1000 Ang^3
#
#
#
# Elastic Constant Matrix: (Units=GPa)
#
#
# Indices 1 2 3 4 5 6 
#
# 1 76.6827 40.7705 63.2070 0.0000 5.7922 0.0000
# 2 40.7705 87.8832 54.6836 0.0000 15.0958 0.0000
# 3 63.2070 54.6836 117.4757 0.0000 21.4052 0.0000
# 4 0.0000 0.0000 0.0000 29.6587 0.0000 3.2934
# 5 5.7922 15.0958 21.4052 0.0000 26.1739 0.0000
# 6 0.0000 0.0000 0.0000 3.2934 0.0000 26.7914
#
#
#
# Elastic Compliance Matrix: (Units=1/GPa)
#
#
# Indices 1 2 3 4 5 6 
#
# 1 0.025918 -0.005361 -0.012889 0.000000 0.007897 0.000000
# 2 -0.005361 0.017436 -0.004249 0.000000 -0.005395 0.000000
# 3 -0.012889 -0.004249 0.019341 0.000000 -0.010514 0.000000
# 4 0.000000 0.000000 0.000000 0.034184 0.000000 -0.004202
# 5 0.007897 -0.005395 -0.010514 0.000000 0.048169 0.000000
# 6 0.000000 0.000000 0.000000 -0.004202 0.000000 0.037842
#
#
# Mechanical properties :
#
#
# Convention : Reuss Voigt Hill
#
# Bulk Modulus (GPa) = 56.50200 66.59599 61.54899
# Shear Modulus (GPa) = 21.38718 24.75017 23.06867
#
# Velocity S-wave (km/s) = 3.42472 3.68415 3.55680
# Velocity P-wave (km/s) = 6.82816 7.39042 7.11485
#
# Compressibility (1/GPa) = 0.01769849
#
# Stress axis : x y z
#
# Youngs Moduli (GPa) = 38.58333 57.35175 51.70455
#
# Poissons Ratio (x) = 0.30744 0.66639
# Poissons Ratio (y) = 0.20683 0.21970
# Poissons Ratio (z) = 0.49728 0.24370
#
# Static dielectric constant tensor:
#      x y z
#    x 3.151500 0.000000 0.271020 
#    y 0.000000 3.684190 0.000000 
#    z 0.271020 0.000000 3.561260 
# 
# 
# High freq. dielectric constant tensor:
#      x y z
#    x 1.670510 0.000000 0.032590 
#    y 0.000000 1.718450 0.000000 
#    z 0.032590 0.000000 1.711910 
# 
# From -- ./inp_files/40512.got.cif
#   From: 2010.06.25/outbox.cif.g09.slc.cpg/sg11_21_cif.got.tgz:40512.got - 2010.06.27 23:14:04.
