data_PCOD8072571
_publ_section_title
;
Structure prediction by ZEFSAII (Michael W. Deem and Ramdas Pophale) SiO2 
 PCOD8072571
Probable space group: P 21/M
;
_chemical_formula_sum "Si O2"
_cell_formula_units_Z 32
_cell_length_a 24.519665
_cell_length_b 8.959155
_cell_length_c 18.909629
_cell_angle_alpha 90.000000
_cell_angle_beta 156.243317
_cell_angle_gamma 90.000000
_cell_volume 1673.445902
_symmetry_space_group_name_H-M "P 21/M"
_symmetry_group_IT_number 11
_symmetry_cell_setting 'monoclinic'
loop_
_space_group_symop_operation_xyz
x,y,z
-x,1/2+y,-z
-x,-y,-z
x,1/2-y,z
loop_
_atom_site_type_symbol
_atom_site_label
_atom_site_fract_x
_atom_site_fract_y
_atom_site_fract_z
Si Si1 0.446920 0.074292 0.635551
Si Si2 0.350223 0.574454 0.004393
Si Si3 0.839110 0.925688 0.647227
Si Si4 0.365848 0.573805 0.866099
Si Si5 0.417258 0.427194 0.339162
Si Si6 0.883935 0.082986 0.176380
Si Si7 0.184733 0.415806 0.542203
Si Si8 0.889147 0.923675 0.038564
O O1 0.461656 0.250000 0.637754
O O2 0.515563 0.030607 0.792001
O O3 0.287536 0.029842 0.452550
O O4 0.524303 0.987490 0.665519
O O5 0.341198 0.750000 0.985906
O O6 0.345175 0.505365 0.920110
O O7 0.218643 0.514570 0.888732
O O8 0.863359 0.750000 0.675632
O O9 0.806290 0.976776 0.527826
O O10 0.980488 0.996877 0.843698
O O11 0.379399 0.750000 0.883913
O O12 0.249705 0.530111 0.673677
O O13 0.500000 0.500000 0.000000
O O14 0.500000 0.500000 0.500000
O O15 0.434956 0.250000 0.360315
O O16 0.259637 0.470910 0.166633
O O17 0.838183 0.250000 0.096106
O O18 0.030639 0.094909 0.385164
O O19 0.887926 0.965242 0.118671
O O20 0.252289 0.250000 0.626486
O O21 0.912650 0.750000 0.055931
#
# Coordination Sequence:
#
# PCOD8072571 Si02
#       8
#     4   4   4   4   4   4   4   4
#     4  10  19  36  62  87 111 143 189 237 278 329
#     4   9  18  33  55  78 103 141 186 228 275 331
#     4   9  19  35  59  86 113 153 195 229 274 336
#     4  11  22  35  50  71 103 144 187 231 282 334
#     4  11  24  40  60  88 118 148 182 224 277 335
#     4   9  17  33  57  78 101 142 186 225 275 334
#     4   9  18  33  52  77 109 142 184 229 273 329
#     4  10  20  35  56  85 118 146 181 230 277 325
#
# _framework density 19.122219999999999
#
# number of rings (size 3 to 8) (size 9 to 14) (size 15 to 20)
#    0.000    2.250    1.250    2.625    0.000    6.500 
#    0.000    4.375    0.000    0.000    0.000    0.000 
#    0.000    0.000    0.000    0.000    0.000    0.000 
#
# Total GULP energy -396569.141631 kJ/mol
# GULP energy per Si atom -12392.785676 kJ/mol
# Density = 1.907870 g / cm^3
# Si number density = 19.122220 Si / 1000 Ang^3
#
#
#
# Elastic Constant Matrix: (Units=GPa)
#
#
# Indices 1 2 3 4 5 6 
#
# 1 46.9235 20.0772 33.4582 0.0000 14.2074 0.0000
# 2 20.0772 53.2751 44.0144 0.0000 3.1788 0.0000
# 3 33.4582 44.0144 122.7694 0.0000 13.1050 0.0000
# 4 0.0000 0.0000 0.0000 33.0014 0.0000 0.7268
# 5 14.2074 3.1788 13.1050 0.0000 34.9731 0.0000
# 6 0.0000 0.0000 0.0000 0.7268 0.0000 25.1926
#
#
#
# Elastic Compliance Matrix: (Units=1/GPa)
#
#
# Indices 1 2 3 4 5 6 
#
# 1 0.030791 -0.007045 -0.004790 0.000000 -0.010073 0.000000
# 2 -0.007045 0.028331 -0.008612 0.000000 0.003514 0.000000
# 3 -0.004790 -0.008612 0.012757 0.000000 -0.002052 0.000000
# 4 0.000000 0.000000 0.000000 0.030321 0.000000 -0.000875
# 5 -0.010073 0.003514 -0.002052 0.000000 0.033135 0.000000
# 6 0.000000 0.000000 0.000000 -0.000875 0.000000 0.039719
#
#
# Mechanical properties :
#
#
# Convention : Reuss Voigt Hill
#
# Bulk Modulus (GPa) = 32.27448 46.45198 39.36323
# Shear Modulus (GPa) = 22.09663 26.99463 24.54563
#
# Velocity S-wave (km/s) = 3.40302 3.76132 3.58665
# Velocity P-wave (km/s) = 5.68818 6.57330 6.14669
#
# Compressibility (1/GPa) = 0.03098423
#
# Stress axis : x y z
#
# Youngs Moduli (GPa) = 32.47656 35.29709 78.38564
#
# Poissons Ratio (x) = 0.24868 0.37551
# Poissons Ratio (y) = 0.22880 0.67506
# Poissons Ratio (z) = 0.15558 0.30398
#
# Static dielectric constant tensor:
#      x y z
#    x 3.580890 0.000000 0.338480 
#    y 0.000000 3.214460 0.000000 
#    z 0.338480 0.000000 3.578680 
# 
# 
# High freq. dielectric constant tensor:
#      x y z
#    x 1.732750 0.000000 0.018910 
#    y 0.000000 1.725000 0.000000 
#    z 0.018910 0.000000 1.753520 
# 
# From -- ./inp_files/67147.got.cif
#   From: 2010.06.25/outbox.cif.g09.slc.cpg/sg11_34_cif.got.tgz:67147.got - 2010.06.27 23:14:04.
