data_PCOD8072224
_publ_section_title
;
Structure prediction by ZEFSAII (Michael W. Deem and Ramdas Pophale) SiO2 
 PCOD8072224
Probable space group: P 21/M
;
_chemical_formula_sum "Si O2"
_cell_formula_units_Z 28
_cell_length_a 15.091240
_cell_length_b 8.893510
_cell_length_c 11.787817
_cell_angle_alpha 90.000000
_cell_angle_beta 118.773844
_cell_angle_gamma 90.000000
_cell_volume 1386.744863
_symmetry_space_group_name_H-M "P 21/M"
_symmetry_group_IT_number 11
_symmetry_cell_setting 'monoclinic'
loop_
_space_group_symop_operation_xyz
x,y,z
-x,1/2+y,-z
-x,-y,-z
x,1/2-y,z
loop_
_atom_site_type_symbol
_atom_site_label
_atom_site_fract_x
_atom_site_fract_y
_atom_site_fract_z
Si Si1 0.887503 0.570790 0.920705
Si Si2 0.514971 0.570897 0.884534
Si Si3 0.812384 0.416151 0.247061
Si Si4 0.682201 0.428412 0.367624
Si Si5 0.807565 0.078334 0.650317
Si Si6 0.997289 0.917976 0.380449
Si Si7 0.716185 0.080649 0.958681
O O1 0.897917 0.750000 0.939632
O O2 0.830315 0.531708 0.768102
O O3 0.814366 0.504476 0.971409
O O4 0.000000 0.500000 0.000000
O O5 0.519618 0.750000 0.901794
O O6 0.427220 0.518065 0.742923
O O7 0.613883 0.513069 0.878035
O O8 0.500000 0.500000 0.000000
O O9 0.852906 0.250000 0.302120
O O10 0.765802 0.493180 0.331268
O O11 0.905705 0.509570 0.252753
O O12 0.725544 0.407813 0.099817
O O13 0.688708 0.250000 0.363087
O O14 0.709795 0.475905 0.514975
O O15 0.793398 0.250000 0.685616
O O16 0.900177 0.067604 0.622806
O O17 0.966682 0.750000 0.385992
O O18 0.000000 0.000000 0.500000
O O19 0.708213 0.250000 0.901958
#
# Coordination Sequence:
#
# PCOD8072224 Si02
#       7
#     4   4   4   4   4   4   4
#     4  12  26  45  67  93 124 162 210 259 309 372
#     4  11  21  37  62  94 130 169 211 259 314 372
#     4  10  19  35  56  83 119 158 198 246 304 363
#     4   9  18  36  59  86 122 162 201 248 306 365
#     4  10  21  40  62  84 119 165 208 255 310 365
#     4  11  21  32  52  83 118 155 196 243 301 369
#     4  11  23  41  65  92 124 163 209 260 313 370
#
# _framework density 20.191168000000001
#
# number of rings (size 3 to 8) (size 9 to 14) (size 15 to 20)
#    0.000    1.429    2.857    3.429    0.000    4.571 
#    0.000    2.143    0.000    0.000    0.000    0.000 
#    0.000    0.000    0.000    0.000    0.000    0.000 
#
# Total GULP energy -346977.116695 kJ/mol
# GULP energy per Si atom -12392.039882 kJ/mol
# Density = 2.014521 g / cm^3
# Si number density = 20.191168 Si / 1000 Ang^3
#
#
#
# Elastic Constant Matrix: (Units=GPa)
#
#
# Indices 1 2 3 4 5 6 
#
# 1 96.4060 44.4749 37.6563 0.0000 18.4887 0.0000
# 2 44.4749 105.2116 30.7565 0.0000 5.5799 0.0000
# 3 37.6563 30.7565 121.5264 0.0000 14.8854 0.0000
# 4 0.0000 0.0000 0.0000 30.1540 0.0000 1.0415
# 5 18.4887 5.5799 14.8854 0.0000 35.3002 0.0000
# 6 0.0000 0.0000 0.0000 1.0415 0.0000 32.2081
#
#
#
# Elastic Compliance Matrix: (Units=1/GPa)
#
#
# Indices 1 2 3 4 5 6 
#
# 1 0.014931 -0.005246 -0.002576 0.000000 -0.005905 0.000000
# 2 -0.005246 0.012117 -0.001627 0.000000 0.001518 0.000000
# 3 -0.002576 -0.001627 0.009745 0.000000 -0.002503 0.000000
# 4 0.000000 0.000000 0.000000 0.033200 0.000000 -0.001074
# 5 -0.005905 0.001518 -0.002503 0.000000 0.032237 0.000000
# 6 0.000000 0.000000 0.000000 -0.001074 0.000000 0.031083
#
#
# Mechanical properties :
#
#
# Convention : Reuss Voigt Hill
#
# Bulk Modulus (GPa) = 55.87666 60.99106 58.43386
# Shear Modulus (GPa) = 31.61032 33.54954 32.57993
#
# Velocity S-wave (km/s) = 3.96100 4.08069 4.02129
# Velocity P-wave (km/s) = 6.97519 7.24397 7.11085
#
# Compressibility (1/GPa) = 0.01789656
#
# Stress axis : x y z
#
# Youngs Moduli (GPa) = 66.97346 82.52707 102.61439
#
# Poissons Ratio (x) = 0.43290 0.26431
# Poissons Ratio (y) = 0.35131 0.16698
# Poissons Ratio (z) = 0.17251 0.13429
#
# Static dielectric constant tensor:
#      x y z
#    x 4.108550 0.000000 0.438530 
#    y 0.000000 3.821800 0.000000 
#    z 0.438530 0.000000 4.274920 
# 
# 
# High freq. dielectric constant tensor:
#      x y z
#    x 1.778620 0.000000 0.012710 
#    y 0.000000 1.776960 0.000000 
#    z 0.012710 0.000000 1.798580 
# 
# From -- ./inp_files/38495.got.cif
#   From: 2010.06.25/outbox.cif.g09.slc.cpg/sg11_20_cif.got.tgz:38495.got - 2010.06.27 23:14:04.
