data_PCOD8072779
_publ_section_title
;
Structure prediction by ZEFSAII (Michael W. Deem and Ramdas Pophale) SiO2 
 PCOD8072779
Probable space group: P 21/M
;
_chemical_formula_sum "Si O2"
_cell_formula_units_Z 32
_cell_length_a 7.999508
_cell_length_b 21.411806
_cell_length_c 9.469965
_cell_angle_alpha 90.000000
_cell_angle_beta 85.067222
_cell_angle_gamma 90.000000
_cell_volume 1616.045016
_symmetry_space_group_name_H-M "P 21/M"
_symmetry_group_IT_number 11
_symmetry_cell_setting 'monoclinic'
loop_
_space_group_symop_operation_xyz
x,y,z
-x,1/2+y,-z
-x,-y,-z
x,1/2-y,z
loop_
_atom_site_type_symbol
_atom_site_label
_atom_site_fract_x
_atom_site_fract_y
_atom_site_fract_z
Si Si1 0.779817 0.626873 0.267666
Si Si2 0.599615 0.530734 0.759653
Si Si3 0.776618 0.966052 0.013172
Si Si4 0.595800 0.114622 0.695793
Si Si5 0.311894 0.579240 0.612454
Si Si6 0.830132 0.962815 0.503999
Si Si7 0.890318 0.087514 0.113716
Si Si8 0.114864 0.678484 0.137652
O O1 0.585245 0.651421 0.282034
O O2 0.836664 0.601495 0.416928
O O3 0.926082 0.676165 0.217742
O O4 0.787144 0.572339 0.153927
O O5 0.618066 0.547786 0.923758
O O6 0.559977 0.456924 0.743215
O O7 0.469079 0.579995 0.705577
O O8 0.772452 0.548061 0.667705
O O9 0.937654 0.951384 0.904596
O O10 0.755330 0.038447 0.059734
O O11 0.661295 0.121105 0.529022
O O12 0.742095 0.144004 0.780908
O O13 0.301258 0.507071 0.567074
O O14 0.153609 0.603415 0.718563
O O15 0.000000 0.000000 0.500000
O O16 0.891258 0.149810 0.019316
O O17 0.168503 0.750000 0.120251
#
# Coordination Sequence:
#
# PCOD8072779 Si02
#       8
#     4   4   4   4   4   4   4   4
#     4  11  21  39  59  88 122 153 196 242 297 355
#     4  11  19  31  52  92 130 147 179 223 292 378
#     4  10  20  31  54  90 121 157 184 227 302 362
#     4  11  21  38  60  89 120 156 189 238 297 351
#     4  11  20  33  54  91 124 148 180 229 300 365
#     4  11  19  30  52  84 128 160 178 219 292 365
#     4  10  20  36  55  81 122 153 191 238 291 352
#     4  11  26  43  61  82 109 157 212 252 285 335
#
# _framework density 19.801425999999999
#
# number of rings (size 3 to 8) (size 9 to 14) (size 15 to 20)
#    0.000    1.250    5.000    3.000    3.500    1.500 
#    0.000    0.625    0.000    0.000    0.000    0.000 
#    0.000    0.000    0.000    0.000    0.000    0.000 
#
# Total GULP energy -396454.391802 kJ/mol
# GULP energy per Si atom -12389.199744 kJ/mol
# Density = 1.975636 g / cm^3
# Si number density = 19.801426 Si / 1000 Ang^3
#
#
#
# Elastic Constant Matrix: (Units=GPa)
#
#
# Indices 1 2 3 4 5 6 
#
# 1 67.7823 -0.0424 5.6686 0.0000 -6.3433 0.0000
# 2 -0.0424 55.8162 11.9127 0.0000 0.4880 0.0000
# 3 5.6686 11.9127 51.9039 0.0000 2.4061 0.0000
# 4 0.0000 0.0000 0.0000 12.5742 0.0000 0.6464
# 5 -6.3433 0.4880 2.4061 0.0000 35.9820 0.0000
# 6 0.0000 0.0000 0.0000 0.6464 0.0000 14.7652
#
#
#
# Elastic Compliance Matrix: (Units=1/GPa)
#
#
# Indices 1 2 3 4 5 6 
#
# 1 0.015172 0.000387 -0.001875 0.000000 0.002795 0.000000
# 2 0.000387 0.018849 -0.004373 0.000000 0.000105 0.000000
# 3 -0.001875 -0.004373 0.020551 0.000000 -0.001646 0.000000
# 4 0.000000 0.000000 0.000000 0.079707 0.000000 -0.003489
# 5 0.002795 0.000105 -0.001646 0.000000 0.028393 0.000000
# 6 0.000000 0.000000 0.000000 -0.003489 0.000000 0.067879
#
#
# Mechanical properties :
#
#
# Convention : Reuss Voigt Hill
#
# Bulk Modulus (GPa) = 23.33774 23.39780 23.36777
# Shear Modulus (GPa) = 19.48883 23.19517 21.34200
#
# Velocity S-wave (km/s) = 3.14062 3.42627 3.28655
# Velocity P-wave (km/s) = 4.99628 5.24350 5.12138
#
# Compressibility (1/GPa) = 0.04284905
#
# Stress axis : x y z
#
# Youngs Moduli (GPa) = 65.91201 53.05408 48.65895
#
# Poissons Ratio (x) = -0.02055 0.09126
# Poissons Ratio (y) = -0.02553 0.21280
# Poissons Ratio (z) = 0.12361 0.23202
#
# Static dielectric constant tensor:
#      x y z
#    x 3.879080 0.000000 -0.247580 
#    y 0.000000 2.964800 0.000000 
#    z -0.247580 0.000000 3.861470 
# 
# 
# High freq. dielectric constant tensor:
#      x y z
#    x 1.795510 0.000000 -0.005500 
#    y 0.000000 1.687300 0.000000 
#    z -0.005500 0.000000 1.793160 
# 
# From -- ./inp_files/14804.got.cif
#   From: 2010.06.25/outbox.cif.g09.slc.cpg/sg11_8_cif.got.tgz:14804.got - 2010.06.27 23:14:04.
