data_PCOD8072625
_publ_section_title
;
Structure prediction by ZEFSAII (Michael W. Deem and Ramdas Pophale) SiO2 
 PCOD8072625
Probable space group: P 21/M
;
_chemical_formula_sum "Si O2"
_cell_formula_units_Z 32
_cell_length_a 22.494880
_cell_length_b 8.806004
_cell_length_c 15.220443
_cell_angle_alpha 90.000000
_cell_angle_beta 32.671541
_cell_angle_gamma 90.000000
_cell_volume 1627.573655
_symmetry_space_group_name_H-M "P 21/M"
_symmetry_group_IT_number 11
_symmetry_cell_setting 'monoclinic'
loop_
_space_group_symop_operation_xyz
x,y,z
-x,1/2+y,-z
-x,-y,-z
x,1/2-y,z
loop_
_atom_site_type_symbol
_atom_site_label
_atom_site_fract_x
_atom_site_fract_y
_atom_site_fract_z
Si Si1 0.994101 0.071285 0.411808
Si Si2 0.368839 0.930074 0.018317
Si Si3 0.249276 0.571214 0.342412
Si Si4 0.958183 0.926635 0.140261
Si Si5 0.192371 0.574583 0.897361
Si Si6 0.792420 0.430860 0.931395
Si Si7 0.743893 0.430081 0.371579
Si Si8 0.387249 0.429715 0.322603
O O1 0.005830 0.250000 0.407963
O O2 0.878540 0.029010 0.509756
O O3 0.090640 0.006748 0.231913
O O4 0.000000 0.000000 0.500000
O O5 0.365823 0.750000 0.019501
O O6 0.493322 0.990834 0.856204
O O7 0.315447 0.989113 0.174798
O O8 0.297926 0.992788 0.024488
O O9 0.266998 0.750000 0.333727
O O10 0.295441 0.483631 0.368624
O O11 0.929512 0.750000 0.164225
O O12 0.847330 0.016526 0.304030
O O13 0.061168 0.952270 0.077422
O O14 0.000000 0.000000 0.000000
O O15 0.214932 0.750000 0.853543
O O16 0.241872 0.500745 0.745817
O O17 0.247982 0.520455 0.919613
O O18 0.807228 0.250000 0.906630
O O19 0.736587 0.250000 0.382240
O O20 0.636345 0.500894 0.551304
O O21 0.385777 0.250000 0.331603
#
# Coordination Sequence:
#
# PCOD8072625 Si02
#       8
#     4   4   4   4   4   4   4   4
#     4  11  22  37  58  87 119 150 184 226 280 338
#     4   9  19  38  60  81 110 147 189 233 284 338
#     4  10  21  39  59  83 115 149 184 229 286 341
#     4   9  16  29  48  76 107 142 182 223 271 331
#     4   8  17  32  55  81 107 145 188 222 271 338
#     4  10  19  37  61  84 114 151 187 230 280 338
#     4  10  20  36  53  77 112 149 188 237 286 331
#     4  11  23  37  57  84 109 146 196 240 283 337
#
# _framework density 19.661169999999998
#
# number of rings (size 3 to 8) (size 9 to 14) (size 15 to 20)
#    0.000    2.250    1.250    2.625    1.750    1.000 
#    0.000    5.625    0.000    0.000    0.000    0.000 
#    0.000    0.000    0.000    0.000    0.000    0.000 
#
# Total GULP energy -396586.725283 kJ/mol
# GULP energy per Si atom -12393.335165 kJ/mol
# Density = 1.961642 g / cm^3
# Si number density = 19.661170 Si / 1000 Ang^3
#
#
#
# Elastic Constant Matrix: (Units=GPa)
#
#
# Indices 1 2 3 4 5 6 
#
# 1 106.2902 27.2278 58.8212 0.0000 9.2488 0.0000
# 2 27.2278 53.0222 28.9281 0.0000 -4.7447 0.0000
# 3 58.8212 28.9281 110.8508 0.0000 2.7130 0.0000
# 4 0.0000 0.0000 0.0000 29.2876 0.0000 0.6490
# 5 9.2488 -4.7447 2.7130 0.0000 30.0037 0.0000
# 6 0.0000 0.0000 0.0000 0.6490 0.0000 19.0983
#
#
#
# Elastic Compliance Matrix: (Units=1/GPa)
#
#
# Indices 1 2 3 4 5 6 
#
# 1 0.014479 -0.004329 -0.006442 0.000000 -0.004566 0.000000
# 2 -0.004329 0.023777 -0.004041 0.000000 0.005460 0.000000
# 3 -0.006442 -0.004041 0.013491 0.000000 0.000127 0.000000
# 4 0.000000 0.000000 0.000000 0.034170 0.000000 -0.001161
# 5 -0.004566 0.005460 0.000127 0.000000 0.035589 0.000000
# 6 0.000000 0.000000 0.000000 -0.001161 0.000000 0.052400
#
#
# Mechanical properties :
#
#
# Convention : Reuss Voigt Hill
#
# Bulk Modulus (GPa) = 45.20329 55.56860 50.38594
# Shear Modulus (GPa) = 23.70748 26.02366 24.86557
#
# Velocity S-wave (km/s) = 3.47623 3.64209 3.56013
# Velocity P-wave (km/s) = 6.25726 6.78313 6.52550
#
# Compressibility (1/GPa) = 0.02212228
#
# Stress axis : x y z
#
# Youngs Moduli (GPa) = 69.06376 42.05805 74.12461
#
# Poissons Ratio (x) = 0.18209 0.47749
# Poissons Ratio (y) = 0.29901 0.29955
# Poissons Ratio (z) = 0.44489 0.16996
#
# Static dielectric constant tensor:
#      x y z
#    x 3.919140 0.000000 -0.185530 
#    y 0.000000 3.426070 0.000000 
#    z -0.185530 0.000000 3.928620 
# 
# 
# High freq. dielectric constant tensor:
#      x y z
#    x 1.763680 0.000000 0.009830 
#    y 0.000000 1.742810 0.000000 
#    z 0.009830 0.000000 1.769360 
# 
# From -- ./inp_files/55630.got.cif
#   From: 2010.06.25/outbox.cif.g09.slc.cpg/sg11_28_cif.got.tgz:55630.got - 2010.06.27 23:14:04.
