data_PCOD8072121
_publ_section_title
;
Structure prediction by ZEFSAII (Michael W. Deem and Ramdas Pophale) SiO2 
 PCOD8072121
Probable space group: P 21/M
;
_chemical_formula_sum "Si O2"
_cell_formula_units_Z 24
_cell_length_a 12.399786
_cell_length_b 8.778714
_cell_length_c 24.953667
_cell_angle_alpha 90.000000
_cell_angle_beta 154.349015
_cell_angle_gamma 90.000000
_cell_volume 1175.858578
_symmetry_space_group_name_H-M "P 21/M"
_symmetry_group_IT_number 11
_symmetry_cell_setting 'monoclinic'
loop_
_space_group_symop_operation_xyz
x,y,z
-x,1/2+y,-z
-x,-y,-z
x,1/2-y,z
loop_
_atom_site_type_symbol
_atom_site_label
_atom_site_fract_x
_atom_site_fract_y
_atom_site_fract_z
Si Si1 0.818102 0.930875 0.873274
Si Si2 0.102161 0.929810 0.687840
Si Si3 0.102173 0.923449 0.202029
Si Si4 0.751680 0.430986 0.360789
Si Si5 0.248540 0.929447 0.869525
Si Si6 0.577932 0.921956 0.480512
O O1 0.830377 0.750000 0.884091
O O2 0.525478 0.985406 0.744083
O O3 0.935523 0.983796 0.869477
O O4 0.000000 0.000000 0.000000
O O5 0.087016 0.750000 0.675901
O O6 0.242624 0.990341 0.698218
O O7 0.237701 0.979544 0.802790
O O8 0.824615 0.999908 0.566808
O O9 0.008168 0.750000 0.151466
O O10 0.388866 0.929124 0.346779
O O11 0.967683 0.999149 0.192013
O O12 0.773161 0.250000 0.376315
O O13 0.000000 0.500000 0.500000
O O14 0.240128 0.750000 0.873189
O O15 0.500000 0.000000 0.000000
O O16 0.635803 0.750000 0.524002
O O17 0.500000 0.000000 0.500000
#
# Coordination Sequence:
#
# PCOD8072121 Si02
#       6
#     4   4   4   4   4   4
#     4  11  25  43  66  95 128 169 217 269 321 383
#     4   9  19  37  61  87 121 160 195 247 313 369
#     4  11  23  40  64  91 125 164 205 257 315 378
#     4  10  22  42  66  93 126 167 212 262 319 378
#     4  11  23  39  61  89 124 164 207 256 312 374
#     4  10  19  34  58  88 120 156 197 246 306 370
#
# _framework density 20.410617999999999
#
# number of rings (size 3 to 8) (size 9 to 14) (size 15 to 20)
#    0.000    1.667    1.667    2.500    2.333    3.333 
#    0.000    2.500    0.000    0.000    0.000    0.000 
#    0.000    0.000    0.000    0.000    0.000    0.000 
#
# Total GULP energy -297401.636255 kJ/mol
# GULP energy per Si atom -12391.734844 kJ/mol
# Density = 2.036416 g / cm^3
# Si number density = 20.410618 Si / 1000 Ang^3
#
#
#
# Elastic Constant Matrix: (Units=GPa)
#
#
# Indices 1 2 3 4 5 6 
#
# 1 120.1808 30.8093 31.8917 0.0000 -16.9811 0.0000
# 2 30.8093 74.2355 37.7530 0.0000 -5.4397 0.0000
# 3 31.8917 37.7530 115.9216 0.0000 -4.7266 0.0000
# 4 0.0000 0.0000 0.0000 33.3444 0.0000 -1.6971
# 5 -16.9811 -5.4397 -4.7266 0.0000 35.5982 0.0000
# 6 0.0000 0.0000 0.0000 -1.6971 0.0000 30.2979
#
#
#
# Elastic Compliance Matrix: (Units=1/GPa)
#
#
# Indices 1 2 3 4 5 6 
#
# 1 0.010124 -0.003077 -0.001614 0.000000 0.004145 0.000000
# 2 -0.003077 0.017193 -0.004731 0.000000 0.000531 0.000000
# 3 -0.001614 -0.004731 0.010608 0.000000 -0.000084 0.000000
# 4 0.000000 0.000000 0.000000 0.030076 0.000000 0.001685
# 5 0.004145 0.000531 -0.000084 0.000000 0.030138 0.000000
# 6 0.000000 0.000000 0.000000 0.001685 0.000000 0.033100
#
#
# Mechanical properties :
#
#
# Convention : Reuss Voigt Hill
#
# Bulk Modulus (GPa) = 52.41107 56.80510 54.60808
# Shear Modulus (GPa) = 31.96067 33.84034 32.90051
#
# Velocity S-wave (km/s) = 3.96142 4.07624 4.01924
# Velocity P-wave (km/s) = 6.83066 7.07431 6.95355
#
# Compressibility (1/GPa) = 0.01907994
#
# Stress axis : x y z
#
# Youngs Moduli (GPa) = 98.77974 58.16459 94.26914
#
# Poissons Ratio (x) = 0.17897 0.15215
# Poissons Ratio (y) = 0.30394 0.44599
# Poissons Ratio (z) = 0.15944 0.27518
#
# Static dielectric constant tensor:
#      x y z
#    x 3.640930 0.000000 -0.077030 
#    y 0.000000 3.679870 0.000000 
#    z -0.077030 0.000000 3.840490 
# 
# 
# High freq. dielectric constant tensor:
#      x y z
#    x 1.812750 0.000000 -0.001220 
#    y 0.000000 1.780090 0.000000 
#    z -0.001220 0.000000 1.810920 
# 
# From -- ./inp_files/68467.got.cif
#   From: 2010.06.25/outbox.cif.g09.slc.cpg/sg11_35_cif.got.tgz:68467.got - 2010.06.27 23:14:04.
