data_PCOD8072954
_publ_section_title
;
Structure prediction by ZEFSAII (Michael W. Deem and Ramdas Pophale) SiO2 
 PCOD8072954
Probable space group: P 21/M
;
_chemical_formula_sum "Si O2"
_cell_formula_units_Z 32
_cell_length_a 19.984411
_cell_length_b 9.026761
_cell_length_c 25.259488
_cell_angle_alpha 90.000000
_cell_angle_beta 158.032669
_cell_angle_gamma 90.000000
_cell_volume 1704.550435
_symmetry_space_group_name_H-M "P 21/M"
_symmetry_group_IT_number 11
_symmetry_cell_setting 'monoclinic'
loop_
_space_group_symop_operation_xyz
x,y,z
-x,1/2+y,-z
-x,-y,-z
x,1/2-y,z
loop_
_atom_site_type_symbol
_atom_site_label
_atom_site_fract_x
_atom_site_fract_y
_atom_site_fract_z
Si Si1 0.709891 0.917137 0.969556
Si Si2 0.734530 0.584670 0.210773
Si Si3 0.631601 0.424705 0.639825
Si Si4 0.359808 0.575183 0.233484
Si Si5 0.949714 0.576023 0.518228
Si Si6 0.420755 0.412929 0.018080
Si Si7 0.039852 0.422234 0.938627
Si Si8 0.590611 0.576715 0.306876
O O1 0.646258 0.750000 0.908766
O O2 0.730992 0.938676 0.048252
O O3 0.560331 0.035227 0.845354
O O4 0.890749 0.950749 0.070360
O O5 0.793404 0.750000 0.271396
O O6 0.577977 0.534353 0.136205
O O7 0.891769 0.465651 0.326158
O O8 0.675095 0.579480 0.107471
O O9 0.500000 0.500000 0.500000
O O10 0.621271 0.250000 0.621406
O O11 0.577744 0.464635 0.660953
O O12 0.836935 0.482971 0.787142
O O13 0.328156 0.750000 0.204453
O O14 0.522052 0.518801 0.314350
O O15 0.169434 0.502015 0.076605
O O16 0.931826 0.750000 0.495931
O O17 0.774522 0.508243 0.418988
O O18 0.000000 0.500000 0.500000
O O19 0.508279 0.250000 0.090071
O O20 0.038336 0.250000 0.953438
O O21 0.616850 0.750000 0.329713
#
# Coordination Sequence:
#
# PCOD8072954 Si02
#       8
#     4   4   4   4   4   4   4   4
#     4   9  17  31  52  75 100 128 162 207 253 298
#     4  10  20  33  49  71  98 129 169 211 253 304
#     4  10  21  36  54  79 111 143 174 213 260 311
#     4   9  18  35  57  78 104 139 177 219 261 308
#     4  11  22  35  51  72 100 133 169 212 258 304
#     4   9  18  33  51  70  96 132 168 206 253 302
#     4   9  18  33  54  81 107 133 173 218 260 307
#     4   9  19  34  51  73 101 132 168 209 254 301
#
# _framework density 18.773277
#
# number of rings (size 3 to 8) (size 9 to 14) (size 15 to 20)
#    0.000    2.500    0.000    1.875    0.000    5.000 
#    2.250    0.000    0.000    0.000    0.000    0.000 
#    0.000    0.000    0.000    0.000    0.000    0.000 
#
# Total GULP energy -396424.380540 kJ/mol
# GULP energy per Si atom -12388.261892 kJ/mol
# Density = 1.873055 g / cm^3
# Si number density = 18.773277 Si / 1000 Ang^3
#
#
#
# Elastic Constant Matrix: (Units=GPa)
#
#
# Indices 1 2 3 4 5 6 
#
# 1 145.9152 38.3585 61.2137 0.0000 9.4415 0.0000
# 2 38.3585 38.5396 34.1276 0.0000 0.0128 0.0000
# 3 61.2137 34.1276 95.4548 0.0000 12.7689 0.0000
# 4 0.0000 0.0000 0.0000 31.1231 0.0000 -2.9510
# 5 9.4415 0.0128 12.7689 0.0000 24.0039 0.0000
# 6 0.0000 0.0000 0.0000 -2.9510 0.0000 23.5211
#
#
#
# Elastic Compliance Matrix: (Units=1/GPa)
#
#
# Indices 1 2 3 4 5 6 
#
# 1 0.010463 -0.006889 -0.003980 0.000000 -0.001995 0.000000
# 2 -0.006889 0.043892 -0.012526 0.000000 0.009349 0.000000
# 3 -0.003980 -0.012526 0.018622 0.000000 -0.008334 0.000000
# 4 0.000000 0.000000 0.000000 0.032517 0.000000 0.004080
# 5 -0.001995 0.009349 -0.008334 0.000000 0.046872 0.000000
# 6 0.000000 0.000000 0.000000 0.004080 0.000000 0.043027
#
#
# Mechanical properties :
#
#
# Convention : Reuss Voigt Hill
#
# Bulk Modulus (GPa) = 38.18550 60.81212 49.49881
# Shear Modulus (GPa) = 19.92734 25.47694 22.70214
#
# Velocity S-wave (km/s) = 3.26156 3.68786 3.48124
# Velocity P-wave (km/s) = 5.87947 7.11316 6.52553
#
# Compressibility (1/GPa) = 0.02618795
#
# Stress axis : x y z
#
# Youngs Moduli (GPa) = 95.57523 22.78307 53.70130
#
# Poissons Ratio (x) = 0.15695 0.21373
# Poissons Ratio (y) = 0.65839 0.67264
# Poissons Ratio (z) = 0.38039 0.28537
#
# Static dielectric constant tensor:
#      x y z
#    x 3.865010 0.000000 0.226700 
#    y 0.000000 3.643370 0.000000 
#    z 0.226700 0.000000 3.497790 
# 
# 
# High freq. dielectric constant tensor:
#      x y z
#    x 1.748860 0.000000 0.007420 
#    y 0.000000 1.722170 0.000000 
#    z 0.007420 0.000000 1.705270 
# 
# From -- ./inp_files/72185.got.cif
#   From: 2010.06.25/outbox.cif.g09.slc.cpg/sg11_37_cif.got.tgz:72185.got - 2010.06.27 23:14:04.
