data_PCOD8072785
_publ_section_title
;
Structure prediction by ZEFSAII (Michael W. Deem and Ramdas Pophale) SiO2 
 PCOD8072785
Probable space group: P 21/M
;
_chemical_formula_sum "Si O2"
_cell_formula_units_Z 32
_cell_length_a 32.039941
_cell_length_b 9.029057
_cell_length_c 22.639512
_cell_angle_alpha 90.000000
_cell_angle_beta 162.664986
_cell_angle_gamma 90.000000
_cell_volume 1951.446391
_symmetry_space_group_name_H-M "P 21/M"
_symmetry_group_IT_number 11
_symmetry_cell_setting 'monoclinic'
loop_
_space_group_symop_operation_xyz
x,y,z
-x,1/2+y,-z
-x,-y,-z
x,1/2-y,z
loop_
_atom_site_type_symbol
_atom_site_label
_atom_site_fract_x
_atom_site_fract_y
_atom_site_fract_z
Si Si1 0.681157 0.422609 0.107867
Si Si2 0.135567 0.424767 0.427362
Si Si3 0.720086 0.914103 0.543708
Si Si4 0.026119 0.913624 0.900784
Si Si5 0.915025 0.082657 0.522238
Si Si6 0.872221 0.922562 0.859151
Si Si7 0.117023 0.078503 0.695996
Si Si8 0.395669 0.925362 0.718134
O O1 0.654700 0.250000 0.060917
O O2 0.791507 0.451015 0.309110
O O3 0.737019 0.496189 0.121892
O O4 0.538865 0.503033 0.934791
O O5 0.166747 0.250000 0.464393
O O6 0.004707 0.468631 0.207800
O O7 0.093309 0.466342 0.436298
O O8 0.273823 0.513128 0.595292
O O9 0.654041 0.750000 0.446439
O O10 0.876938 0.913588 0.731249
O O11 0.732052 0.954021 0.630183
O O12 0.627381 0.030752 0.381967
O O13 0.091876 0.750000 0.989048
O O14 0.137459 0.016306 0.086598
O O15 0.899103 0.250000 0.524953
O O16 0.067723 0.063528 0.697569
O O17 0.903960 0.750000 0.905080
O O18 0.000000 0.000000 0.000000
O O19 0.128684 0.250000 0.693391
O O20 0.000000 0.000000 0.500000
O O21 0.402695 0.750000 0.733300
#
# Coordination Sequence:
#
# PCOD8072785 Si02
#       8
#     4   4   4   4   4   4   4   4
#     4  10  20  34  50  67  89 116 147 185 227 266
#     4  10  20  32  45  62  89 123 153 183 220 262
#     4   8  15  27  39  55  82 112 143 178 216 257
#     4   8  15  26  38  55  80 110 143 178 214 252
#     4   9  19  33  49  68  88 113 146 184 222 261
#     4   9  15  22  36  56  77 106 141 176 213 253
#     4   9  17  31  50  71  91 110 140 182 226 267
#     4  11  21  31  45  64  88 120 154 185 221 264
#
# _framework density 16.398092999999999
#
# number of rings (size 3 to 8) (size 9 to 14) (size 15 to 20)
#    0.000    2.750    0.000    4.875    0.000    9.000 
#    0.000    0.000    0.000    0.000    0.000    0.000 
#    0.000    1.000    0.000    3.250    0.000    6.375 
#
# Total GULP energy -396498.118650 kJ/mol
# GULP energy per Si atom -12390.566208 kJ/mol
# Density = 1.636077 g / cm^3
# Si number density = 16.398093 Si / 1000 Ang^3
#
#
#
# Elastic Constant Matrix: (Units=GPa)
#
#
# Indices 1 2 3 4 5 6 
#
# 1 80.6998 48.5378 34.7787 0.0000 -12.4527 0.0000
# 2 48.5378 106.3364 22.3305 0.0000 -9.0659 0.0000
# 3 34.7787 22.3305 21.4066 0.0000 -13.0345 0.0000
# 4 0.0000 0.0000 0.0000 24.8789 0.0000 -3.2026
# 5 -12.4527 -9.0659 -13.0345 0.0000 17.3242 0.0000
# 6 0.0000 0.0000 0.0000 -3.2026 0.0000 27.3138
#
#
#
# Elastic Compliance Matrix: (Units=1/GPa)
#
#
# Indices 1 2 3 4 5 6 
#
# 1 0.065414 -0.006510 -0.134589 0.000000 -0.057650 0.000000
# 2 -0.006510 0.013016 -0.003142 0.000000 -0.000232 0.000000
# 3 -0.134589 -0.003142 0.385234 0.000000 0.191460 0.000000
# 4 0.000000 0.000000 0.000000 0.040811 0.000000 0.004785
# 5 -0.057650 -0.000232 0.191460 0.000000 0.160215 0.000000
# 6 0.000000 0.000000 0.000000 0.004785 0.000000 0.037173
#
#
# Mechanical properties :
#
#
# Convention : Reuss Voigt Hill
#
# Bulk Modulus (GPa) = 5.70833 46.63744 26.17289
# Shear Modulus (GPa) = 4.76763 20.75642 12.76203
#
# Velocity S-wave (km/s) = 1.70697 3.56164 2.79276
# Velocity P-wave (km/s) = 2.71545 6.73916 5.13760
#
# Compressibility (1/GPa) = 0.17518262
#
# Stress axis : x y z
#
# Youngs Moduli (GPa) = 15.28716 76.83002 2.59582
#
# Poissons Ratio (x) = 0.50019 0.34937
# Poissons Ratio (y) = 0.09952 0.00816
# Poissons Ratio (z) = 2.05748 0.24138
#
# Static dielectric constant tensor:
#      x y z
#    x 3.342390 0.000000 -0.477410 
#    y 0.000000 6.494220 0.000000 
#    z -0.477410 0.000000 3.258530 
# 
# 
# High freq. dielectric constant tensor:
#      x y z
#    x 1.606760 0.000000 -0.027050 
#    y 0.000000 1.644310 0.000000 
#    z -0.027050 0.000000 1.597540 
# 
# From -- ./inp_files/67123.got.cif
#   From: 2010.06.25/outbox.cif.g09.slc.cpg/sg11_34_cif.got.tgz:67123.got - 2010.06.27 23:14:04.
