data_PCOD8072890
_publ_section_title
;
Structure prediction by ZEFSAII (Michael W. Deem and Ramdas Pophale) SiO2 
 PCOD8072890
Probable space group: P 21/M
;
_chemical_formula_sum "Si O2"
_cell_formula_units_Z 32
_cell_length_a 14.155740
_cell_length_b 9.501262
_cell_length_c 23.584243
_cell_angle_alpha 90.000000
_cell_angle_beta 149.123355
_cell_angle_gamma 90.000000
_cell_volume 1627.853131
_symmetry_space_group_name_H-M "P 21/M"
_symmetry_group_IT_number 11
_symmetry_cell_setting 'monoclinic'
loop_
_space_group_symop_operation_xyz
x,y,z
-x,1/2+y,-z
-x,-y,-z
x,1/2-y,z
loop_
_atom_site_type_symbol
_atom_site_label
_atom_site_fract_x
_atom_site_fract_y
_atom_site_fract_z
Si Si1 0.315694 0.412984 0.399920
Si Si2 0.827973 0.083546 0.987298
Si Si3 0.248423 0.409949 0.831896
Si Si4 0.566451 0.416390 0.753741
Si Si5 0.945372 0.588760 0.631419
Si Si6 0.771115 0.585925 0.772565
Si Si7 0.846088 0.910773 0.452948
Si Si8 0.329058 0.589893 0.977374
O O1 0.500000 0.500000 0.500000
O O2 0.367654 0.250000 0.432653
O O3 0.183799 0.459967 0.383284
O O4 0.217863 0.443398 0.289118
O O5 0.816123 0.250000 0.980047
O O6 0.718743 0.025164 0.876588
O O7 0.723405 0.027917 0.988863
O O8 0.039603 0.034139 0.099885
O O9 0.183275 0.250000 0.806944
O O10 0.227509 0.492289 0.879937
O O11 0.122419 0.487724 0.720960
O O12 0.453214 0.417677 0.914417
O O13 0.582234 0.250000 0.750626
O O14 0.605368 0.496622 0.714744
O O15 0.362269 0.452806 0.672405
O O16 0.008323 0.750000 0.672097
O O17 0.845899 0.566973 0.520405
O O18 0.735191 0.750000 0.765754
O O19 0.887943 0.750000 0.458366
O O20 0.000000 0.000000 0.500000
O O21 0.257703 0.750000 0.931753
#
# Coordination Sequence:
#
# PCOD8072890 Si02
#       8
#     4   4   4   4   4   4   4   4
#     4  10  21  37  59  84 112 149 189 231 283 340
#     4   9  18  34  58  82 108 149 193 228 276 339
#     4  10  20  32  53  83 110 142 186 235 279 326
#     4  10  21  38  60  83 111 149 193 235 278 336
#     4  10  21  38  57  79 111 150 186 223 282 346
#     4  10  20  35  57  86 117 148 185 230 284 337
#     4  10  23  40  60  84 112 149 191 236 286 337
#     4   9  18  34  54  77 110 149 185 227 281 337
#
# _framework density 19.657793000000002
#
# number of rings (size 3 to 8) (size 9 to 14) (size 15 to 20)
#    0.000    2.250    0.000    2.250    1.750    5.500 
#    0.000    2.500    0.000    0.000    0.000    0.000 
#    0.000    0.000    0.000    0.000    0.000    0.000 
#
# Total GULP energy -396801.587342 kJ/mol
# GULP energy per Si atom -12400.049604 kJ/mol
# Density = 1.961305 g / cm^3
# Si number density = 19.657793 Si / 1000 Ang^3
#
#
#
# Elastic Constant Matrix: (Units=GPa)
#
#
# Indices 1 2 3 4 5 6 
#
# 1 117.8435 40.9056 31.9192 0.0000 2.1094 0.0000
# 2 40.9056 71.3550 42.7459 0.0000 6.9689 0.0000
# 3 31.9192 42.7459 108.0724 0.0000 4.9090 0.0000
# 4 0.0000 0.0000 0.0000 31.3212 0.0000 2.6820
# 5 2.1094 6.9689 4.9090 0.0000 17.3667 0.0000
# 6 0.0000 0.0000 0.0000 2.6820 0.0000 29.9590
#
#
#
# Elastic Compliance Matrix: (Units=1/GPa)
#
#
# Indices 1 2 3 4 5 6 
#
# 1 0.010695 -0.005671 -0.000973 0.000000 0.001251 0.000000
# 2 -0.005671 0.021884 -0.006699 0.000000 -0.006199 0.000000
# 3 -0.000973 -0.006699 0.012220 0.000000 -0.000648 0.000000
# 4 0.000000 0.000000 0.000000 0.032174 0.000000 -0.002880
# 5 0.001251 -0.006199 -0.000648 0.000000 0.060100 0.000000
# 6 0.000000 0.000000 0.000000 -0.002880 0.000000 0.033637
#
#
# Mechanical properties :
#
#
# Convention : Reuss Voigt Hill
#
# Bulk Modulus (GPa) = 55.20837 58.71248 56.96042
# Shear Modulus (GPa) = 24.57809 27.84274 26.21041
#
# Velocity S-wave (km/s) = 3.53979 3.76755 3.65545
# Velocity P-wave (km/s) = 6.69720 6.98985 6.84509
#
# Compressibility (1/GPa) = 0.01811320
#
# Stress axis : x y z
#
# Youngs Moduli (GPa) = 93.49866 45.69533 81.83597
#
# Poissons Ratio (x) = 0.25913 0.07961
# Poissons Ratio (y) = 0.53021 0.54825
# Poissons Ratio (z) = 0.09095 0.30613
#
# Static dielectric constant tensor:
#      x y z
#    x 3.575570 0.000000 -0.082110 
#    y 0.000000 3.459040 0.000000 
#    z -0.082110 0.000000 3.736840 
# 
# 
# High freq. dielectric constant tensor:
#      x y z
#    x 1.769170 0.000000 -0.000900 
#    y 0.000000 1.746720 0.000000 
#    z -0.000900 0.000000 1.775220 
# 
# From -- ./inp_files/69081.got.cif
#   From: 2010.06.25/outbox.cif.g09.slc.cpg/sg11_35_cif.got.tgz:69081.got - 2010.06.27 23:14:04.
