data_PCOD8072017
_publ_section_title
;
Structure prediction by ZEFSAII (Michael W. Deem and Ramdas Pophale) SiO2 
 PCOD8072017
Probable space group: P 21/M
;
_chemical_formula_sum "Si O2"
_cell_formula_units_Z 32
_cell_length_a 21.050616
_cell_length_b 8.987281
_cell_length_c 25.288185
_cell_angle_alpha 90.000000
_cell_angle_beta 160.389714
_cell_angle_gamma 90.000000
_cell_volume 1605.681899
_symmetry_space_group_name_H-M "P 21/M"
_symmetry_group_IT_number 11
_symmetry_cell_setting 'monoclinic'
loop_
_space_group_symop_operation_xyz
x,y,z
-x,1/2+y,-z
-x,-y,-z
x,1/2-y,z
loop_
_atom_site_type_symbol
_atom_site_label
_atom_site_fract_x
_atom_site_fract_y
_atom_site_fract_z
Si Si1 0.690404 0.075889 0.667975
Si Si2 0.347697 0.421654 0.741077
Si Si3 0.644760 0.082237 0.411662
Si Si4 0.063111 0.425172 0.426077
Si Si5 0.936890 0.074828 0.073924
Si Si6 0.652305 0.421655 0.758924
Si Si7 0.690404 0.924111 0.167975
Si Si8 0.355238 0.082237 0.088337
O O1 0.681336 0.250000 0.648541
O O2 0.721797 0.044071 0.754555
O O3 0.500000 0.000000 0.500000
O O4 0.861328 0.004202 0.769611
O O5 0.399772 0.250000 0.773262
O O6 0.178740 0.469170 0.569488
O O7 0.278202 0.455926 0.745444
O O8 0.539408 0.513686 0.879962
O O9 0.708257 0.250000 0.474481
O O10 0.500000 0.076769 0.250000
O O11 0.828447 0.985269 0.540774
O O12 0.539407 0.013684 0.379960
O O13 0.033909 0.250000 0.397769
O O14 0.861328 0.504201 0.269612
O O15 0.966093 0.250000 0.102232
O O16 0.821261 0.030829 0.930512
O O17 0.828447 0.014733 0.040773
O O18 0.600235 0.250000 0.726742
O O19 0.681337 0.750000 0.148541
O O20 0.500000 0.000000 0.000000
O O21 0.291739 0.250000 0.025516
#
# Coordination Sequence:
#
# PCOD8072017 Si02
#       8
#     4   4   4   4   4   4   4   4
#     4  11  23  38  54  76 108 143 180 220 263 312
#     4   9  19  35  56  81 108 139 175 217 264 314
#     4   9  17  30  52  82 111 137 170 215 263 312
#     4  10  19  34  57  82 108 139 175 216 264 315
#     4  10  19  34  57  82 108 139 175 216 264 315
#     4   9  19  35  56  81 108 139 175 217 264 314
#     4  11  23  38  54  76 108 143 180 220 263 312
#     4   9  17  30  52  82 111 137 170 215 263 312
#
# _framework density 19.929227999999998
#
# number of rings (size 3 to 8) (size 9 to 14) (size 15 to 20)
#    0.000    2.250    0.000    3.000    0.000    6.000 
#    0.000    1.250    0.000    7.500    0.000    0.000 
#    0.000    0.000    0.000    0.000    0.000    0.000 
#
# Total GULP energy -396904.695330 kJ/mol
# GULP energy per Si atom -12403.271729 kJ/mol
# Density = 1.988387 g / cm^3
# Si number density = 19.929228 Si / 1000 Ang^3
#
#
#
# Elastic Constant Matrix: (Units=GPa)
#
#
# Indices 1 2 3 4 5 6 
#
# 1 34.7742 33.8584 29.0441 0.0000 29.7735 0.0000
# 2 33.8584 119.5069 59.4070 0.0000 25.4348 0.0000
# 3 29.0441 59.4070 111.9803 0.0000 34.8854 0.0000
# 4 0.0000 0.0000 0.0000 36.9789 0.0000 11.4636
# 5 29.7735 25.4348 34.8854 0.0000 35.5468 0.0000
# 6 0.0000 0.0000 0.0000 11.4636 0.0000 33.2334
#
#
#
# Elastic Compliance Matrix: (Units=1/GPa)
#
#
# Indices 1 2 3 4 5 6 
#
# 1 0.125290 -0.018394 0.008432 0.000000 -0.100055 0.000000
# 2 -0.018394 0.014322 -0.006387 0.000000 0.011427 0.000000
# 3 0.008432 -0.006387 0.015712 0.000000 -0.017912 0.000000
# 4 0.000000 0.000000 0.000000 0.030280 0.000000 -0.010445
# 5 -0.100055 0.011427 -0.017912 0.000000 0.121339 0.000000
# 6 0.000000 0.000000 0.000000 -0.010445 0.000000 0.033693
#
#
# Mechanical properties :
#
#
# Convention : Reuss Voigt Hill
#
# Bulk Modulus (GPa) = 8.15485 56.76449 32.45967
# Shear Modulus (GPa) = 12.07121 30.74861 21.40991
#
# Velocity S-wave (km/s) = 2.46378 3.93223 3.28120
# Velocity P-wave (km/s) = 3.49204 7.01152 5.53876
#
# Compressibility (1/GPa) = 0.12262642
#
# Stress axis : x y z
#
# Youngs Moduli (GPa) = 7.98148 69.82241 63.64722
#
# Poissons Ratio (x) = 1.28429 -0.53668
# Poissons Ratio (y) = 0.14681 0.40652
# Poissons Ratio (z) = -0.06730 0.44596
#
# Static dielectric constant tensor:
#      x y z
#    x 3.704640 0.000000 0.092250 
#    y 0.000000 3.709190 0.000000 
#    z 0.092250 0.000000 3.569190 
# 
# 
# High freq. dielectric constant tensor:
#      x y z
#    x 1.770170 0.000000 0.025240 
#    y 0.000000 1.787680 0.000000 
#    z 0.025240 0.000000 1.761680 
# 
# From -- ./inp_files/72158.got.cif
#   From: 2010.06.25/outbox.cif.g09.slc.cpg/sg11_37_cif.got.tgz:72158.got - 2010.06.27 23:14:04.
