data_PCOD8072447
_publ_section_title
;
Structure prediction by ZEFSAII (Michael W. Deem and Ramdas Pophale) SiO2 
 PCOD8072447
Probable space group: P 21/M
;
_chemical_formula_sum "Si O2"
_cell_formula_units_Z 32
_cell_length_a 27.124248
_cell_length_b 13.745470
_cell_length_c 9.052551
_cell_angle_alpha 90.000000
_cell_angle_beta 29.571470
_cell_angle_gamma 90.000000
_cell_volume 1665.647984
_symmetry_space_group_name_H-M "P 21/M"
_symmetry_group_IT_number 11
_symmetry_cell_setting 'monoclinic'
loop_
_space_group_symop_operation_xyz
x,y,z
-x,1/2+y,-z
-x,-y,-z
x,1/2-y,z
loop_
_atom_site_type_symbol
_atom_site_label
_atom_site_fract_x
_atom_site_fract_y
_atom_site_fract_z
Si Si1 0.178785 0.640286 0.089674
Si Si2 0.006437 0.525169 0.653078
Si Si3 0.705737 0.640776 0.194827
Si Si4 0.123884 0.361578 0.484196
Si Si5 0.277285 0.470885 0.274206
Si Si6 0.210443 0.018028 0.770918
Si Si7 0.664503 0.360885 0.077669
Si Si8 0.563041 0.865401 0.310856
O O1 0.151743 0.750000 0.117974
O O2 0.096136 0.603551 0.425114
O O3 0.184804 0.583194 0.919492
O O4 0.285685 0.631442 0.891153
O O5 0.029418 0.431009 0.696642
O O6 0.000000 0.500000 0.500000
O O7 0.897814 0.567691 0.983637
O O8 0.680141 0.750000 0.308452
O O9 0.717112 0.580964 0.314713
O O10 0.617545 0.599290 0.320128
O O11 0.809015 0.633705 0.837282
O O12 0.090316 0.250000 0.603656
O O13 0.185290 0.402418 0.463850
O O14 0.270436 0.496786 0.464049
O O15 0.274905 0.573260 0.194891
O O16 0.381273 0.414702 0.972937
O O17 0.666346 0.250000 0.014451
O O18 0.551203 0.399607 0.387215
O O19 0.574135 0.750000 0.263861
#
# Coordination Sequence:
#
# PCOD8072447 Si02
#       8
#     4   4   4   4   4   4   4   4
#     4  10  20  38  59  80 110 151 201 238 270 336
#     4  10  19  36  57  81 110 149 195 229 275 333
#     4   9  17  33  56  80 111 146 191 237 277 331
#     4  10  19  36  59  80 109 150 196 238 274 329
#     4  11  21  36  57  83 121 147 183 241 296 342
#     4  11  23  35  54  84 121 150 183 235 295 345
#     4  10  20  38  63  83 107 150 201 239 277 341
#     4   9  19  37  62  86 107 148 198 238 283 339
#
# _framework density 19.211742000000001
#
# number of rings (size 3 to 8) (size 9 to 14) (size 15 to 20)
#    0.000    2.000    3.750    2.250    0.000    4.500 
#    0.000    2.500    0.000    4.500    0.000    0.000 
#    0.000    0.000    0.000    0.000    0.000    0.000 
#
# Total GULP energy -396708.140102 kJ/mol
# GULP energy per Si atom -12397.129378 kJ/mol
# Density = 1.916802 g / cm^3
# Si number density = 19.211742 Si / 1000 Ang^3
#
#
#
# Elastic Constant Matrix: (Units=GPa)
#
#
# Indices 1 2 3 4 5 6 
#
# 1 85.1035 43.6478 55.1409 0.0000 0.2134 0.0000
# 2 43.6478 89.7991 39.4240 0.0000 6.4619 0.0000
# 3 55.1409 39.4240 78.6460 0.0000 1.1886 0.0000
# 4 0.0000 0.0000 0.0000 14.6730 0.0000 -6.2366
# 5 0.2134 6.4619 1.1886 0.0000 36.8820 0.0000
# 6 0.0000 0.0000 0.0000 -6.2366 0.0000 27.3350
#
#
#
# Elastic Compliance Matrix: (Units=1/GPa)
#
#
# Indices 1 2 3 4 5 6 
#
# 1 0.023431 -0.005461 -0.013710 0.000000 0.001263 0.000000
# 2 -0.005461 0.015744 -0.004024 0.000000 -0.002597 0.000000
# 3 -0.013710 -0.004024 0.024345 0.000000 0.000000 0.000000
# 4 0.000000 0.000000 0.000000 0.075471 0.000000 0.017219
# 5 0.001263 -0.002597 0.000000 0.000000 0.027561 0.000000
# 6 0.000000 0.000000 0.000000 0.017219 0.000000 0.040512
#
#
# Mechanical properties :
#
#
# Convention : Reuss Voigt Hill
#
# Bulk Modulus (GPa) = 58.37689 58.88600 58.63144
# Shear Modulus (GPa) = 19.29288 23.46705 21.37997
#
# Velocity S-wave (km/s) = 3.17239 3.49878 3.33957
# Velocity P-wave (km/s) = 6.62350 6.85854 6.74204
#
# Compressibility (1/GPa) = 0.01713007
#
# Stress axis : x y z
#
# Youngs Moduli (GPa) = 42.67878 63.51682 41.07673
#
# Poissons Ratio (x) = 0.34685 0.56315
# Poissons Ratio (y) = 0.23306 0.16530
# Poissons Ratio (z) = 0.58511 0.25560
#
# Static dielectric constant tensor:
#      x y z
#    x 3.489160 0.000000 -0.368880 
#    y 0.000000 3.696000 0.000000 
#    z -0.368880 0.000000 3.549620 
# 
# 
# High freq. dielectric constant tensor:
#      x y z
#    x 1.743150 0.000000 -0.024160 
#    y 0.000000 1.754070 0.000000 
#    z -0.024160 0.000000 1.717090 
# 
# From -- ./inp_files/28856.got.cif
#   From: 2010.06.25/outbox.cif.g09.slc.cpg/sg11_15_cif.got.tgz:28856.got - 2010.06.27 23:14:04.
