data_PCOD8072099
_publ_section_title
;
Structure prediction by ZEFSAII (Michael W. Deem and Ramdas Pophale) SiO2 
 PCOD8072099
Probable space group: P 21/M
;
_chemical_formula_sum "Si O2"
_cell_formula_units_Z 32
_cell_length_a 21.664762
_cell_length_b 8.678254
_cell_length_c 28.058690
_cell_angle_alpha 90.000000
_cell_angle_beta 18.903631
_cell_angle_gamma 90.000000
_cell_volume 1709.103451
_symmetry_space_group_name_H-M "P 21/M"
_symmetry_group_IT_number 11
_symmetry_cell_setting 'monoclinic'
loop_
_space_group_symop_operation_xyz
x,y,z
-x,1/2+y,-z
-x,-y,-z
x,1/2-y,z
loop_
_atom_site_type_symbol
_atom_site_label
_atom_site_fract_x
_atom_site_fract_y
_atom_site_fract_z
Si Si1 0.448943 0.567324 0.087948
Si Si2 0.930442 0.931044 0.894722
Si Si3 0.365334 0.930330 0.957807
Si Si4 0.200051 0.931134 0.838396
Si Si5 0.957204 0.429824 0.581704
Si Si6 0.696652 0.932774 0.337982
Si Si7 0.636217 0.928015 0.192391
Si Si8 0.646350 0.928048 0.668441
O O1 0.454402 0.750000 0.081843
O O2 0.599361 0.509440 0.017219
O O3 0.238147 0.503431 0.254311
O O4 0.500000 0.500000 0.000000
O O5 0.953550 0.750000 0.870455
O O6 0.809655 0.969254 0.030350
O O7 0.136168 0.008219 0.749525
O O8 0.827611 0.001469 0.923664
O O9 0.337971 0.750000 0.985704
O O10 0.544160 0.968422 0.793059
O O11 0.180476 0.750000 0.843728
O O12 0.271751 0.010872 0.738495
O O13 0.349764 0.967121 0.770926
O O14 0.000000 0.000000 0.000000
O O15 0.938518 0.250000 0.587292
O O16 0.000000 0.500000 0.500000
O O17 0.130670 0.468087 0.490791
O O18 0.690780 0.750000 0.343699
O O19 0.500000 0.000000 0.500000
O O20 0.640454 0.750000 0.204100
O O21 0.436872 0.966630 0.312695
O O22 0.609714 0.750000 0.682434
#
# Coordination Sequence:
#
# PCOD8072099 Si02
#       8
#     4   4   4   4   4   4   4   4
#     4  11  23  38  57  83 117 155 197 241 293 352
#     4  10  20  36  59  87 120 154 197 244 291 349
#     4  10  19  34  58  85 115 150 193 241 294 351
#     4  12  23  38  61  89 120 155 197 245 297 352
#     4  10  20  35  57  84 113 146 187 236 288 343
#     4  12  25  42  63  89 123 160 201 246 297 355
#     4  10  20  34  56  87 120 153 194 243 296 350
#     4   9  18  33  54  83 116 148 187 239 297 351
#
# _framework density 18.723265999999999
#
# number of rings (size 3 to 8) (size 9 to 14) (size 15 to 20)
#    0.000    1.500    2.500    3.750    0.000    2.500 
#    0.000    1.250    0.000    1.500    0.000    0.000 
#    0.000    0.000    0.000    0.000    0.000    0.000 
#
# Total GULP energy -396930.768603 kJ/mol
# GULP energy per Si atom -12404.086519 kJ/mol
# Density = 1.868065 g / cm^3
# Si number density = 18.723266 Si / 1000 Ang^3
#
#
#
# Elastic Constant Matrix: (Units=GPa)
#
#
# Indices 1 2 3 4 5 6 
#
# 1 141.4765 53.3141 73.2930 0.0000 -7.7743 0.0000
# 2 53.3141 96.3989 50.2934 0.0000 -6.7194 0.0000
# 3 73.2930 50.2934 126.9240 0.0000 -7.7000 0.0000
# 4 0.0000 0.0000 0.0000 27.5834 0.0000 -2.7105
# 5 -7.7743 -6.7194 -7.7000 0.0000 28.0326 0.0000
# 6 0.0000 0.0000 0.0000 -2.7105 0.0000 38.7429
#
#
#
# Elastic Compliance Matrix: (Units=1/GPa)
#
#
# Indices 1 2 3 4 5 6 
#
# 1 0.010956 -0.003436 -0.004912 0.000000 0.000865 0.000000
# 2 -0.003436 0.014239 -0.003568 0.000000 0.001480 0.000000
# 3 -0.004912 -0.003568 0.012198 0.000000 0.001133 0.000000
# 4 0.000000 0.000000 0.000000 0.036505 0.000000 0.002554
# 5 0.000865 0.001480 0.001133 0.000000 0.036579 0.000000
# 6 0.000000 0.000000 0.000000 0.002554 0.000000 0.025990
#
#
# Mechanical properties :
#
#
# Convention : Reuss Voigt Hill
#
# Bulk Modulus (GPa) = 73.75000 79.84448 76.79724
# Shear Modulus (GPa) = 30.33653 31.39838 30.86745
#
# Velocity S-wave (km/s) = 4.02961 4.09953 4.06472
# Velocity P-wave (km/s) = 7.81827 8.07126 7.94577
#
# Compressibility (1/GPa) = 0.01355932
#
# Stress axis : x y z
#
# Youngs Moduli (GPa) = 91.27820 70.23210 81.98044
#
# Poissons Ratio (x) = 0.24130 0.40272
# Poissons Ratio (y) = 0.31361 0.29252
# Poissons Ratio (z) = 0.44839 0.25060
#
# Static dielectric constant tensor:
#      x y z
#    x 3.856690 0.000000 -0.108260 
#    y 0.000000 3.568080 0.000000 
#    z -0.108260 0.000000 3.660580 
# 
# 
# High freq. dielectric constant tensor:
#      x y z
#    x 1.734670 0.000000 -0.018810 
#    y 0.000000 1.738890 0.000000 
#    z -0.018810 0.000000 1.709150 
# 
# From -- ./inp_files/67224.got.cif
#   From: 2010.06.25/outbox.cif.g09.slc.cpg/sg11_34_cif.got.tgz:67224.got - 2010.06.27 23:14:04.
