data_PCOD8072409
_publ_section_title
;
Structure prediction by ZEFSAII (Michael W. Deem and Ramdas Pophale) SiO2 
 PCOD8072409
Probable space group: P 21/M
;
_chemical_formula_sum "Si O2"
_cell_formula_units_Z 32
_cell_length_a 19.222073
_cell_length_b 17.883994
_cell_length_c 13.789658
_cell_angle_alpha 90.000000
_cell_angle_beta 160.125521
_cell_angle_gamma 90.000000
_cell_volume 1611.561682
_symmetry_space_group_name_H-M "P 21/M"
_symmetry_group_IT_number 11
_symmetry_cell_setting 'monoclinic'
loop_
_space_group_symop_operation_xyz
x,y,z
-x,1/2+y,-z
-x,-y,-z
x,1/2-y,z
loop_
_atom_site_type_symbol
_atom_site_label
_atom_site_fract_x
_atom_site_fract_y
_atom_site_fract_z
Si Si1 0.131964 0.079728 0.054038
Si Si2 0.445738 0.985217 0.191082
Si Si3 0.685897 0.331234 0.953286
Si Si4 0.106887 0.336422 0.618113
Si Si5 0.927587 0.934929 0.236698
Si Si6 0.695307 0.527706 0.198895
Si Si7 0.456296 0.833711 0.435684
Si Si8 0.217108 0.569312 0.266008
O O1 0.350238 0.119586 0.349902
O O2 0.156210 0.990282 0.103129
O O3 0.034168 0.098843 0.820432
O O4 0.977014 0.107980 0.935653
O O5 0.661340 0.025861 0.488335
O O6 0.477803 0.895878 0.237639
O O7 0.283804 0.018706 0.056232
O O8 0.327604 0.997859 0.937720
O O9 0.596534 0.250000 0.867649
O O10 0.714108 0.332353 0.873242
O O11 0.896157 0.345630 0.284358
O O12 0.175656 0.250000 0.715668
O O13 0.085684 0.369796 0.699336
O O14 0.275053 0.382263 0.774418
O O15 0.104471 0.993227 0.491646
O O16 0.500000 0.500000 0.000000
O O17 0.529536 0.750000 0.557672
O O18 0.357804 0.867267 0.403575
#
# Coordination Sequence:
#
# PCOD8072409 Si02
#       8
#     4   4   4   4   4   4   4   4
#     4  11  23  38  63  91 122 158 207 250 302 359
#     4  11  18  38  62  85 115 155 204 246 296 355
#     4  10  19  35  62  88 113 151 197 245 302 358
#     4  10  21  39  61  87 117 157 204 252 306 364
#     4  11  20  37  62  87 114 161 203 250 302 363
#     4  11  22  36  57  89 122 155 202 254 302 365
#     4  11  23  40  62  87 122 162 197 248 307 362
#     4  11  23  39  62  91 120 159 207 255 295 362
#
# _framework density 19.856515000000002
#
# number of rings (size 3 to 8) (size 9 to 14) (size 15 to 20)
#    0.000    1.250    5.000    2.625    0.000    1.000 
#    0.000    1.250    0.000    1.500    0.000    0.000 
#    0.000    0.000    0.000    0.000    0.000    0.000 
#
# Total GULP energy -396523.413764 kJ/mol
# GULP energy per Si atom -12391.356680 kJ/mol
# Density = 1.981132 g / cm^3
# Si number density = 19.856515 Si / 1000 Ang^3
#
#
#
# Elastic Constant Matrix: (Units=GPa)
#
#
# Indices 1 2 3 4 5 6 
#
# 1 96.2134 54.6889 48.7821 0.0000 8.9428 0.0000
# 2 54.6889 133.2625 31.1299 0.0000 9.4974 0.0000
# 3 48.7821 31.1299 81.8201 0.0000 -3.6694 0.0000
# 4 0.0000 0.0000 0.0000 21.7392 0.0000 -2.9381
# 5 8.9428 9.4974 -3.6694 0.0000 43.5075 0.0000
# 6 0.0000 0.0000 0.0000 -2.9381 0.0000 22.4683
#
#
#
# Elastic Compliance Matrix: (Units=1/GPa)
#
#
# Indices 1 2 3 4 5 6 
#
# 1 0.018212 -0.005115 -0.009064 0.000000 -0.003391 0.000000
# 2 -0.005115 0.009862 -0.000755 0.000000 -0.001165 0.000000
# 3 -0.009064 -0.000755 0.018073 0.000000 0.003552 0.000000
# 4 0.000000 0.000000 0.000000 0.046827 0.000000 0.006123
# 5 -0.003391 -0.001165 0.003552 0.000000 0.024236 0.000000
# 6 0.000000 0.000000 0.000000 0.006123 0.000000 0.045308
#
#
# Mechanical properties :
#
#
# Convention : Reuss Voigt Hill
#
# Bulk Modulus (GPa) = 61.42949 64.49977 62.96463
# Shear Modulus (GPa) = 25.27650 29.32268 27.29959
#
# Velocity S-wave (km/s) = 3.57172 3.84699 3.71191
# Velocity P-wave (km/s) = 6.92917 7.23090 7.08164
#
# Compressibility (1/GPa) = 0.01627883
#
# Stress axis : x y z
#
# Youngs Moduli (GPa) = 54.90947 101.39469 55.33207
#
# Poissons Ratio (x) = 0.51861 0.50154
# Poissons Ratio (y) = 0.28085 0.04178
# Poissons Ratio (z) = 0.49771 0.07656
#
# Static dielectric constant tensor:
#      x y z
#    x 3.497580 0.000000 -0.120780 
#    y 0.000000 3.696550 0.000000 
#    z -0.120780 0.000000 3.695970 
# 
# 
# High freq. dielectric constant tensor:
#      x y z
#    x 1.764290 0.000000 -0.022690 
#    y 0.000000 1.768580 0.000000 
#    z -0.022690 0.000000 1.777760 
# 
# From -- ./inp_files/55117.got.cif
#   From: 2010.06.25/outbox.cif.g09.slc.cpg/sg11_28_cif.got.tgz:55117.got - 2010.06.27 23:14:04.
