data_PCOD8072784
_publ_section_title
;
Structure prediction by ZEFSAII (Michael W. Deem and Ramdas Pophale) SiO2 
 PCOD8072784
Probable space group: P 21/M
;
_chemical_formula_sum "Si O2"
_cell_formula_units_Z 32
_cell_length_a 14.792732
_cell_length_b 8.987857
_cell_length_c 15.203493
_cell_angle_alpha 90.000000
_cell_angle_beta 84.855510
_cell_angle_gamma 90.000000
_cell_volume 2013.237156
_symmetry_space_group_name_H-M "P 21/M"
_symmetry_group_IT_number 11
_symmetry_cell_setting 'monoclinic'
loop_
_space_group_symop_operation_xyz
x,y,z
-x,1/2+y,-z
-x,-y,-z
x,1/2-y,z
loop_
_atom_site_type_symbol
_atom_site_label
_atom_site_fract_x
_atom_site_fract_y
_atom_site_fract_z
Si Si1 0.795732 0.926660 0.932321
Si Si2 0.398562 0.085727 0.098401
Si Si3 0.568208 0.914813 0.110691
Si Si4 0.250725 0.574987 0.883577
Si Si5 0.089318 0.419414 0.381893
Si Si6 0.079717 0.579332 0.211999
Si Si7 0.907609 0.580308 0.429388
Si Si8 0.865272 0.917403 0.245768
O O1 0.800168 0.750000 0.944087
O O2 0.704910 0.973509 0.885971
O O3 0.882780 0.985322 0.872930
O O4 0.795490 0.998073 0.028651
O O5 0.406259 0.250000 0.139380
O O6 0.468964 0.980328 0.143984
O O7 0.423521 0.093184 0.994196
O O8 0.576111 0.750000 0.151122
O O9 0.647357 0.017602 0.143066
O O10 0.253540 0.750000 0.898799
O O11 0.190608 0.537249 0.804050
O O12 0.096845 0.250000 0.348443
O O13 0.125320 0.522582 0.299480
O O14 0.142487 0.442260 0.471116
O O15 0.985447 0.457452 0.413260
O O16 0.106642 0.750000 0.196419
O O17 0.972311 0.553942 0.223954
O O18 0.948210 0.750000 0.421726
O O19 0.840369 0.561072 0.351654
O O20 0.840511 0.750000 0.216797
#
# Coordination Sequence:
#
# PCOD8072784 Si02
#       8
#     4   4   4   4   4   4   4   4
#     4  10  20  33  47  62  84 115 148 181 215 252
#     4   8  15  27  43  63  83 104 134 173 215 255
#     4   9  16  27  44  63  83 108 136 170 214 258
#     4  11  21  31  44  62  85 114 148 183 216 252
#     4   9  15  25  43  64  84 107 137 174 217 260
#     4  10  20  32  45  62  86 116 148 182 216 252
#     4   8  15  27  43  62  83 108 138 175 217 257
#     4   9  18  32  45  59  84 116 149 182 214 250
#
# _framework density 15.894799000000001
#
# number of rings (size 3 to 8) (size 9 to 14) (size 15 to 20)
#    0.000    2.750    0.000    4.125    0.000    7.000 
#    0.000    0.000    0.000    0.000    0.000    0.000 
#    0.000    1.000    0.000    3.000    0.000    4.500 
#
# Total GULP energy -396550.773128 kJ/mol
# GULP energy per Si atom -12392.211660 kJ/mol
# Density = 1.585862 g / cm^3
# Si number density = 15.894799 Si / 1000 Ang^3
#
#
#
# Elastic Constant Matrix: (Units=GPa)
#
#
# Indices 1 2 3 4 5 6 
#
# 1 50.9290 32.4819 28.0472 0.0000 13.5044 0.0000
# 2 32.4819 94.6133 33.7406 0.0000 12.8687 0.0000
# 3 28.0472 33.7406 63.9996 0.0000 21.2687 0.0000
# 4 0.0000 0.0000 0.0000 22.5772 0.0000 1.5769
# 5 13.5044 12.8687 21.2687 0.0000 8.5858 0.0000
# 6 0.0000 0.0000 0.0000 1.5769 0.0000 23.6016
#
#
#
# Elastic Compliance Matrix: (Units=1/GPa)
#
#
# Indices 1 2 3 4 5 6 
#
# 1 0.040311 -0.007056 0.020424 0.000000 -0.103421 0.000000
# 2 -0.007056 0.014565 -0.005769 0.000000 0.003560 0.000000
# 3 0.020424 -0.005769 0.099103 0.000000 -0.268973 0.000000
# 4 0.000000 0.000000 0.000000 0.044500 0.000000 -0.002973
# 5 -0.103421 0.003560 -0.268973 0.000000 0.940101 0.000000
# 6 0.000000 0.000000 0.000000 -0.002973 0.000000 0.042569
#
#
# Mechanical properties :
#
#
# Convention : Reuss Voigt Hill
#
# Bulk Modulus (GPa) = 5.91102 44.23127 25.07115
# Shear Modulus (GPa) = 4.09050 18.63773 11.36412
#
# Velocity S-wave (km/s) = 1.60595 3.42799 2.67677
# Velocity P-wave (km/s) = 2.67688 6.59970 5.03596
#
# Compressibility (1/GPa) = 0.16917552
#
# Stress axis : x y z
#
# Youngs Moduli (GPa) = 24.80701 68.65743 10.09050
#
# Poissons Ratio (x) = 0.48445 -0.20608
# Poissons Ratio (y) = 0.17504 0.05822
# Poissons Ratio (z) = -0.50665 0.39611
#
# Static dielectric constant tensor:
#      x y z
#    x 2.872540 0.000000 0.094980 
#    y 0.000000 3.165790 0.000000 
#    z 0.094980 0.000000 3.003210 
# 
# 
# High freq. dielectric constant tensor:
#      x y z
#    x 1.572890 0.000000 0.012580 
#    y 0.000000 1.625120 0.000000 
#    z 0.012580 0.000000 1.584980 
# 
# From -- ./inp_files/51242.got.cif
#   From: 2010.06.25/outbox.cif.g09.slc.cpg/sg11_26_cif.got.tgz:51242.got - 2010.06.27 23:14:04.
