data_PCOD8072200
_publ_section_title
;
Structure prediction by ZEFSAII (Michael W. Deem and Ramdas Pophale) SiO2 
 PCOD8072200
Probable space group: P 21/M
;
_chemical_formula_sum "Si O2"
_cell_formula_units_Z 32
_cell_length_a 13.537149
_cell_length_b 9.495073
_cell_length_c 20.471609
_cell_angle_alpha 90.000000
_cell_angle_beta 39.224824
_cell_angle_gamma 90.000000
_cell_volume 1663.969330
_symmetry_space_group_name_H-M "P 21/M"
_symmetry_group_IT_number 11
_symmetry_cell_setting 'monoclinic'
loop_
_space_group_symop_operation_xyz
x,y,z
-x,1/2+y,-z
-x,-y,-z
x,1/2-y,z
loop_
_atom_site_type_symbol
_atom_site_label
_atom_site_fract_x
_atom_site_fract_y
_atom_site_fract_z
Si Si1 0.876567 0.088128 0.423011
Si Si2 0.328201 0.405222 0.711232
Si Si3 0.343462 0.912183 0.588034
Si Si4 0.388904 0.582958 0.346922
Si Si5 0.240960 0.916657 0.043501
Si Si6 0.833731 0.412464 0.772013
Si Si7 0.533088 0.413834 0.838030
Si Si8 0.004062 0.097994 0.937262
O O1 0.928467 0.250000 0.404267
O O2 0.764269 0.069373 0.419043
O O3 0.779550 0.036388 0.537009
O O4 0.030189 0.996110 0.334632
O O5 0.376167 0.250000 0.657348
O O6 0.262738 0.514282 0.691228
O O7 0.473438 0.472909 0.676265
O O8 0.185578 0.382678 0.831860
O O9 0.379485 0.750000 0.584570
O O10 0.500000 0.000000 0.500000
O O11 0.397419 0.750000 0.342286
O O12 0.415682 0.527098 0.259614
O O13 0.275717 0.750000 0.026229
O O14 0.197364 0.968687 0.138763
O O15 0.093851 0.959973 0.074048
O O16 0.391175 0.996768 0.939227
O O17 0.885154 0.250000 0.747312
O O18 0.676819 0.435783 0.812405
O O19 0.483622 0.250000 0.859411
O O20 0.932199 0.250000 0.992935
O O21 0.000000 0.000000 0.000000
#
# Coordination Sequence:
#
# PCOD8072200 Si02
#       8
#     4   4   4   4   4   4   4   4
#     4  10  21  37  56  81 114 151 186 223 275 334
#     4  10  19  35  56  78 111 153 187 222 277 330
#     4  11  21  34  54  81 110 144 184 224 266 321
#     4   9  18  35  56  80 113 149 185 227 275 330
#     4  10  21  38  57  82 117 147 180 233 290 334
#     4  10  22  39  59  85 112 142 186 237 284 332
#     4  10  21  38  62  85 106 143 192 234 279 339
#     4  10  21  35  55  81 113 153 187 225 278 333
#
# _framework density 19.231124000000001
#
# number of rings (size 3 to 8) (size 9 to 14) (size 15 to 20)
#    0.000    2.000    1.250    2.250    0.000    5.500 
#    0.000    1.250    0.000    0.000    0.000    0.000 
#    0.000    0.000    0.000    0.000    0.000    0.000 
#
# Total GULP energy -396668.129082 kJ/mol
# GULP energy per Si atom -12395.879034 kJ/mol
# Density = 1.918735 g / cm^3
# Si number density = 19.231124 Si / 1000 Ang^3
#
#
#
# Elastic Constant Matrix: (Units=GPa)
#
#
# Indices 1 2 3 4 5 6 
#
# 1 82.1788 29.5102 49.2756 0.0000 7.6892 0.0000
# 2 29.5102 61.4774 43.5126 0.0000 -0.6204 0.0000
# 3 49.2756 43.5126 140.9326 0.0000 1.1694 0.0000
# 4 0.0000 0.0000 0.0000 32.0339 0.0000 -4.3928
# 5 7.6892 -0.6204 1.1694 0.0000 33.1945 0.0000
# 6 0.0000 0.0000 0.0000 -4.3928 0.0000 26.0509
#
#
#
# Elastic Compliance Matrix: (Units=1/GPa)
#
#
# Indices 1 2 3 4 5 6 
#
# 1 0.016959 -0.005126 -0.004315 0.000000 -0.003872 0.000000
# 2 -0.005126 0.022376 -0.005131 0.000000 0.001786 0.000000
# 3 -0.004315 -0.005131 0.010184 0.000000 0.000545 0.000000
# 4 0.000000 0.000000 0.000000 0.031956 0.000000 0.005388
# 5 -0.003872 0.001786 0.000545 0.000000 0.031037 0.000000
# 6 0.000000 0.000000 0.000000 0.005388 0.000000 0.039295
#
#
# Mechanical properties :
#
#
# Convention : Reuss Voigt Hill
#
# Bulk Modulus (GPa) = 49.07837 58.79841 53.93839
# Shear Modulus (GPa) = 26.63229 29.07521 27.85375
#
# Velocity S-wave (km/s) = 3.72540 3.89251 3.80987
# Velocity P-wave (km/s) = 6.63931 7.13044 6.88926
#
# Compressibility (1/GPa) = 0.02037558
#
# Stress axis : x y z
#
# Youngs Moduli (GPa) = 58.96683 44.68981 98.19336
#
# Poissons Ratio (x) = 0.22906 0.42368
# Poissons Ratio (y) = 0.30224 0.50387
# Poissons Ratio (z) = 0.25443 0.22932
#
# Static dielectric constant tensor:
#      x y z
#    x 4.320450 0.000000 0.086530 
#    y 0.000000 4.545940 0.000000 
#    z 0.086530 0.000000 3.739450 
# 
# 
# High freq. dielectric constant tensor:
#      x y z
#    x 1.752050 0.000000 0.002780 
#    y 0.000000 1.730700 0.000000 
#    z 0.002780 0.000000 1.758950 
# 
# From -- ./inp_files/65208.got.cif
#   From: 2010.06.25/outbox.cif.g09.slc.cpg/sg11_33_cif.got.tgz:65208.got - 2010.06.27 23:14:04.
