data_PCOD8072999
_publ_section_title
;
Structure prediction by ZEFSAII (Michael W. Deem and Ramdas Pophale) SiO2 
 PCOD8072999
Probable space group: P 21/M
;
_chemical_formula_sum "Si O2"
_cell_formula_units_Z 24
_cell_length_a 5.075992
_cell_length_b 16.461799
_cell_length_c 15.207523
_cell_angle_alpha 90.000000
_cell_angle_beta 92.118421
_cell_angle_gamma 90.000000
_cell_volume 1269.871541
_symmetry_space_group_name_H-M "P 21/M"
_symmetry_group_IT_number 11
_symmetry_cell_setting 'monoclinic'
loop_
_space_group_symop_operation_xyz
x,y,z
-x,1/2+y,-z
-x,-y,-z
x,1/2-y,z
loop_
_atom_site_type_symbol
_atom_site_label
_atom_site_fract_x
_atom_site_fract_y
_atom_site_fract_z
Si Si1 0.010872 0.844842 0.868661
Si Si2 0.455676 0.016458 0.730981
Si Si3 0.520109 0.945391 0.914764
Si Si4 0.052024 0.077147 0.313312
Si Si5 0.034619 0.344193 0.498984
Si Si6 0.445116 0.844154 0.390240
O O1 0.994547 0.750000 0.891958
O O2 0.788937 0.894274 0.918705
O O3 0.977548 0.854913 0.763030
O O4 0.288361 0.879866 0.904371
O O5 0.516193 0.009809 0.834883
O O6 0.649440 0.955374 0.681344
O O7 0.152593 0.995204 0.708166
O O8 0.508749 0.108075 0.699913
O O9 0.500000 0.000000 0.000000
O O10 0.983235 0.112814 0.406618
O O11 0.987235 0.250000 0.481661
O O12 0.823545 0.375256 0.567967
O O13 0.324514 0.363185 0.537673
O O14 0.434903 0.750000 0.364014
#
# Coordination Sequence:
#
# PCOD8072999 Si02
#       6
#     4   4   4   4   4   4
#     4  10  20  36  58  84 112 139 173 218 269 322
#     4  10  21  35  53  76 101 136 174 213 266 310
#     4  10  21  38  59  81 110 142 174 220 273 323
#     4  10  20  33  53  79 105 135 171 214 261 313
#     4  10  20  33  50  73 104 140 173 210 255 299
#     4  10  21  35  49  69 102 140 177 215 252 299
#
# _framework density 18.899547999999999
#
# number of rings (size 3 to 8) (size 9 to 14) (size 15 to 20)
#    0.000    2.000    0.000    3.500    0.000    4.000 
#    0.000    6.667    0.000    2.000    0.000    0.000 
#    0.000    0.000    0.000    0.000    0.000    0.000 
#
# Total GULP energy -297666.003659 kJ/mol
# GULP energy per Si atom -12402.750152 kJ/mol
# Density = 1.885653 g / cm^3
# Si number density = 18.899548 Si / 1000 Ang^3
#
#
#
# Elastic Constant Matrix: (Units=GPa)
#
#
# Indices 1 2 3 4 5 6 
#
# 1 87.1385 15.4568 17.0312 0.0000 -14.0655 0.0000
# 2 15.4568 80.7252 63.8162 0.0000 -10.8295 0.0000
# 3 17.0312 63.8162 103.3352 0.0000 -16.7847 0.0000
# 4 0.0000 0.0000 0.0000 23.0043 0.0000 -6.2046
# 5 -14.0655 -10.8295 -16.7847 0.0000 22.4384 0.0000
# 6 0.0000 0.0000 0.0000 -6.2046 0.0000 19.6952
#
#
#
# Elastic Compliance Matrix: (Units=1/GPa)
#
#
# Indices 1 2 3 4 5 6 
#
# 1 0.012932 -0.001463 -0.000029 0.000000 0.007378 0.000000
# 2 -0.001463 0.024376 -0.014856 0.000000 -0.000265 0.000000
# 3 -0.000029 -0.014856 0.020136 0.000000 0.007874 0.000000
# 4 0.000000 0.000000 0.000000 0.047507 0.000000 0.014966
# 5 0.007378 -0.000265 0.007874 0.000000 0.054954 0.000000
# 6 0.000000 0.000000 0.000000 0.014966 0.000000 0.055489
#
#
# Mechanical properties :
#
#
# Convention : Reuss Voigt Hill
#
# Bulk Modulus (GPa) = 40.40842 51.53414 45.97128
# Shear Modulus (GPa) = 19.50540 24.68723 22.09632
#
# Velocity S-wave (km/s) = 3.21605 3.61811 3.42299
# Velocity P-wave (km/s) = 5.93445 6.69185 6.32450
#
# Compressibility (1/GPa) = 0.02474731
#
# Stress axis : x y z
#
# Youngs Moduli (GPa) = 77.32606 41.02316 49.66341
#
# Poissons Ratio (x) = 0.06002 0.00146
# Poissons Ratio (y) = 0.11314 0.73780
# Poissons Ratio (z) = 0.00227 0.60944
#
# Static dielectric constant tensor:
#      x y z
#    x 3.737110 0.000000 -0.105600 
#    y 0.000000 3.311300 0.000000 
#    z -0.105600 0.000000 3.335040 
# 
# 
# High freq. dielectric constant tensor:
#      x y z
#    x 1.757550 0.000000 -0.005880 
#    y 0.000000 1.725010 0.000000 
#    z -0.005880 0.000000 1.719570 
# 
# From -- ./inp_files/4632.got.cif
#   From: 2010.06.25/outbox.cif.g09.slc.cpg/sg11_3_cif.got.tgz:4632.got - 2010.06.27 23:14:04.
