data_PCOD8072319
_publ_section_title
;
Structure prediction by ZEFSAII (Michael W. Deem and Ramdas Pophale) SiO2 
 PCOD8072319
Probable space group: P 21/M
;
_chemical_formula_sum "Si O2"
_cell_formula_units_Z 24
_cell_length_a 23.778053
_cell_length_b 8.681704
_cell_length_c 12.304002
_cell_angle_alpha 90.000000
_cell_angle_beta 29.955876
_cell_angle_gamma 90.000000
_cell_volume 1268.287919
_symmetry_space_group_name_H-M "P 21/M"
_symmetry_group_IT_number 11
_symmetry_cell_setting 'monoclinic'
loop_
_space_group_symop_operation_xyz
x,y,z
-x,1/2+y,-z
-x,-y,-z
x,1/2-y,z
loop_
_atom_site_type_symbol
_atom_site_label
_atom_site_fract_x
_atom_site_fract_y
_atom_site_fract_z
Si Si1 0.727536 0.073269 0.833327
Si Si2 0.890689 0.567404 0.976024
Si Si3 0.279380 0.430789 0.557876
Si Si4 0.885934 0.933067 0.738971
Si Si5 0.862390 0.426624 0.390299
Si Si6 0.494701 0.068893 0.889127
O O1 0.698698 0.250000 0.906846
O O2 0.819085 0.059526 0.585363
O O3 0.777744 0.993865 0.855891
O O4 0.614107 0.986558 0.992462
O O5 0.894920 0.750000 0.967570
O O6 0.791078 0.507853 0.220636
O O7 0.871223 0.506337 0.886915
O O8 0.010041 0.509725 0.824354
O O9 0.302863 0.250000 0.525518
O O10 0.211429 0.464466 0.561839
O O11 0.397145 0.519401 0.361515
O O12 0.891862 0.750000 0.722988
O O13 0.000000 0.000000 0.500000
O O14 0.853158 0.250000 0.364995
O O15 0.492118 0.250000 0.906527
O O16 0.500000 0.000000 0.000000
#
# Coordination Sequence:
#
# PCOD8072319 Si02
#       6
#     4   4   4   4   4   4
#     4  11  22  38  61  90 120 150 195 247 294 344
#     4   9  20  38  58  84 121 159 193 239 293 345
#     4  11  22  37  59  87 119 156 197 239 292 351
#     4  11  21  38  61  87 120 158 200 243 291 345
#     4  10  19  35  58  85 121 156 188 238 295 347
#     4  12  24  40  61  86 117 154 196 242 292 347
#
# _framework density 18.923148000000001
#
# number of rings (size 3 to 8) (size 9 to 14) (size 15 to 20)
#    0.000    1.333    3.333    3.500    0.000    0.667 
#    0.000    5.000    0.000    0.000    0.000    0.000 
#    0.000    0.000    0.000    0.000    0.000    0.000 
#
# Total GULP energy -297699.576028 kJ/mol
# GULP energy per Si atom -12404.149001 kJ/mol
# Density = 1.888008 g / cm^3
# Si number density = 18.923148 Si / 1000 Ang^3
#
#
#
# Elastic Constant Matrix: (Units=GPa)
#
#
# Indices 1 2 3 4 5 6 
#
# 1 97.3150 32.8594 36.7759 0.0000 -18.1916 0.0000
# 2 32.8594 97.2768 37.6941 0.0000 -8.3174 0.0000
# 3 36.7759 37.6941 119.0340 0.0000 -18.7111 0.0000
# 4 0.0000 0.0000 0.0000 27.5901 0.0000 -6.5713
# 5 -18.1916 -8.3174 -18.7111 0.0000 34.5064 0.0000
# 6 0.0000 0.0000 0.0000 -6.5713 0.0000 28.8913
#
#
#
# Elastic Compliance Matrix: (Units=1/GPa)
#
#
# Indices 1 2 3 4 5 6 
#
# 1 0.013115 -0.003122 -0.002290 0.000000 0.004920 0.000000
# 2 -0.003122 0.012486 -0.003034 0.000000 -0.000281 0.000000
# 3 -0.002290 -0.003034 0.010674 0.000000 0.003850 0.000000
# 4 0.000000 0.000000 0.000000 0.038321 0.000000 0.008716
# 5 0.004920 -0.000281 0.003850 0.000000 0.033594 0.000000
# 6 0.000000 0.000000 0.000000 0.008716 0.000000 0.036595
#
#
# Mechanical properties :
#
#
# Convention : Reuss Voigt Hill
#
# Bulk Modulus (GPa) = 51.58857 58.69831 55.14344
# Shear Modulus (GPa) = 29.73754 31.95064 30.84409
#
# Velocity S-wave (km/s) = 3.96850 4.11352 4.04166
# Velocity P-wave (km/s) = 6.95126 7.32449 7.14031
#
# Compressibility (1/GPa) = 0.01938414
#
# Stress axis : x y z
#
# Youngs Moduli (GPa) = 76.24705 80.08956 93.68403
#
# Poissons Ratio (x) = 0.25006 0.21453
# Poissons Ratio (y) = 0.23806 0.28419
# Poissons Ratio (z) = 0.17460 0.24295
#
# Static dielectric constant tensor:
#      x y z
#    x 3.565560 0.000000 0.002500 
#    y 0.000000 3.712230 0.000000 
#    z 0.002500 0.000000 3.722000 
# 
# 
# High freq. dielectric constant tensor:
#      x y z
#    x 1.737040 0.000000 -0.006630 
#    y 0.000000 1.732040 0.000000 
#    z -0.006630 0.000000 1.739070 
# 
# From -- ./inp_files/33687.got.cif
#   From: 2010.06.25/outbox.cif.g09.slc.cpg/sg11_17_cif.got.tgz:33687.got - 2010.06.27 23:14:04.
