data_PCOD8072509
_publ_section_title
;
Structure prediction by ZEFSAII (Michael W. Deem and Ramdas Pophale) SiO2 
 PCOD8072509
Probable space group: P 21/M
;
_chemical_formula_sum "Si O2"
_cell_formula_units_Z 32
_cell_length_a 24.458738
_cell_length_b 8.895055
_cell_length_c 18.978006
_cell_angle_alpha 90.000000
_cell_angle_beta 23.869494
_cell_angle_gamma 90.000000
_cell_volume 1670.774769
_symmetry_space_group_name_H-M "P 21/M"
_symmetry_group_IT_number 11
_symmetry_cell_setting 'monoclinic'
loop_
_space_group_symop_operation_xyz
x,y,z
-x,1/2+y,-z
-x,-y,-z
x,1/2-y,z
loop_
_atom_site_type_symbol
_atom_site_label
_atom_site_fract_x
_atom_site_fract_y
_atom_site_fract_z
Si Si1 0.132939 0.419498 0.366291
Si Si2 0.149205 0.080541 0.513066
Si Si3 0.395298 0.583171 0.283909
Si Si4 0.668960 0.573608 0.114789
Si Si5 0.052533 0.425275 0.149031
Si Si6 0.667174 0.425986 0.969929
Si Si7 0.080071 0.929451 0.841848
Si Si8 0.373135 0.915987 0.472620
O O1 0.136584 0.250000 0.333093
O O2 0.131155 0.422037 0.451749
O O3 0.000000 0.500000 0.500000
O O4 0.256798 0.508797 0.187041
O O5 0.178446 0.250000 0.505342
O O6 0.271394 0.969387 0.383597
O O7 0.015246 0.020279 0.709053
O O8 0.441883 0.750000 0.204169
O O9 0.511778 0.461166 0.137907
O O10 0.346154 0.590884 0.421624
O O11 0.647368 0.750000 0.124312
O O12 0.715026 0.499045 0.987175
O O13 0.520788 0.506899 0.314475
O O14 0.784689 0.545776 0.037101
O O15 0.020766 0.250000 0.198635
O O16 0.996026 0.479712 0.140213
O O17 0.692813 0.250000 0.945035
O O18 0.080616 0.750000 0.846387
O O19 0.235256 0.994363 0.663967
O O20 0.000000 0.000000 0.000000
O O21 0.378937 0.750000 0.499052
#
# Coordination Sequence:
#
# PCOD8072509 Si02
#       8
#     4   4   4   4   4   4   4   4
#     4  11  24  40  55  76 109 150 191 236 289 344
#     4  11  23  36  55  83 112 141 184 238 289 332
#     4  10  19  36  60  82 107 146 189 231 280 336
#     4   9  18  34  59  84 107 148 194 236 282 333
#     4  10  20  36  58  83 111 144 190 234 278 341
#     4  11  22  36  55  82 115 148 187 236 285 336
#     4  10  20  36  56  82 113 147 184 227 279 337
#     4   8  15  32  56  80 108 141 182 224 271 332
#
# _framework density 19.152791000000001
#
# number of rings (size 3 to 8) (size 9 to 14) (size 15 to 20)
#    0.000    2.000    1.250    3.750    0.000    5.500 
#    0.000    1.250    0.000    0.000    0.000    0.000 
#    0.000    0.000    0.000    0.000    0.000    0.000 
#
# Total GULP energy -396615.514217 kJ/mol
# GULP energy per Si atom -12394.234819 kJ/mol
# Density = 1.910920 g / cm^3
# Si number density = 19.152791 Si / 1000 Ang^3
#
#
#
# Elastic Constant Matrix: (Units=GPa)
#
#
# Indices 1 2 3 4 5 6 
#
# 1 70.8827 26.6660 60.0064 0.0000 -12.5631 0.0000
# 2 26.6660 76.5954 38.6312 0.0000 0.6760 0.0000
# 3 60.0064 38.6312 134.6917 0.0000 2.5487 0.0000
# 4 0.0000 0.0000 0.0000 30.0621 0.0000 3.7860
# 5 -12.5631 0.6760 2.5487 0.0000 29.9560 0.0000
# 6 0.0000 0.0000 0.0000 3.7860 0.0000 22.0126
#
#
#
# Elastic Compliance Matrix: (Units=1/GPa)
#
#
# Indices 1 2 3 4 5 6 
#
# 1 0.027384 -0.003942 -0.011307 0.000000 0.012535 0.000000
# 2 -0.003942 0.015831 -0.002751 0.000000 -0.001776 0.000000
# 3 -0.011307 -0.002751 0.013361 0.000000 -0.005816 0.000000
# 4 0.000000 0.000000 0.000000 0.034001 0.000000 -0.005848
# 5 0.012535 -0.001776 -0.005816 0.000000 0.039174 0.000000
# 6 0.000000 0.000000 0.000000 -0.005848 0.000000 0.046434
#
#
# Mechanical properties :
#
#
# Convention : Reuss Voigt Hill
#
# Bulk Modulus (GPa) = 48.59678 59.19744 53.89711
# Shear Modulus (GPa) = 22.82663 26.86389 24.84526
#
# Velocity S-wave (km/s) = 3.45602 3.74921 3.60559
# Velocity P-wave (km/s) = 6.43068 7.05104 6.74799
#
# Compressibility (1/GPa) = 0.02057750
#
# Stress axis : x y z
#
# Youngs Moduli (GPa) = 36.51767 63.16741 74.84717
#
# Poissons Ratio (x) = 0.24898 0.84626
# Poissons Ratio (y) = 0.14394 0.20589
# Poissons Ratio (z) = 0.41289 0.17377
#
# Static dielectric constant tensor:
#      x y z
#    x 3.308270 0.000000 -0.214090 
#    y 0.000000 3.524080 0.000000 
#    z -0.214090 0.000000 3.627260 
# 
# 
# High freq. dielectric constant tensor:
#      x y z
#    x 1.728090 0.000000 -0.017800 
#    y 0.000000 1.733170 0.000000 
#    z -0.017800 0.000000 1.756700 
# 
# From -- ./inp_files/67090.got.cif
#   From: 2010.06.25/outbox.cif.g09.slc.cpg/sg11_34_cif.got.tgz:67090.got - 2010.06.27 23:14:04.
