data_PCOD8072477
_publ_section_title
;
Structure prediction by ZEFSAII (Michael W. Deem and Ramdas Pophale) SiO2 
 PCOD8072477
Probable space group: P 21/M
;
_chemical_formula_sum "Si O2"
_cell_formula_units_Z 32
_cell_length_a 27.276592
_cell_length_b 9.184988
_cell_length_c 21.216676
_cell_angle_alpha 90.000000
_cell_angle_beta 19.333604
_cell_angle_gamma 90.000000
_cell_volume 1759.799083
_symmetry_space_group_name_H-M "P 21/M"
_symmetry_group_IT_number 11
_symmetry_cell_setting 'monoclinic'
loop_
_space_group_symop_operation_xyz
x,y,z
-x,1/2+y,-z
-x,-y,-z
x,1/2-y,z
loop_
_atom_site_type_symbol
_atom_site_label
_atom_site_fract_x
_atom_site_fract_y
_atom_site_fract_z
Si Si1 0.540552 0.920468 0.046593
Si Si2 0.973001 0.918548 0.319855
Si Si3 0.167994 0.920405 0.623364
Si Si4 0.273976 0.076950 0.936647
Si Si5 0.647757 0.921535 0.299129
Si Si6 0.503798 0.578951 0.228954
Si Si7 0.052914 0.080399 0.997572
Si Si8 0.708879 0.916364 0.723309
O O1 0.510918 0.750000 0.087601
O O2 0.565576 0.982430 0.086972
O O3 0.390689 0.985342 0.200606
O O4 0.680347 0.957660 0.831615
O O5 0.007753 0.750000 0.263925
O O6 0.881206 0.937968 0.496574
O O7 0.870416 0.981622 0.389449
O O8 0.122830 0.007608 0.144402
O O9 0.154464 0.750000 0.621872
O O10 0.332471 0.962334 0.446444
O O11 0.056072 0.963282 0.814152
O O12 0.255772 0.250000 0.961211
O O13 0.309976 0.025649 0.822256
O O14 0.402220 0.014767 0.826926
O O15 0.619395 0.750000 0.334090
O O16 0.780665 0.965705 0.184975
O O17 0.500000 0.000000 0.500000
O O18 0.525381 0.750000 0.204735
O O19 0.044360 0.250000 0.993775
O O20 0.000000 0.000000 0.000000
O O21 0.659808 0.750000 0.771280
#
# Coordination Sequence:
#
# PCOD8072477 Si02
#       8
#     4   4   4   4   4   4   4   4
#     4   9  16  30  52  78 106 137 177 221 263 318
#     4  11  21  34  53  80 110 145 181 218 269 318
#     4  10  19  36  59  81 106 137 181 229 265 310
#     4  10  21  39  58  77 106 142 182 223 261 315
#     4  10  22  39  58  80 108 141 177 217 265 321
#     4   9  18  32  57  84 102 134 182 225 266 309
#     4  10  22  38  57  83 111 140 176 222 268 316
#     4   9  18  30  48  77 111 141 172 217 271 318
#
# _framework density 18.183893000000001
#
# number of rings (size 3 to 8) (size 9 to 14) (size 15 to 20)
#    0.000    2.250    2.500    0.375    1.750    2.000 
#    0.000    1.875    0.000    0.000    0.000    0.000 
#    0.000    0.000    0.000    0.000    0.000    0.000 
#
# Total GULP energy -396722.355832 kJ/mol
# GULP energy per Si atom -12397.573620 kJ/mol
# Density = 1.814251 g / cm^3
# Si number density = 18.183893 Si / 1000 Ang^3
#
#
#
# Elastic Constant Matrix: (Units=GPa)
#
#
# Indices 1 2 3 4 5 6 
#
# 1 104.6915 25.0540 59.6203 0.0000 -4.4089 0.0000
# 2 25.0540 33.5201 34.6726 0.0000 2.5339 0.0000
# 3 59.6203 34.6726 145.5674 0.0000 2.4058 0.0000
# 4 0.0000 0.0000 0.0000 27.4028 0.0000 -1.0022
# 5 -4.4089 2.5339 2.4058 0.0000 27.7813 0.0000
# 6 0.0000 0.0000 0.0000 -1.0022 0.0000 22.6359
#
#
#
# Elastic Compliance Matrix: (Units=1/GPa)
#
#
# Indices 1 2 3 4 5 6 
#
# 1 0.013477 -0.006027 -0.004135 0.000000 0.003047 0.000000
# 2 -0.006027 0.042499 -0.007586 0.000000 -0.004176 0.000000
# 3 -0.004135 -0.007586 0.010384 0.000000 -0.000864 0.000000
# 4 0.000000 0.000000 0.000000 0.036552 0.000000 0.001618
# 5 0.003047 -0.004176 -0.000864 0.000000 0.036935 0.000000
# 6 0.000000 0.000000 0.000000 0.001618 0.000000 0.044249
#
#
# Mechanical properties :
#
#
# Convention : Reuss Voigt Hill
#
# Bulk Modulus (GPa) = 32.39717 58.05253 45.22485
# Shear Modulus (GPa) = 21.75055 26.52612 24.13834
#
# Velocity S-wave (km/s) = 3.46228 3.82353 3.64738
# Velocity P-wave (km/s) = 5.81707 7.17545 6.53167
#
# Compressibility (1/GPa) = 0.03086689
#
# Stress axis : x y z
#
# Youngs Moduli (GPa) = 74.20006 23.52972 96.30021
#
# Poissons Ratio (x) = 0.14181 0.39817
# Poissons Ratio (y) = 0.44718 0.73049
# Poissons Ratio (z) = 0.30679 0.17849
#
# Static dielectric constant tensor:
#      x y z
#    x 3.639010 0.000000 0.152130 
#    y 0.000000 3.198530 0.000000 
#    z 0.152130 0.000000 3.550860 
# 
# 
# High freq. dielectric constant tensor:
#      x y z
#    x 1.700140 0.000000 0.012430 
#    y 0.000000 1.686090 0.000000 
#    z 0.012430 0.000000 1.715520 
# 
# From -- ./inp_files/66980.got.cif
#   From: 2010.06.25/outbox.cif.g09.slc.cpg/sg11_34_cif.got.tgz:66980.got - 2010.06.27 23:14:04.
