data_PCOD8072518
_publ_section_title
;
Structure prediction by ZEFSAII (Michael W. Deem and Ramdas Pophale) SiO2 
 PCOD8072518
Probable space group: P 21/M
;
_chemical_formula_sum "Si O2"
_cell_formula_units_Z 32
_cell_length_a 15.689840
_cell_length_b 21.672758
_cell_length_c 8.699726
_cell_angle_alpha 90.000000
_cell_angle_beta 34.452476
_cell_angle_gamma 90.000000
_cell_volume 1673.561592
_symmetry_space_group_name_H-M "P 21/M"
_symmetry_group_IT_number 11
_symmetry_cell_setting 'monoclinic'
loop_
_space_group_symop_operation_xyz
x,y,z
-x,1/2+y,-z
-x,-y,-z
x,1/2-y,z
loop_
_atom_site_type_symbol
_atom_site_label
_atom_site_fract_x
_atom_site_fract_y
_atom_site_fract_z
Si Si1 0.130416 0.050293 0.790414
Si Si2 0.412519 0.444880 0.553252
Si Si3 0.614750 0.385990 0.015604
Si Si4 0.442367 0.884614 0.398964
Si Si5 0.652452 0.025170 0.704149
Si Si6 0.911139 0.679842 0.282162
Si Si7 0.411075 0.181337 0.099226
Si Si8 0.768636 0.180280 0.063309
O O1 0.234366 0.046953 0.789380
O O2 0.075317 0.121815 0.856592
O O3 0.224681 0.029157 0.497910
O O4 0.000000 0.000000 0.000000
O O5 0.500000 0.500000 0.500000
O O6 0.490517 0.431496 0.273773
O O7 0.440305 0.390253 0.634273
O O8 0.519196 0.330467 0.084080
O O9 0.727361 0.361651 0.978430
O O10 0.708138 0.422304 0.743193
O O11 0.369319 0.947608 0.437820
O O12 0.306586 0.842360 0.664727
O O13 0.540625 0.859864 0.113986
O O14 0.500000 0.000000 0.000000
O O15 0.907012 0.750000 0.212141
O O16 0.761658 0.668896 0.602746
O O17 0.052064 0.676276 0.186809
O O18 0.436405 0.250000 0.005696
O O19 0.715413 0.250000 0.111435
#
# Coordination Sequence:
#
# PCOD8072518 Si02
#       8
#     4   4   4   4   4   4   4   4
#     4  12  23  38  60  91 121 155 203 247 300 360
#     4  11  20  36  57  86 117 153 187 245 299 346
#     4  10  20  35  61  84 113 152 200 241 288 350
#     4  10  20  34  59  87 114 148 199 247 294 343
#     4  11  19  37  59  84 118 153 190 240 299 353
#     4  10  22  40  59  82 120 161 192 241 305 360
#     4  10  19  36  60  84 113 155 200 239 290 357
#     4  10  21  38  59  84 116 155 200 246 296 352
#
# _framework density 19.120896999999999
#
# number of rings (size 3 to 8) (size 9 to 14) (size 15 to 20)
#    0.000    1.500    3.750    2.250    1.750    0.000 
#    2.250    1.250    0.000    0.750    0.000    0.000 
#    0.000    0.000    0.000    0.000    0.000    0.000 
#
# Total GULP energy -396546.660360 kJ/mol
# GULP energy per Si atom -12392.083136 kJ/mol
# Density = 1.907738 g / cm^3
# Si number density = 19.120897 Si / 1000 Ang^3
#
#
#
# Elastic Constant Matrix: (Units=GPa)
#
#
# Indices 1 2 3 4 5 6 
#
# 1 105.5099 37.8555 34.3930 0.0000 -4.6350 0.0000
# 2 37.8555 109.1810 32.9029 0.0000 -10.0697 0.0000
# 3 34.3930 32.9029 65.7592 0.0000 -5.1937 0.0000
# 4 0.0000 0.0000 0.0000 30.4323 0.0000 -3.6549
# 5 -4.6350 -10.0697 -5.1937 0.0000 30.2562 0.0000
# 6 0.0000 0.0000 0.0000 -3.6549 0.0000 25.8384
#
#
#
# Elastic Compliance Matrix: (Units=1/GPa)
#
#
# Indices 1 2 3 4 5 6 
#
# 1 0.012060 -0.002677 -0.004960 0.000000 0.000105 0.000000
# 2 -0.002677 0.011602 -0.004189 0.000000 0.002732 0.000000
# 3 -0.004960 -0.004189 0.019998 0.000000 0.001279 0.000000
# 4 0.000000 0.000000 0.000000 0.033428 0.000000 0.004728
# 5 0.000105 0.002732 0.001279 0.000000 0.034196 0.000000
# 6 0.000000 0.000000 0.000000 0.004728 0.000000 0.039371
#
#
# Mechanical properties :
#
#
# Convention : Reuss Voigt Hill
#
# Bulk Modulus (GPa) = 49.98023 54.52809 52.25416
# Shear Modulus (GPa) = 27.62823 28.99195 28.31009
#
# Velocity S-wave (km/s) = 3.80534 3.89812 3.85201
# Velocity P-wave (km/s) = 6.74561 6.98856 6.86816
#
# Compressibility (1/GPa) = 0.02000791
#
# Stress axis : x y z
#
# Youngs Moduli (GPa) = 82.92191 86.19447 50.00516
#
# Poissons Ratio (x) = 0.23074 0.24800
# Poissons Ratio (y) = 0.22198 0.20947
# Poissons Ratio (z) = 0.41126 0.36107
#
# Static dielectric constant tensor:
#      x y z
#    x 3.854930 0.000000 0.114240 
#    y 0.000000 4.098600 0.000000 
#    z 0.114240 0.000000 3.383210 
# 
# 
# High freq. dielectric constant tensor:
#      x y z
#    x 1.738610 0.000000 -0.001080 
#    y 0.000000 1.763790 0.000000 
#    z -0.001080 0.000000 1.725820 
# 
# From -- ./inp_files/23085.got.cif
#   From: 2010.06.25/outbox.cif.g09.slc.cpg/sg11_12_cif.got.tgz:23085.got - 2010.06.27 23:14:04.
