data_PCOD8072816
_publ_section_title
;
Structure prediction by ZEFSAII (Michael W. Deem and Ramdas Pophale) SiO2 
 PCOD8072816
Probable space group: P 21/M
;
_chemical_formula_sum "Si O2"
_cell_formula_units_Z 32
_cell_length_a 22.859626
_cell_length_b 9.369754
_cell_length_c 21.222843
_cell_angle_alpha 90.000000
_cell_angle_beta 156.178280
_cell_angle_gamma 90.000000
_cell_volume 1835.972813
_symmetry_space_group_name_H-M "P 21/M"
_symmetry_group_IT_number 11
_symmetry_cell_setting 'monoclinic'
loop_
_space_group_symop_operation_xyz
x,y,z
-x,1/2+y,-z
-x,-y,-z
x,1/2-y,z
loop_
_atom_site_type_symbol
_atom_site_label
_atom_site_fract_x
_atom_site_fract_y
_atom_site_fract_z
Si Si1 0.011896 0.911210 0.151910
Si Si2 0.434283 0.413236 0.574158
Si Si3 0.838556 0.083615 0.463531
Si Si4 0.263441 0.915146 0.305487
Si Si5 0.065720 0.582783 0.623238
Si Si6 0.755820 0.088599 0.854730
Si Si7 0.353835 0.913944 0.845119
Si Si8 0.748784 0.415667 0.514618
O O1 0.958114 0.750000 0.105176
O O2 0.106391 0.932838 0.182108
O O3 0.103664 0.955997 0.303702
O O4 0.870751 0.007092 0.010404
O O5 0.379651 0.250000 0.519162
O O6 0.379396 0.491758 0.457457
O O7 0.606588 0.421573 0.745120
O O8 0.380526 0.489660 0.584822
O O9 0.880266 0.250000 0.498382
O O10 0.724409 0.038518 0.296947
O O11 0.764203 0.048937 0.456539
O O12 0.987991 0.991069 0.606765
O O13 0.314343 0.750000 0.357172
O O14 0.257166 0.976075 0.228449
O O15 0.026112 0.750000 0.581309
O O16 0.240627 0.562914 0.791919
O O17 0.000000 0.500000 0.500000
O O18 0.810163 0.250000 0.901454
O O19 0.399815 0.750000 0.885595
O O20 0.500000 0.000000 0.000000
O O21 0.711439 0.250000 0.490001
#
# Coordination Sequence:
#
# PCOD8072816 Si02
#       8
#     4   4   4   4   4   4   4   4
#     4   9  18  31  49  71  92 120 160 202 245 293
#     4  10  20  32  48  72  98 126 162 200 242 293
#     4   9  18  34  55  75  96 128 169 205 239 284
#     4   9  18  33  50  69  94 125 161 199 244 297
#     4   9  17  30  49  75 103 130 163 198 234 277
#     4  10  20  32  47  70  99 126 155 199 251 298
#     4   9  18  31  49  76 106 132 158 193 238 283
#     4   9  19  37  55  70  93 127 167 206 241 285
#
# _framework density 17.429451
#
# number of rings (size 3 to 8) (size 9 to 14) (size 15 to 20)
#    0.000    2.750    0.000    3.000    0.000    6.500 
#    0.000    1.250    0.000    7.500    0.000    0.000 
#    0.000    0.000    0.000    0.000    0.000    0.000 
#
# Total GULP energy -396718.878743 kJ/mol
# GULP energy per Si atom -12397.464961 kJ/mol
# Density = 1.738978 g / cm^3
# Si number density = 17.429451 Si / 1000 Ang^3
#
#
#
# Elastic Constant Matrix: (Units=GPa)
#
#
# Indices 1 2 3 4 5 6 
#
# 1 99.8159 41.9704 45.0750 0.0000 0.0727 0.0000
# 2 41.9704 81.8217 52.5519 0.0000 9.5755 0.0000
# 3 45.0750 52.5519 92.9310 0.0000 10.9171 0.0000
# 4 0.0000 0.0000 0.0000 33.2578 0.0000 4.9529
# 5 0.0727 9.5755 10.9171 0.0000 14.9520 0.0000
# 6 0.0000 0.0000 0.0000 4.9529 0.0000 25.8232
#
#
#
# Elastic Compliance Matrix: (Units=1/GPa)
#
#
# Indices 1 2 3 4 5 6 
#
# 1 0.014329 -0.004970 -0.004928 0.000000 0.006711 0.000000
# 2 -0.004970 0.021234 -0.008753 0.000000 -0.007183 0.000000
# 3 -0.004928 -0.008753 0.019075 0.000000 -0.008298 0.000000
# 4 0.000000 0.000000 0.000000 0.030952 0.000000 -0.005937
# 5 0.006711 -0.007183 -0.008298 0.000000 0.077508 0.000000
# 6 0.000000 0.000000 0.000000 -0.005937 0.000000 0.039864
#
#
# Mechanical properties :
#
#
# Convention : Reuss Voigt Hill
#
# Bulk Modulus (GPa) = 57.68371 61.52926 59.60649
# Shear Modulus (GPa) = 20.32179 23.80467 22.06323
#
# Velocity S-wave (km/s) = 3.41830 3.69965 3.56175
# Velocity P-wave (km/s) = 6.98191 7.32314 7.15456
#
# Compressibility (1/GPa) = 0.01733592
#
# Stress axis : x y z
#
# Youngs Moduli (GPa) = 69.78972 47.09512 52.42402
#
# Poissons Ratio (x) = 0.23408 0.25833
# Poissons Ratio (y) = 0.34689 0.45885
# Poissons Ratio (z) = 0.34390 0.41221
#
# Static dielectric constant tensor:
#      x y z
#    x 3.394790 0.000000 0.193770 
#    y 0.000000 3.358520 0.000000 
#    z 0.193770 0.000000 3.069600 
# 
# 
# High freq. dielectric constant tensor:
#      x y z
#    x 1.664880 0.000000 0.014350 
#    y 0.000000 1.676710 0.000000 
#    z 0.014350 0.000000 1.656930 
# 
# From -- ./inp_files/70000.got.cif
#   From: 2010.06.25/outbox.cif.g09.slc.cpg/sg11_35_cif.got.tgz:70000.got - 2010.06.27 23:14:04.
