data_PCOD8072313
_publ_section_title
;
Structure prediction by ZEFSAII (Michael W. Deem and Ramdas Pophale) SiO2 
 PCOD8072313
Probable space group: P 21/M
;
_chemical_formula_sum "Si O2"
_cell_formula_units_Z 32
_cell_length_a 5.568876
_cell_length_b 13.134667
_cell_length_c 23.273294
_cell_angle_alpha 90.000000
_cell_angle_beta 114.076441
_cell_angle_gamma 90.000000
_cell_volume 1554.233259
_symmetry_space_group_name_H-M "P 21/M"
_symmetry_group_IT_number 11
_symmetry_cell_setting 'monoclinic'
loop_
_space_group_symop_operation_xyz
x,y,z
-x,1/2+y,-z
-x,-y,-z
x,1/2-y,z
loop_
_atom_site_type_symbol
_atom_site_label
_atom_site_fract_x
_atom_site_fract_y
_atom_site_fract_z
Si Si1 0.830858 0.862016 0.212221
Si Si2 0.664063 0.138377 0.660951
Si Si3 0.363668 0.032683 0.428583
Si Si4 0.914376 0.489415 0.851034
Si Si5 0.205583 0.869976 0.615973
Si Si6 0.452348 0.000366 0.729160
Si Si7 0.278526 0.972495 0.051616
Si Si8 0.673096 0.368317 0.055945
O O1 0.693026 0.750000 0.195106
O O2 0.669158 0.950082 0.226698
O O3 0.095476 0.847352 0.273225
O O4 0.882170 0.904318 0.152729
O O5 0.565038 0.250000 0.630569
O O6 0.438658 0.083013 0.676189
O O7 0.735954 0.069236 0.613314
O O8 0.584284 0.090418 0.411420
O O9 0.099518 0.094979 0.419763
O O10 0.500000 0.000000 0.500000
O O11 0.745306 0.529309 0.779572
O O12 0.741712 0.433208 0.884347
O O13 0.050471 0.585868 0.894676
O O14 0.206829 0.750000 0.611330
O O15 0.303767 0.901642 0.689681
O O16 0.448901 0.075370 0.070043
O O17 0.388102 0.887371 0.018034
O O18 0.000000 0.000000 0.000000
O O19 0.666502 0.250000 0.069344
#
# Coordination Sequence:
#
# PCOD8072313 Si02
#       8
#     4   4   4   4   4   4   4   4
#     4  10  19  35  58  84 116 156 200 251 311 370
#     4   9  19  35  58  86 118 160 206 260 321 374
#     4  11  23  43  66  96 131 171 221 278 323 387
#     4  10  21  37  58  88 122 153 201 255 310 369
#     4  11  24  43  66  94 135 180 220 268 332 394
#     4  10  20  37  60  88 126 165 205 259 312 380
#     4   9  20  39  58  82 117 150 192 248 302 361
#     4  10  21  39  62  84 114 157 201 249 304 371
#
# _framework density 20.588930000000001
#
# number of rings (size 3 to 8) (size 9 to 14) (size 15 to 20)
#    0.000    2.000    1.250    1.875    0.000    4.500 
#    0.000   10.625    0.000    0.000    0.000    0.000 
#    0.000    0.000    0.000    0.000    0.000    0.000 
#
# Total GULP energy -396450.537419 kJ/mol
# GULP energy per Si atom -12389.079294 kJ/mol
# Density = 2.054207 g / cm^3
# Si number density = 20.588930 Si / 1000 Ang^3
#
#
#
# Elastic Constant Matrix: (Units=GPa)
#
#
# Indices 1 2 3 4 5 6 
#
# 1 103.9953 42.3060 28.5716 0.0000 -11.0415 0.0000
# 2 42.3060 143.5501 55.6406 0.0000 -8.5146 0.0000
# 3 28.5716 55.6406 99.0537 0.0000 -10.9862 0.0000
# 4 0.0000 0.0000 0.0000 18.4220 0.0000 2.6525
# 5 -11.0415 -8.5146 -10.9862 0.0000 33.6602 0.0000
# 6 0.0000 0.0000 0.0000 2.6525 0.0000 22.8284
#
#
#
# Elastic Compliance Matrix: (Units=1/GPa)
#
#
# Indices 1 2 3 4 5 6 
#
# 1 0.011369 -0.002605 -0.001531 0.000000 0.002571 0.000000
# 2 -0.002605 0.009515 -0.004587 0.000000 0.000055 0.000000
# 3 -0.001531 -0.004587 0.013415 0.000000 0.002716 0.000000
# 4 0.000000 0.000000 0.000000 0.055206 0.000000 -0.006415
# 5 0.002571 0.000055 0.002716 0.000000 0.031452 0.000000
# 6 0.000000 0.000000 0.000000 -0.006415 0.000000 0.044551
#
#
# Mechanical properties :
#
#
# Convention : Reuss Voigt Hill
#
# Bulk Modulus (GPa) = 59.33650 66.62617 62.98133
# Shear Modulus (GPa) = 26.51492 29.65417 28.08455
#
# Velocity S-wave (km/s) = 3.59252 3.79924 3.69733
# Velocity P-wave (km/s) = 6.78899 7.18861 6.99166
#
# Compressibility (1/GPa) = 0.01685303
#
# Stress axis : x y z
#
# Youngs Moduli (GPa) = 87.95848 105.09467 74.54176
#
# Poissons Ratio (x) = 0.27373 0.11413
# Poissons Ratio (y) = 0.22910 0.34196
# Poissons Ratio (z) = 0.13468 0.48212
#
# Static dielectric constant tensor:
#      x y z
#    x 4.225290 0.000000 -0.222650 
#    y 0.000000 3.750760 0.000000 
#    z -0.222650 0.000000 4.121560 
# 
# 
# High freq. dielectric constant tensor:
#      x y z
#    x 1.814010 0.000000 -0.002660 
#    y 0.000000 1.783590 0.000000 
#    z -0.002660 0.000000 1.809750 
# 
# From -- ./inp_files/67635.got.cif
#   From: 2010.06.25/outbox.cif.g09.slc.cpg/sg11_34_cif.got.tgz:67635.got - 2010.06.27 23:14:04.
