data_PCOD8072029
_publ_section_title
;
Structure prediction by ZEFSAII (Michael W. Deem and Ramdas Pophale) SiO2 
 PCOD8072029
Probable space group: P 21/M
;
_chemical_formula_sum "Si O2"
_cell_formula_units_Z 24
_cell_length_a 14.925136
_cell_length_b 9.174639
_cell_length_c 10.141996
_cell_angle_alpha 90.000000
_cell_angle_beta 111.170361
_cell_angle_gamma 90.000000
_cell_volume 1295.044111
_symmetry_space_group_name_H-M "P 21/M"
_symmetry_group_IT_number 11
_symmetry_cell_setting 'monoclinic'
loop_
_space_group_symop_operation_xyz
x,y,z
-x,1/2+y,-z
-x,-y,-z
x,1/2-y,z
loop_
_atom_site_type_symbol
_atom_site_label
_atom_site_fract_x
_atom_site_fract_y
_atom_site_fract_z
Si Si1 0.793860 0.420729 0.358018
Si Si2 0.584245 0.582667 0.886034
Si Si3 0.099463 0.077914 0.821323
Si Si4 0.393996 0.418666 0.796662
Si Si5 0.782069 0.920336 0.863050
Si Si6 0.120030 0.918269 0.314922
O O1 0.781141 0.250000 0.323886
O O2 0.850616 0.492867 0.269441
O O3 0.689627 0.492973 0.320359
O O4 0.854230 0.452336 0.521094
O O5 0.552974 0.750000 0.849482
O O6 0.495834 0.479694 0.800566
O O7 0.672691 0.538821 0.840169
O O8 0.617640 0.557168 0.053579
O O9 0.113441 0.250000 0.803563
O O10 0.988697 0.030991 0.768295
O O11 0.147187 0.027199 0.983239
O O12 0.386837 0.250000 0.753606
O O13 0.793837 0.750000 0.848389
O O14 0.807698 0.996706 0.740735
O O15 0.132426 0.750000 0.287634
#
# Coordination Sequence:
#
# PCOD8072029 Si02
#       6
#     4   4   4   4   4   4
#     4  11  22  36  55  83 114 147 186 228 273 325
#     4   9  18  34  55  83 112 138 177 229 276 324
#     4  10  20  38  59  81 110 145 188 234 274 321
#     4  10  19  34  57  83 110 142 180 227 278 326
#     4  10  20  36  58  83 112 145 182 226 277 329
#     4  10  23  38  54  80 116 150 184 228 274 325
#
# _framework density 18.532187
#
# number of rings (size 3 to 8) (size 9 to 14) (size 15 to 20)
#    0.000    2.000    1.667    2.000    0.000    4.000 
#    0.000    0.833    0.000    0.000    0.000    0.000 
#    0.000    0.000    0.000    0.000    0.000    0.000 
#
# Total GULP energy -297711.555842 kJ/mol
# GULP energy per Si atom -12404.648160 kJ/mol
# Density = 1.849001 g / cm^3
# Si number density = 18.532187 Si / 1000 Ang^3
#
#
#
# Elastic Constant Matrix: (Units=GPa)
#
#
# Indices 1 2 3 4 5 6 
#
# 1 103.6058 46.3480 29.6469 0.0000 -5.0777 0.0000
# 2 46.3480 67.9879 28.3818 0.0000 -0.9926 0.0000
# 3 29.6469 28.3818 40.0587 0.0000 -2.7990 0.0000
# 4 0.0000 0.0000 0.0000 28.3209 0.0000 -4.2789
# 5 -5.0777 -0.9926 -2.7990 0.0000 6.0116 0.0000
# 6 0.0000 0.0000 0.0000 -4.2789 0.0000 34.3540
#
#
#
# Elastic Compliance Matrix: (Units=1/GPa)
#
#
# Indices 1 2 3 4 5 6 
#
# 1 0.015129 -0.008198 -0.004744 0.000000 0.009216 0.000000
# 2 -0.008198 0.025403 -0.012529 0.000000 -0.008564 0.000000
# 3 -0.004744 -0.012529 0.038168 0.000000 0.011695 0.000000
# 4 0.000000 0.000000 0.000000 0.035987 0.000000 0.004482
# 5 0.009216 -0.008564 0.011695 0.000000 0.178161 0.000000
# 6 0.000000 0.000000 0.000000 0.004482 0.000000 0.029667
#
#
# Mechanical properties :
#
#
# Convention : Reuss Voigt Hill
#
# Bulk Modulus (GPa) = 36.02668 46.71177 41.36922
# Shear Modulus (GPa) = 13.06476 20.88900 16.97688
#
# Velocity S-wave (km/s) = 2.65802 3.36098 3.02996
# Velocity P-wave (km/s) = 5.37609 6.34997 5.88321
#
# Compressibility (1/GPa) = 0.02775721
#
# Stress axis : x y z
#
# Youngs Moduli (GPa) = 66.09945 39.36613 26.19994
#
# Poissons Ratio (x) = 0.32274 0.12429
# Poissons Ratio (y) = 0.54191 0.32825
# Poissons Ratio (z) = 0.31357 0.49320
#
# Static dielectric constant tensor:
#      x y z
#    x 3.600170 0.000000 0.195060 
#    y 0.000000 3.402490 0.000000 
#    z 0.195060 0.000000 3.296630 
# 
# 
# High freq. dielectric constant tensor:
#      x y z
#    x 1.732930 0.000000 0.006430 
#    y 0.000000 1.719520 0.000000 
#    z 0.006430 0.000000 1.704380 
# 
# From -- ./inp_files/20415.got.cif
#   From: 2010.06.25/outbox.cif.g09.slc.cpg/sg11_11_cif.got.tgz:20415.got - 2010.06.27 23:14:04.
