data_PCOD8072821
_publ_section_title
;
Structure prediction by ZEFSAII (Michael W. Deem and Ramdas Pophale) SiO2 
 PCOD8072821
Probable space group: P 21/M
;
_chemical_formula_sum "Si O2"
_cell_formula_units_Z 32
_cell_length_a 11.469323
_cell_length_b 9.156664
_cell_length_c 20.630787
_cell_angle_alpha 90.000000
_cell_angle_beta 120.532384
_cell_angle_gamma 90.000000
_cell_volume 1866.235994
_symmetry_space_group_name_H-M "P 21/M"
_symmetry_group_IT_number 11
_symmetry_cell_setting 'monoclinic'
loop_
_space_group_symop_operation_xyz
x,y,z
-x,1/2+y,-z
-x,-y,-z
x,1/2-y,z
loop_
_atom_site_type_symbol
_atom_site_label
_atom_site_fract_x
_atom_site_fract_y
_atom_site_fract_z
Si Si1 0.926260 0.079916 0.921076
Si Si2 0.404181 0.418788 0.022416
Si Si3 0.130172 0.416160 0.871775
Si Si4 0.181329 0.916405 0.563315
Si Si5 0.381624 0.578167 0.149150
Si Si6 0.391277 0.584371 0.721827
Si Si7 0.863526 0.419304 0.258777
Si Si8 0.015745 0.916803 0.402014
O O1 0.944300 0.250000 0.940406
O O2 0.769564 0.034920 0.872442
O O3 0.993582 0.038665 0.871144
O O4 0.000000 0.000000 0.000000
O O5 0.447612 0.250000 0.039616
O O6 0.250065 0.436965 0.957066
O O7 0.500000 0.500000 0.000000
O O8 0.424889 0.493322 0.097213
O O9 0.123557 0.250000 0.844910
O O10 0.154484 0.518789 0.817842
O O11 0.134312 0.750000 0.568849
O O12 0.335670 0.935620 0.632221
O O13 0.162383 0.937768 0.479783
O O14 0.092995 0.036716 0.574952
O O15 0.397033 0.750000 0.141831
O O16 0.483825 0.525720 0.234147
O O17 0.440974 0.750000 0.747516
O O18 0.270651 0.545381 0.737949
O O19 0.891840 0.250000 0.260588
O O20 0.995961 0.488771 0.331301
O O21 0.991933 0.750000 0.375265
#
# Coordination Sequence:
#
# PCOD8072821 Si02
#       8
#     4   4   4   4   4   4   4   4
#     4  10  21  38  56  73  93 121 162 210 250 291
#     4  11  22  35  52  72  97 128 161 196 240 293
#     4  10  21  36  52  70  93 125 163 201 244 290
#     4   8  15  27  43  66  96 131 166 197 233 281
#     4  11  22  34  51  74  98 125 161 203 247 291
#     4   9  18  32  48  69 102 136 164 196 237 288
#     4  10  20  32  47  71 102 133 163 198 241 289
#     4   9  15  25  44  68  96 130 164 197 236 283
#
# _framework density 17.146813000000002
#
# number of rings (size 3 to 8) (size 9 to 14) (size 15 to 20)
#    0.000    2.250    1.250    3.000    0.000    7.000 
#    0.000    0.000    0.000    0.000    0.000    0.875 
#    0.000    0.000    0.000    0.000    0.000    0.000 
#
# Total GULP energy -396660.226585 kJ/mol
# GULP energy per Si atom -12395.632081 kJ/mol
# Density = 1.710779 g / cm^3
# Si number density = 17.146813 Si / 1000 Ang^3
#
#
#
# Elastic Constant Matrix: (Units=GPa)
#
#
# Indices 1 2 3 4 5 6 
#
# 1 62.9167 29.6689 17.6209 0.0000 16.2683 0.0000
# 2 29.6689 84.6457 42.1651 0.0000 12.8008 0.0000
# 3 17.6209 42.1651 93.3670 0.0000 23.7350 0.0000
# 4 0.0000 0.0000 0.0000 32.1428 0.0000 1.4419
# 5 16.2683 12.8008 23.7350 0.0000 15.7517 0.0000
# 6 0.0000 0.0000 0.0000 1.4419 0.0000 19.4013
#
#
#
# Elastic Compliance Matrix: (Units=1/GPa)
#
#
# Indices 1 2 3 4 5 6 
#
# 1 0.025226 -0.007428 0.005968 0.000000 -0.029011 0.000000
# 2 -0.007428 0.017535 -0.007853 0.000000 0.005254 0.000000
# 3 0.005968 -0.007853 0.021193 0.000000 -0.031717 0.000000
# 4 0.000000 0.000000 0.000000 0.031215 0.000000 -0.002320
# 5 -0.029011 0.005254 -0.031717 0.000000 0.136969 0.000000
# 6 0.000000 0.000000 0.000000 -0.002320 0.000000 0.051715
#
#
# Mechanical properties :
#
#
# Convention : Reuss Voigt Hill
#
# Bulk Modulus (GPa) = 22.06043 46.64880 34.35462
# Shear Modulus (GPa) = 15.74367 23.55745 19.65056
#
# Velocity S-wave (km/s) = 3.03342 3.71059 3.38896
# Velocity P-wave (km/s) = 5.01621 6.75445 5.94916
#
# Compressibility (1/GPa) = 0.04533003
#
# Stress axis : x y z
#
# Youngs Moduli (GPa) = 39.64095 57.03031 47.18522
#
# Poissons Ratio (x) = 0.42362 -0.28162
# Poissons Ratio (y) = 0.29445 0.37052
# Poissons Ratio (z) = -0.23659 0.44783
#
# Static dielectric constant tensor:
#      x y z
#    x 3.069100 0.000000 -0.009710 
#    y 0.000000 3.296700 0.000000 
#    z -0.009710 0.000000 3.900240 
# 
# 
# High freq. dielectric constant tensor:
#      x y z
#    x 1.612190 0.000000 0.013020 
#    y 0.000000 1.673340 0.000000 
#    z 0.013020 0.000000 1.674770 
# 
# From -- ./inp_files/40716.got.cif
#   From: 2010.06.25/outbox.cif.g09.slc.cpg/sg11_21_cif.got.tgz:40716.got - 2010.06.27 23:14:04.
