data_PCOD8072795
_publ_section_title
;
Structure prediction by ZEFSAII (Michael W. Deem and Ramdas Pophale) SiO2 
 PCOD8072795
Probable space group: P 21/M
;
_chemical_formula_sum "Si O2"
_cell_formula_units_Z 28
_cell_length_a 25.874709
_cell_length_b 8.539653
_cell_length_c 18.514575
_cell_angle_alpha 90.000000
_cell_angle_beta 157.204248
_cell_angle_gamma 90.000000
_cell_volume 1585.046522
_symmetry_space_group_name_H-M "P 21/M"
_symmetry_group_IT_number 11
_symmetry_cell_setting 'monoclinic'
loop_
_space_group_symop_operation_xyz
x,y,z
-x,1/2+y,-z
-x,-y,-z
x,1/2-y,z
loop_
_atom_site_type_symbol
_atom_site_label
_atom_site_fract_x
_atom_site_fract_y
_atom_site_fract_z
Si Si1 0.329556 0.432895 0.735026
Si Si2 0.223364 0.564065 0.464789
Si Si3 0.405980 0.071613 0.983541
Si Si4 0.288973 0.568782 0.244284
Si Si5 0.501979 0.932528 0.242261
Si Si6 0.983885 0.932429 0.058144
Si Si7 0.544776 0.932973 0.664899
O O1 0.365128 0.250000 0.768152
O O2 0.209899 0.485516 0.527526
O O3 0.451066 0.544345 0.868979
O O4 0.297676 0.462033 0.779593
O O5 0.221930 0.750000 0.470150
O O6 0.358173 0.510256 0.598835
O O7 0.098912 0.499618 0.258459
O O8 0.395539 0.250000 0.996697
O O9 0.393374 0.961692 0.038003
O O10 0.250455 0.750000 0.197765
O O11 0.343609 0.526598 0.235663
O O12 0.398609 0.525600 0.445944
O O13 0.159099 0.468205 0.092653
O O14 0.521786 0.750000 0.281457
O O15 0.444726 0.013785 0.239417
O O16 0.004329 0.750000 0.077664
O O17 0.000000 0.000000 0.000000
O O18 0.574608 0.750000 0.695743
#
# Coordination Sequence:
#
# PCOD8072795 Si02
#       7
#     4   4   4   4   4   4   4
#     4   9  16  26  42  64  90 123 160 195 235 283
#     4  10  20  32  46  67  97 131 164 197 239 287
#     4   9  16  26  41  63  93 125 156 193 238 285
#     4  10  21  36  54  74  95 124 161 199 240 284
#     4  11  20  29  46  72  99 128 163 199 238 283
#     4  11  23  36  51  72  98 130 164 199 239 282
#     4  10  20  35  53  72  97 126 157 197 242 285
#
# _framework density 17.665095000000001
#
# number of rings (size 3 to 8) (size 9 to 14) (size 15 to 20)
#    0.000    2.000    0.000    6.429    0.000    9.143 
#    0.000    0.000    0.000    0.000    0.000    1.000 
#    0.000    0.000    0.000    0.000    0.000    0.000 
#
# Total GULP energy -347088.723318 kJ/mol
# GULP energy per Si atom -12396.025833 kJ/mol
# Density = 1.762489 g / cm^3
# Si number density = 17.665095 Si / 1000 Ang^3
#
#
#
# Elastic Constant Matrix: (Units=GPa)
#
#
# Indices 1 2 3 4 5 6 
#
# 1 96.5152 12.9333 52.8576 0.0000 -26.7014 0.0000
# 2 12.9333 49.3262 21.6696 0.0000 -8.4273 0.0000
# 3 52.8576 21.6696 87.7768 0.0000 -25.2826 0.0000
# 4 0.0000 0.0000 0.0000 23.8075 0.0000 -4.3910
# 5 -26.7014 -8.4273 -25.2826 0.0000 30.0443 0.0000
# 6 0.0000 0.0000 0.0000 -4.3910 0.0000 31.0969
#
#
#
# Elastic Compliance Matrix: (Units=1/GPa)
#
#
# Indices 1 2 3 4 5 6 
#
# 1 0.016988 0.000473 -0.007866 0.000000 0.008611 0.000000
# 2 0.000473 0.022862 -0.005228 0.000000 0.002434 0.000000
# 3 -0.007866 -0.005228 0.019778 0.000000 0.008186 0.000000
# 4 0.000000 0.000000 0.000000 0.043127 0.000000 0.006090
# 5 0.008611 0.002434 0.008186 0.000000 0.048508 0.000000
# 6 0.000000 0.000000 0.000000 0.006090 0.000000 0.033017
#
#
# Mechanical properties :
#
#
# Convention : Reuss Voigt Hill
#
# Bulk Modulus (GPa) = 29.08251 45.39325 37.23788
# Shear Modulus (GPa) = 22.62609 26.73359 24.67984
#
# Velocity S-wave (km/s) = 3.58276 3.89441 3.74183
# Velocity P-wave (km/s) = 5.79775 6.78043 6.30825
#
# Compressibility (1/GPa) = 0.03438493
#
# Stress axis : x y z
#
# Youngs Moduli (GPa) = 58.86482 43.74156 50.56158
#
# Poissons Ratio (x) = -0.02068 0.39774
# Poissons Ratio (y) = -0.02782 0.26431
# Poissons Ratio (z) = 0.46306 0.22866
#
# Static dielectric constant tensor:
#      x y z
#    x 3.456490 0.000000 -0.663580 
#    y 0.000000 3.185950 0.000000 
#    z -0.663580 0.000000 4.054540 
# 
# 
# High freq. dielectric constant tensor:
#      x y z
#    x 1.673250 0.000000 -0.042010 
#    y 0.000000 1.699100 0.000000 
#    z -0.042010 0.000000 1.654860 
# 
# From -- ./inp_files/67379.got.cif
#   From: 2010.06.25/outbox.cif.g09.slc.cpg/sg11_34_cif.got.tgz:67379.got - 2010.06.27 23:14:04.
