data_PCOD8072818
_publ_section_title
;
Structure prediction by ZEFSAII (Michael W. Deem and Ramdas Pophale) SiO2 
 PCOD8072818
Probable space group: P 21/M
;
_chemical_formula_sum "Si O2"
_cell_formula_units_Z 32
_cell_length_a 13.052890
_cell_length_b 12.659230
_cell_length_c 11.401232
_cell_angle_alpha 90.000000
_cell_angle_beta 107.048319
_cell_angle_gamma 90.000000
_cell_volume 1801.150172
_symmetry_space_group_name_H-M "P 21/M"
_symmetry_group_IT_number 11
_symmetry_cell_setting 'monoclinic'
loop_
_space_group_symop_operation_xyz
x,y,z
-x,1/2+y,-z
-x,-y,-z
x,1/2-y,z
loop_
_atom_site_type_symbol
_atom_site_label
_atom_site_fract_x
_atom_site_fract_y
_atom_site_fract_z
Si Si1 0.187622 0.633727 0.199857
Si Si2 0.498040 0.124667 0.832757
Si Si3 0.891352 0.446780 0.599581
Si Si4 0.110874 0.372066 0.575341
Si Si5 0.672888 0.127625 0.426332
Si Si6 0.575989 0.133766 0.622281
Si Si7 0.292337 0.490591 0.777099
Si Si8 0.724644 0.374670 0.011177
O O1 0.132848 0.750000 0.188439
O O2 0.123221 0.553027 0.263423
O O3 0.308997 0.646124 0.279600
O O4 0.193070 0.594311 0.066391
O O5 0.491532 0.250000 0.824388
O O6 0.502884 0.079310 0.698456
O O7 0.391175 0.079799 0.857687
O O8 0.602450 0.091576 0.941368
O O9 0.891869 0.566379 0.550158
O O10 0.795939 0.381415 0.508002
O O11 0.999671 0.386108 0.604923
O O12 0.133218 0.250000 0.555001
O O13 0.203705 0.416269 0.689807
O O14 0.645062 0.250000 0.400515
O O15 0.593758 0.076666 0.501394
O O16 0.655167 0.070623 0.298125
O O17 0.529057 0.250000 0.579735
O O18 0.239106 0.557639 0.864025
O O19 0.732532 0.250000 0.041005
#
# Coordination Sequence:
#
# PCOD8072818 Si02
#       8
#     4   4   4   4   4   4   4   4
#     4   8  13  26  50  72  88 111 151 198 231 260
#     4   9  17  30  46  61  84 120 158 193 227 269
#     4   9  17  31  53  72  87 120 156 183 224 275
#     4  10  20  32  47  71 100 123 147 182 224 276
#     4   9  16  27  45  68  92 113 145 196 237 269
#     4   7  12  24  42  64  84 108 147 190 230 267
#     4  11  20  28  42  67  96 127 153 179 228 282
#     4   9  18  32  49  68  89 117 159 203 231 259
#
# _framework density 17.766427
#
# number of rings (size 3 to 8) (size 9 to 14) (size 15 to 20)
#    0.000    3.000    0.000    4.500    0.000    0.500 
#    0.000    1.250    0.000    1.500    0.000    8.750 
#    0.000    0.000    0.000    0.000    0.000    0.000 
#
# Total GULP energy -396419.175296 kJ/mol
# GULP energy per Si atom -12388.099228 kJ/mol
# Density = 1.772599 g / cm^3
# Si number density = 17.766427 Si / 1000 Ang^3
#
#
#
# Elastic Constant Matrix: (Units=GPa)
#
#
# Indices 1 2 3 4 5 6 
#
# 1 66.6876 30.8448 24.7278 0.0000 -17.9688 0.0000
# 2 30.8448 75.6019 44.0484 0.0000 -15.6914 0.0000
# 3 24.7278 44.0484 70.1384 0.0000 -29.2730 0.0000
# 4 0.0000 0.0000 0.0000 22.6495 0.0000 -4.2832
# 5 -17.9688 -15.6914 -29.2730 0.0000 30.4779 0.0000
# 6 0.0000 0.0000 0.0000 -4.2832 0.0000 17.5983
#
#
#
# Elastic Compliance Matrix: (Units=1/GPa)
#
#
# Indices 1 2 3 4 5 6 
#
# 1 0.020375 -0.007047 0.001238 0.000000 0.009573 0.000000
# 2 -0.007047 0.023472 -0.014933 0.000000 -0.006413 0.000000
# 3 0.001238 -0.014933 0.033874 0.000000 0.025576 0.000000
# 4 0.000000 0.000000 0.000000 0.046281 0.000000 0.011264
# 5 0.009573 -0.006413 0.025576 0.000000 0.059718 0.000000
# 6 0.000000 0.000000 0.000000 0.011264 0.000000 0.059565
#
#
# Mechanical properties :
#
#
# Convention : Reuss Voigt Hill
#
# Bulk Modulus (GPa) = 27.59629 45.74109 36.66869
# Shear Modulus (GPa) = 16.84361 21.66560 19.25460
#
# Velocity S-wave (km/s) = 3.08240 3.49588 3.29563
# Velocity P-wave (km/s) = 5.31364 6.48819 5.93007
#
# Compressibility (1/GPa) = 0.03623675
#
# Stress axis : x y z
#
# Youngs Moduli (GPa) = 49.07904 42.60460 29.52144
#
# Poissons Ratio (x) = 0.30024 -0.03654
# Poissons Ratio (y) = 0.34587 0.44083
# Poissons Ratio (z) = -0.06075 0.63620
#
# Static dielectric constant tensor:
#      x y z
#    x 3.317540 0.000000 -0.372670 
#    y 0.000000 3.060010 0.000000 
#    z -0.372670 0.000000 3.295620 
# 
# 
# High freq. dielectric constant tensor:
#      x y z
#    x 1.679740 0.000000 -0.022940 
#    y 0.000000 1.665130 0.000000 
#    z -0.022940 0.000000 1.672240 
# 
# From -- ./inp_files/35088.got.cif
#   From: 2010.06.25/outbox.cif.g09.slc.cpg/sg11_18_cif.got.tgz:35088.got - 2010.06.27 23:14:04.
