data_PCOD8072470
_publ_section_title
;
Structure prediction by ZEFSAII (Michael W. Deem and Ramdas Pophale) SiO2 
 PCOD8072470
Probable space group: P 21/M
;
_chemical_formula_sum "Si O2"
_cell_formula_units_Z 32
_cell_length_a 31.480494
_cell_length_b 9.313096
_cell_length_c 12.530878
_cell_angle_alpha 90.000000
_cell_angle_beta 152.380949
_cell_angle_gamma 90.000000
_cell_volume 1703.145736
_symmetry_space_group_name_H-M "P 21/M"
_symmetry_group_IT_number 11
_symmetry_cell_setting 'monoclinic'
loop_
_space_group_symop_operation_xyz
x,y,z
-x,1/2+y,-z
-x,-y,-z
x,1/2-y,z
loop_
_atom_site_type_symbol
_atom_site_label
_atom_site_fract_x
_atom_site_fract_y
_atom_site_fract_z
Si Si1 0.974530 0.407867 0.157531
Si Si2 0.196705 0.079042 0.273006
Si Si3 0.336100 0.414889 0.404508
Si Si4 0.284270 0.581955 0.664103
Si Si5 0.078539 0.593891 0.720763
Si Si6 0.187244 0.417505 0.635118
Si Si7 0.235053 0.413239 0.978857
Si Si8 0.490837 0.917032 0.088936
O O1 0.971378 0.250000 0.094543
O O2 0.931763 0.391895 0.177518
O O3 0.079813 0.460525 0.400903
O O4 0.908189 0.520478 0.950116
O O5 0.191855 0.250000 0.276950
O O6 0.247454 0.030558 0.275781
O O7 0.254755 0.008485 0.496236
O O8 0.342612 0.250000 0.448452
O O9 0.327574 0.434127 0.256033
O O10 0.432145 0.482181 0.658698
O O11 0.260181 0.750000 0.595158
O O12 0.233374 0.521270 0.653725
O O13 0.392184 0.558018 0.922810
O O14 0.074479 0.750000 0.657371
O O15 0.000000 0.500000 0.500000
O O16 0.172883 0.522810 0.902486
O O17 0.198628 0.250000 0.629866
O O18 0.239677 0.449735 0.863995
O O19 0.197948 0.250000 0.908414
O O20 0.505906 0.750000 0.097237
O O21 0.500000 0.000000 0.000000
#
# Coordination Sequence:
#
# PCOD8072470 Si02
#       8
#     4   4   4   4   4   4   4   4
#     4  10  21  36  54  82 118 152 191 239 286 333
#     4  11  21  35  60  88 115 149 189 234 289 349
#     4   9  18  33  58  90 118 143 179 230 290 346
#     4  11  24  40  59  83 116 152 191 239 288 339
#     4  11  20  31  51  80 114 149 190 237 281 331
#     4  10  22  40  59  78 112 160 201 233 274 339
#     4  10  19  36  58  84 115 150 192 236 285 335
#     4  10  20  37  61  89 116 145 182 233 290 346
#
# _framework density 18.788762999999999
#
# number of rings (size 3 to 8) (size 9 to 14) (size 15 to 20)
#    0.000    1.750    3.750    1.125    0.000    2.500 
#    0.000    1.250    0.000    0.000    0.000    0.000 
#    0.000    0.000    0.000    0.000    0.000    0.000 
#
# Total GULP energy -396490.424804 kJ/mol
# GULP energy per Si atom -12390.325775 kJ/mol
# Density = 1.874600 g / cm^3
# Si number density = 18.788763 Si / 1000 Ang^3
#
#
#
# Elastic Constant Matrix: (Units=GPa)
#
#
# Indices 1 2 3 4 5 6 
#
# 1 56.4318 34.1125 21.8942 0.0000 -5.5979 0.0000
# 2 34.1125 80.4084 44.1733 0.0000 1.2192 0.0000
# 3 21.8942 44.1733 121.4266 0.0000 -9.0834 0.0000
# 4 0.0000 0.0000 0.0000 20.4864 0.0000 -4.2142
# 5 -5.5979 1.2192 -9.0834 0.0000 23.1737 0.0000
# 6 0.0000 0.0000 0.0000 -4.2142 0.0000 24.3399
#
#
#
# Elastic Compliance Matrix: (Units=1/GPa)
#
#
# Indices 1 2 3 4 5 6 
#
# 1 0.024788 -0.010530 -0.000154 0.000000 0.006481 0.000000
# 2 -0.010530 0.020239 -0.005907 0.000000 -0.005924 0.000000
# 3 -0.000154 -0.005907 0.010748 0.000000 0.004486 0.000000
# 4 0.000000 0.000000 0.000000 0.050615 0.000000 0.008763
# 5 0.006481 -0.005924 0.004486 0.000000 0.046788 0.000000
# 6 0.000000 0.000000 0.000000 0.008763 0.000000 0.042602
#
#
# Mechanical properties :
#
#
# Convention : Reuss Voigt Hill
#
# Bulk Modulus (GPa) = 44.26193 50.95852 47.61023
# Shear Modulus (GPa) = 21.14224 24.13914 22.64069
#
# Velocity S-wave (km/s) = 3.35813 3.58825 3.47509
# Velocity P-wave (km/s) = 6.21650 6.65943 6.44177
#
# Compressibility (1/GPa) = 0.02259278
#
# Stress axis : x y z
#
# Youngs Moduli (GPa) = 40.34142 49.41043 93.04309
#
# Poissons Ratio (x) = 0.52029 0.01434
# Poissons Ratio (y) = 0.42479 0.54961
# Poissons Ratio (z) = 0.00622 0.29187
#
# Static dielectric constant tensor:
#      x y z
#    x 3.277380 0.000000 -0.020980 
#    y 0.000000 3.567440 0.000000 
#    z -0.020980 0.000000 3.730600 
# 
# 
# High freq. dielectric constant tensor:
#      x y z
#    x 1.706110 0.000000 -0.008370 
#    y 0.000000 1.725910 0.000000 
#    z -0.008370 0.000000 1.740780 
# 
# From -- ./inp_files/45276.got.cif
#   From: 2010.06.25/outbox.cif.g09.slc.cpg/sg11_23_cif.got.tgz:45276.got - 2010.06.27 23:14:04.
