data_PCOD8072748
_publ_section_title
;
Structure prediction by ZEFSAII (Michael W. Deem and Ramdas Pophale) SiO2 
 PCOD8072748
Probable space group: P 21/M
;
_chemical_formula_sum "Si O2"
_cell_formula_units_Z 32
_cell_length_a 17.469662
_cell_length_b 17.978825
_cell_length_c 11.542635
_cell_angle_alpha 90.000000
_cell_angle_beta 31.032312
_cell_angle_gamma 90.000000
_cell_volume 1868.949052
_symmetry_space_group_name_H-M "P 21/M"
_symmetry_group_IT_number 11
_symmetry_cell_setting 'monoclinic'
loop_
_space_group_symop_operation_xyz
x,y,z
-x,1/2+y,-z
-x,-y,-z
x,1/2-y,z
loop_
_atom_site_type_symbol
_atom_site_label
_atom_site_fract_x
_atom_site_fract_y
_atom_site_fract_z
Si Si1 0.833745 0.915807 0.905878
Si Si2 0.779565 0.665799 0.208176
Si Si3 0.681572 0.667803 0.919621
Si Si4 0.989848 0.167482 0.497213
Si Si5 0.534396 0.163644 0.267210
Si Si6 0.833221 0.090753 0.908370
Si Si7 0.923615 0.664046 0.260033
Si Si8 0.379482 0.161702 0.244950
O O1 0.687034 0.887405 0.023221
O O2 0.983558 0.879128 0.656502
O O3 0.845770 0.003158 0.880821
O O4 0.818948 0.891956 0.057187
O O5 0.786814 0.750000 0.150113
O O6 0.615008 0.648908 0.467606
O O7 0.901557 0.655451 0.150636
O O8 0.626123 0.750000 0.031561
O O9 0.584353 0.637981 0.935771
O O10 0.849170 0.674765 0.649850
O O11 0.927018 0.250000 0.549415
O O12 0.877722 0.126407 0.727882
O O13 0.580136 0.250000 0.213071
O O14 0.508335 0.136990 0.167044
O O15 0.664413 0.114380 0.153990
O O16 0.933445 0.117889 0.884939
O O17 0.949879 0.750000 0.259265
O O18 0.778549 0.628876 0.509448
O O19 0.364479 0.250000 0.274055
#
# Coordination Sequence:
#
# PCOD8072748 Si02
#       8
#     4   4   4   4   4   4   4   4
#     4  10  20  30  47  73 101 128 157 193 240 293
#     4   9  18  35  53  69  89 126 174 203 222 272
#     4   8  14  27  50  70  86 118 163 201 225 264
#     4   9  17  30  50  71  92 122 162 201 230 273
#     4   9  19  31  49  72  95 121 156 201 242 279
#     4  12  20  29  47  77 107 123 146 197 261 293
#     4   9  16  28  50  70  90 124 165 201 230 271
#     4   8  13  27  48  70  88 114 161 204 227 260
#
# _framework density 17.121922000000001
#
# number of rings (size 3 to 8) (size 9 to 14) (size 15 to 20)
#    0.750    2.000    1.250    3.750    0.000    1.000 
#    0.000    0.625    0.000    1.500    0.000    5.250 
#    0.000    0.000    0.000    0.000    0.000    0.000 
#
# Total GULP energy -396443.808603 kJ/mol
# GULP energy per Si atom -12388.869019 kJ/mol
# Density = 1.708295 g / cm^3
# Si number density = 17.121922 Si / 1000 Ang^3
#
#
#
# Elastic Constant Matrix: (Units=GPa)
#
#
# Indices 1 2 3 4 5 6 
#
# 1 93.7163 47.2923 36.6771 0.0000 0.4695 0.0000
# 2 47.2923 116.6422 36.2704 0.0000 5.4593 0.0000
# 3 36.6771 36.2704 48.2672 0.0000 0.7369 0.0000
# 4 0.0000 0.0000 0.0000 15.8867 0.0000 2.3996
# 5 0.4695 5.4593 0.7369 0.0000 24.9953 0.0000
# 6 0.0000 0.0000 0.0000 2.3996 0.0000 3.4817
#
#
#
# Elastic Compliance Matrix: (Units=1/GPa)
#
#
# Indices 1 2 3 4 5 6 
#
# 1 0.016277 -0.003635 -0.009649 0.000000 0.000773 0.000000
# 2 -0.003635 0.012121 -0.006309 0.000000 -0.002393 0.000000
# 3 -0.009649 -0.006309 0.032782 0.000000 0.000593 0.000000
# 4 0.000000 0.000000 0.000000 0.070260 0.000000 -0.048423
# 5 0.000773 -0.002393 0.000593 0.000000 0.040498 0.000000
# 6 0.000000 0.000000 0.000000 -0.048423 0.000000 0.320585
#
#
# Mechanical properties :
#
#
# Convention : Reuss Voigt Hill
#
# Bulk Modulus (GPa) = 45.46829 55.45614 50.46221
# Shear Modulus (GPa) = 9.27572 18.09847 13.68709
#
# Velocity S-wave (km/s) = 2.33007 3.25473 2.83042
# Velocity P-wave (km/s) = 5.81826 6.82522 6.34176
#
# Compressibility (1/GPa) = 0.02199335
#
# Stress axis : x y z
#
# Youngs Moduli (GPa) = 61.43498 82.50030 30.50455
#
# Poissons Ratio (x) = 0.29993 0.29433
# Poissons Ratio (y) = 0.22335 0.19247
# Poissons Ratio (z) = 0.59277 0.52053
#
# Static dielectric constant tensor:
#      x y z
#    x 3.234510 0.000000 0.044520 
#    y 0.000000 2.932150 0.000000 
#    z 0.044520 0.000000 2.805560 
# 
# 
# High freq. dielectric constant tensor:
#      x y z
#    x 1.660930 0.000000 0.009390 
#    y 0.000000 1.639410 0.000000 
#    z 0.009390 0.000000 1.622310 
# 
# From -- ./inp_files/41956.got.cif
#   From: 2010.06.25/outbox.cif.g09.slc.cpg/sg11_21_cif.got.tgz:41956.got - 2010.06.27 23:14:04.
