data_PCOD8072442
_publ_section_title
;
Structure prediction by ZEFSAII (Michael W. Deem and Ramdas Pophale) SiO2 
 PCOD8072442
Probable space group: P 21/M
;
_chemical_formula_sum "Si O2"
_cell_formula_units_Z 28
_cell_length_a 9.538887
_cell_length_b 8.968974
_cell_length_c 25.286524
_cell_angle_alpha 90.000000
_cell_angle_beta 43.843321
_cell_angle_gamma 90.000000
_cell_volume 1498.537799
_symmetry_space_group_name_H-M "P 21/M"
_symmetry_group_IT_number 11
_symmetry_cell_setting 'monoclinic'
loop_
_space_group_symop_operation_xyz
x,y,z
-x,1/2+y,-z
-x,-y,-z
x,1/2-y,z
loop_
_atom_site_type_symbol
_atom_site_label
_atom_site_fract_x
_atom_site_fract_y
_atom_site_fract_z
Si Si1 0.288146 0.926903 0.212930
Si Si2 0.512485 0.926949 0.744265
Si Si3 0.123203 0.423475 0.806727
Si Si4 0.329922 0.922618 0.080076
Si Si5 0.512517 0.589505 0.549138
Si Si6 0.084491 0.913786 0.712016
Si Si7 0.217114 0.427591 0.429826
O O1 0.265156 0.750000 0.225182
O O2 0.344454 0.974390 0.137431
O O3 0.447636 0.988975 0.211583
O O4 0.078765 0.011786 0.282967
O O5 0.519381 0.750000 0.750058
O O6 0.674567 0.977011 0.654828
O O7 0.282546 0.973369 0.793763
O O8 0.178016 0.250000 0.799831
O O9 0.134995 0.464545 0.742351
O O10 0.889713 0.457260 0.886598
O O11 0.375889 0.750000 0.065420
O O12 0.500000 0.000000 0.000000
O O13 0.500000 0.500000 0.500000
O O14 0.613978 0.750000 0.509902
O O15 0.283516 0.615547 0.625975
O O16 0.638975 0.513040 0.562045
O O17 0.010612 0.750000 0.753663
O O18 0.196065 0.250000 0.435735
O O19 0.000000 0.500000 0.500000
#
# Coordination Sequence:
#
# PCOD8072442 Si02
#       7
#     4   4   4   4   4   4   4
#     4  10  22  38  57  87 119 148 188 237 284 337
#     4  11  22  39  60  84 115 153 197 241 286 346
#     4  10  20  36  59  87 115 148 188 233 282 336
#     4   9  20  38  61  89 120 149 185 230 278 337
#     4  10  22  38  54  77 109 143 187 240 286 339
#     4  10  19  36  57  79 108 146 190 238 283 336
#     4  10  23  41  56  79 113 150 193 241 292 342
#
# _framework density 18.684882000000002
#
# number of rings (size 3 to 8) (size 9 to 14) (size 15 to 20)
#    0.000    2.000    1.429    2.571    2.000    6.286 
#    0.000    0.714    0.000    0.000    0.000    0.000 
#    0.000    0.000    0.000    0.000    0.000    0.000 
#
# Total GULP energy -346964.800834 kJ/mol
# GULP energy per Si atom -12391.600030 kJ/mol
# Density = 1.864235 g / cm^3
# Si number density = 18.684882 Si / 1000 Ang^3
#
#
#
# Elastic Constant Matrix: (Units=GPa)
#
#
# Indices 1 2 3 4 5 6 
#
# 1 116.7864 35.9178 50.6637 0.0000 -4.1676 0.0000
# 2 35.9178 73.4637 46.3004 0.0000 -4.0391 0.0000
# 3 50.6637 46.3004 99.4613 0.0000 -9.4931 0.0000
# 4 0.0000 0.0000 0.0000 31.3988 0.0000 -2.9565
# 5 -4.1676 -4.0391 -9.4931 0.0000 22.1972 0.0000
# 6 0.0000 0.0000 0.0000 -2.9565 0.0000 34.0174
#
#
#
# Elastic Compliance Matrix: (Units=1/GPa)
#
#
# Indices 1 2 3 4 5 6 
#
# 1 0.011359 -0.002697 -0.004560 0.000000 -0.000308 0.000000
# 2 -0.002697 0.019907 -0.007919 0.000000 -0.000271 0.000000
# 3 -0.004560 -0.007919 0.016519 0.000000 0.004767 0.000000
# 4 0.000000 0.000000 0.000000 0.032111 0.000000 0.002791
# 5 -0.000308 -0.000271 0.004767 0.000000 0.046982 0.000000
# 6 0.000000 0.000000 0.000000 0.002791 0.000000 0.029639
#
#
# Mechanical properties :
#
#
# Convention : Reuss Voigt Hill
#
# Bulk Modulus (GPa) = 57.36387 61.71946 59.54166
# Shear Modulus (GPa) = 25.94974 27.97797 26.96386
#
# Velocity S-wave (km/s) = 3.73072 3.87377 3.80292
# Velocity P-wave (km/s) = 7.02318 7.28777 7.15670
#
# Compressibility (1/GPa) = 0.01743258
#
# Stress axis : x y z
#
# Youngs Moduli (GPa) = 88.03334 50.23450 60.53805
#
# Poissons Ratio (x) = 0.13546 0.27608
# Poissons Ratio (y) = 0.23739 0.47940
# Poissons Ratio (z) = 0.40146 0.39781
#
# Static dielectric constant tensor:
#      x y z
#    x 3.620670 0.000000 -0.142000 
#    y 0.000000 3.438890 0.000000 
#    z -0.142000 0.000000 3.365730 
# 
# 
# High freq. dielectric constant tensor:
#      x y z
#    x 1.731020 0.000000 -0.012280 
#    y 0.000000 1.734560 0.000000 
#    z -0.012280 0.000000 1.708570 
# 
# From -- ./inp_files/28156.got.cif
#   From: 2010.06.25/outbox.cif.g09.slc.cpg/sg11_15_cif.got.tgz:28156.got - 2010.06.27 23:14:04.
