data_PCOD8072063
_publ_section_title
;
Structure prediction by ZEFSAII (Michael W. Deem and Ramdas Pophale) SiO2 
 PCOD8072063
Probable space group: P 21/M
;
_chemical_formula_sum "Si O2"
_cell_formula_units_Z 32
_cell_length_a 12.205102
_cell_length_b 8.553140
_cell_length_c 21.566649
_cell_angle_alpha 90.000000
_cell_angle_beta 132.299685
_cell_angle_gamma 90.000000
_cell_volume 1665.202284
_symmetry_space_group_name_H-M "P 21/M"
_symmetry_group_IT_number 11
_symmetry_cell_setting 'monoclinic'
loop_
_space_group_symop_operation_xyz
x,y,z
-x,1/2+y,-z
-x,-y,-z
x,1/2-y,z
loop_
_atom_site_type_symbol
_atom_site_label
_atom_site_fract_x
_atom_site_fract_y
_atom_site_fract_z
Si Si1 0.995363 0.064720 0.300614
Si Si2 0.289995 0.930864 0.735507
Si Si3 0.448779 0.564624 0.353516
Si Si4 0.882960 0.434802 0.772277
Si Si5 0.153941 0.422904 0.570212
Si Si6 0.114676 0.065951 0.092439
Si Si7 0.272876 0.421628 0.479873
Si Si8 0.570670 0.433499 0.794831
O O1 0.996462 0.250000 0.310995
O O2 0.140088 0.990448 0.391964
O O3 0.839037 0.000785 0.268284
O O4 0.003945 0.016547 0.232249
O O5 0.318919 0.750000 0.760509
O O6 0.238931 0.956304 0.646025
O O7 0.447551 0.021287 0.799918
O O8 0.459919 0.750000 0.362659
O O9 0.283604 0.508709 0.308571
O O10 0.565098 0.493117 0.449646
O O11 0.481838 0.516278 0.294595
O O12 0.899356 0.250000 0.773427
O O13 0.923751 0.487120 0.856610
O O14 0.141331 0.250000 0.596708
O O15 0.234513 0.401942 0.536707
O O16 0.000000 0.500000 0.500000
O O17 0.097552 0.250000 0.092507
O O18 0.278753 0.023442 0.131506
O O19 0.000000 0.000000 0.000000
O O20 0.290827 0.250000 0.455990
O O21 0.603200 0.250000 0.809767
#
# Coordination Sequence:
#
# PCOD8072063 Si02
#       8
#     4   4   4   4   4   4   4   4
#     4  10  21  35  50  71 108 156 200 238 281 332
#     4  11  21  33  50  77 110 149 195 239 284 336
#     4   8  15  29  50  73 102 140 182 233 286 326
#     4  10  21  37  56  81 112 146 188 232 278 335
#     4  11  19  30  47  69 100 142 190 247 296 334
#     4  11  22  40  67  96 120 142 172 215 270 333
#     4   9  16  29  47  69 100 145 191 238 290 330
#     4  10  19  34  57  86 117 147 181 228 283 330
#
# _framework density 19.216884
#
# number of rings (size 3 to 8) (size 9 to 14) (size 15 to 20)
#    0.000    2.000    2.500    3.375    0.000    1.500 
#    0.000    0.000    0.000    0.750    0.000    0.000 
#    0.000    0.000    0.000    0.000    0.000    0.000 
#
# Total GULP energy -396445.387300 kJ/mol
# GULP energy per Si atom -12388.918353 kJ/mol
# Density = 1.917315 g / cm^3
# Si number density = 19.216884 Si / 1000 Ang^3
#
#
#
# Elastic Constant Matrix: (Units=GPa)
#
#
# Indices 1 2 3 4 5 6 
#
# 1 113.4857 15.6056 45.6828 0.0000 -0.9447 0.0000
# 2 15.6056 32.9045 1.8856 0.0000 -0.1405 0.0000
# 3 45.6828 1.8856 85.9741 0.0000 9.7342 0.0000
# 4 0.0000 0.0000 0.0000 22.8115 0.0000 -0.6495
# 5 -0.9447 -0.1405 9.7342 0.0000 17.4874 0.0000
# 6 0.0000 0.0000 0.0000 -0.6495 0.0000 23.8559
#
#
#
# Elastic Compliance Matrix: (Units=1/GPa)
#
#
# Indices 1 2 3 4 5 6 
#
# 1 0.012414 -0.005468 -0.006988 0.000000 0.004516 0.000000
# 2 -0.005468 0.032845 0.002336 0.000000 -0.001332 0.000000
# 3 -0.006988 0.002336 0.016365 0.000000 -0.009468 0.000000
# 4 0.000000 0.000000 0.000000 0.043871 0.000000 0.001194
# 5 0.004516 -0.001332 -0.009468 0.000000 0.062688 0.000000
# 6 0.000000 0.000000 0.000000 0.001194 0.000000 0.041951
#
#
# Mechanical properties :
#
#
# Convention : Reuss Voigt Hill
#
# Bulk Modulus (GPa) = 24.16370 39.85693 32.01031
# Shear Modulus (GPa) = 20.47767 24.11032 22.29399
#
# Velocity S-wave (km/s) = 3.26791 3.54594 3.40976
# Velocity P-wave (km/s) = 5.18078 6.12784 5.67411
#
# Compressibility (1/GPa) = 0.04138439
#
# Stress axis : x y z
#
# Youngs Moduli (GPa) = 80.55396 30.44629 61.10536
#
# Poissons Ratio (x) = 0.16648 0.42699
# Poissons Ratio (y) = 0.44046 -0.14273
# Poissons Ratio (z) = 0.56289 -0.07112
#
# Static dielectric constant tensor:
#      x y z
#    x 3.625450 0.000000 0.230950 
#    y 0.000000 3.362480 0.000000 
#    z 0.230950 0.000000 3.381190 
# 
# 
# High freq. dielectric constant tensor:
#      x y z
#    x 1.751660 0.000000 0.017970 
#    y 0.000000 1.728570 0.000000 
#    z 0.017970 0.000000 1.717490 
# 
# From -- ./inp_files/64418.got.cif
#   From: 2010.06.25/outbox.cif.g09.slc.cpg/sg11_33_cif.got.tgz:64418.got - 2010.06.27 23:14:04.
