data_PCOD8072736
_publ_section_title
;
Structure prediction by ZEFSAII (Michael W. Deem and Ramdas Pophale) SiO2 
 PCOD8072736
Probable space group: P 21/M
;
_chemical_formula_sum "Si O2"
_cell_formula_units_Z 22
_cell_length_a 9.525806
_cell_length_b 13.439974
_cell_length_c 9.743873
_cell_angle_alpha 90.000000
_cell_angle_beta 108.763034
_cell_angle_gamma 90.000000
_cell_volume 1181.180210
_symmetry_space_group_name_H-M "P 21/M"
_symmetry_group_IT_number 11
_symmetry_cell_setting 'monoclinic'
loop_
_space_group_symop_operation_xyz
x,y,z
-x,1/2+y,-z
-x,-y,-z
x,1/2-y,z
loop_
_atom_site_type_symbol
_atom_site_label
_atom_site_fract_x
_atom_site_fract_y
_atom_site_fract_z
Si Si1 0.400897 0.594705 0.494743
Si Si2 0.011415 0.415172 0.117013
Si Si3 0.007047 0.250000 0.752136
Si Si4 0.931544 0.047756 0.608100
Si Si5 0.459968 0.750000 0.745875
Si Si6 0.763047 0.250000 0.068442
Si Si7 0.210284 0.250000 0.068431
Si Si8 0.324054 0.750000 0.252352
O O1 0.500000 0.500000 0.500000
O O2 0.237718 0.562613 0.481581
O O3 0.457255 0.655044 0.644801
O O4 0.396569 0.655321 0.350082
O O5 0.048061 0.469096 0.267251
O O6 0.152365 0.347366 0.127779
O O7 0.862413 0.349664 0.087061
O O8 0.000000 0.500000 0.000000
O O9 0.013338 0.152263 0.661036
O O10 0.855443 0.250000 0.792612
O O11 0.149398 0.250000 0.894431
O O12 0.000000 0.000000 0.500000
O O13 0.326291 0.750000 0.815477
O O14 0.612316 0.750000 0.878907
O O15 0.647002 0.250000 0.902709
#
# Coordination Sequence:
#
# PCOD8072736 Si02
#       8
#     4   4   2   4   2   2   2   2
#     4  10  21  41  60  82 118 160 200 233 297 373
#     4  11  20  37  66  89 114 156 211 245 291 367
#     4  10  19  40  61  84 119 158 194 253 299 352
#     4  11  22  37  62  90 116 151 196 253 304 346
#     4  11  24  39  58  90 125 160 192 251 309 356
#     4  11  22  39  59  93 124 153 198 258 312 351
#     4  11  21  39  62  87 121 158 207 246 288 370
#     4   9  18  39  64  80 113 159 197 238 304 359
#
# _framework density 18.625440000000001
#
# number of rings (size 3 to 8) (size 9 to 14) (size 15 to 20)
#    0.000    1.455    3.636    3.818    0.000    1.455 
#    3.273    2.727    0.000    0.000    0.000    0.000 
#    0.000    0.000    0.000    0.000    0.000    0.000 
#
# Total GULP energy -272753.608605 kJ/mol
# GULP energy per Si atom -12397.891300 kJ/mol
# Density = 1.858305 g / cm^3
# Si number density = 18.625440 Si / 1000 Ang^3
#
#
#
# Elastic Constant Matrix: (Units=GPa)
#
#
# Indices 1 2 3 4 5 6 
#
# 1 93.4448 62.5443 55.3489 0.0000 12.3715 0.0000
# 2 62.5443 149.6792 55.5666 0.0000 1.9256 0.0000
# 3 55.3489 55.5666 109.3436 0.0000 9.1132 0.0000
# 4 0.0000 0.0000 0.0000 -83.9096 0.0000 35.8932
# 5 12.3715 1.9256 9.1132 0.0000 34.6214 0.0000
# 6 0.0000 0.0000 0.0000 35.8932 0.0000 18.0868
#
#
#
# Elastic Compliance Matrix: (Units=1/GPa)
#
#
# Indices 1 2 3 4 5 6 
#
# 1 0.018683 -0.005400 -0.006320 0.000000 -0.004712 0.000000
# 2 -0.005400 0.009810 -0.002420 0.000000 0.002021 0.000000
# 3 -0.006320 -0.002420 0.013675 0.000000 -0.001207 0.000000
# 4 0.000000 0.000000 0.000000 -0.006446 0.000000 0.012792
# 5 -0.004712 0.002021 -0.001207 0.000000 0.030773 0.000000
# 6 0.000000 0.000000 0.000000 0.012792 0.000000 0.029904
#
#
# Mechanical properties :
#
#
# Convention : Reuss Voigt Hill
#
# Bulk Modulus (GPa) = 72.00848 77.70968 74.85908
# Shear Modulus (GPa) = 38.66684 5.69359 22.18021
#
# Velocity S-wave (km/s) = 4.56128 1.75029 3.45462
# Velocity P-wave (km/s) = 8.15388 6.77478 7.49611
#
# Compressibility (1/GPa) = 0.01388725
#
# Stress axis : x y z
#
# Youngs Moduli (GPa) = 53.52359 101.93867 73.12425
#
# Poissons Ratio (x) = 0.55046 0.46218
# Poissons Ratio (y) = 0.28902 0.17698
# Poissons Ratio (z) = 0.33829 0.24672
#
# Static dielectric constant tensor:
#      x y z
#    x 3.234420 0.000000 0.136460 
#    y 0.000000 3.676840 0.000000 
#    z 0.136460 0.000000 3.618200 
# 
# 
# High freq. dielectric constant tensor:
#      x y z
#    x 1.701770 0.000000 0.009370 
#    y 0.000000 1.742450 0.000000 
#    z 0.009370 0.000000 1.738210 
# 
# From -- ./inp_files/12660.got.cif
#   From: 2010.06.25/outbox.cif.g09.slc.cpg/sg11_7_cif.got.tgz:12660.got - 2010.06.27 23:14:04.
