data_PCOD8072586
_publ_section_title
;
Structure prediction by ZEFSAII (Michael W. Deem and Ramdas Pophale) SiO2 
 PCOD8072586
Probable space group: P 21/M
;
_chemical_formula_sum "Si O2"
_cell_formula_units_Z 32
_cell_length_a 18.586544
_cell_length_b 8.971748
_cell_length_c 14.108895
_cell_angle_alpha 90.000000
_cell_angle_beta 135.941349
_cell_angle_gamma 90.000000
_cell_volume 1636.062448
_symmetry_space_group_name_H-M "P 21/M"
_symmetry_group_IT_number 11
_symmetry_cell_setting 'monoclinic'
loop_
_space_group_symop_operation_xyz
x,y,z
-x,1/2+y,-z
-x,-y,-z
x,1/2-y,z
loop_
_atom_site_type_symbol
_atom_site_label
_atom_site_fract_x
_atom_site_fract_y
_atom_site_fract_z
Si Si1 0.043419 0.077394 0.949399
Si Si2 0.805425 0.926833 0.203807
Si Si3 0.793610 0.577014 0.407846
Si Si4 0.587864 0.576250 0.328139
Si Si5 0.405037 0.926039 0.464046
Si Si6 0.382911 0.077227 0.101303
Si Si7 0.722574 0.919472 0.802431
Si Si8 0.016041 0.927174 0.310888
O O1 0.021754 0.250000 0.942012
O O2 0.987512 0.018217 0.801625
O O3 0.164401 0.043574 0.051292
O O4 0.000000 0.000000 0.000000
O O5 0.805639 0.750000 0.194414
O O6 0.790159 0.980658 0.296803
O O7 0.914785 0.990196 0.269381
O O8 0.710076 0.988327 0.050794
O O9 0.823061 0.750000 0.439864
O O10 0.682733 0.545111 0.348181
O O11 0.880369 0.488029 0.545682
O O12 0.575669 0.750000 0.340698
O O13 0.607501 0.485567 0.442279
O O14 0.485711 0.517621 0.177632
O O15 0.420279 0.750000 0.481746
O O16 0.500000 0.000000 0.500000
O O17 0.302590 0.969562 0.307898
O O18 0.403551 0.250000 0.096645
O O19 0.357717 0.056931 0.188315
O O20 0.716390 0.750000 0.758745
O O21 0.016850 0.750000 0.317142
#
# Coordination Sequence:
#
# PCOD8072586 Si02
#       8
#     4   4   4   4   4   4   4   4
#     4  10  22  38  57  86 120 155 192 237 293 350
#     4   9  18  38  65  89 113 150 197 246 300 355
#     4  10  23  40  59  85 120 158 195 241 299 350
#     4  11  24  40  56  84 124 159 194 241 293 348
#     4  12  24  38  59  85 114 151 193 237 285 344
#     4  10  19  36  64  88 112 153 199 242 293 350
#     4  10  20  37  59  84 115 153 196 239 291 349
#     4  10  20  38  63  88 116 151 197 244 290 351
#
# _framework density 19.559155000000001
#
# number of rings (size 3 to 8) (size 9 to 14) (size 15 to 20)
#    0.000    1.750    2.500    1.875    1.750    2.500 
#    0.000    1.250    0.000    0.000    0.000    0.000 
#    0.000    0.000    0.000    0.000    0.000    0.000 
#
# Total GULP energy -396886.537682 kJ/mol
# GULP energy per Si atom -12402.704303 kJ/mol
# Density = 1.951464 g / cm^3
# Si number density = 19.559155 Si / 1000 Ang^3
#
#
#
# Elastic Constant Matrix: (Units=GPa)
#
#
# Indices 1 2 3 4 5 6 
#
# 1 122.3693 46.2230 52.4275 0.0000 -4.5985 0.0000
# 2 46.2230 73.4726 43.4304 0.0000 1.3360 0.0000
# 3 52.4275 43.4304 126.2627 0.0000 2.9711 0.0000
# 4 0.0000 0.0000 0.0000 30.9143 0.0000 2.8065
# 5 -4.5985 1.3360 2.9711 0.0000 33.3008 0.0000
# 6 0.0000 0.0000 0.0000 2.8065 0.0000 25.2006
#
#
#
# Elastic Compliance Matrix: (Units=1/GPa)
#
#
# Indices 1 2 3 4 5 6 
#
# 1 0.011635 -0.005615 -0.002949 0.000000 0.002095 0.000000
# 2 -0.005615 0.019794 -0.004450 0.000000 -0.001172 0.000000
# 3 -0.002949 -0.004450 0.010703 0.000000 -0.001184 0.000000
# 4 0.000000 0.000000 0.000000 0.032678 0.000000 -0.003639
# 5 0.002095 -0.001172 -0.001184 0.000000 0.030471 0.000000
# 6 0.000000 0.000000 0.000000 -0.003639 0.000000 0.040087
#
#
# Mechanical properties :
#
#
# Convention : Reuss Voigt Hill
#
# Bulk Modulus (GPa) = 62.09131 67.36296 64.72713
# Shear Modulus (GPa) = 28.28628 29.88472 29.08550
#
# Velocity S-wave (km/s) = 3.80701 3.91310 3.86042
# Velocity P-wave (km/s) = 7.15113 7.41160 7.28253
#
# Compressibility (1/GPa) = 0.01610531
#
# Stress axis : x y z
#
# Youngs Moduli (GPa) = 85.94669 50.51938 93.43169
#
# Poissons Ratio (x) = 0.28365 0.27555
# Poissons Ratio (y) = 0.48256 0.41574
# Poissons Ratio (z) = 0.25348 0.22480
#
# Static dielectric constant tensor:
#      x y z
#    x 3.420430 0.000000 -0.084010 
#    y 0.000000 3.487150 0.000000 
#    z -0.084010 0.000000 3.767990 
# 
# 
# High freq. dielectric constant tensor:
#      x y z
#    x 1.764660 0.000000 0.001720 
#    y 0.000000 1.739700 0.000000 
#    z 0.001720 0.000000 1.778790 
# 
# From -- ./inp_files/54374.got.cif
#   From: 2010.06.25/outbox.cif.g09.slc.cpg/sg11_28_cif.got.tgz:54374.got - 2010.06.27 23:14:04.
