data_PCOD8072102
_publ_section_title
;
Structure prediction by ZEFSAII (Michael W. Deem and Ramdas Pophale) SiO2 
 PCOD8072102
Probable space group: P 21/M
;
_chemical_formula_sum "Si O2"
_cell_formula_units_Z 28
_cell_length_a 14.552070
_cell_length_b 9.221092
_cell_length_c 12.566751
_cell_angle_alpha 90.000000
_cell_angle_beta 59.355072
_cell_angle_gamma 90.000000
_cell_volume 1450.780030
_symmetry_space_group_name_H-M "P 21/M"
_symmetry_group_IT_number 11
_symmetry_cell_setting 'monoclinic'
loop_
_space_group_symop_operation_xyz
x,y,z
-x,1/2+y,-z
-x,-y,-z
x,1/2-y,z
loop_
_atom_site_type_symbol
_atom_site_label
_atom_site_fract_x
_atom_site_fract_y
_atom_site_fract_z
Si Si1 0.512689 0.422104 0.305234
Si Si2 0.109926 0.078278 0.409367
Si Si3 0.897193 0.418736 0.021085
Si Si4 0.571136 0.416932 0.040163
Si Si5 0.278239 0.920464 0.705088
Si Si6 0.184407 0.583589 0.159482
Si Si7 0.275878 0.421103 0.495503
O O1 0.512016 0.250000 0.300593
O O2 0.600385 0.472064 0.340576
O O3 0.394919 0.481631 0.401556
O O4 0.548857 0.483418 0.169625
O O5 0.091782 0.250000 0.416768
O O6 0.197554 0.034963 0.445961
O O7 0.150606 0.025160 0.271628
O O8 0.000000 0.000000 0.500000
O O9 0.918565 0.250000 0.021303
O O10 0.794734 0.463642 0.151455
O O11 0.879625 0.459615 0.908618
O O12 0.000000 0.500000 0.000000
O O13 0.537391 0.250000 0.057465
O O14 0.692541 0.439201 0.937435
O O15 0.500000 0.500000 0.000000
O O16 0.273158 0.750000 0.685118
O O17 0.234693 0.003731 0.627370
O O18 0.160258 0.750000 0.206876
O O19 0.276311 0.250000 0.513032
#
# Coordination Sequence:
#
# PCOD8072102 Si02
#       7
#     4   4   4   4   4   4   4
#     4   9  17  35  59  83 115 153 188 229 287 348
#     4  11  25  43  62  86 117 155 198 244 294 350
#     4  10  22  39  60  88 117 152 195 242 294 348
#     4  10  19  34  58  85 117 155 193 237 287 344
#     4  10  20  37  61  87 116 152 192 233 287 348
#     4  10  21  40  63  87 118 154 195 243 296 351
#     4  10  22  38  58  85 117 153 193 238 288 341
#
# _framework density 19.299962000000001
#
# number of rings (size 3 to 8) (size 9 to 14) (size 15 to 20)
#    0.000    2.000    1.429    1.714    2.000    4.000 
#    0.000    1.429    0.000    0.000    0.000    0.000 
#    0.000    0.000    0.000    0.000    0.000    0.000 
#
# Total GULP energy -347241.966309 kJ/mol
# GULP energy per Si atom -12401.498797 kJ/mol
# Density = 1.925603 g / cm^3
# Si number density = 19.299962 Si / 1000 Ang^3
#
#
#
# Elastic Constant Matrix: (Units=GPa)
#
#
# Indices 1 2 3 4 5 6 
#
# 1 151.4722 53.4570 52.1411 0.0000 14.3290 0.0000
# 2 53.4570 50.6383 45.3571 0.0000 7.0151 0.0000
# 3 52.1411 45.3571 109.9110 0.0000 21.7508 0.0000
# 4 0.0000 0.0000 0.0000 34.3343 0.0000 2.2511
# 5 14.3290 7.0151 21.7508 0.0000 29.9214 0.0000
# 6 0.0000 0.0000 0.0000 2.2511 0.0000 32.8932
#
#
#
# Elastic Compliance Matrix: (Units=1/GPa)
#
#
# Indices 1 2 3 4 5 6 
#
# 1 0.010709 -0.010870 -0.000098 0.000000 -0.002509 0.000000
# 2 -0.010870 0.042508 -0.013366 0.000000 0.004956 0.000000
# 3 -0.000098 -0.013366 0.016389 0.000000 -0.008733 0.000000
# 4 0.000000 0.000000 0.000000 0.029257 0.000000 -0.002002
# 5 -0.002509 0.004956 -0.008733 0.000000 0.039809 0.000000
# 6 0.000000 0.000000 0.000000 -0.002002 0.000000 0.030538
#
#
# Mechanical properties :
#
#
# Convention : Reuss Voigt Hill
#
# Bulk Modulus (GPa) = 47.75978 68.21466 57.98722
# Shear Modulus (GPa) = 22.23635 30.16754 26.20194
#
# Velocity S-wave (km/s) = 3.39801 3.95788 3.68858
# Velocity P-wave (km/s) = 6.33996 7.50384 6.94632
#
# Compressibility (1/GPa) = 0.02093812
#
# Stress axis : x y z
#
# Youngs Moduli (GPa) = 93.37869 23.52492 61.01691
#
# Poissons Ratio (x) = 0.25571 0.00600
# Poissons Ratio (y) = 1.01499 0.81556
# Poissons Ratio (z) = 0.00918 0.31444
#
# Static dielectric constant tensor:
#      x y z
#    x 3.659680 0.000000 -0.018200 
#    y 0.000000 3.264580 0.000000 
#    z -0.018200 0.000000 3.700950 
# 
# 
# High freq. dielectric constant tensor:
#      x y z
#    x 1.765830 0.000000 0.002290 
#    y 0.000000 1.728210 0.000000 
#    z 0.002290 0.000000 1.764220 
# 
# From -- ./inp_files/37849.got.cif
#   From: 2010.06.25/outbox.cif.g09.slc.cpg/sg11_19_cif.got.tgz:37849.got - 2010.06.27 23:14:04.
