data_PCOD8072862
_publ_section_title
;
Structure prediction by ZEFSAII (Michael W. Deem and Ramdas Pophale) SiO2 
 PCOD8072862
Probable space group: P 21/M
;
_chemical_formula_sum "Si O2"
_cell_formula_units_Z 28
_cell_length_a 17.540081
_cell_length_b 9.250412
_cell_length_c 12.835559
_cell_angle_alpha 90.000000
_cell_angle_beta 137.011459
_cell_angle_gamma 90.000000
_cell_volume 1420.030349
_symmetry_space_group_name_H-M "P 21/M"
_symmetry_group_IT_number 11
_symmetry_cell_setting 'monoclinic'
loop_
_space_group_symop_operation_xyz
x,y,z
-x,1/2+y,-z
-x,-y,-z
x,1/2-y,z
loop_
_atom_site_type_symbol
_atom_site_label
_atom_site_fract_x
_atom_site_fract_y
_atom_site_fract_z
Si Si1 0.083339 0.405749 0.954839
Si Si2 0.716431 0.421675 0.520674
Si Si3 0.106871 0.092871 0.212164
Si Si4 0.491249 0.420622 0.603885
Si Si5 0.892824 0.419139 0.521468
Si Si6 0.884225 0.415830 0.277733
Si Si7 0.270041 0.587001 0.063776
O O1 0.077895 0.250000 0.891836
O O2 0.057140 0.379819 0.049203
O O3 0.205116 0.474732 0.070819
O O4 0.987715 0.511323 0.812416
O O5 0.699776 0.250000 0.513958
O O6 0.785651 0.487481 0.687056
O O7 0.598193 0.502233 0.409846
O O8 0.789650 0.469302 0.492629
O O9 0.134533 0.250000 0.290527
O O10 0.500000 0.500000 0.500000
O O11 0.465208 0.250000 0.559249
O O12 0.600349 0.440330 0.784904
O O13 0.909941 0.250000 0.553587
O O14 0.855249 0.461592 0.366868
O O15 0.012981 0.491701 0.665706
O O16 0.922398 0.250000 0.312188
O O17 0.771385 0.442090 0.096649
O O18 0.237821 0.750000 0.063988
#
# Coordination Sequence:
#
# PCOD8072862 Si02
#       7
#     4   4   4   4   4   4   4
#     4  10  20  32  49  75 106 137 171 217 272 329
#     4  11  22  36  55  79 108 143 183 227 275 325
#     4  10  20  33  50  74 105 140 176 217 269 328
#     4  11  24  41  59  80 108 145 190 234 277 326
#     4   9  19  35  56  84 115 144 176 219 273 330
#     4   9  18  35  58  83 112 144 178 220 272 328
#     4  10  21  36  55  77 103 140 183 226 271 323
#
# _framework density 19.717887000000001
#
# number of rings (size 3 to 8) (size 9 to 14) (size 15 to 20)
#    0.000    2.000    0.000    3.429    0.000    9.143 
#    0.000    0.714    0.000    0.000    0.000    0.000 
#    0.000    0.000    0.000    0.000    0.000    0.000 
#
# Total GULP energy -346903.778948 kJ/mol
# GULP energy per Si atom -12389.420677 kJ/mol
# Density = 1.967301 g / cm^3
# Si number density = 19.717887 Si / 1000 Ang^3
#
#
#
# Elastic Constant Matrix: (Units=GPa)
#
#
# Indices 1 2 3 4 5 6 
#
# 1 93.6479 40.3894 38.1868 0.0000 18.2452 0.0000
# 2 40.3894 115.8065 42.5630 0.0000 25.6715 0.0000
# 3 38.1868 42.5630 112.9710 0.0000 15.8764 0.0000
# 4 0.0000 0.0000 0.0000 24.9822 0.0000 10.8547
# 5 18.2452 25.6715 15.8764 0.0000 32.3863 0.0000
# 6 0.0000 0.0000 0.0000 10.8547 0.0000 28.8604
#
#
#
# Elastic Compliance Matrix: (Units=1/GPa)
#
#
# Indices 1 2 3 4 5 6 
#
# 1 0.013951 -0.002824 -0.003074 0.000000 -0.004114 0.000000
# 2 -0.002824 0.012077 -0.002657 0.000000 -0.006680 0.000000
# 3 -0.003074 -0.002657 0.011118 0.000000 -0.001613 0.000000
# 4 0.000000 0.000000 0.000000 0.047848 0.000000 -0.017996
# 5 -0.004114 -0.006680 -0.001613 0.000000 0.039281 0.000000
# 6 0.000000 0.000000 0.000000 -0.017996 0.000000 0.041418
#
#
# Mechanical properties :
#
#
# Convention : Reuss Voigt Hill
#
# Bulk Modulus (GPa) = 49.90553 62.74486 56.32520
# Shear Modulus (GPa) = 26.38776 30.66485 28.52630
#
# Velocity S-wave (km/s) = 3.66220 3.94785 3.80771
# Velocity P-wave (km/s) = 6.57624 7.25749 6.92525
#
# Compressibility (1/GPa) = 0.02003786
#
# Stress axis : x y z
#
# Youngs Moduli (GPa) = 71.67857 82.80007 89.94032
#
# Poissons Ratio (x) = 0.23383 0.27644
# Poissons Ratio (y) = 0.20242 0.23896
# Poissons Ratio (z) = 0.22031 0.21999
#
# Static dielectric constant tensor:
#      x y z
#    x 3.556950 0.000000 -0.072530 
#    y 0.000000 4.014390 0.000000 
#    z -0.072530 0.000000 3.612900 
# 
# 
# High freq. dielectric constant tensor:
#      x y z
#    x 1.755760 0.000000 -0.007470 
#    y 0.000000 1.784290 0.000000 
#    z -0.007470 0.000000 1.762210 
# 
# From -- ./inp_files/53273.got.cif
#   From: 2010.06.25/outbox.cif.g09.slc.cpg/sg11_27_cif.got.tgz:53273.got - 2010.06.27 23:14:04.
