data_PCOD8072726
_publ_section_title
;
Structure prediction by ZEFSAII (Michael W. Deem and Ramdas Pophale) SiO2 
 PCOD8072726
Probable space group: P 21/M
;
_chemical_formula_sum "Si O2"
_cell_formula_units_Z 32
_cell_length_a 28.779928
_cell_length_b 8.883086
_cell_length_c 12.082919
_cell_angle_alpha 90.000000
_cell_angle_beta 147.345891
_cell_angle_gamma 90.000000
_cell_volume 1666.748688
_symmetry_space_group_name_H-M "P 21/M"
_symmetry_group_IT_number 11
_symmetry_cell_setting 'monoclinic'
loop_
_space_group_symop_operation_xyz
x,y,z
-x,1/2+y,-z
-x,-y,-z
x,1/2-y,z
loop_
_atom_site_type_symbol
_atom_site_label
_atom_site_fract_x
_atom_site_fract_y
_atom_site_fract_z
Si Si1 0.091406 0.922823 0.691451
Si Si2 0.149135 0.576086 0.056259
Si Si3 0.751274 0.071405 0.141199
Si Si4 0.660704 0.427337 0.579703
Si Si5 0.244306 0.929043 0.594535
Si Si6 0.593112 0.070647 0.675002
Si Si7 0.088968 0.072272 0.145837
Si Si8 0.589152 0.426836 0.206852
O O1 0.078754 0.750000 0.634574
O O2 0.164859 0.992331 0.756894
O O3 0.119976 0.945211 0.873462
O O4 0.000000 0.000000 0.500000
O O5 0.141379 0.750000 0.079092
O O6 0.245056 0.511982 0.257605
O O7 0.096102 0.469688 0.031202
O O8 0.752849 0.250000 0.135171
O O9 0.754701 0.017694 0.275414
O O10 0.661591 0.015023 0.905554
O O11 0.667241 0.250000 0.607663
O O12 0.625430 0.494894 0.622661
O O13 0.602069 0.475291 0.359653
O O14 0.233900 0.750000 0.563711
O O15 0.333152 0.984186 0.715686
O O16 0.165206 0.004975 0.373173
O O17 0.584765 0.250000 0.659926
O O18 0.500000 0.000000 0.500000
O O19 0.086694 0.250000 0.157862
O O20 0.000000 0.000000 0.000000
O O21 0.581478 0.250000 0.177630
O O22 0.500000 0.500000 0.000000
#
# Coordination Sequence:
#
# PCOD8072726 Si02
#       8
#     4   4   4   4   4   4   4   4
#     4  10  21  37  60  88 118 153 192 238 288 347
#     4  10  19  39  65  85 113 154 200 245 293 349
#     4   9  19  37  60  84 115 155 193 231 285 349
#     4   9  17  35  60  80 108 152 196 236 287 345
#     4  10  21  40  62  85 118 158 198 241 292 350
#     4  10  20  36  58  84 114 153 196 239 287 344
#     4  12  26  42  62  89 119 153 195 245 297 357
#     4  10  21  36  57  83 115 154 194 240 289 343
#
# _framework density 19.199054
#
# number of rings (size 3 to 8) (size 9 to 14) (size 15 to 20)
#    0.000    2.000    2.500    1.125    3.500    1.000 
#    0.000    1.875    0.000    0.000    0.000    0.000 
#    0.000    0.000    0.000    0.000    0.000    0.000 
#
# Total GULP energy -396685.526169 kJ/mol
# GULP energy per Si atom -12396.422693 kJ/mol
# Density = 1.915536 g / cm^3
# Si number density = 19.199054 Si / 1000 Ang^3
#
#
#
# Elastic Constant Matrix: (Units=GPa)
#
#
# Indices 1 2 3 4 5 6 
#
# 1 143.1320 37.4903 56.3382 0.0000 0.8132 0.0000
# 2 37.4903 46.6122 43.2358 0.0000 -0.4064 0.0000
# 3 56.3382 43.2358 121.1893 0.0000 14.9484 0.0000
# 4 0.0000 0.0000 0.0000 31.2929 0.0000 6.8915
# 5 0.8132 -0.4064 14.9484 0.0000 33.5615 0.0000
# 6 0.0000 0.0000 0.0000 6.8915 0.0000 23.9547
#
#
#
# Elastic Compliance Matrix: (Units=1/GPa)
#
#
# Indices 1 2 3 4 5 6 
#
# 1 0.009349 -0.005049 -0.002655 0.000000 0.000895 0.000000
# 2 -0.005049 0.035895 -0.011140 0.000000 0.005519 0.000000
# 3 -0.002655 -0.011140 0.014252 0.000000 -0.006418 0.000000
# 4 0.000000 0.000000 0.000000 0.034118 0.000000 -0.009815
# 5 0.000895 0.005519 -0.006418 0.000000 0.032700 0.000000
# 6 0.000000 0.000000 0.000000 -0.009815 0.000000 0.044569
#
#
# Mechanical properties :
#
#
# Convention : Reuss Voigt Hill
#
# Bulk Modulus (GPa) = 45.85351 65.00689 55.43020
# Shear Modulus (GPa) = 23.16528 29.35311 26.25919
#
# Velocity S-wave (km/s) = 3.47736 3.91434 3.70230
# Velocity P-wave (km/s) = 6.32912 7.37308 6.87096
#
# Compressibility (1/GPa) = 0.02180858
#
# Stress axis : x y z
#
# Youngs Moduli (GPa) = 106.96296 27.85889 70.16571
#
# Poissons Ratio (x) = 0.14065 0.18632
# Poissons Ratio (y) = 0.54001 0.78163
# Poissons Ratio (z) = 0.28403 0.31034
#
# Static dielectric constant tensor:
#      x y z
#    x 3.625270 0.000000 -0.208040 
#    y 0.000000 3.124950 0.000000 
#    z -0.208040 0.000000 3.234960 
# 
# 
# High freq. dielectric constant tensor:
#      x y z
#    x 1.766420 0.000000 -0.000950 
#    y 0.000000 1.707970 0.000000 
#    z -0.000950 0.000000 1.762260 
# 
# From -- ./inp_files/45374.got.cif
#   From: 2010.06.25/outbox.cif.g09.slc.cpg/sg11_23_cif.got.tgz:45374.got - 2010.06.27 23:14:04.
