data_PCOD8072086
_publ_section_title
;
Structure prediction by ZEFSAII (Michael W. Deem and Ramdas Pophale) SiO2 
 PCOD8072086
Probable space group: P 21/M
;
_chemical_formula_sum "Si O2"
_cell_formula_units_Z 32
_cell_length_a 32.019581
_cell_length_b 9.092435
_cell_length_c 12.936593
_cell_angle_alpha 90.000000
_cell_angle_beta 153.780490
_cell_angle_gamma 90.000000
_cell_volume 1663.997383
_symmetry_space_group_name_H-M "P 21/M"
_symmetry_group_IT_number 11
_symmetry_cell_setting 'monoclinic'
loop_
_space_group_symop_operation_xyz
x,y,z
-x,1/2+y,-z
-x,-y,-z
x,1/2-y,z
loop_
_atom_site_type_symbol
_atom_site_label
_atom_site_fract_x
_atom_site_fract_y
_atom_site_fract_z
Si Si1 0.347171 0.412806 0.581128
Si Si2 0.094873 0.920467 0.743316
Si Si3 0.289862 0.921598 0.645563
Si Si4 0.368366 0.924206 0.034645
Si Si5 0.580903 0.924478 0.474919
Si Si6 0.133548 0.414900 0.035556
Si Si7 0.078997 0.923102 0.108643
Si Si8 0.712574 0.079944 0.930685
O O1 0.385274 0.250000 0.692014
O O2 0.357202 0.510816 0.706091
O O3 0.404881 0.479634 0.611941
O O4 0.238739 0.404733 0.309243
O O5 0.073608 0.750000 0.717640
O O6 0.174654 0.939312 0.832057
O O7 0.000000 0.000000 0.500000
O O8 0.135275 0.995778 0.934353
O O9 0.310241 0.750000 0.686711
O O10 0.319116 0.988410 0.821941
O O11 0.180165 0.957868 0.384417
O O12 0.360088 0.750000 0.012938
O O13 0.477336 0.974071 0.281797
O O14 0.315525 0.985025 0.019325
O O15 0.595470 0.750000 0.510915
O O16 0.658043 0.994438 0.720514
O O17 0.091564 0.250000 0.927032
O O18 0.070400 0.505007 0.976585
O O19 0.060173 0.750000 0.058736
O O20 0.000000 0.000000 0.000000
O O21 0.682938 0.250000 0.855989
#
# Coordination Sequence:
#
# PCOD8072086 Si02
#       8
#     4   4   4   4   4   4   4   4
#     4   9  18  32  53  80 108 141 179 226 277 324
#     4  11  23  37  56  83 112 144 186 234 285 340
#     4   9  19  35  54  77 109 148 186 227 278 336
#     4   9  19  36  56  80 112 148 184 226 281 337
#     4  10  19  34  58  83 109 145 187 229 277 335
#     4  10  19  35  56  77 108 145 181 228 281 333
#     4  10  20  34  55  82 109 144 190 234 281 340
#     4  10  21  37  57  81 112 148 187 232 277 333
#
# _framework density 19.230801
#
# number of rings (size 3 to 8) (size 9 to 14) (size 15 to 20)
#    0.000    2.250    1.250    1.500    0.000    3.500 
#    0.000    3.750    0.000    0.000    0.000    0.000 
#    0.000    0.000    0.000    0.000    0.000    0.000 
#
# Total GULP energy -396776.484886 kJ/mol
# GULP energy per Si atom -12399.265153 kJ/mol
# Density = 1.918703 g / cm^3
# Si number density = 19.230801 Si / 1000 Ang^3
#
#
#
# Elastic Constant Matrix: (Units=GPa)
#
#
# Indices 1 2 3 4 5 6 
#
# 1 165.4797 49.9479 45.9914 0.0000 -0.9993 0.0000
# 2 49.9479 79.6272 33.9497 0.0000 0.0007 0.0000
# 3 45.9914 33.9497 65.5578 0.0000 -5.7872 0.0000
# 4 0.0000 0.0000 0.0000 20.8848 0.0000 -2.9042
# 5 -0.9993 0.0007 -5.7872 0.0000 30.1619 0.0000
# 6 0.0000 0.0000 0.0000 -2.9042 0.0000 32.5788
#
#
#
# Elastic Compliance Matrix: (Units=1/GPa)
#
#
# Indices 1 2 3 4 5 6 
#
# 1 0.008190 -0.003425 -0.004016 0.000000 -0.000499 0.000000
# 2 -0.003425 0.017629 -0.006852 0.000000 -0.001429 0.000000
# 3 -0.004016 -0.006852 0.021980 0.000000 0.004084 0.000000
# 4 0.000000 0.000000 0.000000 0.048483 0.000000 0.004322
# 5 -0.000499 -0.001429 0.004084 0.000000 0.033922 0.000000
# 6 0.000000 0.000000 0.000000 0.004322 0.000000 0.031080
#
#
# Mechanical properties :
#
#
# Convention : Reuss Voigt Hill
#
# Bulk Modulus (GPa) = 52.05114 63.38254 57.71684
# Shear Modulus (GPa) = 25.47458 28.77679 27.12568
#
# Velocity S-wave (km/s) = 3.64356 3.87252 3.75978
# Velocity P-wave (km/s) = 6.69522 7.28187 6.99470
#
# Compressibility (1/GPa) = 0.01921188
#
# Stress axis : x y z
#
# Youngs Moduli (GPa) = 122.10024 56.72608 45.49550
#
# Poissons Ratio (x) = 0.19429 0.18271
# Poissons Ratio (y) = 0.41821 0.31175
# Poissons Ratio (z) = 0.49035 0.38871
#
# Static dielectric constant tensor:
#      x y z
#    x 3.902050 0.000000 -0.155840 
#    y 0.000000 3.588670 0.000000 
#    z -0.155840 0.000000 3.530790 
# 
# 
# High freq. dielectric constant tensor:
#      x y z
#    x 1.765050 0.000000 -0.000320 
#    y 0.000000 1.735190 0.000000 
#    z -0.000320 0.000000 1.736470 
# 
# From -- ./inp_files/45150.got.cif
#   From: 2010.06.25/outbox.cif.g09.slc.cpg/sg11_23_cif.got.tgz:45150.got - 2010.06.27 23:14:04.
