data_PCOD8072023
_publ_section_title
;
Structure prediction by ZEFSAII (Michael W. Deem and Ramdas Pophale) SiO2 
 PCOD8072023
Probable space group: P 21/M
;
_chemical_formula_sum "Si O2"
_cell_formula_units_Z 32
_cell_length_a 12.896445
_cell_length_b 8.578310
_cell_length_c 21.173096
_cell_angle_alpha 90.000000
_cell_angle_beta 43.370503
_cell_angle_gamma 90.000000
_cell_volume 1608.539067
_symmetry_space_group_name_H-M "P 21/M"
_symmetry_group_IT_number 11
_symmetry_cell_setting 'monoclinic'
loop_
_space_group_symop_operation_xyz
x,y,z
-x,1/2+y,-z
-x,-y,-z
x,1/2-y,z
loop_
_atom_site_type_symbol
_atom_site_label
_atom_site_fract_x
_atom_site_fract_y
_atom_site_fract_z
Si Si1 0.058975 0.569490 0.161566
Si Si2 0.632810 0.065855 0.286455
Si Si3 0.792393 0.569195 0.712997
Si Si4 0.679586 0.564335 0.629309
Si Si5 0.777169 0.068848 0.348733
Si Si6 0.947553 0.065701 0.088924
Si Si7 0.121256 0.432697 0.573480
Si Si8 0.345730 0.067417 0.093953
O O1 0.016775 0.750000 0.191237
O O2 0.225576 0.535901 0.110783
O O3 0.946695 0.457798 0.249392
O O4 0.053766 0.524637 0.090700
O O5 0.618500 0.250000 0.297909
O O6 0.480724 0.993835 0.323645
O O7 0.662417 0.003493 0.345365
O O8 0.772836 0.021082 0.179407
O O9 0.822854 0.750000 0.688977
O O10 0.721051 0.497469 0.680252
O O11 0.674337 0.539035 0.821919
O O12 0.953943 0.496743 0.658008
O O13 0.666721 0.750000 0.636992
O O14 0.809790 0.508503 0.523396
O O15 0.750740 0.250000 0.372324
O O16 0.762323 0.982424 0.422434
O O17 0.973163 0.250000 0.082573
O O18 0.000000 0.000000 0.000000
O O19 0.109720 0.250000 0.579304
O O20 0.330023 0.250000 0.084850
O O21 0.500000 0.000000 0.000000
#
# Coordination Sequence:
#
# PCOD8072023 Si02
#       8
#     4   4   4   4   4   4   4   4
#     4  11  21  36  58  82 112 149 190 240 292 343
#     4   8  17  34  55  79 113 151 188 235 290 347
#     4  10  21  38  60  81 113 155 194 236 288 351
#     4   9  19  36  56  83 114 149 192 238 290 350
#     4  10  19  34  57  82 111 149 190 234 287 348
#     4  10  20  35  58  86 115 151 194 240 292 355
#     4  11  21  33  57  86 113 147 193 243 288 341
#     4  11  23  38  58  86 117 152 192 240 296 353
#
# _framework density 19.893829
#
# number of rings (size 3 to 8) (size 9 to 14) (size 15 to 20)
#    0.000    2.000    1.250    3.750    0.000    2.000 
#    0.000    3.125    0.000   12.750    0.000    0.000 
#    0.000    0.000    0.000    0.000    0.000    0.000 
#
# Total GULP energy -396723.572231 kJ/mol
# GULP energy per Si atom -12397.611632 kJ/mol
# Density = 1.984855 g / cm^3
# Si number density = 19.893829 Si / 1000 Ang^3
#
#
#
# Elastic Constant Matrix: (Units=GPa)
#
#
# Indices 1 2 3 4 5 6 
#
# 1 130.2181 22.8731 51.5205 0.0000 13.3235 0.0000
# 2 22.8731 45.7475 26.9522 0.0000 6.5278 0.0000
# 3 51.5205 26.9522 104.8361 0.0000 19.6426 0.0000
# 4 0.0000 0.0000 0.0000 24.6913 0.0000 4.9224
# 5 13.3235 6.5278 19.6426 0.0000 34.2773 0.0000
# 6 0.0000 0.0000 0.0000 4.9224 0.0000 22.9039
#
#
#
# Elastic Compliance Matrix: (Units=1/GPa)
#
#
# Indices 1 2 3 4 5 6 
#
# 1 0.009789 -0.002388 -0.003999 0.000000 -0.001059 0.000000
# 2 -0.002388 0.026391 -0.005426 0.000000 -0.000988 0.000000
# 3 -0.003999 -0.005426 0.013907 0.000000 -0.005382 0.000000
# 4 0.000000 0.000000 0.000000 0.042313 0.000000 -0.009094
# 5 -0.001059 -0.000988 -0.005382 0.000000 0.032858 0.000000
# 6 0.000000 0.000000 0.000000 -0.009094 0.000000 0.045615
#
#
# Mechanical properties :
#
#
# Convention : Reuss Voigt Hill
#
# Bulk Modulus (GPa) = 37.78956 53.72147 45.75551
# Shear Modulus (GPa) = 24.59195 28.33822 26.46508
#
# Velocity S-wave (km/s) = 3.51972 3.77831 3.65131
# Velocity P-wave (km/s) = 5.96278 6.78947 6.38951
#
# Compressibility (1/GPa) = 0.02646234
#
# Stress axis : x y z
#
# Youngs Moduli (GPa) = 102.15362 37.89196 71.90551
#
# Poissons Ratio (x) = 0.09047 0.28752
# Poissons Ratio (y) = 0.24390 0.39018
# Poissons Ratio (z) = 0.40846 0.20561
#
# Static dielectric constant tensor:
#      x y z
#    x 4.016810 0.000000 0.178030 
#    y 0.000000 3.432470 0.000000 
#    z 0.178030 0.000000 3.666940 
# 
# 
# High freq. dielectric constant tensor:
#      x y z
#    x 1.786560 0.000000 0.011610 
#    y 0.000000 1.755890 0.000000 
#    z 0.011610 0.000000 1.774050 
# 
# From -- ./inp_files/64343.got.cif
#   From: 2010.06.25/outbox.cif.g09.slc.cpg/sg11_33_cif.got.tgz:64343.got - 2010.06.27 23:14:04.
