data_PCOD8072756
_publ_section_title
;
Structure prediction by ZEFSAII (Michael W. Deem and Ramdas Pophale) SiO2 
 PCOD8072756
Probable space group: P 21/M
;
_chemical_formula_sum "Si O2"
_cell_formula_units_Z 32
_cell_length_a 13.322718
_cell_length_b 9.174876
_cell_length_c 18.435405
_cell_angle_alpha 90.000000
_cell_angle_beta 111.740254
_cell_angle_gamma 90.000000
_cell_volume 2093.157270
_symmetry_space_group_name_H-M "P 21/M"
_symmetry_group_IT_number 11
_symmetry_cell_setting 'monoclinic'
loop_
_space_group_symop_operation_xyz
x,y,z
-x,1/2+y,-z
-x,-y,-z
x,1/2-y,z
loop_
_atom_site_type_symbol
_atom_site_label
_atom_site_fract_x
_atom_site_fract_y
_atom_site_fract_z
Si Si1 0.252052 0.579120 0.257760
Si Si2 0.105353 0.418182 0.113787
Si Si3 0.578914 0.910260 0.426016
Si Si4 0.856957 0.418600 0.021325
Si Si5 0.667716 0.920001 0.043137
Si Si6 0.482513 0.579107 0.252425
Si Si7 0.656847 0.410503 0.569377
Si Si8 0.525066 0.419736 0.116470
O O1 0.223175 0.750000 0.248672
O O2 0.153886 0.484428 0.200321
O O3 0.358229 0.549053 0.238511
O O4 0.270608 0.524786 0.345678
O O5 0.139164 0.250000 0.113732
O O6 0.977072 0.435776 0.084367
O O7 0.154321 0.507480 0.059966
O O8 0.628837 0.750000 0.433020
O O9 0.559035 0.972074 0.339782
O O10 0.465529 0.903613 0.436588
O O11 0.665117 0.000821 0.496477
O O12 0.823075 0.250000 0.004569
O O13 0.779907 0.500182 0.056933
O O14 0.688517 0.750000 0.063008
O O15 0.619656 0.991443 0.102531
O O16 0.587910 0.946012 0.954376
O O17 0.499479 0.750000 0.239750
O O18 0.515317 0.479551 0.194486
O O19 0.699073 0.250000 0.562113
O O20 0.556007 0.250000 0.125962
#
# Coordination Sequence:
#
# PCOD8072756 Si02
#       8
#     4   4   4   4   4   4   4   4
#     4   9  17  28  42  60  85 116 145 176 212 247
#     4  10  20  31  44  64  86 110 143 177 209 249
#     4   8  14  24  37  54  78 109 141 171 205 244
#     4  10  20  33  47  62  84 112 140 175 215 250
#     4  10  20  33  48  64  83 109 141 175 211 252
#     4   9  17  28  41  59  85 115 145 176 210 247
#     4   8  14  24  37  55  79 108 141 172 205 245
#     4  10  20  31  44  64  86 109 140 175 211 250
#
# _framework density 15.287910999999999
#
# number of rings (size 3 to 8) (size 9 to 14) (size 15 to 20)
#    0.000    2.750    0.000    3.750    0.000    6.500 
#    0.000    2.500    0.000    0.000    0.000    0.000 
#    0.000    1.000    0.000    3.250    0.000    4.750 
#
# Total GULP energy -396712.348648 kJ/mol
# GULP energy per Si atom -12397.260895 kJ/mol
# Density = 1.525311 g / cm^3
# Si number density = 15.287911 Si / 1000 Ang^3
#
#
#
# Elastic Constant Matrix: (Units=GPa)
#
#
# Indices 1 2 3 4 5 6 
#
# 1 49.0568 38.3352 27.1437 0.0000 -3.1934 0.0000
# 2 38.3352 98.4459 57.4281 0.0000 -0.9040 0.0000
# 3 27.1437 57.4281 115.4748 0.0000 2.3515 0.0000
# 4 0.0000 0.0000 0.0000 31.2129 0.0000 -1.2929
# 5 -3.1934 -0.9040 2.3515 0.0000 17.3910 0.0000
# 6 0.0000 0.0000 0.0000 -1.2929 0.0000 23.5527
#
#
#
# Elastic Compliance Matrix: (Units=1/GPa)
#
#
# Indices 1 2 3 4 5 6 
#
# 1 0.030007 -0.010509 -0.001934 0.000000 0.005225 0.000000
# 2 -0.010509 0.018040 -0.006499 0.000000 -0.000113 0.000000
# 3 -0.001934 -0.006499 0.012395 0.000000 -0.002369 0.000000
# 4 0.000000 0.000000 0.000000 0.032111 0.000000 0.001763
# 5 0.005225 -0.000113 -0.002369 0.000000 0.058775 0.000000
# 6 0.000000 0.000000 0.000000 0.001763 0.000000 0.042555
#
#
# Mechanical properties :
#
#
# Convention : Reuss Voigt Hill
#
# Bulk Modulus (GPa) = 44.32920 56.53238 50.43079
# Shear Modulus (GPa) = 20.89557 23.76936 22.33247
#
# Velocity S-wave (km/s) = 3.70104 3.94735 3.82618
# Velocity P-wave (km/s) = 6.87916 7.60488 7.25110
#
# Compressibility (1/GPa) = 0.02255849
#
# Stress axis : x y z
#
# Youngs Moduli (GPa) = 33.32606 55.43139 80.67839
#
# Poissons Ratio (x) = 0.58251 0.15600
# Poissons Ratio (y) = 0.35021 0.52436
# Poissons Ratio (z) = 0.06444 0.36027
#
# Static dielectric constant tensor:
#      x y z
#    x 2.583230 0.000000 0.035410 
#    y 0.000000 3.112560 0.000000 
#    z 0.035410 0.000000 3.017550 
# 
# 
# High freq. dielectric constant tensor:
#      x y z
#    x 1.538680 0.000000 0.001750 
#    y 0.000000 1.596280 0.000000 
#    z 0.001750 0.000000 1.586630 
# 
# From -- ./inp_files/59878.got.cif
#   From: 2010.06.25/outbox.cif.g09.slc.cpg/sg11_30_cif.got.tgz:59878.got - 2010.06.27 23:14:04.
