data_PCOD8072709
_publ_section_title
;
Structure prediction by ZEFSAII (Michael W. Deem and Ramdas Pophale) SiO2 
 PCOD8072709
Probable space group: P 21/M
;
_chemical_formula_sum "Si O2"
_cell_formula_units_Z 32
_cell_length_a 12.489553
_cell_length_b 14.148611
_cell_length_c 18.525115
_cell_angle_alpha 90.000000
_cell_angle_beta 152.690495
_cell_angle_gamma 90.000000
_cell_volume 1501.903916
_symmetry_space_group_name_H-M "P 21/M"
_symmetry_group_IT_number 11
_symmetry_cell_setting 'monoclinic'
loop_
_space_group_symop_operation_xyz
x,y,z
-x,1/2+y,-z
-x,-y,-z
x,1/2-y,z
loop_
_atom_site_type_symbol
_atom_site_label
_atom_site_fract_x
_atom_site_fract_y
_atom_site_fract_z
Si Si1 0.295706 0.552064 0.419287
Si Si2 0.812441 0.145253 0.784694
Si Si3 0.514415 0.140700 0.733903
Si Si4 0.665377 0.136651 0.398951
Si Si5 0.737662 0.964290 0.927008
Si Si6 0.424556 0.355753 0.912749
Si Si7 0.801705 0.502573 0.124663
Si Si8 0.877101 0.645214 0.404571
O O1 0.500000 0.500000 0.500000
O O2 0.223890 0.637918 0.322988
O O3 0.357674 0.590148 0.535632
O O4 0.076669 0.479625 0.288613
O O5 0.908689 0.250000 0.858798
O O6 0.563060 0.130107 0.677073
O O7 0.997318 0.070079 0.927886
O O8 0.549007 0.250000 0.779874
O O9 0.249798 0.105283 0.597881
O O10 0.708769 0.073619 0.887040
O O11 0.679832 0.250000 0.416307
O O12 0.439473 0.106050 0.219260
O O13 0.893191 0.094709 0.491290
O O14 0.689647 0.959667 0.983460
O O15 0.451267 0.250000 0.959091
O O16 0.224835 0.410506 0.836268
O O17 0.341995 0.355264 0.780882
O O18 0.671140 0.407894 0.071697
O O19 0.965790 0.750000 0.474776
#
# Coordination Sequence:
#
# PCOD8072709 Si02
#       8
#     4   4   4   4   4   4   4   4
#     4  11  23  41  63  87 122 167 211 253 304 369
#     4  10  22  40  62  87 121 163 203 249 307 362
#     4  10  20  37  59  87 121 159 201 248 306 364
#     4  11  23  40  62  91 124 161 207 254 304 367
#     4  11  22  37  60  93 124 156 203 255 303 359
#     4  10  19  38  65  90 120 162 207 252 308 371
#     4  10  22  38  62  93 122 158 206 258 309 363
#     4   9  18  35  61  88 115 157 201 244 303 366
#
# _framework density 21.306290000000001
#
# number of rings (size 3 to 8) (size 9 to 14) (size 15 to 20)
#    0.000    1.750    2.500    1.875    0.000    4.000 
#    0.000    2.500    0.000    4.500    0.000    0.000 
#    0.000    0.000    0.000    0.000    0.000    0.000 
#
# Total GULP energy -396432.650498 kJ/mol
# GULP energy per Si atom -12388.520328 kJ/mol
# Density = 2.125780 g / cm^3
# Si number density = 21.306290 Si / 1000 Ang^3
#
#
#
# Elastic Constant Matrix: (Units=GPa)
#
#
# Indices 1 2 3 4 5 6 
#
# 1 110.7566 9.8343 35.8976 0.0000 32.6682 0.0000
# 2 9.8343 77.7230 22.8998 0.0000 24.5226 0.0000
# 3 35.8976 22.8998 83.6844 0.0000 14.9477 0.0000
# 4 0.0000 0.0000 0.0000 23.2402 0.0000 2.3662
# 5 32.6682 24.5226 14.9477 0.0000 33.4366 0.0000
# 6 0.0000 0.0000 0.0000 2.3662 0.0000 23.2823
#
#
#
# Elastic Compliance Matrix: (Units=1/GPa)
#
#
# Indices 1 2 3 4 5 6 
#
# 1 0.014770 0.004446 -0.004774 0.000000 -0.015557 0.000000
# 2 0.004446 0.018613 -0.004115 0.000000 -0.016155 0.000000
# 3 -0.004774 -0.004115 0.014945 0.000000 0.001001 0.000000
# 4 0.000000 0.000000 0.000000 0.043479 0.000000 -0.004419
# 5 -0.015557 -0.016155 0.001001 0.000000 0.056508 0.000000
# 6 0.000000 0.000000 0.000000 -0.004419 0.000000 0.043400
#
#
# Mechanical properties :
#
#
# Convention : Reuss Voigt Hill
#
# Bulk Modulus (GPa) = 25.35309 45.49194 35.42251
# Shear Modulus (GPa) = 23.39211 29.56065 26.47638
#
# Velocity S-wave (km/s) = 3.31705 3.72884 3.52896
# Velocity P-wave (km/s) = 5.15709 6.31956 5.76768
#
# Compressibility (1/GPa) = 0.03944293
#
# Stress axis : x y z
#
# Youngs Moduli (GPa) = 67.70533 53.72506 66.91380
#
# Poissons Ratio (x) = -0.23887 0.31942
# Poissons Ratio (y) = -0.30103 0.27535
# Poissons Ratio (z) = 0.32320 0.22108
#
# Static dielectric constant tensor:
#      x y z
#    x 4.291210 0.000000 0.089940 
#    y 0.000000 3.818870 0.000000 
#    z 0.089940 0.000000 3.566670 
# 
# 
# High freq. dielectric constant tensor:
#      x y z
#    x 1.862480 0.000000 0.010140 
#    y 0.000000 1.828160 0.000000 
#    z 0.010140 0.000000 1.807860 
# 
# From -- ./inp_files/59516.got.cif
#   From: 2010.06.25/outbox.cif.g09.slc.cpg/sg11_30_cif.got.tgz:59516.got - 2010.06.27 23:14:04.
