data_PCOD8072207
_publ_section_title
;
Structure prediction by ZEFSAII (Michael W. Deem and Ramdas Pophale) SiO2 
 PCOD8072207
Probable space group: P 21/M
;
_chemical_formula_sum "Si O2"
_cell_formula_units_Z 28
_cell_length_a 14.934983
_cell_length_b 8.751420
_cell_length_c 22.030659
_cell_angle_alpha 90.000000
_cell_angle_beta 146.866584
_cell_angle_gamma 90.000000
_cell_volume 1573.884219
_symmetry_space_group_name_H-M "P 21/M"
_symmetry_group_IT_number 11
_symmetry_cell_setting 'monoclinic'
loop_
_space_group_symop_operation_xyz
x,y,z
-x,1/2+y,-z
-x,-y,-z
x,1/2-y,z
loop_
_atom_site_type_symbol
_atom_site_label
_atom_site_fract_x
_atom_site_fract_y
_atom_site_fract_z
Si Si1 0.755981 0.071992 0.845159
Si Si2 0.069829 0.572644 0.478886
Si Si3 0.146451 0.931215 0.745503
Si Si4 0.175816 0.430562 0.890237
Si Si5 0.472779 0.931392 0.867101
Si Si6 0.982899 0.071861 0.086301
Si Si7 0.556523 0.427046 0.286248
O O1 0.770083 0.250000 0.838354
O O2 0.567623 0.021268 0.742033
O O3 0.843221 0.030472 0.958151
O O4 0.840934 0.979107 0.839041
O O5 0.023293 0.750000 0.452585
O O6 0.263831 0.547948 0.585132
O O7 0.000000 0.500000 0.500000
O O8 0.996113 0.491452 0.378552
O O9 0.141948 0.750000 0.742741
O O10 0.322339 0.993460 0.822009
O O11 0.112307 0.992900 0.792951
O O12 0.175642 0.250000 0.882394
O O13 0.052079 0.477270 0.872997
O O14 0.357974 0.493312 0.008715
O O15 0.470362 0.750000 0.864600
O O16 0.451280 0.993180 0.786579
O O17 0.985817 0.250000 0.103450
O O18 0.504769 0.250000 0.257632
#
# Coordination Sequence:
#
# PCOD8072207 Si02
#       7
#     4   4   4   4   4   4   4
#     4  10  20  33  53  83 111 140 180 225 271 324
#     4  11  22  37  57  80 108 145 188 230 273 318
#     4  11  22  38  55  77 111 149 189 228 271 324
#     4  11  21  35  55  80 111 147 185 225 271 326
#     4   9  18  33  53  78 110 147 181 220 271 322
#     4  10  20  34  53  79 111 146 179 219 272 327
#     4  10  19  35  56  79 110 145 180 224 275 323
#
# _framework density 17.790379999999999
#
# number of rings (size 3 to 8) (size 9 to 14) (size 15 to 20)
#    0.000    1.714    2.857    2.571    0.000    2.286 
#    0.000    2.143    0.000    0.857    0.000    0.000 
#    0.000    0.000    0.000    0.000    0.000    0.000 
#
# Total GULP energy -347335.284096 kJ/mol
# GULP energy per Si atom -12404.831575 kJ/mol
# Density = 1.774989 g / cm^3
# Si number density = 17.790380 Si / 1000 Ang^3
#
#
#
# Elastic Constant Matrix: (Units=GPa)
#
#
# Indices 1 2 3 4 5 6 
#
# 1 110.4020 36.1224 58.4854 0.0000 1.4997 0.0000
# 2 36.1224 71.1395 40.3600 0.0000 0.0089 0.0000
# 3 58.4854 40.3600 92.4485 0.0000 -13.7124 0.0000
# 4 0.0000 0.0000 0.0000 26.9301 0.0000 -0.0225
# 5 1.4997 0.0089 -13.7124 0.0000 28.1778 0.0000
# 6 0.0000 0.0000 0.0000 -0.0225 0.0000 31.9583
#
#
#
# Elastic Compliance Matrix: (Units=1/GPa)
#
#
# Indices 1 2 3 4 5 6 
#
# 1 0.014677 -0.002324 -0.009038 0.000000 -0.005179 0.000000
# 2 -0.002324 0.019545 -0.007593 0.000000 -0.003578 0.000000
# 3 -0.009038 -0.007593 0.021471 0.000000 0.010932 0.000000
# 4 0.000000 0.000000 0.000000 0.037133 0.000000 0.000026
# 5 -0.005179 -0.003578 0.010932 0.000000 0.041086 0.000000
# 6 0.000000 0.000000 0.000000 0.000026 0.000000 0.031291
#
#
# Mechanical properties :
#
#
# Convention : Reuss Voigt Hill
#
# Bulk Modulus (GPa) = 56.23693 60.43617 58.33655
# Shear Modulus (GPa) = 23.91866 26.68138 25.30002
#
# Velocity S-wave (km/s) = 3.67068 3.87688 3.77519
# Velocity P-wave (km/s) = 7.04590 7.35427 7.20174
#
# Compressibility (1/GPa) = 0.01778191
#
# Stress axis : x y z
#
# Youngs Moduli (GPa) = 68.13560 51.16318 46.57365
#
# Poissons Ratio (x) = 0.11889 0.42095
# Poissons Ratio (y) = 0.15833 0.35365
# Poissons Ratio (z) = 0.61584 0.38850
#
# Static dielectric constant tensor:
#      x y z
#    x 3.278260 0.000000 0.071850 
#    y 0.000000 3.223460 0.000000 
#    z 0.071850 0.000000 3.227400 
# 
# 
# High freq. dielectric constant tensor:
#      x y z
#    x 1.689540 0.000000 0.006500 
#    y 0.000000 1.688970 0.000000 
#    z 0.006500 0.000000 1.671290 
# 
# From -- ./inp_files/37388.got.cif
#   From: 2010.06.25/outbox.cif.g09.slc.cpg/sg11_19_cif.got.tgz:37388.got - 2010.06.27 23:14:04.
