data_PCOD8072679
_publ_section_title
;
Structure prediction by ZEFSAII (Michael W. Deem and Ramdas Pophale) SiO2 
 PCOD8072679
Probable space group: P 21/M
;
_chemical_formula_sum "Si O2"
_cell_formula_units_Z 32
_cell_length_a 14.315650
_cell_length_b 17.254310
_cell_length_c 11.757210
_cell_angle_alpha 90.000000
_cell_angle_beta 147.663603
_cell_angle_gamma 90.000000
_cell_volume 1553.376628
_symmetry_space_group_name_H-M "P 21/M"
_symmetry_group_IT_number 11
_symmetry_cell_setting 'monoclinic'
loop_
_space_group_symop_operation_xyz
x,y,z
-x,1/2+y,-z
-x,-y,-z
x,1/2-y,z
loop_
_atom_site_type_symbol
_atom_site_label
_atom_site_fract_x
_atom_site_fract_y
_atom_site_fract_z
Si Si1 0.516236 0.088639 0.548131
Si Si2 0.364930 0.659094 0.557428
Si Si3 0.167534 0.160348 0.229237
Si Si4 0.025064 0.159329 0.835992
Si Si5 0.824778 0.158798 0.008741
Si Si6 0.812472 0.408373 0.242970
Si Si7 0.500799 0.341262 0.061217
Si Si8 0.853817 0.589938 0.265826
O O1 0.526481 0.133850 0.440094
O O2 0.343155 0.113610 0.439388
O O3 0.500000 0.000000 0.500000
O O4 0.680356 0.107193 0.796914
O O5 0.347131 0.750000 0.532652
O O6 0.463387 0.632927 0.772377
O O7 0.169910 0.623748 0.357880
O O8 0.208226 0.250000 0.289627
O O9 0.012347 0.133608 0.152326
O O10 0.117557 0.141415 0.049017
O O11 0.021271 0.250000 0.803599
O O12 0.135489 0.117537 0.852650
O O13 0.788497 0.250000 0.948634
O O14 0.827670 0.141228 0.144503
O O15 0.629274 0.387459 0.111294
O O16 0.819061 0.499012 0.225667
O O17 0.970365 0.385147 0.488497
O O18 0.526294 0.250000 0.068150
O O19 0.303612 0.366945 0.830591
#
# Coordination Sequence:
#
# PCOD8072679 Si02
#       8
#     4   4   4   4   4   4   4   4
#     4  12  26  40  63  98 132 170 206 264 326 389
#     4  10  20  39  66  95 127 161 208 268 318 369
#     4  10  22  42  67  94 124 166 214 263 317 378
#     4  10  19  37  69  95 121 161 209 265 319 374
#     4  11  25  45  66  91 130 176 219 261 313 389
#     4  11  26  44  63  92 133 173 208 265 323 380
#     4  11  23  41  69  95 122 166 218 268 315 376
#     4  11  24  42  64  95 130 165 210 268 327 377
#
# _framework density 20.600283999999998
#
# number of rings (size 3 to 8) (size 9 to 14) (size 15 to 20)
#    0.000    1.250    2.500    3.000    3.500    6.000 
#    0.000    1.250    0.000    0.000    0.000    0.000 
#    0.000    0.000    0.000    0.000    0.000    0.000 
#
# Total GULP energy -396958.294747 kJ/mol
# GULP energy per Si atom -12404.946711 kJ/mol
# Density = 2.055340 g / cm^3
# Si number density = 20.600284 Si / 1000 Ang^3
#
#
#
# Elastic Constant Matrix: (Units=GPa)
#
#
# Indices 1 2 3 4 5 6 
#
# 1 123.0246 19.5911 46.8336 0.0000 16.4764 0.0000
# 2 19.5911 26.4088 16.3807 0.0000 0.8477 0.0000
# 3 46.8336 16.3807 61.2593 0.0000 20.6234 0.0000
# 4 0.0000 0.0000 0.0000 22.5604 0.0000 9.0369
# 5 16.4764 0.8477 20.6234 0.0000 37.0651 0.0000
# 6 0.0000 0.0000 0.0000 9.0369 0.0000 18.2550
#
#
#
# Elastic Compliance Matrix: (Units=1/GPa)
#
#
# Indices 1 2 3 4 5 6 
#
# 1 0.011795 -0.003974 -0.007654 0.000000 -0.000893 0.000000
# 2 -0.003974 0.048275 -0.012420 0.000000 0.007573 0.000000
# 3 -0.007654 -0.012420 0.029847 0.000000 -0.012921 0.000000
# 4 0.000000 0.000000 0.000000 0.055289 0.000000 -0.027370
# 5 -0.000893 0.007573 -0.012921 0.000000 0.034393 0.000000
# 6 0.000000 0.000000 0.000000 -0.027370 0.000000 0.068329
#
#
# Mechanical properties :
#
#
# Convention : Reuss Voigt Hill
#
# Bulk Modulus (GPa) = 23.91177 41.81151 32.86164
# Shear Modulus (GPa) = 16.13101 24.10193 20.11647
#
# Velocity S-wave (km/s) = 2.80134 3.42421 3.12831
# Velocity P-wave (km/s) = 4.70064 5.99785 5.38842
#
# Compressibility (1/GPa) = 0.04182040
#
# Stress axis : x y z
#
# Youngs Moduli (GPa) = 84.78486 20.71471 33.50470
#
# Poissons Ratio (x) = 0.08231 0.25644
# Poissons Ratio (y) = 0.33689 0.41614
# Poissons Ratio (z) = 0.64893 0.25729
#
# Static dielectric constant tensor:
#      x y z
#    x 3.616310 0.000000 0.130040 
#    y 0.000000 3.586370 0.000000 
#    z 0.130040 0.000000 3.874340 
# 
# 
# High freq. dielectric constant tensor:
#      x y z
#    x 1.817290 0.000000 0.011940 
#    y 0.000000 1.798810 0.000000 
#    z 0.011940 0.000000 1.813170 
# 
# From -- ./inp_files/40052.got.cif
#   From: 2010.06.25/outbox.cif.g09.slc.cpg/sg11_21_cif.got.tgz:40052.got - 2010.06.27 23:14:04.
