data_PCOD8072221
_publ_section_title
;
Structure prediction by ZEFSAII (Michael W. Deem and Ramdas Pophale) SiO2 
 PCOD8072221
Probable space group: P 21/M
;
_chemical_formula_sum "Si O2"
_cell_formula_units_Z 32
_cell_length_a 31.915201
_cell_length_b 9.273007
_cell_length_c 12.692003
_cell_angle_alpha 90.000000
_cell_angle_beta 153.211633
_cell_angle_gamma 90.000000
_cell_volume 1692.904020
_symmetry_space_group_name_H-M "P 21/M"
_symmetry_group_IT_number 11
_symmetry_cell_setting 'monoclinic'
loop_
_space_group_symop_operation_xyz
x,y,z
-x,1/2+y,-z
-x,-y,-z
x,1/2-y,z
loop_
_atom_site_type_symbol
_atom_site_label
_atom_site_fract_x
_atom_site_fract_y
_atom_site_fract_z
Si Si1 0.751132 0.408790 0.036653
Si Si2 0.827553 0.922240 0.395629
Si Si3 0.443406 0.906010 0.294416
Si Si4 0.489654 0.085665 0.205416
Si Si5 0.700503 0.080273 0.687596
Si Si6 0.798735 0.914981 0.728046
Si Si7 0.298665 0.414899 0.695471
Si Si8 0.993719 0.417427 0.876440
O O1 0.800303 0.250000 0.138918
O O2 0.810285 0.523287 0.236948
O O3 0.658287 0.384823 0.891844
O O4 0.726071 0.468895 0.863843
O O5 0.839689 0.750000 0.419441
O O6 0.745947 0.972231 0.294393
O O7 0.921524 0.999474 0.641427
O O8 0.491711 0.750000 0.390117
O O9 0.500000 0.000000 0.500000
O O10 0.440820 0.984509 0.178811
O O11 0.493601 0.250000 0.256529
O O12 0.594595 0.034957 0.416300
O O13 0.411766 0.070975 0.938289
O O14 0.712552 0.250000 0.702407
O O15 0.771239 0.002482 0.769558
O O16 0.766500 0.750000 0.670780
O O17 0.748097 0.987797 0.512226
O O18 0.908548 0.926467 0.963233
O O19 0.267127 0.250000 0.620379
O O20 0.965069 0.250000 0.830066
O O21 0.000000 0.500000 0.000000
#
# Coordination Sequence:
#
# PCOD8072221 Si02
#       8
#     4   4   4   4   4   4   4   4
#     4  10  21  37  55  82 121 156 194 245 295 340
#     4  11  21  36  61  93 121 148 189 240 303 359
#     4  11  20  31  51  80 113 150 195 243 288 338
#     4  10  19  35  56  82 118 157 193 239 292 339
#     4  10  22  39  57  81 117 162 203 240 285 340
#     4  10  22  41  60  83 116 154 195 238 289 350
#     4   9  18  34  57  85 119 151 184 235 292 343
#     4  11  22  39  64  92 121 150 188 242 300 352
#
# _framework density 18.902429999999999
#
# number of rings (size 3 to 8) (size 9 to 14) (size 15 to 20)
#    0.000    1.750    3.750    1.125    0.000    3.000 
#    0.000    1.250    0.000    0.000    0.000    0.000 
#    0.000    0.000    0.000    0.000    0.000    0.000 
#
# Total GULP energy -396529.962408 kJ/mol
# GULP energy per Si atom -12391.561325 kJ/mol
# Density = 1.885941 g / cm^3
# Si number density = 18.902430 Si / 1000 Ang^3
#
#
#
# Elastic Constant Matrix: (Units=GPa)
#
#
# Indices 1 2 3 4 5 6 
#
# 1 91.5834 40.4233 37.1642 0.0000 0.4087 0.0000
# 2 40.4233 78.8586 54.6628 0.0000 -6.0541 0.0000
# 3 37.1642 54.6628 124.7395 0.0000 -4.2408 0.0000
# 4 0.0000 0.0000 0.0000 26.8693 0.0000 1.0457
# 5 0.4087 -6.0541 -4.2408 0.0000 18.7623 0.0000
# 6 0.0000 0.0000 0.0000 1.0457 0.0000 24.4942
#
#
#
# Elastic Compliance Matrix: (Units=1/GPa)
#
#
# Indices 1 2 3 4 5 6 
#
# 1 0.014446 -0.006563 -0.001522 0.000000 -0.002776 0.000000
# 2 -0.006563 0.021514 -0.007288 0.000000 0.005438 0.000000
# 3 -0.001522 -0.007288 0.011675 0.000000 0.000320 0.000000
# 4 0.000000 0.000000 0.000000 0.037279 0.000000 -0.001591
# 5 -0.002776 0.005438 0.000320 0.000000 0.055186 0.000000
# 6 0.000000 0.000000 0.000000 -0.001591 0.000000 0.040894
#
#
# Mechanical properties :
#
#
# Convention : Reuss Voigt Hill
#
# Bulk Modulus (GPa) = 59.21032 62.18692 60.69862
# Shear Modulus (GPa) = 23.00231 24.88724 23.94477
#
# Velocity S-wave (km/s) = 3.49219 3.63246 3.56301
# Velocity P-wave (km/s) = 6.90309 7.11079 7.00771
#
# Compressibility (1/GPa) = 0.01688895
#
# Stress axis : x y z
#
# Youngs Moduli (GPa) = 69.22365 46.48079 85.65499
#
# Poissons Ratio (x) = 0.30505 0.13040
# Poissons Ratio (y) = 0.45431 0.62423
# Poissons Ratio (z) = 0.10538 0.33874
#
# Static dielectric constant tensor:
#      x y z
#    x 3.271170 0.000000 -0.099890 
#    y 0.000000 3.555280 0.000000 
#    z -0.099890 0.000000 3.638030 
# 
# 
# High freq. dielectric constant tensor:
#      x y z
#    x 1.712260 0.000000 -0.007430 
#    y 0.000000 1.729600 0.000000 
#    z -0.007430 0.000000 1.742690 
# 
# From -- ./inp_files/45132.got.cif
#   From: 2010.06.25/outbox.cif.g09.slc.cpg/sg11_23_cif.got.tgz:45132.got - 2010.06.27 23:14:04.
