data_PCOD8072638
_publ_section_title
;
Structure prediction by ZEFSAII (Michael W. Deem and Ramdas Pophale) SiO2 
 PCOD8072638
Probable space group: P 21/M
;
_chemical_formula_sum "Si O2"
_cell_formula_units_Z 32
_cell_length_a 11.988052
_cell_length_b 8.928673
_cell_length_c 30.635588
_cell_angle_alpha 90.000000
_cell_angle_beta 29.682159
_cell_angle_gamma 90.000000
_cell_volume 1623.798044
_symmetry_space_group_name_H-M "P 21/M"
_symmetry_group_IT_number 11
_symmetry_cell_setting 'monoclinic'
loop_
_space_group_symop_operation_xyz
x,y,z
-x,1/2+y,-z
-x,-y,-z
x,1/2-y,z
loop_
_atom_site_type_symbol
_atom_site_label
_atom_site_fract_x
_atom_site_fract_y
_atom_site_fract_z
Si Si1 0.920907 0.926425 0.882389
Si Si2 0.236682 0.073822 0.378601
Si Si3 0.686381 0.083001 0.192031
Si Si4 0.996064 0.428066 0.766001
Si Si5 0.226409 0.916892 0.934379
Si Si6 0.584962 0.429477 0.425669
Si Si7 0.806745 0.924286 0.506402
Si Si8 0.516199 0.925715 0.076911
O O1 0.932742 0.750000 0.868067
O O2 0.074979 0.980273 0.871410
O O3 0.020346 0.014592 0.807215
O O4 0.665570 0.972204 0.983400
O O5 0.226195 0.250000 0.374658
O O6 0.470221 0.997203 0.284322
O O7 0.231035 0.029210 0.430984
O O8 0.040182 0.005239 0.414891
O O9 0.680013 0.250000 0.213785
O O10 0.644969 0.085877 0.154892
O O11 0.030490 0.250000 0.752430
O O12 0.742315 0.475957 0.839194
O O13 0.174179 0.504957 0.672352
O O14 0.173729 0.750000 0.969450
O O15 0.385729 0.999686 0.913627
O O16 0.000000 0.000000 0.000000
O O17 0.500000 0.500000 0.500000
O O18 0.605038 0.250000 0.423308
O O19 0.401010 0.479400 0.452322
O O20 0.841365 0.750000 0.487773
O O21 0.539251 0.750000 0.075849
#
# Coordination Sequence:
#
# PCOD8072638 Si02
#       8
#     4   4   4   4   4   4   4   4
#     4  10  19  37  62  84 118 162 200 241 295 352
#     4   9  17  32  56  84 111 143 186 232 281 342
#     4   9  18  33  55  82 113 152 193 234 284 342
#     4  11  24  40  60  91 123 151 196 251 300 353
#     4  11  21  36  57  81 114 153 196 240 289 348
#     4  11  24  43  65  86 115 156 199 243 298 358
#     4   9  19  36  57  81 111 145 182 231 291 344
#     4  10  22  40  60  84 120 162 201 248 299 348
#
# _framework density 19.706885
#
# number of rings (size 3 to 8) (size 9 to 14) (size 15 to 20)
#    0.000    2.000    1.250    2.250    0.000    5.500 
#    0.000    6.875    0.000    0.000    0.000    0.000 
#    0.000    0.000    0.000    0.000    0.000    0.000 
#
# Total GULP energy -396540.980929 kJ/mol
# GULP energy per Si atom -12391.905654 kJ/mol
# Density = 1.966203 g / cm^3
# Si number density = 19.706885 Si / 1000 Ang^3
#
#
#
# Elastic Constant Matrix: (Units=GPa)
#
#
# Indices 1 2 3 4 5 6 
#
# 1 89.3292 28.9344 54.3584 0.0000 -6.8272 0.0000
# 2 28.9344 37.6995 43.1892 0.0000 -1.4020 0.0000
# 3 54.3584 43.1892 155.2252 0.0000 -13.9783 0.0000
# 4 0.0000 0.0000 0.0000 28.4499 0.0000 0.0242
# 5 -6.8272 -1.4020 -13.9783 0.0000 30.6718 0.0000
# 6 0.0000 0.0000 0.0000 0.0242 0.0000 34.5906
#
#
#
# Elastic Compliance Matrix: (Units=1/GPa)
#
#
# Indices 1 2 3 4 5 6 
#
# 1 0.016000 -0.008777 -0.002999 0.000000 0.001793 0.000000
# 2 -0.008777 0.044073 -0.009577 0.000000 -0.004304 0.000000
# 3 -0.002999 -0.009577 0.010488 0.000000 0.003674 0.000000
# 4 0.000000 0.000000 0.000000 0.035150 0.000000 -0.000025
# 5 0.001793 -0.004304 0.003674 0.000000 0.034480 0.000000
# 6 0.000000 0.000000 0.000000 -0.000025 0.000000 0.028910
#
#
# Mechanical properties :
#
#
# Convention : Reuss Voigt Hill
#
# Bulk Modulus (GPa) = 35.90044 59.46866 47.68455
# Shear Modulus (GPa) = 22.61512 29.12726 25.87119
#
# Velocity S-wave (km/s) = 3.39126 3.84868 3.62719
# Velocity P-wave (km/s) = 5.79577 7.07049 6.46463
#
# Compressibility (1/GPa) = 0.02785481
#
# Stress axis : x y z
#
# Youngs Moduli (GPa) = 62.50114 22.68963 95.34644
#
# Poissons Ratio (x) = 0.19915 0.28598
# Poissons Ratio (y) = 0.54857 0.91310
# Poissons Ratio (z) = 0.18747 0.21729
#
# Static dielectric constant tensor:
#      x y z
#    x 3.803710 0.000000 -0.073240 
#    y 0.000000 3.577680 0.000000 
#    z -0.073240 0.000000 3.934110 
# 
# 
# High freq. dielectric constant tensor:
#      x y z
#    x 1.770580 0.000000 -0.008050 
#    y 0.000000 1.753430 0.000000 
#    z -0.008050 0.000000 1.779790 
# 
# From -- ./inp_files/73132.got.cif
#   From: 2010.06.25/outbox.cif.g09.slc.cpg/sg11_37_cif.got.tgz:73132.got - 2010.06.27 23:14:04.
