data_PCOD8072953
_publ_section_title
;
Structure prediction by ZEFSAII (Michael W. Deem and Ramdas Pophale) SiO2 
 PCOD8072953
Probable space group: P 21/M
;
_chemical_formula_sum "Si O2"
_cell_formula_units_Z 32
_cell_length_a 26.893704
_cell_length_b 8.760828
_cell_length_c 21.087417
_cell_angle_alpha 90.000000
_cell_angle_beta 160.397142
_cell_angle_gamma 90.000000
_cell_volume 1666.901057
_symmetry_space_group_name_H-M "P 21/M"
_symmetry_group_IT_number 11
_symmetry_cell_setting 'monoclinic'
loop_
_space_group_symop_operation_xyz
x,y,z
-x,1/2+y,-z
-x,-y,-z
x,1/2-y,z
loop_
_atom_site_type_symbol
_atom_site_label
_atom_site_fract_x
_atom_site_fract_y
_atom_site_fract_z
Si Si1 0.730466 0.573848 0.944469
Si Si2 0.374399 0.072750 0.045060
Si Si3 0.705892 0.069230 0.435370
Si Si4 0.375188 0.423257 0.310737
Si Si5 0.840957 0.419733 0.867380
Si Si6 0.045471 0.932289 0.364835
Si Si7 0.860402 0.424237 0.750639
Si Si8 0.064906 0.569024 0.641353
O O1 0.753711 0.750000 0.955618
O O2 0.628318 0.550732 0.882653
O O3 0.648049 0.496564 0.785854
O O4 0.895910 0.506719 0.151383
O O5 0.351569 0.250000 0.999171
O O6 0.537087 0.010730 0.219032
O O7 0.238390 0.978177 0.852579
O O8 0.701002 0.250000 0.429000
O O9 0.814356 0.010945 0.509016
O O10 0.762516 0.016852 0.573214
O O11 0.500000 0.500000 0.500000
O O12 0.419921 0.250000 0.355809
O O13 0.227302 0.445404 0.173136
O O14 0.808351 0.250000 0.855195
O O15 0.775876 0.424354 0.716970
O O16 0.013971 0.452091 0.083751
O O17 0.046295 0.750000 0.373914
O O18 0.039978 0.005606 0.428166
O O19 0.916415 0.250000 0.804048
O O20 0.054534 0.750000 0.628311
O O21 0.000000 0.500000 0.500000
#
# Coordination Sequence:
#
# PCOD8072953 Si02
#       8
#     4   4   4   4   4   4   4   4
#     4   8  16  31  53  73 101 143 186 227 271 327
#     4   9  18  35  59  86 112 143 184 228 272 325
#     4   9  17  31  58  86 109 142 186 228 271 328
#     4  11  22  34  49  70 100 139 184 234 284 333
#     4  10  20  33  49  71 100 135 182 234 284 333
#     4   9  17  34  59  87 110 138 181 225 268 321
#     4   9  18  33  54  74  99 139 183 225 272 331
#     4  11  22  39  62  87 115 149 182 216 260 317
#
# _framework density 19.197299999999998
#
# number of rings (size 3 to 8) (size 9 to 14) (size 15 to 20)
#    0.000    2.500    0.000    3.375    1.750    2.500 
#    0.000   10.000    0.000    0.000    0.000    0.000 
#    0.000    0.000    0.000    0.000    0.000    0.000 
#
# Total GULP energy -396420.859303 kJ/mol
# GULP energy per Si atom -12388.151853 kJ/mol
# Density = 1.915361 g / cm^3
# Si number density = 19.197300 Si / 1000 Ang^3
#
#
#
# Elastic Constant Matrix: (Units=GPa)
#
#
# Indices 1 2 3 4 5 6 
#
# 1 112.0149 33.4610 69.4734 0.0000 -12.6735 0.0000
# 2 33.4610 58.1993 29.9889 0.0000 -8.3294 0.0000
# 3 69.4734 29.9889 101.7559 0.0000 -8.9084 0.0000
# 4 0.0000 0.0000 0.0000 25.1823 0.0000 -0.5405
# 5 -12.6735 -8.3294 -8.9084 0.0000 38.8688 0.0000
# 6 0.0000 0.0000 0.0000 -0.5405 0.0000 24.3013
#
#
#
# Elastic Compliance Matrix: (Units=1/GPa)
#
#
# Indices 1 2 3 4 5 6 
#
# 1 0.016536 -0.004091 -0.009888 0.000000 0.002249 0.000000
# 2 -0.004091 0.021627 -0.003360 0.000000 0.002531 0.000000
# 3 -0.009888 -0.003360 0.017576 0.000000 0.000084 0.000000
# 4 0.000000 0.000000 0.000000 0.039729 0.000000 0.000884
# 5 0.002249 0.002531 0.000084 0.000000 0.027023 0.000000
# 6 0.000000 0.000000 0.000000 0.000884 0.000000 0.041170
#
#
# Mechanical properties :
#
#
# Convention : Reuss Voigt Hill
#
# Bulk Modulus (GPa) = 47.47443 59.75742 53.61593
# Shear Modulus (GPa) = 24.34776 26.94026 25.64401
#
# Velocity S-wave (km/s) = 3.56517 3.75018 3.65884
# Velocity P-wave (km/s) = 6.45993 7.06735 6.77045
#
# Compressibility (1/GPa) = 0.02106397
#
# Stress axis : x y z
#
# Youngs Moduli (GPa) = 60.47339 46.23743 56.89696
#
# Poissons Ratio (x) = 0.18914 0.56257
# Poissons Ratio (y) = 0.24737 0.19115
# Poissons Ratio (z) = 0.59794 0.15534
#
# Static dielectric constant tensor:
#      x y z
#    x 3.455940 0.000000 -0.173800 
#    y 0.000000 3.151110 0.000000 
#    z -0.173800 0.000000 3.628930 
# 
# 
# High freq. dielectric constant tensor:
#      x y z
#    x 1.746940 0.000000 -0.000050 
#    y 0.000000 1.715250 0.000000 
#    z -0.000050 0.000000 1.742100 
# 
# From -- ./inp_files/67185.got.cif
#   From: 2010.06.25/outbox.cif.g09.slc.cpg/sg11_34_cif.got.tgz:67185.got - 2010.06.27 23:14:04.
