data_PCOD8072259
_publ_section_title
;
Structure prediction by ZEFSAII (Michael W. Deem and Ramdas Pophale) SiO2 
 PCOD8072259
Probable space group: P 21/M
;
_chemical_formula_sum "Si O2"
_cell_formula_units_Z 32
_cell_length_a 23.989341
_cell_length_b 16.286447
_cell_length_c 8.987638
_cell_angle_alpha 90.000000
_cell_angle_beta 28.608379
_cell_angle_gamma 90.000000
_cell_volume 1681.367889
_symmetry_space_group_name_H-M "P 21/M"
_symmetry_group_IT_number 11
_symmetry_cell_setting 'monoclinic'
loop_
_space_group_symop_operation_xyz
x,y,z
-x,1/2+y,-z
-x,-y,-z
x,1/2-y,z
loop_
_atom_site_type_symbol
_atom_site_label
_atom_site_fract_x
_atom_site_fract_y
_atom_site_fract_z
Si Si1 0.159066 0.654207 0.962416
Si Si2 0.221443 0.341025 0.408955
Si Si3 0.347442 0.440299 0.656493
Si Si4 0.117399 0.530228 0.296046
Si Si5 0.440312 0.340136 0.693236
Si Si6 0.021208 0.043730 0.795443
Si Si7 0.416242 0.606722 0.365393
Si Si8 0.627476 0.653568 0.685044
O O1 0.117772 0.750000 0.046855
O O2 0.294869 0.648765 0.602768
O O3 0.144958 0.621396 0.167029
O O4 0.090841 0.588989 0.016219
O O5 0.182944 0.250000 0.542340
O O6 0.107327 0.382593 0.618504
O O7 0.276200 0.384052 0.427469
O O8 0.313713 0.341623 0.060947
O O9 0.438195 0.410116 0.570732
O O10 0.405219 0.510533 0.422066
O O11 0.331918 0.365450 0.577258
O O12 0.223972 0.468380 0.012096
O O13 0.086505 0.526379 0.543414
O O14 0.000000 0.500000 0.500000
O O15 0.463426 0.250000 0.568300
O O16 0.538704 0.354012 0.586243
O O17 0.000000 0.000000 0.000000
O O18 0.501600 0.617722 0.025592
O O19 0.619415 0.750000 0.729836
#
# Coordination Sequence:
#
# PCOD8072259 Si02
#       8
#     4   4   4   4   4   4   4   4
#     4  10  21  40  63  83 115 162 196 230 291 357
#     4   9  19  35  56  80 114 150 185 234 294 346
#     4  11  20  35  58  88 113 147 200 236 288 345
#     4   9  21  38  56  86 117 152 193 242 289 341
#     4  10  19  35  57  82 114 148 186 241 292 337
#     4  11  22  38  62  85 118 150 196 247 291 340
#     4  10  21  37  58  81 119 154 191 231 285 351
#     4  10  21  36  56  86 118 149 189 239 291 342
#
# _framework density 19.032122999999999
#
# number of rings (size 3 to 8) (size 9 to 14) (size 15 to 20)
#    0.000    2.000    1.250    3.375    5.250    0.000 
#    0.000    1.875    0.000    0.000    0.000    0.000 
#    0.000    0.000    0.000    0.000    0.000    0.000 
#
# Total GULP energy -396514.151616 kJ/mol
# GULP energy per Si atom -12391.067238 kJ/mol
# Density = 1.898880 g / cm^3
# Si number density = 19.032123 Si / 1000 Ang^3
#
#
#
# Elastic Constant Matrix: (Units=GPa)
#
#
# Indices 1 2 3 4 5 6 
#
# 1 88.5221 34.4161 44.6813 0.0000 3.1608 0.0000
# 2 34.4161 74.0981 20.8439 0.0000 0.2407 0.0000
# 3 44.6813 20.8439 56.3983 0.0000 -1.4673 0.0000
# 4 0.0000 0.0000 0.0000 13.1889 0.0000 2.9730
# 5 3.1608 0.2407 -1.4673 0.0000 38.6740 0.0000
# 6 0.0000 0.0000 0.0000 2.9730 0.0000 33.7333
#
#
#
# Elastic Compliance Matrix: (Units=1/GPa)
#
#
# Indices 1 2 3 4 5 6 
#
# 1 0.020895 -0.005608 -0.014539 0.000000 -0.002224 0.000000
# 2 -0.005608 0.016570 -0.001674 0.000000 0.000292 0.000000
# 3 -0.014539 -0.001674 0.029929 0.000000 0.002334 0.000000
# 4 0.000000 0.000000 0.000000 0.077358 0.000000 -0.006818
# 5 -0.002224 0.000292 0.002334 0.000000 0.026126 0.000000
# 6 0.000000 0.000000 0.000000 -0.006818 0.000000 0.030245
#
#
# Mechanical properties :
#
#
# Convention : Reuss Voigt Hill
#
# Bulk Modulus (GPa) = 42.10078 46.54459 44.32268
# Shear Modulus (GPa) = 19.78768 25.05770 22.42269
#
# Velocity S-wave (km/s) = 3.22793 3.63244 3.43614
# Velocity P-wave (km/s) = 6.00514 6.48858 6.25153
#
# Compressibility (1/GPa) = 0.02375253
#
# Stress axis : x y z
#
# Youngs Moduli (GPa) = 47.85839 60.34944 33.41243
#
# Poissons Ratio (x) = 0.33843 0.48579
# Poissons Ratio (y) = 0.26838 0.05592
# Poissons Ratio (z) = 0.69583 0.10100
#
# Static dielectric constant tensor:
#      x y z
#    x 3.658510 0.000000 -0.005280 
#    y 0.000000 3.568850 0.000000 
#    z -0.005280 0.000000 3.360790 
# 
# 
# High freq. dielectric constant tensor:
#      x y z
#    x 1.743320 0.000000 -0.007390 
#    y 0.000000 1.737480 0.000000 
#    z -0.007390 0.000000 1.731710 
# 
# From -- ./inp_files/27768.got.cif
#   From: 2010.06.25/outbox.cif.g09.slc.cpg/sg11_14_cif.got.tgz:27768.got - 2010.06.27 23:14:04.
