data_PCOD8072917
_publ_section_title
;
Structure prediction by ZEFSAII (Michael W. Deem and Ramdas Pophale) SiO2 
 PCOD8072917
Probable space group: P 21/M
;
_chemical_formula_sum "Si O2"
_cell_formula_units_Z 32
_cell_length_a 22.471651
_cell_length_b 9.144694
_cell_length_c 11.900132
_cell_angle_alpha 90.000000
_cell_angle_beta 47.159906
_cell_angle_gamma 90.000000
_cell_volume 1793.124792
_symmetry_space_group_name_H-M "P 21/M"
_symmetry_group_IT_number 11
_symmetry_cell_setting 'monoclinic'
loop_
_space_group_symop_operation_xyz
x,y,z
-x,1/2+y,-z
-x,-y,-z
x,1/2-y,z
loop_
_atom_site_type_symbol
_atom_site_label
_atom_site_fract_x
_atom_site_fract_y
_atom_site_fract_z
Si Si1 0.651322 0.917783 0.415693
Si Si2 0.682735 0.919895 0.129612
Si Si3 0.499130 0.085398 0.670019
Si Si4 0.439380 0.916632 0.157642
Si Si5 0.285710 0.077081 0.427106
Si Si6 0.153369 0.583762 0.468473
Si Si7 0.822906 0.421580 0.823073
Si Si8 0.022376 0.081034 0.358462
O O1 0.628929 0.750000 0.461280
O O2 0.703362 0.942785 0.235476
O O3 0.703180 0.971794 0.456775
O O4 0.564475 0.996272 0.513746
O O5 0.692666 0.750000 0.082005
O O6 0.591426 0.976980 0.226274
O O7 0.739546 0.019364 0.980419
O O8 0.500800 0.250000 0.621652
O O9 0.523073 0.076694 0.768259
O O10 0.427065 0.750000 0.132572
O O11 0.353320 0.999001 0.263803
O O12 0.500000 0.000000 0.000000
O O13 0.292584 0.250000 0.402731
O O14 0.198423 0.023350 0.496671
O O15 0.181349 0.750000 0.454728
O O16 0.173687 0.540976 0.313593
O O17 0.056985 0.567307 0.618996
O O18 0.830667 0.250000 0.835027
O O19 0.897184 0.502337 0.793536
O O20 0.042267 0.250000 0.357510
O O21 0.000000 0.000000 0.500000
#
# Coordination Sequence:
#
# PCOD8072917 Si02
#       8
#     4   4   4   4   4   4   4   4
#     4   9  19  35  52  72  99 132 171 212 255 297
#     4  10  20  34  52  74 102 133 167 212 257 298
#     4   9  19  33  50  72  95 128 173 212 251 300
#     4  10  20  33  47  68 100 134 168 208 253 297
#     4  10  20  33  51  74  98 132 172 207 248 298
#     4   9  19  34  52  77 105 132 164 203 246 298
#     4  10  21  34  50  78 108 133 165 203 253 304
#     4   9  17  32  53  76 104 135 164 199 249 302
#
# _framework density 17.845942000000001
#
# number of rings (size 3 to 8) (size 9 to 14) (size 15 to 20)
#    0.000    2.500    0.000    2.625    1.750    5.000 
#    0.000    0.000    0.000    0.750    0.000    0.000 
#    0.000    0.000    0.000    0.000    0.000    0.000 
#
# Total GULP energy -396729.043193 kJ/mol
# GULP energy per Si atom -12397.782600 kJ/mol
# Density = 1.780532 g / cm^3
# Si number density = 17.845942 Si / 1000 Ang^3
#
#
#
# Elastic Constant Matrix: (Units=GPa)
#
#
# Indices 1 2 3 4 5 6 
#
# 1 96.5818 46.8334 31.5081 0.0000 -18.7551 0.0000
# 2 46.8334 92.6943 31.1088 0.0000 -10.6903 0.0000
# 3 31.5081 31.1088 55.2725 0.0000 -11.6823 0.0000
# 4 0.0000 0.0000 0.0000 28.8570 0.0000 -8.3295
# 5 -18.7551 -10.6903 -11.6823 0.0000 16.5918 0.0000
# 6 0.0000 0.0000 0.0000 -8.3295 0.0000 29.0531
#
#
#
# Elastic Compliance Matrix: (Units=1/GPa)
#
#
# Indices 1 2 3 4 5 6 
#
# 1 0.016829 -0.005817 -0.003631 0.000000 0.012719 0.000000
# 2 -0.005817 0.015527 -0.005520 0.000000 -0.000458 0.000000
# 3 -0.003631 -0.005520 0.025435 0.000000 0.010248 0.000000
# 4 0.000000 0.000000 0.000000 0.037780 0.000000 0.010832
# 5 0.012719 -0.000458 0.010248 0.000000 0.081568 0.000000
# 6 0.000000 0.000000 0.000000 0.010832 0.000000 0.037525
#
#
# Mechanical properties :
#
#
# Convention : Reuss Voigt Hill
#
# Bulk Modulus (GPa) = 35.90083 51.49436 43.69759
# Shear Modulus (GPa) = 19.69397 23.90694 21.80045
#
# Velocity S-wave (km/s) = 3.32558 3.66406 3.49892
# Velocity P-wave (km/s) = 5.90819 6.84237 6.39237
#
# Compressibility (1/GPa) = 0.02785451
#
# Stress axis : x y z
#
# Youngs Moduli (GPa) = 59.42038 64.40403 39.31656
#
# Poissons Ratio (x) = 0.37467 0.14276
# Poissons Ratio (y) = 0.34568 0.21701
# Poissons Ratio (z) = 0.21576 0.35548
#
# Static dielectric constant tensor:
#      x y z
#    x 3.358120 0.000000 0.037490 
#    y 0.000000 3.488050 0.000000 
#    z 0.037490 0.000000 3.371840 
# 
# 
# High freq. dielectric constant tensor:
#      x y z
#    x 1.688770 0.000000 -0.009510 
#    y 0.000000 1.698650 0.000000 
#    z -0.009510 0.000000 1.667750 
# 
# From -- ./inp_files/43778.got.cif
#   From: 2010.06.25/outbox.cif.g09.slc.cpg/sg11_22_cif.got.tgz:43778.got - 2010.06.27 23:14:04.
