data_PCOD8072715
_publ_section_title
;
Structure prediction by ZEFSAII (Michael W. Deem and Ramdas Pophale) SiO2 
 PCOD8072715
Probable space group: P 21/M
;
_chemical_formula_sum "Si O2"
_cell_formula_units_Z 24
_cell_length_a 8.582768
_cell_length_b 17.453994
_cell_length_c 14.543801
_cell_angle_alpha 90.000000
_cell_angle_beta 30.850571
_cell_angle_gamma 90.000000
_cell_volume 1117.246033
_symmetry_space_group_name_H-M "P 21/M"
_symmetry_group_IT_number 11
_symmetry_cell_setting 'monoclinic'
loop_
_space_group_symop_operation_xyz
x,y,z
-x,1/2+y,-z
-x,-y,-z
x,1/2-y,z
loop_
_atom_site_type_symbol
_atom_site_label
_atom_site_fract_x
_atom_site_fract_y
_atom_site_fract_z
Si Si1 0.304480 0.471596 0.295734
Si Si2 0.636742 0.608718 0.048942
Si Si3 0.902118 0.250000 0.923481
Si Si4 0.224810 0.750000 0.230365
Si Si5 0.437470 0.250000 0.408743
Si Si6 0.555164 0.250000 0.555054
Si Si7 0.875099 0.662916 0.738380
Si Si8 0.216950 0.625850 0.871871
O O1 0.426926 0.532673 0.159267
O O2 0.241411 0.388637 0.284664
O O3 0.588271 0.452898 0.219596
O O4 0.000000 0.500000 0.500000
O O5 0.405151 0.677791 0.176654
O O6 0.814395 0.617076 0.863085
O O7 0.876379 0.607218 0.011240
O O8 0.818201 0.250000 0.858302
O O9 0.262270 0.250000 0.768178
O O10 0.777281 0.172499 0.034186
O O11 0.911773 0.750000 0.447823
O O12 0.403571 0.250000 0.533497
O O13 0.621399 0.175524 0.287540
O O14 0.763114 0.173855 0.460480
O O15 0.722982 0.750000 0.816413
#
# Coordination Sequence:
#
# PCOD8072715 Si02
#       8
#     4   4   2   2   2   2   4   4
#     4  12  28  44  65 104 141 178 226 283 340 392
#     4  12  23  44  69  95 137 178 224 275 338 409
#     4  10  23  36  73  99 130 168 227 275 337 396
#     4  11  21  40  68  99 125 173 226 264 335 401
#     4  10  19  38  67  95 128 170 223 279 315 406
#     4   9  19  40  66 103 123 171 232 280 323 401
#     4  10  22  44  70  95 132 180 230 272 338 403
#     4  11  23  43  63 100 135 175 220 274 343 390
#
# _framework density 21.481394000000002
#
# number of rings (size 3 to 8) (size 9 to 14) (size 15 to 20)
#    0.500    0.667    2.500    4.000    4.667    0.000 
#    4.500    0.833    0.000    0.000    0.000    0.000 
#    0.000    0.000    0.000    0.000    0.000    0.000 
#
# Total GULP energy -297413.485761 kJ/mol
# GULP energy per Si atom -12392.228573 kJ/mol
# Density = 2.143250 g / cm^3
# Si number density = 21.481394 Si / 1000 Ang^3
#
#
#
# Elastic Constant Matrix: (Units=GPa)
#
#
# Indices 1 2 3 4 5 6 
#
# 1 79.7800 53.2551 33.7786 0.0000 -14.6406 0.0000
# 2 53.2551 107.4634 52.1661 0.0000 -11.3030 0.0000
# 3 33.7786 52.1661 120.1154 0.0000 -28.3535 0.0000
# 4 0.0000 0.0000 0.0000 60.0269 0.0000 -17.5792
# 5 -14.6406 -11.3030 -28.3535 0.0000 36.6179 0.0000
# 6 0.0000 0.0000 0.0000 -17.5792 0.0000 12.2035
#
#
#
# Elastic Compliance Matrix: (Units=1/GPa)
#
#
# Indices 1 2 3 4 5 6 
#
# 1 0.019597 -0.008972 -0.000512 0.000000 0.004669 0.000000
# 2 -0.008972 0.015904 -0.004983 0.000000 -0.002536 0.000000
# 3 -0.000512 -0.004983 0.012508 0.000000 0.007942 0.000000
# 4 0.000000 0.000000 0.000000 0.028815 0.000000 0.041508
# 5 0.004669 -0.002536 0.007942 0.000000 0.034543 0.000000
# 6 0.000000 0.000000 0.000000 0.041508 0.000000 0.141737
#
#
# Mechanical properties :
#
#
# Convention : Reuss Voigt Hill
#
# Bulk Modulus (GPa) = 52.42383 65.08427 58.75405
# Shear Modulus (GPa) = 17.33730 32.98025 25.15878
#
# Velocity S-wave (km/s) = 2.84401 3.92253 3.42598
# Velocity P-wave (km/s) = 5.93648 7.13294 6.56203
#
# Compressibility (1/GPa) = 0.01907529
#
# Stress axis : x y z
#
# Youngs Moduli (GPa) = 51.02766 62.87907 79.94799
#
# Poissons Ratio (x) = 0.56414 0.04097
# Poissons Ratio (y) = 0.45781 0.39834
# Poissons Ratio (z) = 0.02615 0.31330
#
# Static dielectric constant tensor:
#      x y z
#    x 3.739580 0.000000 -0.275790 
#    y 0.000000 3.856850 0.000000 
#    z -0.275790 0.000000 4.099510 
# 
# 
# High freq. dielectric constant tensor:
#      x y z
#    x 1.841990 0.000000 -0.020310 
#    y 0.000000 1.830960 0.000000 
#    z -0.020310 0.000000 1.860080 
# 
# From -- ./inp_files/47971.got.cif
#   From: 2010.06.25/outbox.cif.g09.slc.cpg/sg11_24_cif.got.tgz:47971.got - 2010.06.27 23:14:04.
