data_PCOD8072567
_publ_section_title
;
Structure prediction by ZEFSAII (Michael W. Deem and Ramdas Pophale) SiO2 
 PCOD8072567
Probable space group: P 21/M
;
_chemical_formula_sum "Si O2"
_cell_formula_units_Z 32
_cell_length_a 5.099316
_cell_length_b 32.163167
_cell_length_c 10.166053
_cell_angle_alpha 90.000000
_cell_angle_beta 91.165540
_cell_angle_gamma 90.000000
_cell_volume 1666.990924
_symmetry_space_group_name_H-M "P 21/M"
_symmetry_group_IT_number 11
_symmetry_cell_setting 'monoclinic'
loop_
_space_group_symop_operation_xyz
x,y,z
-x,1/2+y,-z
-x,-y,-z
x,1/2-y,z
loop_
_atom_site_type_symbol
_atom_site_label
_atom_site_fract_x
_atom_site_fract_y
_atom_site_fract_z
Si Si1 0.546182 0.296593 0.405254
Si Si2 0.463858 0.104046 0.874756
Si Si3 0.992497 0.462828 0.239445
Si Si4 0.974935 0.114001 0.045692
Si Si5 0.513040 0.009103 0.846885
Si Si6 0.438969 0.627399 0.403863
Si Si7 0.028664 0.171028 0.277391
Si Si8 0.044910 0.095392 0.467774
O O1 0.504312 0.250000 0.459390
O O2 0.569157 0.326872 0.531114
O O3 0.310206 0.309293 0.307044
O O4 0.803806 0.296633 0.316387
O O5 0.680371 0.110752 0.989112
O O6 0.463274 0.057323 0.819511
O O7 0.518085 0.134074 0.751129
O O8 0.179632 0.115020 0.928665
O O9 0.702696 0.481495 0.228628
O O10 0.030031 0.448312 0.390772
O O11 0.202193 0.498260 0.207471
O O12 0.037054 0.425527 0.137230
O O13 0.004360 0.157316 0.125177
O O14 0.500000 0.000000 0.000000
O O15 0.173863 0.600675 0.421442
O O16 0.669671 0.599943 0.468187
O O17 0.977022 0.130155 0.361042
#
# Coordination Sequence:
#
# PCOD8072567 Si02
#       8
#     4   4   4   4   4   4   4   4
#     4  10  19  36  62  85 106 134 170 219 264 315
#     4  12  23  34  54  77 113 152 184 224 271 323
#     4  11  20  35  55  77 102 140 190 241 287 304
#     4  11  20  35  55  80 107 142 177 225 275 320
#     4  12  21  34  50  79 109 139 196 239 273 326
#     4  10  21  38  53  81 109 141 184 215 260 340
#     4   9  19  33  57  87 107 130 175 220 266 320
#     4   9  19  36  56  73 107 143 180 231 272 312
#
# _framework density 19.196263999999999
#
# number of rings (size 3 to 8) (size 9 to 14) (size 15 to 20)
#    0.000    1.500    2.500    3.750    0.000    4.000 
#    0.000    3.750    0.000    4.500    0.000    0.000 
#    0.000    0.000    0.000    0.000    0.000    0.000 
#
# Total GULP energy -396908.372551 kJ/mol
# GULP energy per Si atom -12403.386642 kJ/mol
# Density = 1.915257 g / cm^3
# Si number density = 19.196264 Si / 1000 Ang^3
#
#
#
# Elastic Constant Matrix: (Units=GPa)
#
#
# Indices 1 2 3 4 5 6 
#
# 1 71.3983 12.0560 1.3869 0.0000 -5.8206 0.0000
# 2 12.0560 72.7101 31.2280 0.0000 -1.3824 0.0000
# 3 1.3869 31.2280 65.2640 0.0000 -9.1238 0.0000
# 4 0.0000 0.0000 0.0000 17.0565 0.0000 -3.4444
# 5 -5.8206 -1.3824 -9.1238 0.0000 19.3958 0.0000
# 6 0.0000 0.0000 0.0000 -3.4444 0.0000 19.3765
#
#
#
# Elastic Compliance Matrix: (Units=1/GPa)
#
#
# Indices 1 2 3 4 5 6 
#
# 1 0.014932 -0.003211 0.001941 0.000000 0.005165 0.000000
# 2 -0.003211 0.018150 -0.009173 0.000000 -0.003985 0.000000
# 3 0.001941 -0.009173 0.021044 0.000000 0.009828 0.000000
# 4 0.000000 0.000000 0.000000 0.060812 0.000000 0.010810
# 5 0.005165 -0.003985 0.009828 0.000000 0.057447 0.000000
# 6 0.000000 0.000000 0.000000 0.010810 0.000000 0.053531
#
#
# Mechanical properties :
#
#
# Convention : Reuss Voigt Hill
#
# Bulk Modulus (GPa) = 30.08506 33.19046 31.63776
# Shear Modulus (GPa) = 19.38879 22.14587 20.76733
#
# Velocity S-wave (km/s) = 3.18154 3.40023 3.29271
# Velocity P-wave (km/s) = 5.40395 5.72216 5.56533
#
# Compressibility (1/GPa) = 0.03323909
#
# Stress axis : x y z
#
# Youngs Moduli (GPa) = 66.97227 55.09716 47.51857
#
# Poissons Ratio (x) = 0.17694 -0.09225
# Poissons Ratio (y) = 0.21507 0.43590
# Poissons Ratio (z) = -0.13002 0.50542
#
# Static dielectric constant tensor:
#      x y z
#    x 3.625540 0.000000 -0.072180 
#    y 0.000000 3.419320 0.000000 
#    z -0.072180 0.000000 3.471500 
# 
# 
# High freq. dielectric constant tensor:
#      x y z
#    x 1.767350 0.000000 -0.002110 
#    y 0.000000 1.720170 0.000000 
#    z -0.002110 0.000000 1.736150 
# 
# From -- ./inp_files/10849.got.cif
#   From: 2010.06.25/outbox.cif.g09.slc.cpg/sg11_6_cif.got.tgz:10849.got - 2010.06.27 23:14:04.
