data_PCOD8072633
_publ_section_title
;
Structure prediction by ZEFSAII (Michael W. Deem and Ramdas Pophale) SiO2 
 PCOD8072633
Probable space group: P 21/M
;
_chemical_formula_sum "Si O2"
_cell_formula_units_Z 28
_cell_length_a 15.111886
_cell_length_b 9.263327
_cell_length_c 12.505391
_cell_angle_alpha 90.000000
_cell_angle_beta 51.844190
_cell_angle_gamma 90.000000
_cell_volume 1376.542993
_symmetry_space_group_name_H-M "P 21/M"
_symmetry_group_IT_number 11
_symmetry_cell_setting 'monoclinic'
loop_
_space_group_symop_operation_xyz
x,y,z
-x,1/2+y,-z
-x,-y,-z
x,1/2-y,z
loop_
_atom_site_type_symbol
_atom_site_label
_atom_site_fract_x
_atom_site_fract_y
_atom_site_fract_z
Si Si1 0.934441 0.593698 0.467055
Si Si2 0.007901 0.586034 0.772834
Si Si3 0.248015 0.418845 0.047893
Si Si4 0.380318 0.923344 0.771664
Si Si5 0.760358 0.414847 0.320690
Si Si6 0.698750 0.591432 0.749076
Si Si7 0.607559 0.078162 0.628807
O O1 0.992698 0.750000 0.416512
O O2 0.939752 0.521356 0.349799
O O3 0.808197 0.610157 0.597171
O O4 0.000000 0.500000 0.500000
O O5 0.008609 0.750000 0.727514
O O6 0.103029 0.568207 0.794597
O O7 0.879731 0.544890 0.896507
O O8 0.274109 0.250000 0.009646
O O9 0.267371 0.462109 0.157471
O O10 0.331290 0.519080 0.919800
O O11 0.390875 0.750000 0.768575
O O12 0.299737 0.985142 0.737253
O O13 0.499894 0.996922 0.661082
O O14 0.724973 0.250000 0.341192
O O15 0.710298 0.468240 0.472820
O O16 0.639154 0.750000 0.800380
O O17 0.623504 0.476766 0.739885
O O18 0.589130 0.250000 0.647696
#
# Coordination Sequence:
#
# PCOD8072633 Si02
#       7
#     4   4   4   4   4   4   4
#     4  11  20  32  54  87 122 157 193 237 294 351
#     4  10  19  37  61  88 121 155 191 241 296 349
#     4  10  22  40  60  85 121 162 197 233 288 354
#     4  11  24  42  60  83 119 159 201 247 291 344
#     4   9  20  38  63  91 118 151 192 245 302 348
#     4  10  21  37  58  88 122 154 191 241 296 348
#     4  11  22  39  65  91 114 150 198 246 301 355
#
# _framework density 20.340809
#
# number of rings (size 3 to 8) (size 9 to 14) (size 15 to 20)
#    0.000    1.714    2.857    1.714    0.000    2.857 
#    0.000    3.571    0.000    0.000    0.000    0.000 
#    0.000    0.000    0.000    0.000    0.000    0.000 
#
# Total GULP energy -346921.174364 kJ/mol
# GULP energy per Si atom -12390.041942 kJ/mol
# Density = 2.029451 g / cm^3
# Si number density = 20.340809 Si / 1000 Ang^3
#
#
#
# Elastic Constant Matrix: (Units=GPa)
#
#
# Indices 1 2 3 4 5 6 
#
# 1 101.7385 29.4863 9.4864 0.0000 7.9361 0.0000
# 2 29.4863 68.3575 21.9261 0.0000 7.6934 0.0000
# 3 9.4864 21.9261 52.0185 0.0000 -0.3385 0.0000
# 4 0.0000 0.0000 0.0000 22.0224 0.0000 -5.2137
# 5 7.9361 7.6934 -0.3385 0.0000 24.6570 0.0000
# 6 0.0000 0.0000 0.0000 -5.2137 0.0000 24.4449
#
#
#
# Elastic Compliance Matrix: (Units=1/GPa)
#
#
# Indices 1 2 3 4 5 6 
#
# 1 0.011349 -0.004599 -0.000146 0.000000 -0.002220 0.000000
# 2 -0.004599 0.019524 -0.007421 0.000000 -0.004713 0.000000
# 3 -0.000146 -0.007421 0.022396 0.000000 0.002670 0.000000
# 4 0.000000 0.000000 0.000000 0.047823 0.000000 0.010200
# 5 -0.002220 -0.004713 0.002670 0.000000 0.042778 0.000000
# 6 0.000000 0.000000 0.000000 0.010200 0.000000 0.043084
#
#
# Mechanical properties :
#
#
# Convention : Reuss Voigt Hill
#
# Bulk Modulus (GPa) = 34.55805 38.21245 36.38525
# Shear Modulus (GPa) = 22.63156 24.97258 23.80207
#
# Velocity S-wave (km/s) = 3.33921 3.50767 3.42448
# Velocity P-wave (km/s) = 5.64743 5.93564 5.79333
#
# Compressibility (1/GPa) = 0.02893682
#
# Stress axis : x y z
#
# Youngs Moduli (GPa) = 88.11589 51.22008 44.65084
#
# Poissons Ratio (x) = 0.23555 0.00650
# Poissons Ratio (y) = 0.40522 0.33137
# Poissons Ratio (z) = 0.01283 0.38012
#
# Static dielectric constant tensor:
#      x y z
#    x 3.835440 0.000000 0.015260 
#    y 0.000000 3.786210 0.000000 
#    z 0.015260 0.000000 3.479480 
# 
# 
# High freq. dielectric constant tensor:
#      x y z
#    x 1.807850 0.000000 0.000310 
#    y 0.000000 1.786900 0.000000 
#    z 0.000310 0.000000 1.775700 
# 
# From -- ./inp_files/37843.got.cif
#   From: 2010.06.25/outbox.cif.g09.slc.cpg/sg11_19_cif.got.tgz:37843.got - 2010.06.27 23:14:04.
