data_PCOD8072730
_publ_section_title
;
Structure prediction by ZEFSAII (Michael W. Deem and Ramdas Pophale) SiO2 
 PCOD8072730
Probable space group: P 21/M
;
_chemical_formula_sum "Si O2"
_cell_formula_units_Z 26
_cell_length_a 9.192677
_cell_length_b 21.208635
_cell_length_c 9.513747
_cell_angle_alpha 90.000000
_cell_angle_beta 136.351005
_cell_angle_gamma 90.000000
_cell_volume 1280.281667
_symmetry_space_group_name_H-M "P 21/M"
_symmetry_group_IT_number 11
_symmetry_cell_setting 'monoclinic'
loop_
_space_group_symop_operation_xyz
x,y,z
-x,1/2+y,-z
-x,-y,-z
x,1/2-y,z
loop_
_atom_site_type_symbol
_atom_site_label
_atom_site_fract_x
_atom_site_fract_y
_atom_site_fract_z
Si Si1 0.056644 0.519074 0.879624
Si Si2 0.620279 0.565084 0.553421
Si Si3 0.383240 0.750000 0.985384
Si Si4 0.422711 0.351999 0.211231
Si Si5 0.802742 0.750000 0.108870
Si Si6 0.244430 0.750000 0.576845
Si Si7 0.634238 0.940216 0.060669
Si Si8 0.425618 0.880498 0.151890
O O1 0.136994 0.458539 0.844318
O O2 0.849520 0.545072 0.656915
O O3 0.233455 0.572131 0.994485
O O4 0.000000 0.500000 0.000000
O O5 0.500000 0.500000 0.500000
O O6 0.658516 0.607798 0.715705
O O7 0.499320 0.611345 0.363111
O O8 0.622374 0.750000 0.100206
O O9 0.343995 0.810446 0.057854
O O10 0.232320 0.750000 0.740266
O O11 0.626777 0.310344 0.389089
O O12 0.226220 0.311098 0.011762
O O13 0.497766 0.400951 0.145816
O O14 0.020380 0.750000 0.344836
O O15 0.631892 0.898013 0.200676
O O16 0.500000 0.000000 0.000000
#
# Coordination Sequence:
#
# PCOD8072730 Si02
#       8
#     4   4   2   4   2   2   4   4
#     4  11  22  40  67  95 132 178 221 275 335 390
#     4  12  24  41  65  98 136 177 216 272 338 400
#     4  10  22  44  63  97 139 167 213 300 322 392
#     4  10  21  42  63  94 136 165 219 275 316 392
#     4  10  22  41  69  95 127 174 229 269 325 398
#     4  10  22  41  72  94 124 181 222 265 339 394
#     4  10  19  39  66  92 129 169 215 277 327 384
#     4  11  23  42  66  97 139 172 219 282 335 396
#
# _framework density 20.308029999999999
#
# number of rings (size 3 to 8) (size 9 to 14) (size 15 to 20)
#    0.000    1.538    6.154    0.923    0.000    5.538 
#    0.000    1.538    0.000    0.000    0.000    0.000 
#    0.000    0.000    0.000    0.000    0.000    0.000 
#
# Total GULP energy -322156.668174 kJ/mol
# GULP energy per Si atom -12390.641084 kJ/mol
# Density = 2.026181 g / cm^3
# Si number density = 20.308030 Si / 1000 Ang^3
#
#
#
# Elastic Constant Matrix: (Units=GPa)
#
#
# Indices 1 2 3 4 5 6 
#
# 1 93.0940 51.1410 40.0640 0.0000 -1.5109 0.0000
# 2 51.1410 136.2432 55.1875 0.0000 -8.2186 0.0000
# 3 40.0640 55.1875 136.5511 0.0000 12.2163 0.0000
# 4 0.0000 0.0000 0.0000 30.4100 0.0000 -17.2167
# 5 -1.5109 -8.2186 12.2163 0.0000 35.9762 0.0000
# 6 0.0000 0.0000 0.0000 -17.2167 0.0000 32.1520
#
#
#
# Elastic Compliance Matrix: (Units=1/GPa)
#
#
# Indices 1 2 3 4 5 6 
#
# 1 0.014167 -0.004294 -0.002462 0.000000 0.000450 0.000000
# 2 -0.004294 0.010477 -0.003272 0.000000 0.003324 0.000000
# 3 -0.002462 -0.003272 0.009740 0.000000 -0.004158 0.000000
# 4 0.000000 0.000000 0.000000 0.047190 0.000000 0.025269
# 5 0.000450 0.003324 -0.004158 0.000000 0.029986 0.000000
# 6 0.000000 0.000000 0.000000 0.025269 0.000000 0.044634
#
#
# Mechanical properties :
#
#
# Convention : Reuss Voigt Hill
#
# Bulk Modulus (GPa) = 69.78446 73.18592 71.48519
# Shear Modulus (GPa) = 27.62030 34.34069 30.98049
#
# Velocity S-wave (km/s) = 3.69191 4.11663 3.91004
# Velocity P-wave (km/s) = 7.25336 7.66235 7.46066
#
# Compressibility (1/GPa) = 0.01432984
#
# Stress axis : x y z
#
# Youngs Moduli (GPa) = 70.58556 95.44306 102.66970
#
# Poissons Ratio (x) = 0.40979 0.25274
# Poissons Ratio (y) = 0.30307 0.33595
# Poissons Ratio (z) = 0.17376 0.31230
#
# Static dielectric constant tensor:
#      x y z
#    x 3.980440 0.000000 -0.109480 
#    y 0.000000 4.286690 0.000000 
#    z -0.109480 0.000000 3.649980 
# 
# 
# High freq. dielectric constant tensor:
#      x y z
#    x 1.785930 0.000000 -0.012290 
#    y 0.000000 1.811720 0.000000 
#    z -0.012290 0.000000 1.777470 
# 
# From -- ./inp_files/14527.got.cif
#   From: 2010.06.25/outbox.cif.g09.slc.cpg/sg11_8_cif.got.tgz:14527.got - 2010.06.27 23:14:04.
