data_PCOD8072811
_publ_section_title
;
Structure prediction by ZEFSAII (Michael W. Deem and Ramdas Pophale) SiO2 
 PCOD8072811
Probable space group: P 21/M
;
_chemical_formula_sum "Si O2"
_cell_formula_units_Z 32
_cell_length_a 21.811189
_cell_length_b 9.234729
_cell_length_c 9.409362
_cell_angle_alpha 90.000000
_cell_angle_beta 110.645072
_cell_angle_gamma 90.000000
_cell_volume 1773.530159
_symmetry_space_group_name_H-M "P 21/M"
_symmetry_group_IT_number 11
_symmetry_cell_setting 'monoclinic'
loop_
_space_group_symop_operation_xyz
x,y,z
-x,1/2+y,-z
-x,-y,-z
x,1/2-y,z
loop_
_atom_site_type_symbol
_atom_site_label
_atom_site_fract_x
_atom_site_fract_y
_atom_site_fract_z
Si Si1 0.684001 0.080653 0.458107
Si Si2 0.068959 0.410460 0.911954
Si Si3 0.544620 0.917992 0.846777
Si Si4 0.827638 0.083403 0.636251
Si Si5 0.417753 0.418634 0.802587
Si Si6 0.050381 0.087259 0.234319
Si Si7 0.343517 0.416126 0.275894
Si Si8 0.798451 0.585529 0.887767
O O1 0.666451 0.250000 0.445780
O O2 0.761674 0.057307 0.490566
O O3 0.647402 0.000164 0.300700
O O4 0.660634 0.014114 0.588352
O O5 0.048664 0.250000 0.846745
O O6 0.020804 0.518322 0.789358
O O7 0.062765 0.426302 0.076952
O O8 0.146684 0.441408 0.943272
O O9 0.525500 0.750000 0.814400
O O10 0.596312 0.968932 0.770717
O O11 0.480213 0.014413 0.772146
O O12 0.576741 0.946785 0.025710
O O13 0.848499 0.250000 0.655550
O O14 0.890847 0.993539 0.632836
O O15 0.809224 0.035197 0.778730
O O16 0.413266 0.250000 0.760866
O O17 0.048405 0.250000 0.288587
O O18 0.353371 0.250000 0.332268
O O19 0.277103 0.429115 0.124798
O O20 0.810362 0.750000 0.836924
#
# Coordination Sequence:
#
# PCOD8072811 Si02
#       8
#     4   4   4   4   4   4   4   4
#     4  10  20  32  47  69  95 122 153 188 227 272
#     4   8  13  20  30  47  73 105 140 174 209 254
#     4   9  19  35  53  72  93 118 150 188 228 270
#     4   9  16  25  37  54  79 110 142 179 220 259
#     4  10  20  34  52  71  92 121 153 185 225 271
#     4   9  15  21  31  48  72 106 145 179 212 254
#     4   9  17  31  50  70  93 120 151 189 230 271
#     4   8  14  24  38  56  79 109 142 176 217 262
#
# _framework density 18.043108
#
# number of rings (size 3 to 8) (size 9 to 14) (size 15 to 20)
#    0.000    3.000    0.000    2.250    0.000    6.000 
#    0.000    0.000    0.000    0.000    0.000    0.000 
#    0.000    1.000    0.000    2.000    0.000    8.125 
#
# Total GULP energy -396511.177064 kJ/mol
# GULP energy per Si atom -12390.974283 kJ/mol
# Density = 1.800204 g / cm^3
# Si number density = 18.043108 Si / 1000 Ang^3
#
#
#
# Elastic Constant Matrix: (Units=GPa)
#
#
# Indices 1 2 3 4 5 6 
#
# 1 24.6808 27.0759 28.1796 0.0000 23.9844 0.0000
# 2 27.0759 112.3693 45.6402 0.0000 28.2449 0.0000
# 3 28.1796 45.6402 59.1470 0.0000 29.3740 0.0000
# 4 0.0000 0.0000 0.0000 24.7158 0.0000 9.8962
# 5 23.9844 28.2449 29.3740 0.0000 29.5514 0.0000
# 6 0.0000 0.0000 0.0000 9.8962 0.0000 23.7935
#
#
#
# Elastic Compliance Matrix: (Units=1/GPa)
#
#
# Indices 1 2 3 4 5 6 
#
# 1 0.219700 -0.004703 -0.029073 0.000000 -0.144918 0.000000
# 2 -0.004703 0.013421 -0.007190 0.000000 -0.001864 0.000000
# 3 -0.029073 -0.007190 0.041819 0.000000 -0.011100 0.000000
# 4 0.000000 0.000000 0.000000 0.048544 0.000000 -0.020190
# 5 -0.144918 -0.001864 -0.011100 0.000000 0.164272 0.000000
# 6 0.000000 0.000000 0.000000 -0.020190 0.000000 0.050426
#
#
# Mechanical properties :
#
#
# Convention : Reuss Voigt Hill
#
# Bulk Modulus (GPa) = 5.18113 44.22093 24.70103
# Shear Modulus (GPa) = 7.30515 21.96558 14.63536
#
# Velocity S-wave (km/s) = 2.01433 3.49290 2.85113
# Velocity P-wave (km/s) = 2.87885 6.38975 4.95563
#
# Compressibility (1/GPa) = 0.19300812
#
# Stress axis : x y z
#
# Youngs Moduli (GPa) = 4.55167 74.50852 23.91272
#
# Poissons Ratio (x) = 0.35041 0.69521
# Poissons Ratio (y) = 0.02141 0.17193
# Poissons Ratio (z) = 0.13233 0.53572
#
# Static dielectric constant tensor:
#      x y z
#    x 3.406180 0.000000 0.609490 
#    y 0.000000 3.424150 0.000000 
#    z 0.609490 0.000000 3.119550 
# 
# 
# High freq. dielectric constant tensor:
#      x y z
#    x 1.680880 0.000000 0.054300 
#    y 0.000000 1.707530 0.000000 
#    z 0.054300 0.000000 1.660760 
# 
# From -- ./inp_files/42511.got.cif
#   From: 2010.06.25/outbox.cif.g09.slc.cpg/sg11_22_cif.got.tgz:42511.got - 2010.06.27 23:14:04.
