data_PCOD8072025
_publ_section_title
;
Structure prediction by ZEFSAII (Michael W. Deem and Ramdas Pophale) SiO2 
 PCOD8072025
Probable space group: P 21/M
;
_chemical_formula_sum "Si O2"
_cell_formula_units_Z 32
_cell_length_a 9.906373
_cell_length_b 13.816184
_cell_length_c 11.973318
_cell_angle_alpha 90.000000
_cell_angle_beta 89.745641
_cell_angle_gamma 90.000000
_cell_volume 1638.751198
_symmetry_space_group_name_H-M "P 21/M"
_symmetry_group_IT_number 11
_symmetry_cell_setting 'monoclinic'
loop_
_space_group_symop_operation_xyz
x,y,z
-x,1/2+y,-z
-x,-y,-z
x,1/2-y,z
loop_
_atom_site_type_symbol
_atom_site_label
_atom_site_fract_x
_atom_site_fract_y
_atom_site_fract_z
Si Si1 0.909717 0.421296 0.940148
Si Si2 0.474195 0.361546 0.670910
Si Si3 0.208212 0.492864 0.656546
Si Si4 0.810559 0.351975 0.164576
Si Si5 0.484478 0.642572 0.910844
Si Si6 0.617041 0.455794 0.868994
Si Si7 0.731857 0.139122 0.540724
Si Si8 0.028259 0.640407 0.300868
O O1 0.774474 0.466668 0.890917
O O2 0.982088 0.372007 0.833820
O O3 0.872494 0.348154 0.039636
O O4 0.000000 0.500000 0.000000
O O5 0.425271 0.250000 0.681018
O O6 0.345539 0.432175 0.673939
O O7 0.578844 0.386354 0.768070
O O8 0.571159 0.375244 0.562790
O O9 0.155705 0.552588 0.765197
O O10 0.225591 0.567477 0.556952
O O11 0.085087 0.420893 0.633303
O O12 0.858607 0.250000 0.220826
O O13 0.650218 0.348754 0.159114
O O14 0.551055 0.750000 0.922066
O O15 0.577654 0.567254 0.843454
O O16 0.463034 0.594690 0.030701
O O17 0.757684 0.250000 0.503213
O O18 0.824055 0.114568 0.649409
O O19 0.991650 0.750000 0.328336
#
# Coordination Sequence:
#
# PCOD8072025 Si02
#       8
#     4   4   4   4   4   4   4   4
#     4  11  21  38  59  86 119 157 201 244 293 352
#     4  11  22  38  61  91 118 151 202 251 299 354
#     4  12  22  39  60  92 124 152 195 258 305 346
#     4  10  20  34  57  84 115 154 193 236 292 359
#     4   9  18  32  53  82 114 151 191 239 296 355
#     4  10  19  34  57  82 117 156 198 244 296 358
#     4  10  23  42  64  87 115 161 208 243 297 367
#     4  11  23  40  64  89 119 161 204 247 295 355
#
# _framework density 19.527065
#
# number of rings (size 3 to 8) (size 9 to 14) (size 15 to 20)
#    0.000    1.500    3.750    2.250    0.000    1.000 
#    0.000    1.250    0.000    0.750    0.000    0.000 
#    0.000    0.000    0.000    0.000    0.000    0.000 
#
# Total GULP energy -396483.958382 kJ/mol
# GULP energy per Si atom -12390.123699 kJ/mol
# Density = 1.948262 g / cm^3
# Si number density = 19.527065 Si / 1000 Ang^3
#
#
#
# Elastic Constant Matrix: (Units=GPa)
#
#
# Indices 1 2 3 4 5 6 
#
# 1 83.3744 41.5017 16.0580 0.0000 -1.0382 0.0000
# 2 41.5017 124.8761 28.3428 0.0000 -0.1226 0.0000
# 3 16.0580 28.3428 66.7245 0.0000 1.0149 0.0000
# 4 0.0000 0.0000 0.0000 20.0732 0.0000 12.9448
# 5 -1.0382 -0.1226 1.0149 0.0000 23.9976 0.0000
# 6 0.0000 0.0000 0.0000 12.9448 0.0000 8.2457
#
#
#
# Elastic Compliance Matrix: (Units=1/GPa)
#
#
# Indices 1 2 3 4 5 6 
#
# 1 0.014535 -0.004464 -0.001612 0.000000 0.000674 0.000000
# 2 -0.004464 0.010234 -0.003273 0.000000 -0.000002 0.000000
# 3 -0.001612 -0.003273 0.016777 0.000000 -0.000796 0.000000
# 4 0.000000 0.000000 0.000000 -4.021675 0.000000 6.313587
# 5 0.000674 -0.000002 -0.000796 0.000000 0.041734 0.000000
# 6 0.000000 0.000000 0.000000 6.313587 0.000000 -9.790361
#
#
# Mechanical properties :
#
#
# Convention : Reuss Voigt Hill
#
# Bulk Modulus (GPa) = 43.76627 49.64220 46.70424
# Shear Modulus (GPa) = -0.36490 23.06812 11.35161
#
# Velocity S-wave (km/s) = -0.43275 3.44079 2.41369
# Velocity P-wave (km/s) = 4.71297 6.42362 5.63360
#
# Compressibility (1/GPa) = 0.02284865
#
# Stress axis : x y z
#
# Youngs Moduli (GPa) = 68.79912 97.70978 59.60432
#
# Poissons Ratio (x) = 0.43618 0.09609
# Poissons Ratio (y) = 0.30712 0.19508
# Poissons Ratio (z) = 0.11091 0.31980
#
# Static dielectric constant tensor:
#      x y z
#    x 3.554090 0.000000 -0.098290 
#    y 0.000000 3.834040 0.000000 
#    z -0.098290 0.000000 3.514320 
# 
# 
# High freq. dielectric constant tensor:
#      x y z
#    x 1.749240 0.000000 -0.003220 
#    y 0.000000 1.773750 0.000000 
#    z -0.003220 0.000000 1.748720 
# 
# From -- ./inp_files/31896.got.cif
#   From: 2010.06.25/outbox.cif.g09.slc.cpg/sg11_16_cif.got.tgz:31896.got - 2010.06.27 23:14:04.
