data_PCOD8072002
_publ_section_title
;
Structure prediction by ZEFSAII (Michael W. Deem and Ramdas Pophale) SiO2 
 PCOD8072002
Probable space group: P 21/M
;
_chemical_formula_sum "Si O2"
_cell_formula_units_Z 28
_cell_length_a 11.704846
_cell_length_b 8.973553
_cell_length_c 15.536813
_cell_angle_alpha 90.000000
_cell_angle_beta 56.347607
_cell_angle_gamma 90.000000
_cell_volume 1358.413211
_symmetry_space_group_name_H-M "P 21/M"
_symmetry_group_IT_number 11
_symmetry_cell_setting 'monoclinic'
loop_
_space_group_symop_operation_xyz
x,y,z
-x,1/2+y,-z
-x,-y,-z
x,1/2-y,z
loop_
_atom_site_type_symbol
_atom_site_label
_atom_site_fract_x
_atom_site_fract_y
_atom_site_fract_z
Si Si1 0.148200 0.922073 0.648895
Si Si2 0.599075 0.920984 0.391640
Si Si3 0.151391 0.425231 0.162434
Si Si4 0.867440 0.073488 0.013439
Si Si5 0.858448 0.422955 0.541877
Si Si6 0.330584 0.923707 0.225341
Si Si7 0.610601 0.579477 0.192862
O O1 0.172290 0.750000 0.661455
O O2 0.192451 0.959422 0.532956
O O3 0.989801 0.965292 0.729925
O O4 0.245415 0.018409 0.669418
O O5 0.598860 0.750000 0.417973
O O6 0.549122 0.944385 0.314398
O O7 0.500000 0.000000 0.500000
O O8 0.166391 0.250000 0.138777
O O9 0.279043 0.479724 0.166520
O O10 0.155991 0.512207 0.071737
O O11 0.886938 0.250000 0.003692
O O12 0.735464 0.032577 0.125503
O O13 0.000000 0.000000 0.000000
O O14 0.886364 0.250000 0.540371
O O15 0.746065 0.479015 0.656474
O O16 0.000000 0.500000 0.500000
O O17 0.301597 0.750000 0.219333
O O18 0.491640 0.953612 0.172940
O O19 0.662393 0.750000 0.161579
#
# Coordination Sequence:
#
# PCOD8072002 Si02
#       7
#     4   4   4   4   4   4   4
#     4  10  21  37  58  87 124 162 205 257 308 362
#     4  11  23  39  62  90 123 162 205 252 304 367
#     4  11  23  40  64  93 125 161 205 256 309 370
#     4  12  26  45  69  95 123 158 204 257 313 372
#     4  10  19  34  56  86 124 165 205 249 302 359
#     4  10  21  38  62  90 126 166 208 257 311 369
#     4  10  23  44  66  90 124 167 210 256 310 365
#
# _framework density 20.612286999999998
#
# number of rings (size 3 to 8) (size 9 to 14) (size 15 to 20)
#    0.000    1.429    1.429    3.857    0.000    8.571 
#    0.000    1.429    0.000    0.000    0.000    0.000 
#    0.000    0.000    0.000    0.000    0.000    0.000 
#
# Total GULP energy -347308.882843 kJ/mol
# GULP energy per Si atom -12403.888673 kJ/mol
# Density = 2.056537 g / cm^3
# Si number density = 20.612287 Si / 1000 Ang^3
#
#
#
# Elastic Constant Matrix: (Units=GPa)
#
#
# Indices 1 2 3 4 5 6 
#
# 1 130.3488 62.2922 39.8717 0.0000 5.3838 0.0000
# 2 62.2922 110.0312 50.3823 0.0000 4.1571 0.0000
# 3 39.8717 50.3823 101.0303 0.0000 6.0197 0.0000
# 4 0.0000 0.0000 0.0000 33.2268 0.0000 -1.7468
# 5 5.3838 4.1571 6.0197 0.0000 33.2058 0.0000
# 6 0.0000 0.0000 0.0000 -1.7468 0.0000 38.7992
#
#
#
# Elastic Compliance Matrix: (Units=1/GPa)
#
#
# Indices 1 2 3 4 5 6 
#
# 1 0.010724 -0.005345 -0.001519 0.000000 -0.000794 0.000000
# 2 -0.005345 0.014448 -0.005094 0.000000 -0.000019 0.000000
# 3 -0.001519 -0.005094 0.013127 0.000000 -0.001496 0.000000
# 4 0.000000 0.000000 0.000000 0.030168 0.000000 0.001358
# 5 -0.000794 -0.000019 -0.001496 0.000000 0.030517 0.000000
# 6 0.000000 0.000000 0.000000 0.001358 0.000000 0.025835
#
#
# Mechanical properties :
#
#
# Convention : Reuss Voigt Hill
#
# Bulk Modulus (GPa) = 69.53594 71.83365 70.68479
# Shear Modulus (GPa) = 32.56695 33.63732 33.10214
#
# Velocity S-wave (km/s) = 3.97921 4.04407 4.01177
# Velocity P-wave (km/s) = 7.41084 7.53204 7.47168
#
# Compressibility (1/GPa) = 0.01438105
#
# Stress axis : x y z
#
# Youngs Moduli (GPa) = 93.25114 69.21430 76.17838
#
# Poissons Ratio (x) = 0.36998 0.11572
# Poissons Ratio (y) = 0.49847 0.38807
# Poissons Ratio (z) = 0.14166 0.35259
#
# Static dielectric constant tensor:
#      x y z
#    x 3.792780 0.000000 0.107020 
#    y 0.000000 3.669280 0.000000 
#    z 0.107020 0.000000 3.873470 
# 
# 
# High freq. dielectric constant tensor:
#      x y z
#    x 1.816680 0.000000 0.004430 
#    y 0.000000 1.801860 0.000000 
#    z 0.004430 0.000000 1.811420 
# 
# From -- ./inp_files/49119.got.cif
#   From: 2010.06.25/outbox.cif.g09.slc.cpg/sg11_25_cif.got.tgz:49119.got - 2010.06.27 23:14:04.
