data_PCOD8072924
_publ_section_title
;
Structure prediction by ZEFSAII (Michael W. Deem and Ramdas Pophale) SiO2 
 PCOD8072924
Probable space group: P 21/M
;
_chemical_formula_sum "Si O2"
_cell_formula_units_Z 28
_cell_length_a 17.225884
_cell_length_b 9.358284
_cell_length_c 14.539951
_cell_angle_alpha 90.000000
_cell_angle_beta 49.421896
_cell_angle_gamma 90.000000
_cell_volume 1780.245382
_symmetry_space_group_name_H-M "P 21/M"
_symmetry_group_IT_number 11
_symmetry_cell_setting 'monoclinic'
loop_
_space_group_symop_operation_xyz
x,y,z
-x,1/2+y,-z
-x,-y,-z
x,1/2-y,z
loop_
_atom_site_type_symbol
_atom_site_label
_atom_site_fract_x
_atom_site_fract_y
_atom_site_fract_z
Si Si1 0.365782 0.583947 0.536592
Si Si2 0.105291 0.080575 0.431420
Si Si3 0.580834 0.088631 0.825057
Si Si4 0.757530 0.411162 0.543170
Si Si5 0.278361 0.415200 0.159380
Si Si6 0.402408 0.082736 0.683088
Si Si7 0.372494 0.082989 0.906047
O O1 0.360971 0.750000 0.564396
O O2 0.277024 0.542683 0.532498
O O3 0.477227 0.544868 0.410305
O O4 0.343484 0.497158 0.646735
O O5 0.088381 0.250000 0.453627
O O6 0.172802 0.038935 0.289461
O O7 0.158939 0.022201 0.482636
O O8 0.000000 0.000000 0.500000
O O9 0.566030 0.250000 0.872448
O O10 0.656415 0.084550 0.681201
O O11 0.474679 0.018526 0.873445
O O12 0.624480 0.996747 0.874963
O O13 0.803643 0.250000 0.507927
O O14 0.298437 0.250000 0.163798
O O15 0.277118 0.446009 0.049573
O O16 0.383064 0.250000 0.684378
O O17 0.354980 0.023441 0.816388
O O18 0.394009 0.250000 0.876550
#
# Coordination Sequence:
#
# PCOD8072924 Si02
#       7
#     4   4   4   4   4   4   4
#     4   9  16  27  41  61  88 119 152 182 211 244
#     4  10  20  33  48  67  88 110 141 182 226 266
#     4   9  15  25  41  60  85 118 149 172 202 250
#     4   9  16  28  46  65  88 118 148 177 214 258
#     4   9  18  29  42  62  86 111 143 180 214 254
#     4   9  16  26  41  60  86 122 156 180 205 243
#     4   9  15  26  42  60  86 120 150 174 206 250
#
# _framework density 15.72817
#
# number of rings (size 3 to 8) (size 9 to 14) (size 15 to 20)
#    0.000    2.857    1.429    0.857    0.000    1.143 
#    0.000    1.429    0.000    0.000    0.000    1.000 
#    0.000    0.000    0.000    0.000    0.000    0.000 
#
# Total GULP energy -347009.533924 kJ/mol
# GULP energy per Si atom -12393.197640 kJ/mol
# Density = 1.569237 g / cm^3
# Si number density = 15.728170 Si / 1000 Ang^3
#
#
#
# Elastic Constant Matrix: (Units=GPa)
#
#
# Indices 1 2 3 4 5 6 
#
# 1 93.7265 44.4130 61.1773 0.0000 14.6201 0.0000
# 2 44.4130 50.8961 36.1672 0.0000 8.7930 0.0000
# 3 61.1773 36.1672 91.8523 0.0000 24.5990 0.0000
# 4 0.0000 0.0000 0.0000 16.7322 0.0000 4.7047
# 5 14.6201 8.7930 24.5990 0.0000 26.6647 0.0000
# 6 0.0000 0.0000 0.0000 4.7047 0.0000 24.6379
#
#
#
# Elastic Compliance Matrix: (Units=1/GPa)
#
#
# Indices 1 2 3 4 5 6 
#
# 1 0.024021 -0.013282 -0.011176 0.000000 0.001520 0.000000
# 2 -0.013282 0.034655 -0.004900 0.000000 0.000375 0.000000
# 3 -0.011176 -0.004900 0.024154 0.000000 -0.014539 0.000000
# 4 0.000000 0.000000 0.000000 0.063156 0.000000 -0.012060
# 5 0.001520 0.000375 -0.014539 0.000000 0.049959 0.000000
# 6 0.000000 0.000000 0.000000 -0.012060 0.000000 0.042891
#
#
# Mechanical properties :
#
#
# Convention : Reuss Voigt Hill
#
# Bulk Modulus (GPa) = 41.46883 57.77664 49.62274
# Shear Modulus (GPa) = 16.36193 19.92147 18.14170
#
# Velocity S-wave (km/s) = 3.22886 3.56281 3.39994
# Velocity P-wave (km/s) = 6.35011 7.33069 6.85795
#
# Compressibility (1/GPa) = 0.02411450
#
# Stress axis : x y z
#
# Youngs Moduli (GPa) = 41.63057 28.85603 41.40163
#
# Poissons Ratio (x) = 0.38326 0.46270
# Poissons Ratio (y) = 0.55293 0.20285
# Poissons Ratio (z) = 0.46526 0.14138
#
# Static dielectric constant tensor:
#      x y z
#    x 2.877590 0.000000 0.241570 
#    y 0.000000 2.972710 0.000000 
#    z 0.241570 0.000000 3.057000 
# 
# 
# High freq. dielectric constant tensor:
#      x y z
#    x 1.577590 0.000000 0.022610 
#    y 0.000000 1.592700 0.000000 
#    z 0.022610 0.000000 1.591790 
# 
# From -- ./inp_files/43031.got.cif
#   From: 2010.06.25/outbox.cif.g09.slc.cpg/sg11_22_cif.got.tgz:43031.got - 2010.06.27 23:14:04.
