data_PCOD8072974
_publ_section_title
;
Structure prediction by ZEFSAII (Michael W. Deem and Ramdas Pophale) SiO2 
 PCOD8072974
Probable space group: P 21/M
;
_chemical_formula_sum "Si O2"
_cell_formula_units_Z 28
_cell_length_a 9.573475
_cell_length_b 9.175281
_cell_length_c 31.231906
_cell_angle_alpha 90.000000
_cell_angle_beta 144.928020
_cell_angle_gamma 90.000000
_cell_volume 1576.365520
_symmetry_space_group_name_H-M "P 21/M"
_symmetry_group_IT_number 11
_symmetry_cell_setting 'monoclinic'
loop_
_space_group_symop_operation_xyz
x,y,z
-x,1/2+y,-z
-x,-y,-z
x,1/2-y,z
loop_
_atom_site_type_symbol
_atom_site_label
_atom_site_fract_x
_atom_site_fract_y
_atom_site_fract_z
Si Si1 0.519648 0.581875 0.942313
Si Si2 0.316193 0.917774 0.804554
Si Si3 0.369684 0.920629 0.263183
Si Si4 0.226882 0.415691 0.309035
Si Si5 0.214120 0.078153 0.696566
Si Si6 0.872225 0.920589 0.101263
Si Si7 0.710947 0.921056 0.578277
O O1 0.454257 0.750000 0.934376
O O2 0.525801 0.552222 0.892651
O O3 0.306429 0.488888 0.909164
O O4 0.778669 0.541583 0.029440
O O5 0.316903 0.750000 0.788696
O O6 0.058459 0.953612 0.762169
O O7 0.357415 0.023851 0.774818
O O8 0.344785 0.750000 0.263122
O O9 0.620221 0.960234 0.302641
O O10 0.144697 0.979985 0.177658
O O11 0.369366 0.988409 0.310297
O O12 0.268830 0.250000 0.306023
O O13 0.337508 0.446989 0.383640
O O14 0.163971 0.250000 0.688091
O O15 0.965042 0.991617 0.627903
O O16 0.864770 0.750000 0.107345
O O17 0.718023 0.750000 0.569038
O O18 0.500000 0.000000 0.500000
#
# Coordination Sequence:
#
# PCOD8072974 Si02
#       7
#     4   4   4   4   4   4   4
#     4   9  16  28  46  69  98 131 173 222 266 304
#     4   9  17  31  49  72  99 133 178 222 261 306
#     4  10  20  33  49  75 107 138 174 212 256 305
#     4   9  18  32  53  78 103 131 168 209 249 299
#     4  10  21  35  52  75 106 140 171 209 253 302
#     4   9  17  28  45  70 100 134 171 217 265 305
#     4  10  21  39  61  85 107 131 165 204 248 301
#
# _framework density 17.762377000000001
#
# number of rings (size 3 to 8) (size 9 to 14) (size 15 to 20)
#    0.000    2.571    1.429    1.714    0.000    4.571 
#    0.000    1.429    0.000    0.000    0.000    0.000 
#    0.000    0.000    0.000    0.000    0.000    0.000 
#
# Total GULP energy -347089.248567 kJ/mol
# GULP energy per Si atom -12396.044592 kJ/mol
# Density = 1.772195 g / cm^3
# Si number density = 17.762377 Si / 1000 Ang^3
#
#
#
# Elastic Constant Matrix: (Units=GPa)
#
#
# Indices 1 2 3 4 5 6 
#
# 1 103.8134 52.6051 46.6795 0.0000 -5.7552 0.0000
# 2 52.6051 65.8730 45.7506 0.0000 -0.6958 0.0000
# 3 46.6795 45.7506 108.3163 0.0000 -10.0101 0.0000
# 4 0.0000 0.0000 0.0000 26.6627 0.0000 -5.4166
# 5 -5.7552 -0.6958 -10.0101 0.0000 18.8678 0.0000
# 6 0.0000 0.0000 0.0000 -5.4166 0.0000 29.2529
#
#
#
# Elastic Compliance Matrix: (Units=1/GPa)
#
#
# Indices 1 2 3 4 5 6 
#
# 1 0.016783 -0.012142 -0.001759 0.000000 0.003738 0.000000
# 2 -0.012142 0.030592 -0.008336 0.000000 -0.006998 0.000000
# 3 -0.001759 -0.008336 0.014126 0.000000 0.006650 0.000000
# 4 0.000000 0.000000 0.000000 0.038972 0.000000 0.007216
# 5 0.003738 -0.006998 0.006650 0.000000 0.057411 0.000000
# 6 0.000000 0.000000 0.000000 0.007216 0.000000 0.035521
#
#
# Mechanical properties :
#
#
# Convention : Reuss Voigt Hill
#
# Bulk Modulus (GPa) = 58.72509 63.11925 60.92217
# Shear Modulus (GPa) = 20.52931 23.82118 22.17524
#
# Velocity S-wave (km/s) = 3.40336 3.66608 3.53716
# Velocity P-wave (km/s) = 6.96972 7.31660 7.14527
#
# Compressibility (1/GPa) = 0.01702850
#
# Stress axis : x y z
#
# Youngs Moduli (GPa) = 59.58263 32.68776 70.79291
#
# Poissons Ratio (x) = 0.39689 0.12452
# Poissons Ratio (y) = 0.72344 0.59011
# Poissons Ratio (z) = 0.10480 0.27248
#
# Static dielectric constant tensor:
#      x y z
#    x 3.067300 0.000000 -0.126860 
#    y 0.000000 3.359730 0.000000 
#    z -0.126860 0.000000 3.485210 
# 
# 
# High freq. dielectric constant tensor:
#      x y z
#    x 1.660830 0.000000 -0.015000 
#    y 0.000000 1.689590 0.000000 
#    z -0.015000 0.000000 1.688890 
# 
# From -- ./inp_files/28996.got.cif
#   From: 2010.06.25/outbox.cif.g09.slc.cpg/sg11_15_cif.got.tgz:28996.got - 2010.06.27 23:14:04.
