data_PCOD8072545
_publ_section_title
;
Structure prediction by ZEFSAII (Michael W. Deem and Ramdas Pophale) SiO2 
 PCOD8072545
Probable space group: P 21/M
;
_chemical_formula_sum "Si O2"
_cell_formula_units_Z 24
_cell_length_a 20.059440
_cell_length_b 8.840669
_cell_length_c 7.466860
_cell_angle_alpha 90.000000
_cell_angle_beta 110.418672
_cell_angle_gamma 90.000000
_cell_volume 1240.965062
_symmetry_space_group_name_H-M "P 21/M"
_symmetry_group_IT_number 11
_symmetry_cell_setting 'monoclinic'
loop_
_space_group_symop_operation_xyz
x,y,z
-x,1/2+y,-z
-x,-y,-z
x,1/2-y,z
loop_
_atom_site_type_symbol
_atom_site_label
_atom_site_fract_x
_atom_site_fract_y
_atom_site_fract_z
Si Si1 0.924051 0.574838 0.937215
Si Si2 0.676768 0.073279 0.897083
Si Si3 0.573825 0.072102 0.123477
Si Si4 0.180960 0.425288 0.852952
Si Si5 0.341723 0.429393 0.487355
Si Si6 0.813330 0.571373 0.546638
O O1 0.934794 0.750000 0.907091
O O2 0.872069 0.503162 0.737091
O O3 0.890796 0.547408 0.102287
O O4 0.000000 0.500000 0.000000
O O5 0.673020 0.250000 0.850270
O O6 0.643494 0.981392 0.700905
O O7 0.632283 0.029503 0.030278
O O8 0.757869 0.025669 0.002981
O O9 0.564446 0.250000 0.136079
O O10 0.597687 0.002143 0.333713
O O11 0.500000 0.000000 0.000000
O O12 0.205017 0.250000 0.884926
O O13 0.166011 0.476205 0.635469
O O14 0.346771 0.250000 0.506751
O O15 0.264582 0.492175 0.477512
O O16 0.811270 0.750000 0.569835
#
# Coordination Sequence:
#
# PCOD8072545 Si02
#       6
#     4   4   4   4   4   4
#     4  10  21  37  55  83 119 155 194 242 297 353
#     4  11  23  38  60  92 125 154 194 249 302 356
#     4  11  25  43  62  90 126 161 198 248 302 356
#     4  10  19  36  61  85 112 153 202 244 290 355
#     4  11  21  38  66  92 117 158 203 248 298 354
#     4   9  18  34  59  86 112 147 197 244 287 347
#
# _framework density 19.339787000000001
#
# number of rings (size 3 to 8) (size 9 to 14) (size 15 to 20)
#    0.000    1.667    3.333    1.500    0.000    4.000 
#    0.000    0.833    0.000    0.000    0.000    0.000 
#    0.000    0.000    0.000    0.000    0.000    0.000 
#
# Total GULP energy -297695.156621 kJ/mol
# GULP energy per Si atom -12403.964859 kJ/mol
# Density = 1.929577 g / cm^3
# Si number density = 19.339787 Si / 1000 Ang^3
#
#
#
# Elastic Constant Matrix: (Units=GPa)
#
#
# Indices 1 2 3 4 5 6 
#
# 1 52.5652 31.1751 13.6328 0.0000 8.1776 0.0000
# 2 31.1751 59.8551 28.9872 0.0000 -0.3529 0.0000
# 3 13.6328 28.9872 118.3699 0.0000 0.2900 0.0000
# 4 0.0000 0.0000 0.0000 33.5132 0.0000 4.4793
# 5 8.1776 -0.3529 0.2900 0.0000 39.2449 0.0000
# 6 0.0000 0.0000 0.0000 4.4793 0.0000 30.8372
#
#
#
# Elastic Compliance Matrix: (Units=1/GPa)
#
#
# Indices 1 2 3 4 5 6 
#
# 1 0.028966 -0.015333 0.000434 0.000000 -0.006177 0.000000
# 2 -0.015333 0.027074 -0.004872 0.000000 0.003475 0.000000
# 3 0.000434 -0.004872 0.009592 0.000000 -0.000205 0.000000
# 4 0.000000 0.000000 0.000000 0.030430 0.000000 -0.004420
# 5 -0.006177 0.003475 -0.000205 0.000000 0.026801 0.000000
# 6 0.000000 0.000000 0.000000 -0.004420 0.000000 0.033070
#
#
# Mechanical properties :
#
#
# Convention : Reuss Voigt Hill
#
# Bulk Modulus (GPa) = 38.33218 42.04225 40.18722
# Shear Modulus (GPa) = 24.48909 31.18538 27.83724
#
# Velocity S-wave (km/s) = 3.56231 4.01995 3.79803
# Velocity P-wave (km/s) = 6.06494 6.58275 6.32914
#
# Compressibility (1/GPa) = 0.02608774
#
# Stress axis : x y z
#
# Youngs Moduli (GPa) = 34.52290 36.93647 104.25560
#
# Poissons Ratio (x) = 0.56636 -0.04525
# Poissons Ratio (y) = 0.52936 0.50798
# Poissons Ratio (z) = -0.01498 0.17997
#
# Static dielectric constant tensor:
#      x y z
#    x 3.541790 0.000000 -0.201490 
#    y 0.000000 3.382150 0.000000 
#    z -0.201490 0.000000 3.878680 
# 
# 
# High freq. dielectric constant tensor:
#      x y z
#    x 1.750860 0.000000 -0.007920 
#    y 0.000000 1.737000 0.000000 
#    z -0.007920 0.000000 1.767650 
# 
# From -- ./inp_files/25607.got.cif
#   From: 2010.06.25/outbox.cif.g09.slc.cpg/sg11_13_cif.got.tgz:25607.got - 2010.06.27 23:14:04.
