data_PCOD8072899
_publ_section_title
;
Structure prediction by ZEFSAII (Michael W. Deem and Ramdas Pophale) SiO2 
 PCOD8072899
Probable space group: P 21/M
;
_chemical_formula_sum "Si O2"
_cell_formula_units_Z 20
_cell_length_a 11.969583
_cell_length_b 18.217637
_cell_length_c 4.990704
_cell_angle_alpha 90.000000
_cell_angle_beta 69.243839
_cell_angle_gamma 90.000000
_cell_volume 1017.629272
_symmetry_space_group_name_H-M "P 21/M"
_symmetry_group_IT_number 11
_symmetry_cell_setting 'monoclinic'
loop_
_space_group_symop_operation_xyz
x,y,z
-x,1/2+y,-z
-x,-y,-z
x,1/2-y,z
loop_
_atom_site_type_symbol
_atom_site_label
_atom_site_fract_x
_atom_site_fract_y
_atom_site_fract_z
Si Si1 0.812858 0.666776 0.429380
Si Si2 0.562173 0.428440 0.568565
Si Si3 0.020652 0.551413 0.235450
Si Si4 0.712420 0.054842 0.972297
Si Si5 0.317668 0.386931 0.952340
O O1 0.846707 0.750000 0.472794
O O2 0.713613 0.635867 0.718923
O O3 0.933246 0.620163 0.327802
O O4 0.756174 0.664537 0.183420
O O5 0.500000 0.500000 0.500000
O O6 0.637493 0.396248 0.252629
O O7 0.653239 0.445859 0.730824
O O8 0.459423 0.375124 0.773045
O O9 0.000000 0.500000 0.500000
O O10 0.153475 0.585825 0.140914
O O11 0.000000 0.500000 0.000000
O O12 0.719278 0.970981 0.069068
#
# Coordination Sequence:
#
# PCOD8072899 Si02
#       5
#     4   4   4   4   4
#     4  12  24  39  59  86 119 162 200 245 304 360
#     4  10  20  32  56  89 119 147 183 239 301 351
#     4  12  22  38  60  87 121 156 201 251 296 355
#     4  11  19  34  58  88 120 150 189 246 303 340
#     4  11  20  37  58  84 123 149 194 246 299 353
#
# _framework density 19.653521999999999
#
# number of rings (size 3 to 8) (size 9 to 14) (size 15 to 20)
#    0.000    0.800    4.000    7.800    0.000    0.000 
#    0.000    0.000    0.000    7.200    0.000    0.000 
#    0.000    0.000    0.000    0.000    0.000    0.000 
#
# Total GULP energy -247951.544076 kJ/mol
# GULP energy per Si atom -12397.577204 kJ/mol
# Density = 1.960879 g / cm^3
# Si number density = 19.653522 Si / 1000 Ang^3
#
#
#
# Elastic Constant Matrix: (Units=GPa)
#
#
# Indices 1 2 3 4 5 6 
#
# 1 152.4891 26.1611 54.9381 0.0000 -7.4800 0.0000
# 2 26.1611 72.1026 16.0320 0.0000 -7.8755 0.0000
# 3 54.9381 16.0320 126.5496 0.0000 1.7082 0.0000
# 4 0.0000 0.0000 0.0000 15.7336 0.0000 -1.3802
# 5 -7.4800 -7.8755 1.7082 0.0000 39.7581 0.0000
# 6 0.0000 0.0000 0.0000 -1.3802 0.0000 12.7840
#
#
#
# Elastic Compliance Matrix: (Units=1/GPa)
#
#
# Indices 1 2 3 4 5 6 
#
# 1 0.008167 -0.002092 -0.003297 0.000000 0.001264 0.000000
# 2 -0.002092 0.015151 -0.001047 0.000000 0.002653 0.000000
# 3 -0.003297 -0.001047 0.009483 0.000000 -0.001235 0.000000
# 4 0.000000 0.000000 0.000000 0.064166 0.000000 0.006927
# 5 0.001264 0.002653 -0.001235 0.000000 0.025968 0.000000
# 6 0.000000 0.000000 0.000000 0.006927 0.000000 0.078971
#
#
# Mechanical properties :
#
#
# Convention : Reuss Voigt Hill
#
# Bulk Modulus (GPa) = 50.18187 60.60040 55.39114
# Shear Modulus (GPa) = 22.58146 30.58914 26.58530
#
# Velocity S-wave (km/s) = 3.39334 3.94943 3.68190
# Velocity P-wave (km/s) = 6.39857 7.19018 6.80589
#
# Compressibility (1/GPa) = 0.01992752
#
# Stress axis : x y z
#
# Youngs Moduli (GPa) = 122.44852 66.00370 105.45373
#
# Poissons Ratio (x) = 0.13807 0.34772
# Poissons Ratio (y) = 0.25615 0.11041
# Poissons Ratio (z) = 0.40376 0.06911
#
# Static dielectric constant tensor:
#      x y z
#    x 3.748620 0.000000 -0.332650 
#    y 0.000000 3.094050 0.000000 
#    z -0.332650 0.000000 4.241620 
# 
# 
# High freq. dielectric constant tensor:
#      x y z
#    x 1.780110 0.000000 -0.003520 
#    y 0.000000 1.701330 0.000000 
#    z -0.003520 0.000000 1.798690 
# 
# From -- ./inp_files/4502.got.cif
#   From: 2010.06.25/outbox.cif.g09.slc.cpg/sg11_3_cif.got.tgz:4502.got - 2010.06.27 23:14:04.
