data_PCOD8072016
_publ_section_title
;
Structure prediction by ZEFSAII (Michael W. Deem and Ramdas Pophale) SiO2 
 PCOD8072016
Probable space group: P 21/M
;
_chemical_formula_sum "Si O2"
_cell_formula_units_Z 32
_cell_length_a 20.997954
_cell_length_b 9.317211
_cell_length_c 11.578107
_cell_angle_alpha 90.000000
_cell_angle_beta 130.691974
_cell_angle_gamma 90.000000
_cell_volume 1717.508740
_symmetry_space_group_name_H-M "P 21/M"
_symmetry_group_IT_number 11
_symmetry_cell_setting 'monoclinic'
loop_
_space_group_symop_operation_xyz
x,y,z
-x,1/2+y,-z
-x,-y,-z
x,1/2-y,z
loop_
_atom_site_type_symbol
_atom_site_label
_atom_site_fract_x
_atom_site_fract_y
_atom_site_fract_z
Si Si1 0.620595 0.415465 0.602476
Si Si2 0.035767 0.091383 0.706081
Si Si3 0.875312 0.090419 0.358385
Si Si4 0.434396 0.415756 0.998976
Si Si5 0.761028 0.082382 0.588655
Si Si6 0.046632 0.580928 0.155718
Si Si7 0.738166 0.582844 0.333993
Si Si8 0.550860 0.582236 0.722523
O O1 0.615231 0.250000 0.631263
O O2 0.706975 0.450666 0.638870
O O3 0.617461 0.505493 0.716871
O O4 0.543591 0.457099 0.427399
O O5 0.075038 0.250000 0.771670
O O6 0.962768 0.104543 0.526613
O O7 0.997699 0.030042 0.779191
O O8 0.108643 0.985132 0.746666
O O9 0.837149 0.250000 0.293697
O O10 0.815170 0.993472 0.363400
O O11 0.461097 0.250000 0.028416
O O12 0.436176 0.474671 0.132114
O O13 0.500000 0.500000 0.000000
O O14 0.342399 0.440475 0.840426
O O15 0.755720 0.250000 0.547641
O O16 0.856127 0.034882 0.726258
O O17 0.722571 0.989651 0.439347
O O18 0.038562 0.750000 0.127400
O O19 0.000000 0.500000 0.000000
O O20 0.759170 0.750000 0.375993
O O21 0.569498 0.750000 0.736931
#
# Coordination Sequence:
#
# PCOD8072016 Si02
#       8
#     4   4   4   4   4   4   4   4
#     4   9  18  33  58  83 104 140 183 225 264 309
#     4   9  18  35  56  79 108 140 178 224 276 328
#     4  10  19  34  57  82 107 141 182 224 275 329
#     4  10  22  38  56  82 115 150 183 224 275 327
#     4  10  20  38  59  80 109 142 185 231 274 330
#     4  10  21  38  57  79 110 144 180 229 280 331
#     4  11  22  35  55  84 115 144 183 231 277 330
#     4   9  18  35  55  78 111 145 178 216 266 320
#
# _framework density 18.631637000000001
#
# number of rings (size 3 to 8) (size 9 to 14) (size 15 to 20)
#    0.000    2.250    1.250    1.500    0.000    4.500 
#    2.250    2.500    0.000    0.000    0.000    0.000 
#    0.000    0.000    0.000    0.000    0.000    0.000 
#
# Total GULP energy -396847.619944 kJ/mol
# GULP energy per Si atom -12401.488123 kJ/mol
# Density = 1.858923 g / cm^3
# Si number density = 18.631637 Si / 1000 Ang^3
#
#
#
# Elastic Constant Matrix: (Units=GPa)
#
#
# Indices 1 2 3 4 5 6 
#
# 1 121.3973 54.7922 37.9191 0.0000 -30.1589 0.0000
# 2 54.7922 79.1861 37.8339 0.0000 -12.8991 0.0000
# 3 37.9191 37.8339 81.6185 0.0000 -25.8431 0.0000
# 4 0.0000 0.0000 0.0000 27.5573 0.0000 -5.0573
# 5 -30.1589 -12.8991 -25.8431 0.0000 25.6265 0.0000
# 6 0.0000 0.0000 0.0000 -5.0573 0.0000 35.9656
#
#
#
# Elastic Compliance Matrix: (Units=1/GPa)
#
#
# Indices 1 2 3 4 5 6 
#
# 1 0.015736 -0.009262 0.002013 0.000000 0.015887 0.000000
# 2 -0.009262 0.021686 -0.008439 0.000000 -0.008495 0.000000
# 3 0.002013 -0.008439 0.021499 0.000000 0.019802 0.000000
# 4 0.000000 0.000000 0.000000 0.037249 0.000000 0.005238
# 5 0.015887 -0.008495 0.019802 0.000000 0.073412 0.000000
# 6 0.000000 0.000000 0.000000 0.005238 0.000000 0.028541
#
#
# Mechanical properties :
#
#
# Convention : Reuss Voigt Hill
#
# Bulk Modulus (GPa) = 36.30590 60.36581 48.33585
# Shear Modulus (GPa) = 20.94858 27.94031 24.44444
#
# Velocity S-wave (km/s) = 3.35678 3.87669 3.62606
# Velocity P-wave (km/s) = 5.87813 7.24626 6.59775
#
# Compressibility (1/GPa) = 0.02754373
#
# Stress axis : x y z
#
# Youngs Moduli (GPa) = 63.54885 46.11358 46.51471
#
# Poissons Ratio (x) = 0.42711 -0.09364
# Poissons Ratio (y) = 0.58860 0.39254
# Poissons Ratio (z) = -0.12793 0.38915
#
# Static dielectric constant tensor:
#      x y z
#    x 3.675340 0.000000 -0.040820 
#    y 0.000000 3.563880 0.000000 
#    z -0.040820 0.000000 3.177140 
# 
# 
# High freq. dielectric constant tensor:
#      x y z
#    x 1.734410 0.000000 -0.008760 
#    y 0.000000 1.723530 0.000000 
#    z -0.008760 0.000000 1.705160 
# 
# From -- ./inp_files/42933.got.cif
#   From: 2010.06.25/outbox.cif.g09.slc.cpg/sg11_22_cif.got.tgz:42933.got - 2010.06.27 23:14:04.
