data_PCOD8072188
_publ_section_title
;
Structure prediction by ZEFSAII (Michael W. Deem and Ramdas Pophale) SiO2 
 PCOD8072188
Probable space group: P 21/M
;
_chemical_formula_sum "Si O2"
_cell_formula_units_Z 32
_cell_length_a 9.471694
_cell_length_b 13.200007
_cell_length_c 27.039555
_cell_angle_alpha 90.000000
_cell_angle_beta 147.692791
_cell_angle_gamma 90.000000
_cell_volume 1806.822577
_symmetry_space_group_name_H-M "P 21/M"
_symmetry_group_IT_number 11
_symmetry_cell_setting 'monoclinic'
loop_
_space_group_symop_operation_xyz
x,y,z
-x,1/2+y,-z
-x,-y,-z
x,1/2-y,z
loop_
_atom_site_type_symbol
_atom_site_label
_atom_site_fract_x
_atom_site_fract_y
_atom_site_fract_z
Si Si1 0.782572 0.135335 0.290980
Si Si2 0.722382 0.958832 0.530083
Si Si3 0.197742 0.134308 0.961346
Si Si4 0.355409 0.635596 0.154842
Si Si5 0.762067 0.547853 0.345472
Si Si6 0.532426 0.632611 0.372976
Si Si7 0.921256 0.635176 0.184854
Si Si8 0.566870 0.010464 0.139727
O O1 0.690834 0.250000 0.272477
O O2 0.686078 0.098937 0.208822
O O3 0.102096 0.124616 0.388424
O O4 0.657224 0.064585 0.297494
O O5 0.584043 0.906287 0.442948
O O6 0.500000 0.000000 0.500000
O O7 0.920830 0.050052 0.571334
O O8 0.262738 0.250000 0.995159
O O9 0.220963 0.118990 0.909611
O O10 0.904029 0.105201 0.891500
O O11 0.408253 0.060091 0.048135
O O12 0.337336 0.750000 0.129624
O O13 0.610224 0.628823 0.266271
O O14 0.372035 0.561524 0.113016
O O15 0.711292 0.568571 0.387904
O O16 0.611792 0.750000 0.392204
O O17 0.230116 0.614276 0.269496
O O18 0.875960 0.750000 0.190615
O O19 0.806220 0.557385 0.190400
#
# Coordination Sequence:
#
# PCOD8072188 Si02
#       8
#     4   4   4   4   4   4   4   4
#     4   9  20  36  55  78 111 147 182 221 275 334
#     4  10  21  37  56  85 113 143 185 228 279 332
#     4  10  20  35  56  79 109 147 188 228 278 338
#     4  10  19  35  55  83 113 141 187 237 277 324
#     4   9  20  35  59  80 109 148 183 230 275 334
#     4  11  20  36  60  85 113 150 188 231 284 329
#     4  10  21  35  55  84 114 145 187 238 282 324
#     4  11  20  34  55  83 109 154 183 228 280 329
#
# _framework density 17.710649
#
# number of rings (size 3 to 8) (size 9 to 14) (size 15 to 20)
#    0.750    1.250    1.250    3.375    0.000    0.000 
#    0.000    1.875    0.000    5.250    0.000    0.000 
#    0.000    0.000    0.000    0.000    0.000    0.000 
#
# Total GULP energy -396683.650517 kJ/mol
# GULP energy per Si atom -12396.364079 kJ/mol
# Density = 1.767034 g / cm^3
# Si number density = 17.710649 Si / 1000 Ang^3
#
#
#
# Elastic Constant Matrix: (Units=GPa)
#
#
# Indices 1 2 3 4 5 6 
#
# 1 89.7662 49.8785 23.5929 0.0000 5.0312 0.0000
# 2 49.8785 94.7495 35.3700 0.0000 -0.7657 0.0000
# 3 23.5929 35.3700 82.7139 0.0000 -9.3380 0.0000
# 4 0.0000 0.0000 0.0000 25.3587 0.0000 -3.8595
# 5 5.0312 -0.7657 -9.3380 0.0000 25.3579 0.0000
# 6 0.0000 0.0000 0.0000 -3.8595 0.0000 25.8595
#
#
#
# Elastic Compliance Matrix: (Units=1/GPa)
#
#
# Indices 1 2 3 4 5 6 
#
# 1 0.016228 -0.007944 -0.001693 0.000000 -0.004083 0.000000
# 2 -0.007944 0.016515 -0.004760 0.000000 0.000322 0.000000
# 3 -0.001693 -0.004760 0.015265 0.000000 0.005813 0.000000
# 4 0.000000 0.000000 0.000000 0.040351 0.000000 0.006022
# 5 -0.004083 0.000322 0.005813 0.000000 0.042396 0.000000
# 6 0.000000 0.000000 0.000000 0.006022 0.000000 0.039569
#
#
# Mechanical properties :
#
#
# Convention : Reuss Voigt Hill
#
# Bulk Modulus (GPa) = 52.04432 53.87916 52.96174
# Shear Modulus (GPa) = 24.32830 25.87444 25.10137
#
# Velocity S-wave (km/s) = 3.71030 3.82639 3.76879
# Velocity P-wave (km/s) = 6.91410 7.07175 6.99337
#
# Compressibility (1/GPa) = 0.01921439
#
# Stress axis : x y z
#
# Youngs Moduli (GPa) = 61.62288 60.54919 65.51139
#
# Poissons Ratio (x) = 0.48099 0.11090
# Poissons Ratio (y) = 0.48952 0.31184
# Poissons Ratio (z) = 0.10431 0.28822
#
# Static dielectric constant tensor:
#      x y z
#    x 3.166460 0.000000 -0.084820 
#    y 0.000000 3.167160 0.000000 
#    z -0.084820 0.000000 3.285550 
# 
# 
# High freq. dielectric constant tensor:
#      x y z
#    x 1.678210 0.000000 -0.010020 
#    y 0.000000 1.676970 0.000000 
#    z -0.010020 0.000000 1.688310 
# 
# From -- ./inp_files/71129.got.cif
#   From: 2010.06.25/outbox.cif.g09.slc.cpg/sg11_36_cif.got.tgz:71129.got - 2010.06.27 23:14:04.
