data_PCOD8072977
_publ_section_title
;
Structure prediction by ZEFSAII (Michael W. Deem and Ramdas Pophale) SiO2 
 PCOD8072977
Probable space group: P 21/M
;
_chemical_formula_sum "Si O2"
_cell_formula_units_Z 28
_cell_length_a 11.099300
_cell_length_b 9.015074
_cell_length_c 21.651813
_cell_angle_alpha 90.000000
_cell_angle_beta 130.657610
_cell_angle_gamma 90.000000
_cell_volume 1643.544563
_symmetry_space_group_name_H-M "P 21/M"
_symmetry_group_IT_number 11
_symmetry_cell_setting 'monoclinic'
loop_
_space_group_symop_operation_xyz
x,y,z
-x,1/2+y,-z
-x,-y,-z
x,1/2-y,z
loop_
_atom_site_type_symbol
_atom_site_label
_atom_site_fract_x
_atom_site_fract_y
_atom_site_fract_z
Si Si1 0.018172 0.419200 0.604227
Si Si2 0.503532 0.080878 0.257186
Si Si3 0.216963 0.580143 0.570287
Si Si4 0.859980 0.921791 0.034227
Si Si5 0.786209 0.420870 0.886455
Si Si6 0.760509 0.077669 0.239194
Si Si7 0.334594 0.926684 0.927588
O O1 0.048198 0.250000 0.631407
O O2 0.125846 0.463047 0.582045
O O3 0.070016 0.510011 0.682224
O O4 0.835048 0.445474 0.519096
O O5 0.445526 0.250000 0.229950
O O6 0.594649 0.058808 0.353480
O O7 0.622477 0.036398 0.241403
O O8 0.352298 0.973150 0.205935
O O9 0.171349 0.750000 0.574656
O O10 0.813123 0.750000 0.026920
O O11 0.048310 0.945410 0.093188
O O12 0.802014 0.017326 0.072453
O O13 0.775010 0.980329 0.944135
O O14 0.763293 0.250000 0.897348
O O15 0.789879 0.250000 0.245089
O O16 0.712219 0.016456 0.156174
O O17 0.350222 0.750000 0.936340
O O18 0.500000 0.000000 0.000000
#
# Coordination Sequence:
#
# PCOD8072977 Si02
#       7
#     4   4   4   4   4   4   4
#     4   9  15  24  41  63  87 119 156 187 219 267
#     4   9  16  28  46  67  95 126 152 185 231 277
#     4   8  15  26  39  60  91 122 150 184 227 270
#     4  10  21  36  51  68  93 123 155 193 235 275
#     4  10  20  33  50  71  93 119 155 196 234 275
#     4   9  19  32  44  64  95 126 152 184 229 275
#     4  11  22  35  52  72  95 124 157 191 229 275
#
# _framework density 17.036351
#
# number of rings (size 3 to 8) (size 9 to 14) (size 15 to 20)
#    0.000    2.571    0.000    3.429    0.000    6.857 
#    0.000    0.000    0.000    0.000    0.000    1.000 
#    0.000    0.000    0.000    0.000    0.000    0.000 
#
# Total GULP energy -347028.061331 kJ/mol
# GULP energy per Si atom -12393.859333 kJ/mol
# Density = 1.699758 g / cm^3
# Si number density = 17.036351 Si / 1000 Ang^3
#
#
#
# Elastic Constant Matrix: (Units=GPa)
#
#
# Indices 1 2 3 4 5 6 
#
# 1 44.5614 28.1706 41.6809 0.0000 3.7814 0.0000
# 2 28.1706 62.2359 51.7598 0.0000 5.5543 0.0000
# 3 41.6809 51.7598 166.1588 0.0000 12.4591 0.0000
# 4 0.0000 0.0000 0.0000 31.8059 0.0000 2.5411
# 5 3.7814 5.5543 12.4591 0.0000 20.6568 0.0000
# 6 0.0000 0.0000 0.0000 2.5411 0.0000 22.8296
#
#
#
# Elastic Compliance Matrix: (Units=1/GPa)
#
#
# Indices 1 2 3 4 5 6 
#
# 1 0.034360 -0.011309 -0.005082 0.000000 -0.000183 0.000000
# 2 -0.011309 0.025476 -0.004965 0.000000 -0.001785 0.000000
# 3 -0.005082 -0.004965 0.009081 0.000000 -0.003212 0.000000
# 4 0.000000 0.000000 0.000000 0.031723 0.000000 -0.003531
# 5 -0.000183 -0.001785 -0.003212 0.000000 0.050861 0.000000
# 6 0.000000 0.000000 0.000000 -0.003531 0.000000 0.044196
#
#
# Mechanical properties :
#
#
# Convention : Reuss Voigt Hill
#
# Bulk Modulus (GPa) = 38.16436 57.35317 47.75876
# Shear Modulus (GPa) = 20.23112 25.14811 22.68961
#
# Velocity S-wave (km/s) = 3.44979 3.84623 3.65339
# Velocity P-wave (km/s) = 6.19019 7.31183 6.77426
#
# Compressibility (1/GPa) = 0.02620246
#
# Stress axis : x y z
#
# Youngs Moduli (GPa) = 29.10359 39.25317 110.12328
#
# Poissons Ratio (x) = 0.44393 0.55969
# Poissons Ratio (y) = 0.32915 0.54677
# Poissons Ratio (z) = 0.14792 0.19489
#
# Static dielectric constant tensor:
#      x y z
#    x 2.813960 0.000000 0.105610 
#    y 0.000000 3.250640 0.000000 
#    z 0.105610 0.000000 3.655210 
# 
# 
# High freq. dielectric constant tensor:
#      x y z
#    x 1.597690 0.000000 0.016870 
#    y 0.000000 1.667340 0.000000 
#    z 0.016870 0.000000 1.676240 
# 
# From -- ./inp_files/42328.got.cif
#   From: 2010.06.25/outbox.cif.g09.slc.cpg/sg11_22_cif.got.tgz:42328.got - 2010.06.27 23:14:04.
