data_PCOD8072911
_publ_section_title
;
Structure prediction by ZEFSAII (Michael W. Deem and Ramdas Pophale) SiO2 
 PCOD8072911
Probable space group: P 21/M
;
_chemical_formula_sum "Si O2"
_cell_formula_units_Z 28
_cell_length_a 22.701401
_cell_length_b 9.354833
_cell_length_c 12.147976
_cell_angle_alpha 90.000000
_cell_angle_beta 136.388576
_cell_angle_gamma 90.000000
_cell_volume 1779.479946
_symmetry_space_group_name_H-M "P 21/M"
_symmetry_group_IT_number 11
_symmetry_cell_setting 'monoclinic'
loop_
_space_group_symop_operation_xyz
x,y,z
-x,1/2+y,-z
-x,-y,-z
x,1/2-y,z
loop_
_atom_site_type_symbol
_atom_site_label
_atom_site_fract_x
_atom_site_fract_y
_atom_site_fract_z
Si Si1 0.516991 0.082767 0.358427
Si Si2 0.455688 0.417950 0.038019
Si Si3 0.791673 0.914248 0.012658
Si Si4 0.374015 0.415846 0.338347
Si Si5 0.261576 0.085264 0.812492
Si Si6 0.949140 0.411735 0.277372
Si Si7 0.104580 0.588121 0.542307
O O1 0.534708 0.250000 0.388166
O O2 0.499903 0.032354 0.211125
O O3 0.434656 0.039794 0.318993
O O4 0.600772 0.003229 0.518364
O O5 0.467303 0.250000 0.036678
O O6 0.500000 0.500000 0.000000
O O7 0.356203 0.459039 0.904928
O O8 0.821554 0.750000 0.045001
O O9 0.723188 0.952364 0.825747
O O10 0.747316 0.942305 0.069757
O O11 0.873814 0.014160 0.105638
O O12 0.384667 0.250000 0.379900
O O13 0.241695 0.250000 0.757941
O O14 0.196262 0.987767 0.655008
O O15 0.962225 0.250000 0.252760
O O16 0.924563 0.413142 0.371407
O O17 0.036142 0.500625 0.376981
O O18 0.110845 0.750000 0.506141
#
# Coordination Sequence:
#
# PCOD8072911 Si02
#       7
#     4   4   4   4   4   4   4
#     4   9  17  30  44  61  85 113 144 180 223 262
#     4  10  20  33  47  63  86 116 150 187 225 261
#     4   9  15  25  41  59  83 113 143 174 211 256
#     4   9  16  27  44  64  85 112 145 179 216 262
#     4   9  16  28  43  57  79 112 145 177 217 259
#     4   9  16  24  35  55  82 111 141 171 207 251
#     4   9  16  25  37  55  79 108 142 176 209 250
#
# _framework density 15.734934000000001
#
# number of rings (size 3 to 8) (size 9 to 14) (size 15 to 20)
#    0.000    2.857    1.429    0.857    0.000    5.143 
#    0.000    0.000    0.000    0.000    0.000    0.000 
#    0.000    1.143    0.000    3.714    0.000    5.429 
#
# Total GULP energy -347163.795994 kJ/mol
# GULP energy per Si atom -12398.707000 kJ/mol
# Density = 1.569912 g / cm^3
# Si number density = 15.734934 Si / 1000 Ang^3
#
#
#
# Elastic Constant Matrix: (Units=GPa)
#
#
# Indices 1 2 3 4 5 6 
#
# 1 52.2719 39.0213 52.3620 0.0000 8.2276 0.0000
# 2 39.0213 94.3987 73.8902 0.0000 16.6174 0.0000
# 3 52.3620 73.8902 130.6039 0.0000 22.1539 0.0000
# 4 0.0000 0.0000 0.0000 32.2031 0.0000 5.8741
# 5 8.2276 16.6174 22.1539 0.0000 21.9740 0.0000
# 6 0.0000 0.0000 0.0000 5.8741 0.0000 20.8213
#
#
#
# Elastic Compliance Matrix: (Units=1/GPa)
#
#
# Indices 1 2 3 4 5 6 
#
# 1 0.033907 -0.006262 -0.010496 0.000000 0.002622 0.000000
# 2 -0.006262 0.020507 -0.008273 0.000000 -0.004822 0.000000
# 3 -0.010496 -0.008273 0.017874 0.000000 -0.007834 0.000000
# 4 0.000000 0.000000 0.000000 0.032738 0.000000 -0.009236
# 5 0.002622 -0.004822 -0.007834 0.000000 0.056072 0.000000
# 6 0.000000 0.000000 0.000000 -0.009236 0.000000 0.050633
#
#
# Mechanical properties :
#
#
# Convention : Reuss Voigt Hill
#
# Bulk Modulus (GPa) = 44.99340 67.53571 56.26456
# Shear Modulus (GPa) = 18.57350 22.46640 20.51995
#
# Velocity S-wave (km/s) = 3.43942 3.78273 3.61515
# Velocity P-wave (km/s) = 6.66554 7.87990 7.29802
#
# Compressibility (1/GPa) = 0.02222548
#
# Stress axis : x y z
#
# Youngs Moduli (GPa) = 29.49280 48.76501 55.94583
#
# Poissons Ratio (x) = 0.30535 0.58721
# Poissons Ratio (y) = 0.18467 0.46286
# Poissons Ratio (z) = 0.30956 0.40345
#
# Static dielectric constant tensor:
#      x y z
#    x 2.548630 0.000000 0.241760 
#    y 0.000000 3.064850 0.000000 
#    z 0.241760 0.000000 3.103340 
# 
# 
# High freq. dielectric constant tensor:
#      x y z
#    x 1.545290 0.000000 0.030140 
#    y 0.000000 1.609190 0.000000 
#    z 0.030140 0.000000 1.605180 
# 
# From -- ./inp_files/42593.got.cif
#   From: 2010.06.25/outbox.cif.g09.slc.cpg/sg11_22_cif.got.tgz:42593.got - 2010.06.27 23:14:04.
