data_PCOD8072517
_publ_section_title
;
Structure prediction by ZEFSAII (Michael W. Deem and Ramdas Pophale) SiO2 
 PCOD8072517
Probable space group: P 21/M
;
_chemical_formula_sum "Si O2"
_cell_formula_units_Z 32
_cell_length_a 11.843090
_cell_length_b 9.058757
_cell_length_c 28.664562
_cell_angle_alpha 90.000000
_cell_angle_beta 31.116547
_cell_angle_gamma 90.000000
_cell_volume 1589.224124
_symmetry_space_group_name_H-M "P 21/M"
_symmetry_group_IT_number 11
_symmetry_cell_setting 'monoclinic'
loop_
_space_group_symop_operation_xyz
x,y,z
-x,1/2+y,-z
-x,-y,-z
x,1/2-y,z
loop_
_atom_site_type_symbol
_atom_site_label
_atom_site_fract_x
_atom_site_fract_y
_atom_site_fract_z
Si Si1 0.939651 0.577602 0.284697
Si Si2 0.420612 0.420386 0.830754
Si Si3 0.597587 0.077340 0.920205
Si Si4 0.829886 0.917911 0.172892
Si Si5 0.631871 0.076746 0.327091
Si Si6 0.282925 0.922476 0.964236
Si Si7 0.133416 0.074950 0.494389
Si Si8 0.911104 0.425159 0.667765
O O1 0.888559 0.750000 0.305317
O O2 0.724872 0.496484 0.341303
O O3 0.144457 0.547550 0.177554
O O4 0.985889 0.514716 0.320387
O O5 0.397983 0.250000 0.854094
O O6 0.354850 0.440013 0.800516
O O7 0.260278 0.519241 0.919372
O O8 0.664522 0.482994 0.749975
O O9 0.549617 0.250000 0.941344
O O10 0.482267 0.013045 0.915483
O O11 0.500000 0.000000 0.000000
O O12 0.828106 0.750000 0.192541
O O13 0.784989 0.029206 0.230392
O O14 0.064041 0.958532 0.069382
O O15 0.642780 0.250000 0.330322
O O16 0.385540 0.024694 0.403516
O O17 0.335395 0.750000 0.946402
O O18 0.106833 0.250000 0.498493
O O19 0.045435 0.018542 0.575498
O O20 0.000000 0.000000 0.500000
O O21 0.907995 0.250000 0.670241
#
# Coordination Sequence:
#
# PCOD8072517 Si02
#       8
#     4   4   4   4   4   4   4   4
#     4  10  21  39  61  83 112 155 204 241 284 355
#     4  10  19  36  60  84 112 152 200 242 289 349
#     4  11  22  37  57  82 113 155 205 249 293 348
#     4  10  22  38  58  83 115 160 203 237 288 362
#     4  11  24  39  58  89 123 151 189 246 300 341
#     4  11  22  35  53  84 119 152 195 244 296 353
#     4  10  22  41  65  92 122 153 192 238 292 354
#     4   9  18  37  63  86 112 154 198 239 288 351
#
# _framework density 20.135611999999998
#
# number of rings (size 3 to 8) (size 9 to 14) (size 15 to 20)
#    0.000    1.750    1.250    3.000    0.000    8.000 
#    0.000    1.250    0.000    0.000    0.000    0.000 
#    0.000    0.000    0.000    0.000    0.000    0.000 
#
# Total GULP energy -396879.802874 kJ/mol
# GULP energy per Si atom -12402.493840 kJ/mol
# Density = 2.008978 g / cm^3
# Si number density = 20.135612 Si / 1000 Ang^3
#
#
#
# Elastic Constant Matrix: (Units=GPa)
#
#
# Indices 1 2 3 4 5 6 
#
# 1 122.5060 44.5752 50.1238 0.0000 -10.1984 0.0000
# 2 44.5752 62.8231 47.0279 0.0000 -4.6837 0.0000
# 3 50.1238 47.0279 90.9081 0.0000 1.2348 0.0000
# 4 0.0000 0.0000 0.0000 22.0969 0.0000 -2.0151
# 5 -10.1984 -4.6837 1.2348 0.0000 40.6304 0.0000
# 6 0.0000 0.0000 0.0000 -2.0151 0.0000 32.8833
#
#
#
# Elastic Compliance Matrix: (Units=1/GPa)
#
#
# Indices 1 2 3 4 5 6 
#
# 1 0.011889 -0.005416 -0.003787 0.000000 0.002475 0.000000
# 2 -0.005416 0.028924 -0.012008 0.000000 0.002340 0.000000
# 3 -0.003787 -0.012008 0.019340 0.000000 -0.002923 0.000000
# 4 0.000000 0.000000 0.000000 0.045510 0.000000 0.002789
# 5 0.002475 0.002340 -0.002923 0.000000 0.025592 0.000000
# 6 0.000000 0.000000 0.000000 0.002789 0.000000 0.030581
#
#
# Mechanical properties :
#
#
# Convention : Reuss Voigt Hill
#
# Bulk Modulus (GPa) = 56.40127 62.18790 59.29458
# Shear Modulus (GPa) = 23.79027 28.08945 25.93986
#
# Velocity S-wave (km/s) = 3.44103 3.73904 3.59312
# Velocity P-wave (km/s) = 6.62262 7.04217 6.83561
#
# Compressibility (1/GPa) = 0.01773010
#
# Stress axis : x y z
#
# Youngs Moduli (GPa) = 84.11008 34.57279 51.70674
#
# Poissons Ratio (x) = 0.18726 0.19581
# Poissons Ratio (y) = 0.45558 0.62091
# Poissons Ratio (z) = 0.31852 0.41516
#
# Static dielectric constant tensor:
#      x y z
#    x 3.889280 0.000000 -0.037500 
#    y 0.000000 3.434350 0.000000 
#    z -0.037500 0.000000 3.720060 
# 
# 
# High freq. dielectric constant tensor:
#      x y z
#    x 1.802820 0.000000 -0.000110 
#    y 0.000000 1.766600 0.000000 
#    z -0.000110 0.000000 1.787850 
# 
# From -- ./inp_files/45176.got.cif
#   From: 2010.06.25/outbox.cif.g09.slc.cpg/sg11_23_cif.got.tgz:45176.got - 2010.06.27 23:14:04.
