data_PCOD8072230
_publ_section_title
;
Structure prediction by ZEFSAII (Michael W. Deem and Ramdas Pophale) SiO2 
 PCOD8072230
Probable space group: P 21/M
;
_chemical_formula_sum "Si O2"
_cell_formula_units_Z 28
_cell_length_a 32.396792
_cell_length_b 9.278391
_cell_length_c 5.250957
_cell_angle_alpha 90.000000
_cell_angle_beta 120.434909
_cell_angle_gamma 90.000000
_cell_volume 1360.892355
_symmetry_space_group_name_H-M "P 21/M"
_symmetry_group_IT_number 11
_symmetry_cell_setting 'monoclinic'
loop_
_space_group_symop_operation_xyz
x,y,z
-x,1/2+y,-z
-x,-y,-z
x,1/2-y,z
loop_
_atom_site_type_symbol
_atom_site_label
_atom_site_fract_x
_atom_site_fract_y
_atom_site_fract_z
Si Si1 0.427452 0.405192 0.818555
Si Si2 0.186272 0.922326 0.839788
Si Si3 0.340083 0.081467 0.850121
Si Si4 0.474811 0.904026 0.623327
Si Si5 0.286422 0.421788 0.176959
Si Si6 0.131945 0.580674 0.169048
Si Si7 0.978726 0.075609 0.183521
O O1 0.405226 0.250000 0.655937
O O2 0.395958 0.459803 0.962224
O O3 0.426966 0.522520 0.590982
O O4 0.483310 0.377914 0.041139
O O5 0.192537 0.750000 0.860761
O O6 0.156068 0.977551 0.502490
O O7 0.236991 0.998064 0.982050
O O8 0.159079 0.980487 0.005771
O O9 0.334189 0.250000 0.851374
O O10 0.321835 0.019998 0.062551
O O11 0.308559 0.025505 0.513528
O O12 0.458669 0.750000 0.458575
O O13 0.500000 0.000000 0.500000
O O14 0.278597 0.250000 0.142996
O O15 0.136571 0.750000 0.178183
O O16 0.076944 0.535263 0.989742
O O17 0.987311 0.250000 0.210096
O O18 0.000000 0.000000 0.500000
O O19 0.000000 0.000000 0.000000
#
# Coordination Sequence:
#
# PCOD8072230 Si02
#       7
#     4   4   4   4   4   4   4
#     4   9  19  35  54  75  99 137 180 217 257 320
#     4  10  19  35  57  79 104 142 189 230 273 333
#     4   9  19  34  56  78 103 139 179 213 264 333
#     4  10  20  33  53  78 105 135 173 218 266 314
#     4  10  20  35  54  80 108 137 173 225 279 325
#     4   9  19  35  57  80 108 151 194 229 277 345
#     4  11  22  39  61  88 123 162 205 250 300 356
#
# _framework density 20.574736000000001
#
# number of rings (size 3 to 8) (size 9 to 14) (size 15 to 20)
#    0.000    2.286    0.000    2.571    2.000    2.857 
#    0.000    5.714    0.000    0.000    0.000    0.000 
#    0.000    0.000    0.000    0.000    0.000    0.000 
#
# Total GULP energy -346902.428094 kJ/mol
# GULP energy per Si atom -12389.372432 kJ/mol
# Density = 2.052791 g / cm^3
# Si number density = 20.574736 Si / 1000 Ang^3
#
#
#
# Elastic Constant Matrix: (Units=GPa)
#
#
# Indices 1 2 3 4 5 6 
#
# 1 139.6639 31.4475 15.0689 0.0000 -18.2549 0.0000
# 2 31.4475 80.2573 0.4557 0.0000 -13.6815 0.0000
# 3 15.0689 0.4557 60.5156 0.0000 -20.8130 0.0000
# 4 0.0000 0.0000 0.0000 17.1990 0.0000 1.4983
# 5 -18.2549 -13.6815 -20.8130 0.0000 41.0387 0.0000
# 6 0.0000 0.0000 0.0000 1.4983 0.0000 32.2331
#
#
#
# Elastic Compliance Matrix: (Units=1/GPa)
#
#
# Indices 1 2 3 4 5 6 
#
# 1 0.008213 -0.002865 -0.001327 0.000000 0.002025 0.000000
# 2 -0.002865 0.014359 0.002197 0.000000 0.004626 0.000000
# 3 -0.001327 0.002197 0.020455 0.000000 0.010516 0.000000
# 4 0.000000 0.000000 0.000000 0.058379 0.000000 -0.002714
# 5 0.002025 0.004626 0.010516 0.000000 0.032144 0.000000
# 6 0.000000 0.000000 0.000000 -0.002714 0.000000 0.031150
#
#
# Mechanical properties :
#
#
# Convention : Reuss Voigt Hill
#
# Bulk Modulus (GPa) = 25.61780 41.59788 33.60784
# Shear Modulus (GPa) = 27.51726 33.65848 30.58787
#
# Velocity S-wave (km/s) = 3.66106 4.04903 3.85992
# Velocity P-wave (km/s) = 5.50901 6.49010 6.01958
#
# Compressibility (1/GPa) = 0.03903536
#
# Stress axis : x y z
#
# Youngs Moduli (GPa) = 121.75651 69.64327 48.88701
#
# Poissons Ratio (x) = 0.19956 0.06488
# Poissons Ratio (y) = 0.34888 -0.10738
# Poissons Ratio (z) = 0.16158 -0.15297
#
# Static dielectric constant tensor:
#      x y z
#    x 5.775340 0.000000 2.188850 
#    y 0.000000 3.922010 0.000000 
#    z 2.188850 0.000000 7.363350 
# 
# 
# High freq. dielectric constant tensor:
#      x y z
#    x 1.820060 0.000000 -0.009670 
#    y 0.000000 1.776220 0.000000 
#    z -0.009670 0.000000 1.805730 
# 
# From -- ./inp_files/9702.got.cif
#   From: 2010.06.25/outbox.cif.g09.slc.cpg/sg11_5_cif.got.tgz:9702.got - 2010.06.27 23:14:04.
