data_PCOD8072452
_publ_section_title
;
Structure prediction by ZEFSAII (Michael W. Deem and Ramdas Pophale) SiO2 
 PCOD8072452
Probable space group: P 21/M
;
_chemical_formula_sum "Si O2"
_cell_formula_units_Z 28
_cell_length_a 10.897455
_cell_length_b 10.324141
_cell_length_c 16.477682
_cell_angle_alpha 90.000000
_cell_angle_beta 130.609428
_cell_angle_gamma 90.000000
_cell_volume 1407.378317
_symmetry_space_group_name_H-M "P 21/M"
_symmetry_group_IT_number 11
_symmetry_cell_setting 'monoclinic'
loop_
_space_group_symop_operation_xyz
x,y,z
-x,1/2+y,-z
-x,-y,-z
x,1/2-y,z
loop_
_atom_site_type_symbol
_atom_site_label
_atom_site_fract_x
_atom_site_fract_y
_atom_site_fract_z
Si Si1 0.181462 0.101201 0.402113
Si Si2 0.432017 0.603510 0.795319
Si Si3 0.316812 0.898495 0.345296
Si Si4 0.779411 0.972659 0.991545
Si Si5 0.830838 0.099941 0.185927
Si Si6 0.623077 0.893603 0.367223
Si Si7 0.126641 0.889608 0.118660
O O1 0.218439 0.250000 0.390307
O O2 0.207250 0.088373 0.511023
O O3 0.997495 0.063209 0.301788
O O4 0.302898 0.997883 0.413617
O O5 0.394334 0.750000 0.749310
O O6 0.612679 0.603587 0.909876
O O7 0.312593 0.561399 0.815406
O O8 0.406694 0.504485 0.711197
O O9 0.273880 0.750000 0.354614
O O10 0.494070 0.902057 0.384013
O O11 0.195010 0.966942 0.225673
O O12 0.783562 0.087360 0.927926
O O13 0.932837 0.887659 0.028218
O O14 0.804693 0.017530 0.093812
O O15 0.823949 0.250000 0.158865
O O16 0.617640 0.750000 0.323613
O O17 0.191973 0.750000 0.170686
#
# Coordination Sequence:
#
# PCOD8072452 Si02
#       7
#     4   4   4   4   4   4   4
#     4  10  21  39  61  87 116 151 194 237 286 346
#     4  11  24  40  59  85 117 152 198 244 283 332
#     4  10  19  36  57  86 121 150 184 234 290 343
#     4  11  20  37  58  83 116 152 191 230 288 347
#     4  10  22  39  59  84 116 155 195 240 286 335
#     4  10  22  40  61  85 117 153 192 237 290 347
#     4  10  20  33  55  85 118 149 184 231 284 345
#
# _framework density 19.895147999999999
#
# number of rings (size 3 to 8) (size 9 to 14) (size 15 to 20)
#    0.000    1.714    2.857    1.714    0.000    2.286 
#    0.000    2.143    0.000    0.000    0.000    0.000 
#    0.000    0.000    0.000    0.000    0.000    0.000 
#
# Total GULP energy -346915.965655 kJ/mol
# GULP energy per Si atom -12389.855916 kJ/mol
# Density = 1.984987 g / cm^3
# Si number density = 19.895148 Si / 1000 Ang^3
#
#
#
# Elastic Constant Matrix: (Units=GPa)
#
#
# Indices 1 2 3 4 5 6 
#
# 1 88.1232 36.9695 25.2898 0.0000 -2.1679 0.0000
# 2 36.9695 97.5642 43.2453 0.0000 -11.7164 0.0000
# 3 25.2898 43.2453 111.9956 0.0000 -1.2733 0.0000
# 4 0.0000 0.0000 0.0000 23.7119 0.0000 -5.6737
# 5 -2.1679 -11.7164 -1.2733 0.0000 18.9348 0.0000
# 6 0.0000 0.0000 0.0000 -5.6737 0.0000 16.5023
#
#
#
# Elastic Compliance Matrix: (Units=1/GPa)
#
#
# Indices 1 2 3 4 5 6 
#
# 1 0.013689 -0.004812 -0.001250 0.000000 -0.001495 0.000000
# 2 -0.004812 0.015168 -0.004673 0.000000 0.008520 0.000000
# 3 -0.001250 -0.004673 0.010990 0.000000 -0.002296 0.000000
# 4 0.000000 0.000000 0.000000 0.045953 0.000000 0.015799
# 5 -0.001495 0.008520 -0.002296 0.000000 0.057760 0.000000
# 6 0.000000 0.000000 0.000000 0.015799 0.000000 0.066030
#
#
# Mechanical properties :
#
#
# Convention : Reuss Voigt Hill
#
# Bulk Modulus (GPa) = 54.42182 56.52136 55.47159
# Shear Modulus (GPa) = 21.08063 24.64168 22.86115
#
# Velocity S-wave (km/s) = 3.25866 3.52316 3.39349
# Velocity P-wave (km/s) = 6.44765 6.70981 6.58003
#
# Compressibility (1/GPa) = 0.01837498
#
# Stress axis : x y z
#
# Youngs Moduli (GPa) = 73.05361 65.92897 90.99571
#
# Poissons Ratio (x) = 0.31728 0.11372
# Poissons Ratio (y) = 0.35157 0.42525
# Poissons Ratio (z) = 0.09130 0.30810
#
# Static dielectric constant tensor:
#      x y z
#    x 3.488160 0.000000 0.163990 
#    y 0.000000 3.540960 0.000000 
#    z 0.163990 0.000000 3.745690 
# 
# 
# High freq. dielectric constant tensor:
#      x y z
#    x 1.760760 0.000000 0.013130 
#    y 0.000000 1.767280 0.000000 
#    z 0.013130 0.000000 1.795330 
# 
# From -- ./inp_files/47270.got.cif
#   From: 2010.06.25/outbox.cif.g09.slc.cpg/sg11_24_cif.got.tgz:47270.got - 2010.06.27 23:14:04.
