data_PCOD8072931
_publ_section_title
;
Structure prediction by ZEFSAII (Michael W. Deem and Ramdas Pophale) SiO2 
 PCOD8072931
Probable space group: P 21/M
;
_chemical_formula_sum "Si O2"
_cell_formula_units_Z 24
_cell_length_a 21.481064
_cell_length_b 9.132174
_cell_length_c 9.541044
_cell_angle_alpha 90.000000
_cell_angle_beta 133.120212
_cell_angle_gamma 90.000000
_cell_volume 1366.160865
_symmetry_space_group_name_H-M "P 21/M"
_symmetry_group_IT_number 11
_symmetry_cell_setting 'monoclinic'
loop_
_space_group_symop_operation_xyz
x,y,z
-x,1/2+y,-z
-x,-y,-z
x,1/2-y,z
loop_
_atom_site_type_symbol
_atom_site_label
_atom_site_fract_x
_atom_site_fract_y
_atom_site_fract_z
Si Si1 0.754192 0.419520 0.494592
Si Si2 0.425053 0.576135 0.468094
Si Si3 0.912849 0.915222 0.702021
Si Si4 0.433468 0.915709 0.804561
Si Si5 0.259684 0.077655 0.234397
Si Si6 0.073607 0.413660 0.943153
O O1 0.773866 0.250000 0.562170
O O2 0.832030 0.487837 0.523596
O O3 0.662039 0.432328 0.276722
O O4 0.746374 0.516018 0.619851
O O5 0.500000 0.500000 0.500000
O O6 0.425027 0.750000 0.444796
O O7 0.435246 0.531206 0.646279
O O8 0.335484 0.509318 0.271934
O O9 0.900832 0.750000 0.630177
O O10 0.918178 0.925890 0.877079
O O11 0.001139 0.977479 0.773120
O O12 0.463885 0.750000 0.855726
O O13 0.500000 0.000000 0.000000
O O14 0.280565 0.250000 0.271300
O O15 0.166741 0.049990 0.019230
O O16 0.045628 0.250000 0.858969
#
# Coordination Sequence:
#
# PCOD8072931 Si02
#       6
#     4   4   4   4   4   4
#     4   9  16  26  38  55  81 111 143 179 219 264
#     4  10  20  33  48  68  92 120 153 188 227 269
#     4   9  15  21  32  51  74 105 142 175 212 258
#     4   9  19  32  47  67  90 118 152 188 227 269
#     4   9  16  26  40  58  80 110 145 179 219 264
#     4   8  14  22  32  49  75 106 138 172 212 258
#
# _framework density 17.567477
#
# number of rings (size 3 to 8) (size 9 to 14) (size 15 to 20)
#    0.000    3.000    0.000    4.000    0.000    8.667 
#    0.000    0.000    0.000    0.000    0.000    0.000 
#    0.000    1.333    0.000    4.333    0.000   11.667 
#
# Total GULP energy -297326.431585 kJ/mol
# GULP energy per Si atom -12388.601316 kJ/mol
# Density = 1.752749 g / cm^3
# Si number density = 17.567477 Si / 1000 Ang^3
#
#
#
# Elastic Constant Matrix: (Units=GPa)
#
#
# Indices 1 2 3 4 5 6 
#
# 1 78.1477 54.6225 50.3052 0.0000 43.0996 0.0000
# 2 54.6225 116.5596 55.4280 0.0000 32.7217 0.0000
# 3 50.3052 55.4280 77.6775 0.0000 37.4633 0.0000
# 4 0.0000 0.0000 0.0000 30.0903 0.0000 13.5664
# 5 43.0996 32.7217 37.4633 0.0000 35.7344 0.0000
# 6 0.0000 0.0000 0.0000 13.5664 0.0000 26.6636
#
#
#
# Elastic Compliance Matrix: (Units=1/GPa)
#
#
# Indices 1 2 3 4 5 6 
#
# 1 0.042642 -0.007018 -0.001825 0.000000 -0.043091 0.000000
# 2 -0.007018 0.014492 -0.007036 0.000000 0.002570 0.000000
# 3 -0.001825 -0.007036 0.030154 0.000000 -0.022969 0.000000
# 4 0.000000 0.000000 0.000000 0.043126 0.000000 -0.021943
# 5 -0.043091 0.002570 -0.022969 0.000000 0.101682 0.000000
# 6 0.000000 0.000000 0.000000 -0.021943 0.000000 0.048669
#
#
# Mechanical properties :
#
#
# Convention : Reuss Voigt Hill
#
# Bulk Modulus (GPa) = 18.00843 65.89959 41.95401
# Shear Modulus (GPa) = 15.10418 25.96627 20.53522
#
# Velocity S-wave (km/s) = 2.93538 3.84876 3.42268
# Velocity P-wave (km/s) = 4.66496 7.57260 6.28913
#
# Compressibility (1/GPa) = 0.05552954
#
# Stress axis : x y z
#
# Youngs Moduli (GPa) = 23.45120 69.00177 33.16297
#
# Poissons Ratio (x) = 0.48427 0.06053
# Poissons Ratio (y) = 0.16458 0.23333
# Poissons Ratio (z) = 0.04281 0.48549
#
# Static dielectric constant tensor:
#      x y z
#    x 3.848630 0.000000 1.127880 
#    y 0.000000 3.487130 0.000000 
#    z 1.127880 0.000000 3.495140 
# 
# 
# High freq. dielectric constant tensor:
#      x y z
#    x 1.640180 0.000000 0.065910 
#    y 0.000000 1.694640 0.000000 
#    z 0.065910 0.000000 1.647950 
# 
# From -- ./inp_files/23711.got.cif
#   From: 2010.06.25/outbox.cif.g09.slc.cpg/sg11_12_cif.got.tgz:23711.got - 2010.06.27 23:14:04.
