data_PCOD8072476
_publ_section_title
;
Structure prediction by ZEFSAII (Michael W. Deem and Ramdas Pophale) SiO2 
 PCOD8072476
Probable space group: P 21/M
;
_chemical_formula_sum "Si O2"
_cell_formula_units_Z 32
_cell_length_a 19.276933
_cell_length_b 8.984998
_cell_length_c 10.118109
_cell_angle_alpha 90.000000
_cell_angle_beta 74.790075
_cell_angle_gamma 90.000000
_cell_volume 1691.101078
_symmetry_space_group_name_H-M "P 21/M"
_symmetry_group_IT_number 11
_symmetry_cell_setting 'monoclinic'
loop_
_space_group_symop_operation_xyz
x,y,z
-x,1/2+y,-z
-x,-y,-z
x,1/2-y,z
loop_
_atom_site_type_symbol
_atom_site_label
_atom_site_fract_x
_atom_site_fract_y
_atom_site_fract_z
Si Si1 0.102624 0.426519 0.700184
Si Si2 0.417812 0.925022 0.674178
Si Si3 0.060364 0.573676 0.230742
Si Si4 0.417276 0.424546 0.405626
Si Si5 0.158277 0.922534 0.419018
Si Si6 0.310415 0.926529 0.950996
Si Si7 0.845674 0.427085 0.059584
Si Si8 0.680467 0.077756 0.757343
O O1 0.105295 0.250000 0.708857
O O2 0.149904 0.480581 0.554133
O O3 0.136071 0.495832 0.813257
O O4 0.021039 0.484891 0.723618
O O5 0.407571 0.750000 0.661047
O O6 0.500017 0.968805 0.661801
O O7 0.370628 0.986153 0.819600
O O8 0.389466 0.000619 0.554365
O O9 0.064846 0.750000 0.229596
O O10 0.102797 0.514078 0.337599
O O11 0.097659 0.515933 0.078139
O O12 0.407325 0.250000 0.425487
O O13 0.371599 0.481007 0.306087
O O14 0.143167 0.750000 0.459050
O O15 0.237769 0.945927 0.325284
O O16 0.308712 0.750000 0.954859
O O17 0.232652 0.984403 0.944875
O O18 0.328852 0.983198 0.088802
O O19 0.847984 0.250000 0.076373
O O20 0.658212 0.250000 0.756204
#
# Coordination Sequence:
#
# PCOD8072476 Si02
#       8
#     4   4   4   4   4   4   4   4
#     4  11  23  35  51  81 115 143 174 223 281 330
#     4   9  19  37  59  83 111 145 185 221 258 313
#     4   9  18  36  59  79 105 140 183 230 272 318
#     4  10  21  36  55  83 118 148 174 215 270 323
#     4  10  20  37  58  79 103 141 188 227 264 319
#     4   9  18  35  60  83 102 136 188 234 262 303
#     4  10  19  36  59  81 105 140 186 229 267 317
#     4  10  20  36  59  82 105 139 185 230 269 315
#
# _framework density 18.922584000000001
#
# number of rings (size 3 to 8) (size 9 to 14) (size 15 to 20)
#    0.000    2.250    1.250    1.500    1.750    1.500 
#    0.000    3.125    0.000    0.000    0.000    0.000 
#    0.000    0.000    0.000    0.000    0.000    0.000 
#
# Total GULP energy -396879.688922 kJ/mol
# GULP energy per Si atom -12402.490279 kJ/mol
# Density = 1.887952 g / cm^3
# Si number density = 18.922584 Si / 1000 Ang^3
#
#
#
# Elastic Constant Matrix: (Units=GPa)
#
#
# Indices 1 2 3 4 5 6 
#
# 1 88.5102 27.8463 55.0770 0.0000 10.9869 0.0000
# 2 27.8463 44.8884 32.3067 0.0000 -3.5149 0.0000
# 3 55.0770 32.3067 163.4988 0.0000 8.9868 0.0000
# 4 0.0000 0.0000 0.0000 3.8775 0.0000 0.2902
# 5 10.9869 -3.5149 8.9868 0.0000 46.1344 0.0000
# 6 0.0000 0.0000 0.0000 0.2902 0.0000 25.1665
#
#
#
# Elastic Compliance Matrix: (Units=1/GPa)
#
#
# Indices 1 2 3 4 5 6 
#
# 1 0.016632 -0.007851 -0.003842 0.000000 -0.003811 0.000000
# 2 -0.007851 0.030097 -0.003569 0.000000 0.004858 0.000000
# 3 -0.003842 -0.003569 0.008168 0.000000 -0.000948 0.000000
# 4 0.000000 0.000000 0.000000 0.258118 0.000000 -0.002977
# 5 -0.003811 0.004858 -0.000948 0.000000 0.023138 0.000000
# 6 0.000000 0.000000 0.000000 -0.002977 0.000000 0.039770
#
#
# Mechanical properties :
#
#
# Convention : Reuss Voigt Hill
#
# Bulk Modulus (GPa) = 41.02995 58.59526 49.81261
# Shear Modulus (GPa) = 12.06066 27.14685 19.60375
#
# Velocity S-wave (km/s) = 2.52735 3.79176 3.22218
# Velocity P-wave (km/s) = 5.49971 7.08540 6.34231
#
# Compressibility (1/GPa) = 0.02437244
#
# Stress axis : x y z
#
# Youngs Moduli (GPa) = 60.12578 33.22592 122.43077
#
# Poissons Ratio (x) = 0.26085 0.47037
# Poissons Ratio (y) = 0.47203 0.43701
# Poissons Ratio (z) = 0.23100 0.11860
#
# Static dielectric constant tensor:
#      x y z
#    x 3.607560 0.000000 -0.062020 
#    y 0.000000 3.149870 0.000000 
#    z -0.062020 0.000000 3.681230 
# 
# 
# High freq. dielectric constant tensor:
#      x y z
#    x 1.743340 0.000000 0.001370 
#    y 0.000000 1.704700 0.000000 
#    z 0.001370 0.000000 1.751360 
# 
# From -- ./inp_files/25835.got.cif
#   From: 2010.06.25/outbox.cif.g09.slc.cpg/sg11_13_cif.got.tgz:25835.got - 2010.06.27 23:14:04.
