data_PCOD8072904
_publ_section_title
;
Structure prediction by ZEFSAII (Michael W. Deem and Ramdas Pophale) SiO2 
 PCOD8072904
Probable space group: P 21/M
;
_chemical_formula_sum "Si O2"
_cell_formula_units_Z 32
_cell_length_a 23.731254
_cell_length_b 9.175666
_cell_length_c 14.365504
_cell_angle_alpha 90.000000
_cell_angle_beta 43.330636
_cell_angle_gamma 90.000000
_cell_volume 2146.518052
_symmetry_space_group_name_H-M "P 21/M"
_symmetry_group_IT_number 11
_symmetry_cell_setting 'monoclinic'
loop_
_space_group_symop_operation_xyz
x,y,z
-x,1/2+y,-z
-x,-y,-z
x,1/2-y,z
loop_
_atom_site_type_symbol
_atom_site_label
_atom_site_fract_x
_atom_site_fract_y
_atom_site_fract_z
Si Si1 0.735276 0.579455 0.323894
Si Si2 0.898849 0.588760 0.043120
Si Si3 0.676398 0.584042 0.688700
Si Si4 0.487284 0.419416 0.229646
Si Si5 0.550567 0.579863 0.517542
Si Si6 0.800602 0.423180 0.425064
Si Si7 0.434718 0.418481 0.015909
Si Si8 0.044050 0.086836 0.813198
O O1 0.740505 0.750000 0.347308
O O2 0.802456 0.544321 0.162483
O O3 0.646374 0.539715 0.390558
O O4 0.752178 0.482947 0.393989
O O5 0.909656 0.750000 0.987546
O O6 0.929509 0.587631 0.111942
O O7 0.951871 0.478700 0.916363
O O8 0.704289 0.750000 0.635685
O O9 0.598919 0.545814 0.716469
O O10 0.750864 0.475069 0.576085
O O11 0.652956 0.564227 0.826312
O O12 0.508608 0.250000 0.195758
O O13 0.481412 0.471150 0.343167
O O14 0.561686 0.508895 0.090955
O O15 0.500000 0.500000 0.500000
O O16 0.536677 0.750000 0.521666
O O17 0.805937 0.250000 0.414482
O O18 0.892577 0.487742 0.320791
O O19 0.459318 0.250000 0.978568
O O20 0.500000 0.500000 0.000000
O O21 0.043002 0.250000 0.773192
#
# Coordination Sequence:
#
# PCOD8072904 Si02
#       8
#     4   4   4   4   4   4   4   4
#     4   9  17  31  44  53  74 106 134 166 212 250
#     4   8  14  24  39  54  69  95 132 167 195 234
#     4   9  16  28  41  55  79 109 134 162 204 247
#     4   9  17  30  45  57  77 105 134 170 210 249
#     4  10  20  33  46  61  81 107 139 176 217 252
#     4  11  19  24  37  59  80 103 137 172 195 232
#     4   9  17  27  41  59  79 102 132 166 202 245
#     4   9  16  25  36  51  76 105 128 158 199 238
#
# _framework density 14.907864999999999
#
# number of rings (size 3 to 8) (size 9 to 14) (size 15 to 20)
#    0.000    2.750    1.250    3.375    0.000    6.500 
#    0.000    0.000    0.000    0.000    0.000    0.000 
#    0.000    0.000    0.000    1.125    0.000   14.250 
#
# Total GULP energy -396606.528762 kJ/mol
# GULP energy per Si atom -12393.954024 kJ/mol
# Density = 1.487393 g / cm^3
# Si number density = 14.907865 Si / 1000 Ang^3
#
#
#
# Elastic Constant Matrix: (Units=GPa)
#
#
# Indices 1 2 3 4 5 6 
#
# 1 43.3464 26.1273 46.2763 0.0000 -3.2794 0.0000
# 2 26.1273 97.1800 68.8319 0.0000 -8.6910 0.0000
# 3 46.2763 68.8319 126.8057 0.0000 -11.8333 0.0000
# 4 0.0000 0.0000 0.0000 30.4801 0.0000 -1.5419
# 5 -3.2794 -8.6910 -11.8333 0.0000 16.0492 0.0000
# 6 0.0000 0.0000 0.0000 -1.5419 0.0000 16.0654
#
#
#
# Elastic Compliance Matrix: (Units=1/GPa)
#
#
# Indices 1 2 3 4 5 6 
#
# 1 0.037931 -0.000743 -0.013696 0.000000 -0.002750 0.000000
# 2 -0.000743 0.016829 -0.008621 0.000000 0.002605 0.000000
# 3 -0.013696 -0.008621 0.018113 0.000000 0.005888 0.000000
# 4 0.000000 0.000000 0.000000 0.032968 0.000000 0.003164
# 5 -0.002750 0.002605 0.005888 0.000000 0.067499 0.000000
# 6 0.000000 0.000000 0.000000 0.003164 0.000000 0.062549
#
#
# Mechanical properties :
#
#
# Convention : Reuss Voigt Hill
#
# Bulk Modulus (GPa) = 37.37754 61.08922 49.23338
# Shear Modulus (GPa) = 17.18642 20.92537 19.05589
#
# Velocity S-wave (km/s) = 3.39904 3.75059 3.57913
# Velocity P-wave (km/s) = 6.36643 7.73451 7.08358
#
# Compressibility (1/GPa) = 0.02675404
#
# Stress axis : x y z
#
# Youngs Moduli (GPa) = 26.36333 59.42148 55.20887
#
# Poissons Ratio (x) = 0.04417 0.75613
# Poissons Ratio (y) = 0.01960 0.47593
# Poissons Ratio (z) = 0.36107 0.51225
#
# Static dielectric constant tensor:
#      x y z
#    x 2.396880 0.000000 -0.113790 
#    y 0.000000 3.028930 0.000000 
#    z -0.113790 0.000000 3.411300 
# 
# 
# High freq. dielectric constant tensor:
#      x y z
#    x 1.492260 0.000000 -0.017240 
#    y 0.000000 1.578000 0.000000 
#    z -0.017240 0.000000 1.583200 
# 
# From -- ./inp_files/52966.got.cif
#   From: 2010.06.25/outbox.cif.g09.slc.cpg/sg11_27_cif.got.tgz:52966.got - 2010.06.27 23:14:04.
