data_PCOD8072252
_publ_section_title
;
Structure prediction by ZEFSAII (Michael W. Deem and Ramdas Pophale) SiO2 
 PCOD8072252
Probable space group: P 21/M
;
_chemical_formula_sum "Si O2"
_cell_formula_units_Z 24
_cell_length_a 8.747178
_cell_length_b 19.194447
_cell_length_c 15.111764
_cell_angle_alpha 90.000000
_cell_angle_beta 30.252968
_cell_angle_gamma 90.000000
_cell_volume 1278.300725
_symmetry_space_group_name_H-M "P 21/M"
_symmetry_group_IT_number 11
_symmetry_cell_setting 'monoclinic'
loop_
_space_group_symop_operation_xyz
x,y,z
-x,1/2+y,-z
-x,-y,-z
x,1/2-y,z
loop_
_atom_site_type_symbol
_atom_site_label
_atom_site_fract_x
_atom_site_fract_y
_atom_site_fract_z
Si Si1 0.857045 0.076377 0.287581
Si Si2 0.140952 0.427784 0.959482
Si Si3 0.860217 0.672137 0.194102
Si Si4 0.857046 0.923623 0.355374
Si Si5 0.139782 0.672137 0.554320
Si Si6 0.140952 0.572216 0.399566
O O1 0.500000 0.081357 0.447716
O O2 0.971310 0.131832 0.302719
O O3 0.945831 0.000000 0.277085
O O4 0.033878 0.094164 0.109931
O O5 0.025700 0.368090 0.950078
O O6 0.500000 0.435615 0.776774
O O7 0.000000 0.500000 0.000000
O O8 0.998295 0.750000 0.125056
O O9 0.971311 0.631832 0.225970
O O10 0.499999 0.674827 0.374333
O O11 0.033879 0.905836 0.356190
O O12 0.001702 0.750000 0.623353
O O13 0.025700 0.631911 0.524222
O O14 0.000000 0.500000 0.500000
#
# Coordination Sequence:
#
# PCOD8072252 Si02
#       6
#     4   4   4   4   4   4
#     4  10  19  35  57  82 108 141 183 225 272 327
#     4  11  21  35  57  84 111 144 186 228 272 325
#     4   9  19  36  56  78 110 149 182 220 276 334
#     4  10  19  35  57  82 108 141 183 225 272 327
#     4   9  19  36  56  78 110 149 182 220 276 334
#     4  11  21  35  57  84 111 144 186 228 272 325
#
# _framework density 18.774923999999999
#
# number of rings (size 3 to 8) (size 9 to 14) (size 15 to 20)
#    0.000    2.000    3.333    1.000    0.000    2.000 
#    0.000    0.000    0.000    7.000    0.000    0.000 
#    0.000    0.000    0.000    0.000    0.000    0.000 
#
# Total GULP energy -297644.606984 kJ/mol
# GULP energy per Si atom -12401.858624 kJ/mol
# Density = 1.873219 g / cm^3
# Si number density = 18.774924 Si / 1000 Ang^3
#
#
#
# Elastic Constant Matrix: (Units=GPa)
#
#
# Indices 1 2 3 4 5 6 
#
# 1 149.6293 82.3944 42.6376 0.0000 35.1269 0.0000
# 2 82.3944 186.1099 51.8162 0.0000 31.0690 0.0000
# 3 42.6376 51.8162 81.9268 0.0000 33.6614 0.0000
# 4 0.0000 0.0000 0.0000 21.0313 0.0000 9.6791
# 5 35.1269 31.0690 33.6614 0.0000 37.6984 0.0000
# 6 0.0000 0.0000 0.0000 9.6791 0.0000 30.5577
#
#
#
# Elastic Compliance Matrix: (Units=1/GPa)
#
#
# Indices 1 2 3 4 5 6 
#
# 1 0.010113 -0.003265 -0.000682 0.000000 -0.006123 0.000000
# 2 -0.003265 0.007751 -0.002888 0.000000 -0.000767 0.000000
# 3 -0.000682 -0.002888 0.020768 0.000000 -0.015528 0.000000
# 4 0.000000 0.000000 0.000000 0.055662 0.000000 -0.017631
# 5 -0.006123 -0.000767 -0.015528 0.000000 0.046729 0.000000
# 6 0.000000 0.000000 0.000000 -0.017631 0.000000 0.038310
#
#
# Mechanical properties :
#
#
# Convention : Reuss Voigt Hill
#
# Bulk Modulus (GPa) = 40.06268 85.70695 62.88482
# Shear Modulus (GPa) = 24.83579 33.91201 29.37390
#
# Velocity S-wave (km/s) = 3.64100 4.25460 3.95970
# Velocity P-wave (km/s) = 6.24985 8.35968 7.38054
#
# Compressibility (1/GPa) = 0.02496088
#
# Stress axis : x y z
#
# Youngs Moduli (GPa) = 98.88283 129.02068 48.15211
#
# Poissons Ratio (x) = 0.42126 0.03286
# Poissons Ratio (y) = 0.32286 0.13905
# Poissons Ratio (z) = 0.06747 0.37258
#
# Static dielectric constant tensor:
#      x y z
#    x 3.616890 0.000000 0.305430 
#    y 0.000000 3.713220 0.000000 
#    z 0.305430 0.000000 3.316240 
# 
# 
# High freq. dielectric constant tensor:
#      x y z
#    x 1.733270 0.000000 0.022920 
#    y 0.000000 1.732500 0.000000 
#    z 0.022920 0.000000 1.710710 
# 
# From -- ./inp_files/13860.got.cif
#   From: 2010.06.25/outbox.cif.g09.slc.cpg/sg11_7_cif.got.tgz:13860.got - 2010.06.27 23:14:04.
