data_PCOD8072512
_publ_section_title
;
Structure prediction by ZEFSAII (Michael W. Deem and Ramdas Pophale) SiO2 
 PCOD8072512
Probable space group: P 21/M
;
_chemical_formula_sum "Si O2"
_cell_formula_units_Z 32
_cell_length_a 11.414416
_cell_length_b 8.861557
_cell_length_c 21.479722
_cell_angle_alpha 90.000000
_cell_angle_beta 51.991424
_cell_angle_gamma 90.000000
_cell_volume 1711.881651
_symmetry_space_group_name_H-M "P 21/M"
_symmetry_group_IT_number 11
_symmetry_cell_setting 'monoclinic'
loop_
_space_group_symop_operation_xyz
x,y,z
-x,1/2+y,-z
-x,-y,-z
x,1/2-y,z
loop_
_atom_site_type_symbol
_atom_site_label
_atom_site_fract_x
_atom_site_fract_y
_atom_site_fract_z
Si Si1 0.998825 0.429362 0.567541
Si Si2 0.154031 0.922225 0.935853
Si Si3 0.274232 0.926432 0.546359
Si Si4 0.353631 0.924219 0.123971
Si Si5 0.303187 0.570206 0.272980
Si Si6 0.585448 0.926149 0.383543
Si Si7 0.655033 0.078947 0.006491
Si Si8 0.610781 0.571282 0.231929
O O1 0.006829 0.250000 0.561087
O O2 0.132823 0.486101 0.566386
O O3 0.000000 0.500000 0.500000
O O4 0.842644 0.489092 0.645277
O O5 0.131097 0.750000 0.922644
O O6 0.225343 0.934889 0.979949
O O7 0.250623 0.001285 0.850610
O O8 0.000000 0.000000 0.000000
O O9 0.238497 0.750000 0.559220
O O10 0.413885 0.962449 0.455837
O O11 0.306808 0.981308 0.605935
O O12 0.339090 0.750000 0.142513
O O13 0.288425 0.999995 0.207771
O O14 0.526384 0.962552 0.063020
O O15 0.273424 0.966359 0.084723
O O16 0.307648 0.750000 0.273960
O O17 0.454995 0.508892 0.255115
O O18 0.618239 0.750000 0.382741
O O19 0.618798 0.976300 0.301833
O O20 0.591360 0.250000 0.022510
O O21 0.620967 0.750000 0.221514
#
# Coordination Sequence:
#
# PCOD8072512 Si02
#       8
#     4   4   4   4   4   4   4   4
#     4  11  22  37  56  83 117 152 190 230 281 336
#     4  11  23  38  54  78 112 145 182 228 279 333
#     4  10  20  37  59  84 117 150 189 235 279 333
#     4   9  16  31  56  79 101 135 175 216 268 323
#     4   9  18  33  56  82 108 141 184 228 271 332
#     4   9  19  36  60  85 111 149 191 233 281 336
#     4   9  18  32  52  79 107 133 170 220 270 322
#     4  10  19  36  60  83 106 139 187 232 276 330
#
# _framework density 18.692882000000001
#
# number of rings (size 3 to 8) (size 9 to 14) (size 15 to 20)
#    0.000    2.250    1.250    1.875    0.000    3.500 
#    2.250    3.750    0.000    0.000    0.000    0.000 
#    0.000    0.000    0.000    0.000    0.000    0.000 
#
# Total GULP energy -396585.977648 kJ/mol
# GULP energy per Si atom -12393.311802 kJ/mol
# Density = 1.865034 g / cm^3
# Si number density = 18.692882 Si / 1000 Ang^3
#
#
#
# Elastic Constant Matrix: (Units=GPa)
#
#
# Indices 1 2 3 4 5 6 
#
# 1 101.8372 38.8183 83.4374 0.0000 6.7845 0.0000
# 2 38.8183 47.6845 45.3035 0.0000 5.4253 0.0000
# 3 83.4374 45.3035 180.0345 0.0000 15.6324 0.0000
# 4 0.0000 0.0000 0.0000 27.9118 0.0000 -0.0569
# 5 6.7845 5.4253 15.6324 0.0000 32.2063 0.0000
# 6 0.0000 0.0000 0.0000 -0.0569 0.0000 27.6239
#
#
#
# Elastic Compliance Matrix: (Units=1/GPa)
#
#
# Indices 1 2 3 4 5 6 
#
# 1 0.018393 -0.009064 -0.006306 0.000000 0.000713 0.000000
# 2 -0.009064 0.032081 -0.003726 0.000000 -0.001686 0.000000
# 3 -0.006306 -0.003726 0.009651 0.000000 -0.002729 0.000000
# 4 0.000000 0.000000 0.000000 0.035827 0.000000 0.000074
# 5 0.000713 -0.001686 -0.002729 0.000000 0.032508 0.000000
# 6 0.000000 0.000000 0.000000 0.000074 0.000000 0.036201
#
#
# Mechanical properties :
#
#
# Convention : Reuss Voigt Hill
#
# Bulk Modulus (GPa) = 45.58780 73.85273 59.72026
# Shear Modulus (GPa) = 23.79093 28.34819 26.06956
#
# Velocity S-wave (km/s) = 3.57140 3.89848 3.73852
# Velocity P-wave (km/s) = 6.43795 7.73682 7.11708
#
# Compressibility (1/GPa) = 0.02193570
#
# Stress axis : x y z
#
# Youngs Moduli (GPa) = 54.36771 31.17083 103.61326
#
# Poissons Ratio (x) = 0.28252 0.65333
# Poissons Ratio (y) = 0.49277 0.38604
# Poissons Ratio (z) = 0.34282 0.11614
#
# Static dielectric constant tensor:
#      x y z
#    x 3.414880 0.000000 0.108250 
#    y 0.000000 3.347940 0.000000 
#    z 0.108250 0.000000 3.783640 
# 
# 
# High freq. dielectric constant tensor:
#      x y z
#    x 1.725370 0.000000 0.019760 
#    y 0.000000 1.712790 0.000000 
#    z 0.019760 0.000000 1.734590 
# 
# From -- ./inp_files/64378.got.cif
#   From: 2010.06.25/outbox.cif.g09.slc.cpg/sg11_33_cif.got.tgz:64378.got - 2010.06.27 23:14:04.
