data_PCOD8072950
_publ_section_title
;
Structure prediction by ZEFSAII (Michael W. Deem and Ramdas Pophale) SiO2 
 PCOD8072950
Probable space group: P 21/M
;
_chemical_formula_sum "Si O2"
_cell_formula_units_Z 20
_cell_length_a 13.307814
_cell_length_b 9.698097
_cell_length_c 21.712631
_cell_angle_alpha 90.000000
_cell_angle_beta 24.945280
_cell_angle_gamma 90.000000
_cell_volume 1181.852746
_symmetry_space_group_name_H-M "P 21/M"
_symmetry_group_IT_number 11
_symmetry_cell_setting 'monoclinic'
loop_
_space_group_symop_operation_xyz
x,y,z
-x,1/2+y,-z
-x,-y,-z
x,1/2-y,z
loop_
_atom_site_type_symbol
_atom_site_label
_atom_site_fract_x
_atom_site_fract_y
_atom_site_fract_z
Si Si1 0.707718 0.090872 0.458112
Si Si2 0.349351 0.909074 0.287331
Si Si3 0.010615 0.091998 0.404032
Si Si4 0.265236 0.592319 0.696961
Si Si5 0.888277 0.590060 0.008561
O O1 0.633843 0.250000 0.507322
O O2 0.924352 0.054108 0.383292
O O3 0.794228 0.056950 0.340986
O O4 0.477734 0.002003 0.604123
O O5 0.338416 0.750000 0.273605
O O6 0.209285 0.937576 0.428205
O O7 0.618753 0.958605 0.147390
O O8 0.235151 0.996828 0.295420
O O9 0.093907 0.250000 0.362618
O O10 0.349273 0.750000 0.657060
O O11 0.028872 0.562918 0.867175
O O12 0.898965 0.750000 0.022350
O O13 0.000000 0.500000 0.000000
#
# Coordination Sequence:
#
# PCOD8072950 Si02
#       5
#     4   4   4   4   4
#     4   9  17  31  50  70  94 123 155 192 231 272
#     4   9  18  31  46  66  92 120 152 190 230 272
#     4   9  17  30  48  67  88 119 156 191 228 270
#     4   9  18  31  48  71  96 122 154 191 231 276
#     4  10  20  33  49  70  96 124 153 189 234 278
#
# _framework density 16.922581000000001
#
# number of rings (size 3 to 8) (size 9 to 14) (size 15 to 20)
#    0.000    2.800    0.000    1.200    0.000    4.000 
#    0.000    5.000    0.000    0.000    0.000    0.000 
#    0.000    0.000    0.000    0.000    0.000    0.000 
#
# Total GULP energy -248041.883629 kJ/mol
# GULP energy per Si atom -12402.094181 kJ/mol
# Density = 1.688406 g / cm^3
# Si number density = 16.922581 Si / 1000 Ang^3
#
#
#
# Elastic Constant Matrix: (Units=GPa)
#
#
# Indices 1 2 3 4 5 6 
#
# 1 128.8082 65.7754 59.0776 0.0000 -22.9948 0.0000
# 2 65.7754 69.2143 50.7006 0.0000 -16.8540 0.0000
# 3 59.0776 50.7006 104.2509 0.0000 -20.2456 0.0000
# 4 0.0000 0.0000 0.0000 25.0615 0.0000 -6.5956
# 5 -22.9948 -16.8540 -20.2456 0.0000 25.5119 0.0000
# 6 0.0000 0.0000 0.0000 -6.5956 0.0000 32.3926
#
#
#
# Elastic Compliance Matrix: (Units=1/GPa)
#
#
# Indices 1 2 3 4 5 6 
#
# 1 0.015886 -0.012513 -0.002059 0.000000 0.004418 0.000000
# 2 -0.012513 0.033507 -0.008389 0.000000 0.004200 0.000000
# 3 -0.002059 -0.008389 0.015844 0.000000 0.005175 0.000000
# 4 0.000000 0.000000 0.000000 0.042161 0.000000 0.008585
# 5 0.004418 0.004200 0.005175 0.000000 0.050062 0.000000
# 6 0.000000 0.000000 0.000000 0.008585 0.000000 0.032619
#
#
# Mechanical properties :
#
#
# Convention : Reuss Voigt Hill
#
# Bulk Modulus (GPa) = 51.77197 72.59785 62.18491
# Shear Modulus (GPa) = 20.62375 25.04119 22.83247
#
# Velocity S-wave (km/s) = 3.49479 3.85092 3.67717
# Velocity P-wave (km/s) = 6.85161 7.92250 7.40643
#
# Compressibility (1/GPa) = 0.01931547
#
# Stress axis : x y z
#
# Youngs Moduli (GPa) = 62.94762 29.84479 63.11528
#
# Poissons Ratio (x) = 0.37344 0.12996
# Poissons Ratio (y) = 0.78764 0.52947
# Poissons Ratio (z) = 0.12962 0.25037
#
# Static dielectric constant tensor:
#      x y z
#    x 3.236350 0.000000 0.029420 
#    y 0.000000 3.224310 0.000000 
#    z 0.029420 0.000000 3.104350 
# 
# 
# High freq. dielectric constant tensor:
#      x y z
#    x 1.655070 0.000000 0.000490 
#    y 0.000000 1.653590 0.000000 
#    z 0.000490 0.000000 1.638410 
# 
# From -- ./inp_files/16547.got.cif
#   From: 2010.06.25/outbox.cif.g09.slc.cpg/sg11_9_cif.got.tgz:16547.got - 2010.06.27 23:14:04.
