data_PCOD8072523
_publ_section_title
;
Structure prediction by ZEFSAII (Michael W. Deem and Ramdas Pophale) SiO2 
 PCOD8072523
Probable space group: P 21/M
;
_chemical_formula_sum "Si O2"
_cell_formula_units_Z 28
_cell_length_a 26.753346
_cell_length_b 8.745237
_cell_length_c 9.466796
_cell_angle_alpha 90.000000
_cell_angle_beta 138.176433
_cell_angle_gamma 90.000000
_cell_volume 1476.976988
_symmetry_space_group_name_H-M "P 21/M"
_symmetry_group_IT_number 11
_symmetry_cell_setting 'monoclinic'
loop_
_space_group_symop_operation_xyz
x,y,z
-x,1/2+y,-z
-x,-y,-z
x,1/2-y,z
loop_
_atom_site_type_symbol
_atom_site_label
_atom_site_fract_x
_atom_site_fract_y
_atom_site_fract_z
Si Si1 0.558306 0.424271 0.723507
Si Si2 0.200346 0.421681 0.119932
Si Si3 0.739305 0.428335 0.480226
Si Si4 0.080096 0.433032 0.633446
Si Si5 0.813420 0.430340 0.342819
Si Si6 0.428990 0.567260 0.932942
Si Si7 0.304878 0.420210 0.096331
O O1 0.500000 0.500000 0.500000
O O2 0.536831 0.250000 0.690793
O O3 0.636923 0.446392 0.812061
O O4 0.561055 0.493902 0.886146
O O5 0.181332 0.250000 0.127905
O O6 0.211968 0.521004 0.283684
O O7 0.279880 0.427121 0.206251
O O8 0.134175 0.482490 0.878411
O O9 0.728081 0.250000 0.463436
O O10 0.791495 0.472201 0.456752
O O11 0.653347 0.495015 0.291938
O O12 0.079167 0.250000 0.611720
O O13 0.103871 0.517386 0.535240
O O14 0.000000 0.500000 0.500000
O O15 0.799938 0.250000 0.285322
O O16 0.765921 0.545089 0.147889
O O17 0.431547 0.750000 0.929552
O O18 0.500000 0.500000 0.000000
O O19 0.336297 0.250000 0.127593
#
# Coordination Sequence:
#
# PCOD8072523 Si02
#       7
#     4   4   4   4   4   4   4
#     4  11  23  39  56  78 110 144 189 243 293 345
#     4   9  21  37  56  85 117 146 185 234 280 333
#     4  10  21  38  58  83 115 151 195 237 284 345
#     4  10  21  39  62  91 121 151 190 233 281 341
#     4  10  19  36  60  85 114 150 188 233 282 332
#     4  10  23  41  56  79 113 151 194 243 293 344
#     4  10  20  36  56  81 109 144 191 237 284 340
#
# _framework density 18.957640999999999
#
# number of rings (size 3 to 8) (size 9 to 14) (size 15 to 20)
#    0.000    2.000    1.429    2.571    2.000    6.286 
#    0.000    0.714    0.000    0.000    0.000    0.000 
#    0.000    0.000    0.000    0.000    0.000    0.000 
#
# Total GULP energy -346932.527544 kJ/mol
# GULP energy per Si atom -12390.447412 kJ/mol
# Density = 1.891449 g / cm^3
# Si number density = 18.957641 Si / 1000 Ang^3
#
#
#
# Elastic Constant Matrix: (Units=GPa)
#
#
# Indices 1 2 3 4 5 6 
#
# 1 145.3767 39.9922 67.7062 0.0000 4.8277 0.0000
# 2 39.9922 46.4553 24.3220 0.0000 -7.6169 0.0000
# 3 67.7062 24.3220 97.3709 0.0000 -6.4753 0.0000
# 4 0.0000 0.0000 0.0000 31.3835 0.0000 0.3377
# 5 4.8277 -7.6169 -6.4753 0.0000 30.8264 0.0000
# 6 0.0000 0.0000 0.0000 0.3377 0.0000 34.6042
#
#
#
# Elastic Compliance Matrix: (Units=1/GPa)
#
#
# Indices 1 2 3 4 5 6 
#
# 1 0.012565 -0.007989 -0.007103 0.000000 -0.005434 0.000000
# 2 -0.007989 0.030593 -0.001522 0.000000 0.008491 0.000000
# 3 -0.007103 -0.001522 0.015859 0.000000 0.004068 0.000000
# 4 0.000000 0.000000 0.000000 0.031867 0.000000 -0.000311
# 5 -0.005434 0.008491 0.004068 0.000000 0.036243 0.000000
# 6 0.000000 0.000000 0.000000 -0.000311 0.000000 0.028901
#
#
# Mechanical properties :
#
#
# Convention : Reuss Voigt Hill
#
# Bulk Modulus (GPa) = 38.77519 61.47152 50.12335
# Shear Modulus (GPa) = 25.27146 29.84166 27.55656
#
# Velocity S-wave (km/s) = 3.65506 3.97183 3.81673
# Velocity P-wave (km/s) = 6.18955 7.31642 6.77645
#
# Compressibility (1/GPa) = 0.02578969
#
# Stress axis : x y z
#
# Youngs Moduli (GPa) = 79.58798 32.68773 63.05402
#
# Poissons Ratio (x) = 0.26114 0.44785
# Poissons Ratio (y) = 0.63582 0.09596
# Poissons Ratio (z) = 0.56528 0.04975
#
# Static dielectric constant tensor:
#      x y z
#    x 3.644430 0.000000 -0.099960 
#    y 0.000000 3.518860 0.000000 
#    z -0.099960 0.000000 3.137260 
# 
# 
# High freq. dielectric constant tensor:
#      x y z
#    x 1.746610 0.000000 -0.000980 
#    y 0.000000 1.735100 0.000000 
#    z -0.000980 0.000000 1.722650 
# 
# From -- ./inp_files/28570.got.cif
#   From: 2010.06.25/outbox.cif.g09.slc.cpg/sg11_15_cif.got.tgz:28570.got - 2010.06.27 23:14:04.
