data_PCOD8072530
_publ_section_title
;
Structure prediction by ZEFSAII (Michael W. Deem and Ramdas Pophale) SiO2 
 PCOD8072530
Probable space group: P 21/M
;
_chemical_formula_sum "Si O2"
_cell_formula_units_Z 32
_cell_length_a 15.132733
_cell_length_b 9.368589
_cell_length_c 23.152708
_cell_angle_alpha 90.000000
_cell_angle_beta 27.522746
_cell_angle_gamma 90.000000
_cell_volume 1516.805833
_symmetry_space_group_name_H-M "P 21/M"
_symmetry_group_IT_number 11
_symmetry_cell_setting 'monoclinic'
loop_
_space_group_symop_operation_xyz
x,y,z
-x,1/2+y,-z
-x,-y,-z
x,1/2-y,z
loop_
_atom_site_type_symbol
_atom_site_label
_atom_site_fract_x
_atom_site_fract_y
_atom_site_fract_z
Si Si1 0.951359 0.421168 0.158928
Si Si2 0.164161 0.096649 0.430130
Si Si3 0.701690 0.910193 0.117168
Si Si4 0.798112 0.919917 0.789113
Si Si5 0.810309 0.091234 0.893474
Si Si6 0.450682 0.038504 0.172225
Si Si7 0.784436 0.089718 0.493401
Si Si8 0.630328 0.914237 0.285920
O O1 0.946479 0.250000 0.170719
O O2 0.018920 0.496900 0.178775
O O3 0.744530 0.482270 0.262634
O O4 0.099455 0.471884 0.023256
O O5 0.078537 0.250000 0.498213
O O6 0.326703 0.131908 0.288410
O O7 0.251774 0.019416 0.434176
O O8 0.000000 0.000000 0.500000
O O9 0.739232 0.750000 0.111848
O O10 0.649852 0.979416 0.209176
O O11 0.535428 0.913141 0.164144
O O12 0.746324 0.750000 0.820295
O O13 0.692931 0.001241 0.797000
O O14 0.025935 0.945477 0.652731
O O15 0.729178 0.000848 0.886432
O O16 0.884322 0.250000 0.833069
O O17 0.633998 0.117798 0.039416
O O18 0.801730 0.250000 0.509329
O O19 0.593112 0.078117 0.565400
O O20 0.702719 0.750000 0.249455
#
# Coordination Sequence:
#
# PCOD8072530 Si02
#       8
#     4   4   4   4   4   4   4   4
#     4  10  21  38  59  87 119 156 197 249 305 357
#     4  12  23  37  58  87 124 164 202 242 294 356
#     4   9  19  34  56  88 125 160 198 240 294 359
#     4  11  23  42  62  85 121 162 202 249 302 354
#     4  11  24  42  63  89 117 155 207 257 300 353
#     4  11  22  38  61  91 125 164 199 242 298 355
#     4  10  22  40  61  87 123 161 199 245 300 357
#     4  10  19  36  60  88 119 157 197 243 299 359
#
# _framework density 21.096965999999998
#
# number of rings (size 3 to 8) (size 9 to 14) (size 15 to 20)
#    0.000    1.500    2.500    3.000    0.000    2.500 
#    0.000    1.250    0.000    0.000    0.000    0.000 
#    0.000    0.000    0.000    0.000    0.000    0.000 
#
# Total GULP energy -396424.759753 kJ/mol
# GULP energy per Si atom -12388.273742 kJ/mol
# Density = 2.104895 g / cm^3
# Si number density = 21.096966 Si / 1000 Ang^3
#
#
#
# Elastic Constant Matrix: (Units=GPa)
#
#
# Indices 1 2 3 4 5 6 
#
# 1 93.3293 44.0282 25.5151 0.0000 -12.8287 0.0000
# 2 44.0282 104.2903 32.7321 0.0000 -7.9264 0.0000
# 3 25.5151 32.7321 68.4412 0.0000 -15.4414 0.0000
# 4 0.0000 0.0000 0.0000 14.6082 0.0000 -6.2416
# 5 -12.8287 -7.9264 -15.4414 0.0000 36.0119 0.0000
# 6 0.0000 0.0000 0.0000 -6.2416 0.0000 22.3516
#
#
#
# Elastic Compliance Matrix: (Units=1/GPa)
#
#
# Indices 1 2 3 4 5 6 
#
# 1 0.014097 -0.005044 -0.002171 0.000000 0.002981 0.000000
# 2 -0.005044 0.013088 -0.004577 0.000000 -0.000879 0.000000
# 3 -0.002171 -0.004577 0.019051 0.000000 0.006388 0.000000
# 4 0.000000 0.000000 0.000000 0.077729 0.000000 0.021705
# 5 0.002981 -0.000879 0.006388 0.000000 0.031376 0.000000
# 6 0.000000 0.000000 0.000000 0.021705 0.000000 0.050801
#
#
# Mechanical properties :
#
#
# Convention : Reuss Voigt Hill
#
# Bulk Modulus (GPa) = 44.14548 52.29019 48.21784
# Shear Modulus (GPa) = 21.07260 25.51337 23.29299
#
# Velocity S-wave (km/s) = 3.16388 3.48133 3.32639
# Velocity P-wave (km/s) = 5.85810 6.40304 6.13662
#
# Compressibility (1/GPa) = 0.02265237
#
# Stress axis : x y z
#
# Youngs Moduli (GPa) = 70.93565 76.40801 52.49163
#
# Poissons Ratio (x) = 0.38537 0.11395
# Poissons Ratio (y) = 0.35777 0.24026
# Poissons Ratio (z) = 0.15399 0.34973
#
# Static dielectric constant tensor:
#      x y z
#    x 3.810060 0.000000 -0.024650 
#    y 0.000000 3.585750 0.000000 
#    z -0.024650 0.000000 3.883610 
# 
# 
# High freq. dielectric constant tensor:
#      x y z
#    x 1.818170 0.000000 -0.011660 
#    y 0.000000 1.812100 0.000000 
#    z -0.011660 0.000000 1.822560 
# 
# From -- ./inp_files/69064.got.cif
#   From: 2010.06.25/outbox.cif.g09.slc.cpg/sg11_35_cif.got.tgz:69064.got - 2010.06.27 23:14:04.
