data_PCOD8072606
_publ_section_title
;
Structure prediction by ZEFSAII (Michael W. Deem and Ramdas Pophale) SiO2 
 PCOD8072606
Probable space group: P 21/M
;
_chemical_formula_sum "Si O2"
_cell_formula_units_Z 32
_cell_length_a 11.974467
_cell_length_b 9.032000
_cell_length_c 15.281468
_cell_angle_alpha 90.000000
_cell_angle_beta 93.623323
_cell_angle_gamma 90.000000
_cell_volume 1649.438816
_symmetry_space_group_name_H-M "P 21/M"
_symmetry_group_IT_number 11
_symmetry_cell_setting 'monoclinic'
loop_
_space_group_symop_operation_xyz
x,y,z
-x,1/2+y,-z
-x,-y,-z
x,1/2-y,z
loop_
_atom_site_type_symbol
_atom_site_label
_atom_site_fract_x
_atom_site_fract_y
_atom_site_fract_z
Si Si1 0.941914 0.578400 0.870908
Si Si2 0.830820 0.078349 0.021368
Si Si3 0.558869 0.425134 0.585141
Si Si4 0.432759 0.921329 0.731408
Si Si5 0.585236 0.424186 0.070201
Si Si6 0.802869 0.424680 0.548575
Si Si7 0.187905 0.577849 0.646696
Si Si8 0.024343 0.925335 0.300865
O O1 0.918412 0.750000 0.853782
O O2 0.854090 0.520689 0.937867
O O3 0.915942 0.489129 0.781781
O O4 0.070635 0.549303 0.904165
O O5 0.829064 0.250000 0.993394
O O6 0.712949 0.027630 0.056698
O O7 0.500000 0.500000 0.500000
O O8 0.542310 0.250000 0.576336
O O9 0.512843 0.480046 0.675603
O O10 0.688091 0.473578 0.588805
O O11 0.465199 0.750000 0.720416
O O12 0.446073 0.971920 0.832629
O O13 0.306418 0.949026 0.696462
O O14 0.573241 0.250000 0.058392
O O15 0.500000 0.500000 0.000000
O O16 0.804739 0.250000 0.539905
O O17 0.811421 0.489998 0.451207
O O18 0.905997 0.482278 0.611597
O O19 0.154395 0.750000 0.646898
O O20 0.100287 0.487363 0.699687
O O21 0.022920 0.750000 0.294513
#
# Coordination Sequence:
#
# PCOD8072606 Si02
#       8
#     4   4   4   4   4   4   4   4
#     4  10  20  36  59  85 111 145 185 230 283 339
#     4   9  19  38  61  82 108 146 189 233 282 335
#     4  11  21  38  61  85 113 149 193 239 285 336
#     4  10  21  39  62  86 114 152 193 237 288 342
#     4  10  22  39  59  84 117 154 192 236 290 344
#     4   9  20  37  56  78 111 152 186 228 284 333
#     4  10  19  37  60  79 109 150 190 234 283 334
#     4  11  22  35  53  83 118 148 185 229 277 339
#
# _framework density 19.400538000000001
#
# number of rings (size 3 to 8) (size 9 to 14) (size 15 to 20)
#    0.000    2.000    1.250    2.250    0.000    5.000 
#    0.000    8.125    0.000    0.000    0.000    0.000 
#    0.000    0.000    0.000    0.000    0.000    0.000 
#
# Total GULP energy -396880.263187 kJ/mol
# GULP energy per Si atom -12402.508225 kJ/mol
# Density = 1.935638 g / cm^3
# Si number density = 19.400538 Si / 1000 Ang^3
#
#
#
# Elastic Constant Matrix: (Units=GPa)
#
#
# Indices 1 2 3 4 5 6 
#
# 1 63.7805 26.3378 31.1062 0.0000 -16.1396 0.0000
# 2 26.3378 61.2331 43.1270 0.0000 -6.5367 0.0000
# 3 31.1062 43.1270 138.3737 0.0000 -6.7397 0.0000
# 4 0.0000 0.0000 0.0000 36.2705 0.0000 -4.4589
# 5 -16.1396 -6.5367 -6.7397 0.0000 30.1710 0.0000
# 6 0.0000 0.0000 0.0000 -4.4589 0.0000 30.3612
#
#
#
# Elastic Compliance Matrix: (Units=1/GPa)
#
#
# Indices 1 2 3 4 5 6 
#
# 1 0.022134 -0.006795 -0.002379 0.000000 0.009837 0.000000
# 2 -0.006795 0.023303 -0.005729 0.000000 0.000134 0.000000
# 3 -0.002379 -0.005729 0.009528 0.000000 -0.000385 0.000000
# 4 0.000000 0.000000 0.000000 0.028078 0.000000 0.004124
# 5 0.009837 0.000134 -0.000385 0.000000 0.038350 0.000000
# 6 0.000000 0.000000 0.000000 0.004124 0.000000 0.033542
#
#
# Mechanical properties :
#
#
# Convention : Reuss Voigt Hill
#
# Bulk Modulus (GPa) = 39.74526 51.61436 45.67981
# Shear Modulus (GPa) = 25.88979 30.21496 28.05237
#
# Velocity S-wave (km/s) = 3.65703 3.95071 3.80670
# Velocity P-wave (km/s) = 6.19378 6.89008 6.55119
#
# Compressibility (1/GPa) = 0.02516023
#
# Stress axis : x y z
#
# Youngs Moduli (GPa) = 45.17925 42.91324 104.95047
#
# Poissons Ratio (x) = 0.29159 0.24966
# Poissons Ratio (y) = 0.30699 0.60124
# Poissons Ratio (z) = 0.10747 0.24584
#
# Static dielectric constant tensor:
#      x y z
#    x 3.602240 0.000000 -0.026990 
#    y 0.000000 3.390720 0.000000 
#    z -0.026990 0.000000 3.753400 
# 
# 
# High freq. dielectric constant tensor:
#      x y z
#    x 1.756330 0.000000 -0.006150 
#    y 0.000000 1.741760 0.000000 
#    z -0.006150 0.000000 1.767920 
# 
# From -- ./inp_files/49408.got.cif
#   From: 2010.06.25/outbox.cif.g09.slc.cpg/sg11_25_cif.got.tgz:49408.got - 2010.06.27 23:14:04.
