data_PCOD8072263
_publ_section_title
;
Structure prediction by ZEFSAII (Michael W. Deem and Ramdas Pophale) SiO2 
 PCOD8072263
Probable space group: P 21/M
;
_chemical_formula_sum "Si O2"
_cell_formula_units_Z 28
_cell_length_a 9.306365
_cell_length_b 13.614245
_cell_length_c 13.358213
_cell_angle_alpha 90.000000
_cell_angle_beta 118.476490
_cell_angle_gamma 90.000000
_cell_volume 1487.706367
_symmetry_space_group_name_H-M "P 21/M"
_symmetry_group_IT_number 11
_symmetry_cell_setting 'monoclinic'
loop_
_space_group_symop_operation_xyz
x,y,z
-x,1/2+y,-z
-x,-y,-z
x,1/2-y,z
loop_
_atom_site_type_symbol
_atom_site_label
_atom_site_fract_x
_atom_site_fract_y
_atom_site_fract_z
Si Si1 0.625101 0.361206 0.574672
Si Si2 0.226335 0.863463 0.827081
Si Si3 0.106465 0.480466 0.937788
Si Si4 0.590497 0.635680 0.880851
Si Si5 0.488726 0.528940 0.651816
Si Si6 0.855985 0.500084 0.373057
Si Si7 0.005349 0.639635 0.276313
O O1 0.572928 0.250000 0.584466
O O2 0.589236 0.431638 0.656590
O O3 0.523301 0.396018 0.444686
O O4 0.817084 0.365938 0.613311
O O5 0.178363 0.750000 0.820786
O O6 0.421319 0.878665 0.884285
O O7 0.160805 0.917361 0.904562
O O8 0.140833 0.903764 0.697164
O O9 0.989736 0.420057 0.825166
O O10 0.267195 0.416099 0.010196
O O11 0.000000 0.500000 0.000000
O O12 0.631295 0.750000 0.880008
O O13 0.583045 0.585588 0.769947
O O14 0.311957 0.490844 0.624462
O O15 0.000000 0.500000 0.500000
O O16 0.872356 0.595096 0.307792
O O17 0.951581 0.750000 0.235164
#
# Coordination Sequence:
#
# PCOD8072263 Si02
#       7
#     4   4   4   4   4   4   4
#     4  10  20  35  54  77 110 147 183 224 278 337
#     4   9  21  38  58  83 112 148 194 234 279 334
#     4  11  22  37  58  82 117 147 187 232 287 327
#     4  10  20  37  59  82 108 148 192 232 277 332
#     4  10  20  35  57  79 112 142 189 229 279 328
#     4  10  19  35  57  83 111 144 181 230 280 328
#     4  10  21  36  55  80 110 146 183 226 280 334
#
# _framework density 18.820917000000001
#
# number of rings (size 3 to 8) (size 9 to 14) (size 15 to 20)
#    0.000    2.000    1.429    2.143    0.000    2.857 
#    0.000    0.714    0.000    0.000    0.000    0.000 
#    0.000    0.000    0.000    0.000    0.000    0.000 
#
# Total GULP energy -347256.275913 kJ/mol
# GULP energy per Si atom -12402.009854 kJ/mol
# Density = 1.877808 g / cm^3
# Si number density = 18.820917 Si / 1000 Ang^3
#
#
#
# Elastic Constant Matrix: (Units=GPa)
#
#
# Indices 1 2 3 4 5 6 
#
# 1 78.0761 55.6542 24.9193 0.0000 -13.8162 0.0000
# 2 55.6542 159.9598 37.4111 0.0000 -9.9670 0.0000
# 3 24.9193 37.4111 71.7645 0.0000 -2.2668 0.0000
# 4 0.0000 0.0000 0.0000 21.9041 0.0000 2.2051
# 5 -13.8162 -9.9670 -2.2668 0.0000 32.6168 0.0000
# 6 0.0000 0.0000 0.0000 2.2051 0.0000 27.7462
#
#
#
# Elastic Compliance Matrix: (Units=1/GPa)
#
#
# Indices 1 2 3 4 5 6 
#
# 1 0.018829 -0.005338 -0.003563 0.000000 0.006097 0.000000
# 2 -0.005338 0.008755 -0.002703 0.000000 0.000226 0.000000
# 3 -0.003563 -0.002703 0.016543 0.000000 -0.001186 0.000000
# 4 0.000000 0.000000 0.000000 0.046022 0.000000 -0.003658
# 5 0.006097 0.000226 -0.001186 0.000000 0.033229 0.000000
# 6 0.000000 0.000000 0.000000 -0.003658 0.000000 0.036332
#
#
# Mechanical properties :
#
#
# Convention : Reuss Voigt Hill
#
# Bulk Modulus (GPa) = 47.80284 60.64105 54.22195
# Shear Modulus (GPa) = 26.33087 29.24114 27.78600
#
# Velocity S-wave (km/s) = 3.74441 3.94591 3.84648
# Velocity P-wave (km/s) = 6.64440 7.28356 6.97131
#
# Compressibility (1/GPa) = 0.02091926
#
# Stress axis : x y z
#
# Youngs Moduli (GPa) = 53.10936 114.21840 60.44675
#
# Poissons Ratio (x) = 0.60969 0.21536
# Poissons Ratio (y) = 0.28349 0.16341
# Poissons Ratio (z) = 0.18922 0.30878
#
# Static dielectric constant tensor:
#      x y z
#    x 3.407800 0.000000 0.015230 
#    y 0.000000 3.535290 0.000000 
#    z 0.015230 0.000000 3.530980 
# 
# 
# High freq. dielectric constant tensor:
#      x y z
#    x 1.726770 0.000000 -0.000880 
#    y 0.000000 1.737380 0.000000 
#    z -0.000880 0.000000 1.736990 
# 
# From -- ./inp_files/22288.got.cif
#   From: 2010.06.25/outbox.cif.g09.slc.cpg/sg11_12_cif.got.tgz:22288.got - 2010.06.27 23:14:04.
