data_PCOD8072217
_publ_section_title
;
Structure prediction by ZEFSAII (Michael W. Deem and Ramdas Pophale) SiO2 
 PCOD8072217
Probable space group: P 21/M
;
_chemical_formula_sum "Si O2"
_cell_formula_units_Z 28
_cell_length_a 14.223861
_cell_length_b 9.223201
_cell_length_c 21.118191
_cell_angle_alpha 90.000000
_cell_angle_beta 32.145619
_cell_angle_gamma 90.000000
_cell_volume 1474.100246
_symmetry_space_group_name_H-M "P 21/M"
_symmetry_group_IT_number 11
_symmetry_cell_setting 'monoclinic'
loop_
_space_group_symop_operation_xyz
x,y,z
-x,1/2+y,-z
-x,-y,-z
x,1/2-y,z
loop_
_atom_site_type_symbol
_atom_site_label
_atom_site_fract_x
_atom_site_fract_y
_atom_site_fract_z
Si Si1 0.271916 0.081824 0.084453
Si Si2 0.852361 0.921963 0.126168
Si Si3 0.067226 0.584669 0.794481
Si Si4 0.628477 0.416164 0.472318
Si Si5 0.185384 0.922151 0.388210
Si Si6 0.665505 0.080749 0.831248
Si Si7 0.451865 0.578794 0.343071
O O1 0.264728 0.250000 0.105795
O O2 0.133552 0.044341 0.108095
O O3 0.225562 0.997490 0.175362
O O4 0.461119 0.033131 0.949991
O O5 0.882570 0.750000 0.106000
O O6 0.656300 0.964827 0.213243
O O7 0.864857 0.974403 0.191373
O O8 0.000000 0.000000 0.000000
O O9 0.082127 0.750000 0.811631
O O10 0.175105 0.567358 0.667513
O O11 0.500000 0.500000 0.500000
O O12 0.566075 0.250000 0.509389
O O13 0.615673 0.481947 0.550505
O O14 0.160310 0.750000 0.408343
O O15 0.261498 0.969447 0.277428
O O16 0.323016 0.983047 0.362203
O O17 0.000000 0.000000 0.500000
O O18 0.688261 0.250000 0.828820
O O19 0.435771 0.750000 0.351969
#
# Coordination Sequence:
#
# PCOD8072217 Si02
#       7
#     4   4   4   4   4   4   4
#     4   9  19  35  58  83 109 145 184 228 279 333
#     4  11  23  39  60  85 116 153 191 232 281 340
#     4  10  21  35  58  87 113 145 188 232 277 334
#     4  10  19  35  56  82 111 142 183 227 270 327
#     4  10  22  39  59  82 110 148 191 234 279 336
#     4   9  19  36  56  80 110 143 184 231 282 332
#     4   9  20  38  60  81 110 153 189 223 282 344
#
# _framework density 18.994637999999998
#
# number of rings (size 3 to 8) (size 9 to 14) (size 15 to 20)
#    0.000    2.286    1.429    0.429    4.000    1.143 
#    0.000    2.143    0.000    0.000    0.000    0.000 
#    0.000    0.000    0.000    0.000    0.000    0.000 
#
# Total GULP energy -347189.063396 kJ/mol
# GULP energy per Si atom -12399.609407 kJ/mol
# Density = 1.895141 g / cm^3
# Si number density = 18.994638 Si / 1000 Ang^3
#
#
#
# Elastic Constant Matrix: (Units=GPa)
#
#
# Indices 1 2 3 4 5 6 
#
# 1 137.3416 43.6639 71.9543 0.0000 -1.5718 0.0000
# 2 43.6639 48.3365 41.7815 0.0000 0.4767 0.0000
# 3 71.9543 41.7815 124.9095 0.0000 6.5199 0.0000
# 4 0.0000 0.0000 0.0000 30.0720 0.0000 1.6080
# 5 -1.5718 0.4767 6.5199 0.0000 34.9307 0.0000
# 6 0.0000 0.0000 0.0000 1.6080 0.0000 31.2427
#
#
#
# Elastic Compliance Matrix: (Units=1/GPa)
#
#
# Indices 1 2 3 4 5 6 
#
# 1 0.011881 -0.006701 -0.004681 0.000000 0.001500 0.000000
# 2 -0.006701 0.032954 -0.007194 0.000000 0.000591 0.000000
# 3 -0.004681 -0.007194 0.013243 0.000000 -0.002584 0.000000
# 4 0.000000 0.000000 0.000000 0.033345 0.000000 -0.001716
# 5 0.001500 0.000591 -0.002584 0.000000 0.029170 0.000000
# 6 0.000000 0.000000 0.000000 -0.001716 0.000000 0.032096
#
#
# Mechanical properties :
#
#
# Convention : Reuss Voigt Hill
#
# Bulk Modulus (GPa) = 47.78504 69.48744 58.63624
# Shear Modulus (GPa) = 25.40440 29.46161 27.43300
#
# Velocity S-wave (km/s) = 3.66109 3.94261 3.80445
# Velocity P-wave (km/s) = 6.56377 7.57546 7.08769
#
# Compressibility (1/GPa) = 0.02092705
#
# Stress axis : x y z
#
# Youngs Moduli (GPa) = 84.16723 30.34536 75.50990
#
# Poissons Ratio (x) = 0.20335 0.35345
# Poissons Ratio (y) = 0.56403 0.54318
# Poissons Ratio (z) = 0.39398 0.21829
#
# Static dielectric constant tensor:
#      x y z
#    x 3.701180 0.000000 0.064850 
#    y 0.000000 3.323720 0.000000 
#    z 0.064850 0.000000 3.850430 
# 
# 
# High freq. dielectric constant tensor:
#      x y z
#    x 1.743010 0.000000 0.000040 
#    y 0.000000 1.716550 0.000000 
#    z 0.000040 0.000000 1.749710 
# 
# From -- ./inp_files/37705.got.cif
#   From: 2010.06.25/outbox.cif.g09.slc.cpg/sg11_19_cif.got.tgz:37705.got - 2010.06.27 23:14:04.
