data_PCOD8072317
_publ_section_title
;
Structure prediction by ZEFSAII (Michael W. Deem and Ramdas Pophale) SiO2 
 PCOD8072317
Probable space group: P 21/M
;
_chemical_formula_sum "Si O2"
_cell_formula_units_Z 32
_cell_length_a 14.349653
_cell_length_b 8.844732
_cell_length_c 12.593273
_cell_angle_alpha 90.000000
_cell_angle_beta 82.555436
_cell_angle_gamma 90.000000
_cell_volume 1584.850769
_symmetry_space_group_name_H-M "P 21/M"
_symmetry_group_IT_number 11
_symmetry_cell_setting 'monoclinic'
loop_
_space_group_symop_operation_xyz
x,y,z
-x,1/2+y,-z
-x,-y,-z
x,1/2-y,z
loop_
_atom_site_type_symbol
_atom_site_label
_atom_site_fract_x
_atom_site_fract_y
_atom_site_fract_z
Si Si1 0.898699 0.071298 0.492210
Si Si2 0.823738 0.428686 0.272314
Si Si3 0.629888 0.072456 0.214416
Si Si4 0.570178 0.925337 0.785248
Si Si5 0.226385 0.429570 0.311832
Si Si6 0.602301 0.083588 0.987242
Si Si7 0.805134 0.082880 0.889301
Si Si8 0.094068 0.428932 0.942820
O O1 0.906130 0.250000 0.506727
O O2 0.864081 0.026929 0.380212
O O3 0.817942 0.005347 0.578826
O O4 0.000000 0.000000 0.500000
O O5 0.829810 0.250000 0.251536
O O6 0.715001 0.489717 0.275209
O O7 0.888802 0.513123 0.178371
O O8 0.645545 0.250000 0.203917
O O9 0.522986 0.037227 0.272817
O O10 0.634356 0.006706 0.093793
O O11 0.587724 0.750000 0.796156
O O12 0.664531 0.986853 0.714726
O O13 0.541514 0.981618 0.911668
O O14 0.216903 0.250000 0.321519
O O15 0.165753 0.488261 0.219819
O O16 0.557112 0.250000 0.011421
O O17 0.694142 0.102623 0.900910
O O18 0.853956 0.250000 0.882543
O O19 0.825398 0.988012 0.991609
O O20 0.088947 0.250000 0.944239
O O21 0.000000 0.500000 0.000000
#
# Coordination Sequence:
#
# PCOD8072317 Si02
#       8
#     4   4   4   4   4   4   4   4
#     4  11  25  44  68  89 112 151 200 255 308 363
#     4  10  22  43  65  87 117 155 203 251 301 360
#     4   9  16  32  56  82 115 155 197 240 294 350
#     4   9  18  31  53  84 118 157 197 240 287 344
#     4  10  21  38  59  87 124 158 199 248 296 354
#     4   9  16  28  50  78 115 158 194 236 283 339
#     4  10  19  35  58  85 118 157 199 243 293 347
#     4  12  25  39  59  87 122 158 194 239 300 366
#
# _framework density 20.191175000000001
#
# number of rings (size 3 to 8) (size 9 to 14) (size 15 to 20)
#    0.000    2.000    1.250    2.625    1.750    2.000 
#    0.000    1.250    0.000    0.000    0.000    0.000 
#    0.000    0.000    0.000    0.000    0.000    0.000 
#
# Total GULP energy -396473.212924 kJ/mol
# GULP energy per Si atom -12389.787904 kJ/mol
# Density = 2.014522 g / cm^3
# Si number density = 20.191175 Si / 1000 Ang^3
#
#
#
# Elastic Constant Matrix: (Units=GPa)
#
#
# Indices 1 2 3 4 5 6 
#
# 1 134.4510 40.8552 73.2543 0.0000 7.2440 0.0000
# 2 40.8552 88.4708 63.1831 0.0000 6.4411 0.0000
# 3 73.2543 63.1831 141.0323 0.0000 3.2920 0.0000
# 4 0.0000 0.0000 0.0000 31.0700 0.0000 -2.5057
# 5 7.2440 6.4411 3.2920 0.0000 33.1664 0.0000
# 6 0.0000 0.0000 0.0000 -2.5057 0.0000 25.7108
#
#
#
# Elastic Compliance Matrix: (Units=1/GPa)
#
#
# Indices 1 2 3 4 5 6 
#
# 1 0.010571 -0.001282 -0.004879 0.000000 -0.001575 0.000000
# 2 -0.001282 0.016985 -0.006889 0.000000 -0.002335 0.000000
# 3 -0.004879 -0.006889 0.012685 0.000000 0.001145 0.000000
# 4 0.000000 0.000000 0.000000 0.032440 0.000000 0.003162
# 5 -0.001575 -0.002335 0.001145 0.000000 0.030835 0.000000
# 6 0.000000 0.000000 0.000000 0.003162 0.000000 0.039202
#
#
# Mechanical properties :
#
#
# Convention : Reuss Voigt Hill
#
# Bulk Modulus (GPa) = 70.72411 79.83771 75.28091
# Shear Modulus (GPa) = 28.81316 30.43354 29.62335
#
# Velocity S-wave (km/s) = 3.78169 3.88657 3.83449
# Velocity P-wave (km/s) = 7.36013 7.73093 7.54781
#
# Compressibility (1/GPa) = 0.01413945
#
# Stress axis : x y z
#
# Youngs Moduli (GPa) = 94.60209 58.87516 78.83565
#
# Poissons Ratio (x) = 0.07548 0.38467
# Poissons Ratio (y) = 0.12128 0.54310
# Poissons Ratio (z) = 0.46160 0.40559
#
# Static dielectric constant tensor:
#      x y z
#    x 4.214820 0.000000 0.198290 
#    y 0.000000 4.100930 0.000000 
#    z 0.198290 0.000000 3.737130 
# 
# 
# High freq. dielectric constant tensor:
#      x y z
#    x 1.809500 0.000000 -0.004050 
#    y 0.000000 1.776100 0.000000 
#    z -0.004050 0.000000 1.768310 
# 
# From -- ./inp_files/38203.got.cif
#   From: 2010.06.25/outbox.cif.g09.slc.cpg/sg11_20_cif.got.tgz:38203.got - 2010.06.27 23:14:04.
