data_PCOD8072094
_publ_section_title
;
Structure prediction by ZEFSAII (Michael W. Deem and Ramdas Pophale) SiO2 
 PCOD8072094
Probable space group: P 21/M
;
_chemical_formula_sum "Si O2"
_cell_formula_units_Z 32
_cell_length_a 19.892388
_cell_length_b 8.904258
_cell_length_c 25.885286
_cell_angle_alpha 90.000000
_cell_angle_beta 159.114895
_cell_angle_gamma 90.000000
_cell_volume 1634.523692
_symmetry_space_group_name_H-M "P 21/M"
_symmetry_group_IT_number 11
_symmetry_cell_setting 'monoclinic'
loop_
_space_group_symop_operation_xyz
x,y,z
-x,1/2+y,-z
-x,-y,-z
x,1/2-y,z
loop_
_atom_site_type_symbol
_atom_site_label
_atom_site_fract_x
_atom_site_fract_y
_atom_site_fract_z
Si Si1 0.315330 0.925956 0.390283
Si Si2 0.348623 0.578901 0.678128
Si Si3 0.681142 0.926685 0.105220
Si Si4 0.675371 0.575267 0.982979
Si Si5 0.946662 0.421920 0.097041
Si Si6 0.054285 0.076910 0.405255
Si Si7 0.390797 0.919997 0.210687
Si Si8 0.328132 0.419624 0.505839
O O1 0.334166 0.750000 0.397734
O O2 0.500000 0.000000 0.500000
O O3 0.135325 0.980648 0.228449
O O4 0.289445 0.966804 0.431771
O O5 0.280804 0.750000 0.624733
O O6 0.167775 0.473133 0.538426
O O7 0.506473 0.546851 0.748510
O O8 0.455247 0.548212 0.809053
O O9 0.661960 0.750000 0.096567
O O10 0.697456 0.977036 0.057511
O O11 0.865242 0.981206 0.267460
O O12 0.500000 0.000000 0.000000
O O13 0.729236 0.750000 0.013668
O O14 0.816720 0.474632 0.051149
O O15 0.003168 0.250000 0.147853
O O16 0.833076 0.438467 0.960840
O O17 0.000050 0.250000 0.371445
O O18 0.182013 0.044277 0.446762
O O19 0.453966 0.750000 0.238746
O O20 0.457086 0.941079 0.317888
O O21 0.300769 0.250000 0.465679
#
# Coordination Sequence:
#
# PCOD8072094 Si02
#       8
#     4   4   4   4   4   4   4   4
#     4  12  25  39  54  75 106 143 182 221 263 311
#     4   9  16  29  52  81 109 135 169 215 263 309
#     4  11  23  38  54  75 106 142 181 223 267 315
#     4   9  19  35  56  82 109 138 175 219 264 313
#     4  10  19  34  58  85 110 138 174 215 262 316
#     4  10  20  35  56  82 110 140 175 215 261 314
#     4   8  16  31  53  81 110 137 168 211 261 312
#     4   9  18  35  58  83 109 137 172 215 261 310
#
# _framework density 19.577567999999999
#
# number of rings (size 3 to 8) (size 9 to 14) (size 15 to 20)
#    0.000    2.250    0.000    4.125    0.000    6.500 
#    0.000    1.250    0.000    0.000    0.000    0.000 
#    0.000    0.000    0.000    0.000    0.000    0.000 
#
# Total GULP energy -396692.230689 kJ/mol
# GULP energy per Si atom -12396.632209 kJ/mol
# Density = 1.953301 g / cm^3
# Si number density = 19.577568 Si / 1000 Ang^3
#
#
#
# Elastic Constant Matrix: (Units=GPa)
#
#
# Indices 1 2 3 4 5 6 
#
# 1 17.5279 19.3508 24.0466 0.0000 10.5106 0.0000
# 2 19.3508 96.0245 44.6632 0.0000 5.7703 0.0000
# 3 24.0466 44.6632 145.1292 0.0000 1.8736 0.0000
# 4 0.0000 0.0000 0.0000 36.8115 0.0000 2.7277
# 5 10.5106 5.7703 1.8736 0.0000 21.0231 0.0000
# 6 0.0000 0.0000 0.0000 2.7277 0.0000 24.7343
#
#
#
# Elastic Compliance Matrix: (Units=1/GPa)
#
#
# Indices 1 2 3 4 5 6 
#
# 1 0.133485 -0.015537 -0.016548 0.000000 -0.060998 0.000000
# 2 -0.015537 0.014155 -0.001834 0.000000 0.004046 0.000000
# 3 -0.016548 -0.001834 0.010095 0.000000 0.007877 0.000000
# 4 0.000000 0.000000 0.000000 0.027389 0.000000 -0.003020
# 5 -0.060998 0.004046 0.007877 0.000000 0.076250 0.000000
# 6 0.000000 0.000000 0.000000 -0.003020 0.000000 0.040763
#
#
# Mechanical properties :
#
#
# Convention : Reuss Voigt Hill
#
# Bulk Modulus (GPa) = 11.12397 48.31143 29.71770
# Shear Modulus (GPa) = 12.50181 27.88852 20.19516
#
# Velocity S-wave (km/s) = 2.52975 3.77837 3.21525
# Velocity P-wave (km/s) = 3.77190 6.61553 5.38481
#
# Compressibility (1/GPa) = 0.08989593
#
# Stress axis : x y z
#
# Youngs Moduli (GPa) = 7.49146 70.64651 99.05858
#
# Poissons Ratio (x) = 1.09766 1.63925
# Poissons Ratio (y) = 0.11640 0.18167
# Poissons Ratio (z) = 0.12397 0.12957
#
# Static dielectric constant tensor:
#      x y z
#    x 3.206480 0.000000 -0.267130 
#    y 0.000000 3.582430 0.000000 
#    z -0.267130 0.000000 4.047810 
# 
# 
# High freq. dielectric constant tensor:
#      x y z
#    x 1.713740 0.000000 -0.019800 
#    y 0.000000 1.769830 0.000000 
#    z -0.019800 0.000000 1.785390 
# 
# From -- ./inp_files/67059.got.cif
#   From: 2010.06.25/outbox.cif.g09.slc.cpg/sg11_34_cif.got.tgz:67059.got - 2010.06.27 23:14:04.
