data_PCOD8072339
_publ_section_title
;
Structure prediction by ZEFSAII (Michael W. Deem and Ramdas Pophale) SiO2 
 PCOD8072339
Probable space group: P 21/M
;
_chemical_formula_sum "Si O2"
_cell_formula_units_Z 32
_cell_length_a 12.343565
_cell_length_b 8.772161
_cell_length_c 14.981138
_cell_angle_alpha 90.000000
_cell_angle_beta 92.117114
_cell_angle_gamma 90.000000
_cell_volume 1621.046444
_symmetry_space_group_name_H-M "P 21/M"
_symmetry_group_IT_number 11
_symmetry_cell_setting 'monoclinic'
loop_
_space_group_symop_operation_xyz
x,y,z
-x,1/2+y,-z
-x,-y,-z
x,1/2-y,z
loop_
_atom_site_type_symbol
_atom_site_label
_atom_site_fract_x
_atom_site_fract_y
_atom_site_fract_z
Si Si1 0.326257 0.928422 0.520892
Si Si2 0.900490 0.569443 0.443044
Si Si3 0.513751 0.428642 0.630634
Si Si4 0.742656 0.070156 0.935974
Si Si5 0.699145 0.574778 0.115761
Si Si6 0.101164 0.424394 0.761369
Si Si7 0.041412 0.429161 0.093279
Si Si8 0.468643 0.569435 0.169547
O O1 0.304690 0.750000 0.529645
O O2 0.386233 0.970684 0.430320
O O3 0.211678 0.012866 0.518002
O O4 0.403647 0.983346 0.603027
O O5 0.904498 0.750000 0.450504
O O6 0.909032 0.516564 0.340202
O O7 0.000000 0.500000 0.500000
O O8 0.486640 0.250000 0.625602
O O9 0.548911 0.484017 0.729572
O O10 0.753944 0.250000 0.924769
O O11 0.629467 0.007047 0.893354
O O12 0.837934 0.989799 0.883660
O O13 0.752242 0.025824 0.039771
O O14 0.692424 0.750000 0.083266
O O15 0.773236 0.561293 0.205980
O O16 0.581510 0.504968 0.134691
O O17 0.061392 0.250000 0.768720
O O18 0.029406 0.527856 0.823484
O O19 0.041217 0.250000 0.080563
O O20 0.000000 0.500000 0.000000
O O21 0.473714 0.750000 0.166171
#
# Coordination Sequence:
#
# PCOD8072339 Si02
#       8
#     4   4   4   4   4   4   4   4
#     4  10  20  35  59  89 118 150 196 248 299 356
#     4  11  24  42  63  88 122 161 200 247 304 363
#     4   9  18  36  60  84 113 155 198 241 295 356
#     4  11  22  36  56  84 118 156 196 241 294 350
#     4  10  19  35  59  83 112 150 195 243 292 348
#     4  10  22  40  64  89 115 155 201 244 299 358
#     4  12  24  40  62  87 117 152 198 250 298 352
#     4   9  19  35  56  83 115 153 196 237 289 354
#
# _framework density 19.740335000000002
#
# number of rings (size 3 to 8) (size 9 to 14) (size 15 to 20)
#    0.000    1.750    1.250    3.375    0.000    4.500 
#    0.000    6.250    0.000    0.000    0.000    0.000 
#    0.000    0.000    0.000    0.000    0.000    0.000 
#
# Total GULP energy -396903.825533 kJ/mol
# GULP energy per Si atom -12403.244548 kJ/mol
# Density = 1.969540 g / cm^3
# Si number density = 19.740335 Si / 1000 Ang^3
#
#
#
# Elastic Constant Matrix: (Units=GPa)
#
#
# Indices 1 2 3 4 5 6 
#
# 1 153.2112 49.6430 54.1083 0.0000 -0.7215 0.0000
# 2 49.6430 82.9072 32.4479 0.0000 -1.2999 0.0000
# 3 54.1083 32.4479 97.9371 0.0000 6.9990 0.0000
# 4 0.0000 0.0000 0.0000 27.0375 0.0000 -2.2242
# 5 -0.7215 -1.2999 6.9990 0.0000 30.3084 0.0000
# 6 0.0000 0.0000 0.0000 -2.2242 0.0000 34.5269
#
#
#
# Elastic Compliance Matrix: (Units=1/GPa)
#
#
# Indices 1 2 3 4 5 6 
#
# 1 0.009168 -0.003983 -0.003812 0.000000 0.000928 0.000000
# 2 -0.003983 0.015674 -0.003085 0.000000 0.001290 0.000000
# 3 -0.003812 -0.003085 0.013579 0.000000 -0.003359 0.000000
# 4 0.000000 0.000000 0.000000 0.037183 0.000000 0.002395
# 5 0.000928 0.001290 -0.003359 0.000000 0.033847 0.000000
# 6 0.000000 0.000000 0.000000 0.002395 0.000000 0.029117
#
#
# Mechanical properties :
#
#
# Convention : Reuss Voigt Hill
#
# Bulk Modulus (GPa) = 60.01812 67.38377 63.70095
# Shear Modulus (GPa) = 30.14206 31.56498 30.85352
#
# Velocity S-wave (km/s) = 3.91183 4.00310 3.95773
# Velocity P-wave (km/s) = 7.13253 7.45490 7.29550
#
# Compressibility (1/GPa) = 0.01666163
#
# Stress axis : x y z
#
# Youngs Moduli (GPa) = 109.07340 63.79898 73.64555
#
# Poissons Ratio (x) = 0.25413 0.28072
# Poissons Ratio (y) = 0.43447 0.22716
# Poissons Ratio (z) = 0.41577 0.19679
#
# Static dielectric constant tensor:
#      x y z
#    x 3.848060 0.000000 0.024260 
#    y 0.000000 3.444770 0.000000 
#    z 0.024260 0.000000 3.664050 
# 
# 
# High freq. dielectric constant tensor:
#      x y z
#    x 1.782260 0.000000 -0.003240 
#    y 0.000000 1.757550 0.000000 
#    z -0.003240 0.000000 1.769840 
# 
# From -- ./inp_files/49345.got.cif
#   From: 2010.06.25/outbox.cif.g09.slc.cpg/sg11_25_cif.got.tgz:49345.got - 2010.06.27 23:14:04.
