data_PCOD8072553
_publ_section_title
;
Structure prediction by ZEFSAII (Michael W. Deem and Ramdas Pophale) SiO2 
 PCOD8072553
Probable space group: P 21/M
;
_chemical_formula_sum "Si O2"
_cell_formula_units_Z 32
_cell_length_a 16.047184
_cell_length_b 20.972403
_cell_length_c 9.063079
_cell_angle_alpha 90.000000
_cell_angle_beta 32.585358
_cell_angle_gamma 90.000000
_cell_volume 1642.681023
_symmetry_space_group_name_H-M "P 21/M"
_symmetry_group_IT_number 11
_symmetry_cell_setting 'monoclinic'
loop_
_space_group_symop_operation_xyz
x,y,z
-x,1/2+y,-z
-x,-y,-z
x,1/2-y,z
loop_
_atom_site_type_symbol
_atom_site_label
_atom_site_fract_x
_atom_site_fract_y
_atom_site_fract_z
Si Si1 0.141830 0.047396 0.779319
Si Si2 0.411022 0.438163 0.574014
Si Si3 0.633837 0.396210 0.992459
Si Si4 0.491202 0.821292 0.394720
Si Si5 0.672585 0.984103 0.782571
Si Si6 0.885393 0.821174 0.326158
Si Si7 0.418794 0.350966 0.058682
Si Si8 0.803962 0.177402 0.981402
O O1 0.237691 0.040673 0.788711
O O2 0.229732 0.018983 0.509629
O O3 0.110795 0.123442 0.803695
O O4 0.000000 0.000000 0.000000
O O5 0.500000 0.500000 0.500000
O O6 0.486904 0.414061 0.310093
O O7 0.402786 0.378229 0.698799
O O8 0.562396 0.359410 0.957983
O O9 0.758141 0.356748 0.898310
O O10 0.731327 0.459421 0.800987
O O11 0.535677 0.750000 0.389382
O O12 0.314893 0.838132 0.706631
O O13 0.508980 0.816921 0.191619
O O14 0.663497 0.915920 0.875949
O O15 0.500000 0.000000 0.000000
O O16 0.921734 0.750000 0.205291
O O17 0.720692 0.813077 0.654576
O O18 0.022249 0.841774 0.233989
O O19 0.795292 0.250000 0.950617
#
# Coordination Sequence:
#
# PCOD8072553 Si02
#       8
#     4   4   4   4   4   4   4   4
#     4  11  24  39  59  92 119 154 201 245 297 360
#     4  11  22  38  61  88 117 158 190 245 301 343
#     4  10  19  36  62  84 113 155 200 241 285 354
#     4  10  22  37  60  91 118 152 203 250 289 352
#     4   9  17  35  58  83 113 149 194 239 284 345
#     4  10  21  40  61  83 119 159 192 240 301 355
#     4  10  19  36  61  87 114 151 198 240 290 347
#     4   9  21  38  57  85 118 153 196 242 299 352
#
# _framework density 19.480350000000001
#
# number of rings (size 3 to 8) (size 9 to 14) (size 15 to 20)
#    0.000    2.000    3.750    1.125    5.250    1.500 
#    2.250    1.250    0.000    0.750    0.000    0.000 
#    0.000    0.000    0.000    0.000    0.000    0.000 
#
# Total GULP energy -396444.601916 kJ/mol
# GULP energy per Si atom -12388.893810 kJ/mol
# Density = 1.943601 g / cm^3
# Si number density = 19.480350 Si / 1000 Ang^3
#
#
#
# Elastic Constant Matrix: (Units=GPa)
#
#
# Indices 1 2 3 4 5 6 
#
# 1 114.1573 62.2661 23.5248 0.0000 -9.5151 0.0000
# 2 62.2661 126.9145 35.5817 0.0000 -5.3040 0.0000
# 3 23.5248 35.5817 48.2733 0.0000 0.9818 0.0000
# 4 0.0000 0.0000 0.0000 26.9395 0.0000 -0.1727
# 5 -9.5151 -5.3040 0.9818 0.0000 30.0991 0.0000
# 6 0.0000 0.0000 0.0000 -0.1727 0.0000 33.8486
#
#
#
# Elastic Compliance Matrix: (Units=1/GPa)
#
#
# Indices 1 2 3 4 5 6 
#
# 1 0.012368 -0.005337 -0.002156 0.000000 0.003040 0.000000
# 2 -0.005337 0.012355 -0.006520 0.000000 0.000703 0.000000
# 3 -0.002156 -0.006520 0.026627 0.000000 -0.002699 0.000000
# 4 0.000000 0.000000 0.000000 0.037121 0.000000 0.000189
# 5 0.003040 0.000703 -0.002699 0.000000 0.034396 0.000000
# 6 0.000000 0.000000 0.000000 0.000189 0.000000 0.029544
#
#
# Mechanical properties :
#
#
# Convention : Reuss Voigt Hill
#
# Bulk Modulus (GPa) = 42.87268 59.12115 50.99691
# Shear Modulus (GPa) = 26.56575 29.37560 27.97067
#
# Velocity S-wave (km/s) = 3.69686 3.88746 3.79336
# Velocity P-wave (km/s) = 6.34652 7.11089 6.73955
#
# Compressibility (1/GPa) = 0.02332488
#
# Stress axis : x y z
#
# Youngs Moduli (GPa) = 80.85200 80.93908 37.55618
#
# Poissons Ratio (x) = 0.43195 0.08096
# Poissons Ratio (y) = 0.43148 0.24488
# Poissons Ratio (z) = 0.17428 0.52775
#
# Static dielectric constant tensor:
#      x y z
#    x 3.714200 0.000000 0.462270 
#    y 0.000000 3.460300 0.000000 
#    z 0.462270 0.000000 4.476750 
# 
# 
# High freq. dielectric constant tensor:
#      x y z
#    x 1.742890 0.000000 0.000520 
#    y 0.000000 1.779340 0.000000 
#    z 0.000520 0.000000 1.739250 
# 
# From -- ./inp_files/23086.got.cif
#   From: 2010.06.25/outbox.cif.g09.slc.cpg/sg11_12_cif.got.tgz:23086.got - 2010.06.27 23:14:04.
