data_PCOD8072349
_publ_section_title
;
Structure prediction by ZEFSAII (Michael W. Deem and Ramdas Pophale) SiO2 
 PCOD8072349
Probable space group: P 21/M
;
_chemical_formula_sum "Si O2"
_cell_formula_units_Z 32
_cell_length_a 14.471086
_cell_length_b 18.766541
_cell_length_c 10.587757
_cell_angle_alpha 90.000000
_cell_angle_beta 143.199617
_cell_angle_gamma 90.000000
_cell_volume 1722.412363
_symmetry_space_group_name_H-M "P 21/M"
_symmetry_group_IT_number 11
_symmetry_cell_setting 'monoclinic'
loop_
_space_group_symop_operation_xyz
x,y,z
-x,1/2+y,-z
-x,-y,-z
x,1/2-y,z
loop_
_atom_site_type_symbol
_atom_site_label
_atom_site_fract_x
_atom_site_fract_y
_atom_site_fract_z
Si Si1 0.897535 0.468702 0.273707
Si Si2 0.927069 0.969387 0.793699
Si Si3 0.399692 0.536849 0.559742
Si Si4 0.758554 0.669852 0.618287
Si Si5 0.272488 0.832058 0.947698
Si Si6 0.595523 0.828513 0.175658
Si Si7 0.456891 0.893221 0.372602
Si Si8 0.590850 0.953034 0.999552
O O1 0.867277 0.383109 0.252692
O O2 0.000000 0.500000 0.500000
O O3 0.969275 0.484199 0.215181
O O4 0.732004 0.505550 0.092287
O O5 0.899518 0.885062 0.789239
O O6 0.768285 0.008694 0.591007
O O7 0.000000 0.000000 0.000000
O O8 0.510943 0.471052 0.648545
O O9 0.391787 0.596570 0.442336
O O10 0.471413 0.572775 0.762195
O O11 0.817467 0.750000 0.710274
O O12 0.698290 0.660861 0.410886
O O13 0.614965 0.652300 0.553393
O O14 0.214969 0.750000 0.885175
O O15 0.416727 0.842505 0.012172
O O16 0.326074 0.853487 0.147871
O O17 0.617342 0.750000 0.143438
O O18 0.657249 0.882998 0.139518
O O19 0.500000 0.000000 0.000000
#
# Coordination Sequence:
#
# PCOD8072349 Si02
#       8
#     4   4   4   4   4   4   4   4
#     4  12  24  37  58  92 120 155 202 246 299 358
#     4  11  24  38  57  86 125 158 192 243 297 355
#     4  10  20  33  59  82 117 149 196 241 293 335
#     4   9  18  35  60  85 115 152 194 243 293 350
#     4  10  19  35  59  85 115 149 193 251 304 352
#     4   9  18  34  58  88 114 144 193 251 298 344
#     4   9  16  33  57  89 109 142 195 250 285 338
#     4  12  20  36  61  85 115 154 204 250 295 349
#
# _framework density 18.578593000000001
#
# number of rings (size 3 to 8) (size 9 to 14) (size 15 to 20)
#    0.000    1.750    2.500    4.875    3.500    0.500 
#    0.000    1.875    0.000    1.500    0.000    0.000 
#    0.000    0.000    0.000    0.000    0.000    0.000 
#
# Total GULP energy -396768.114548 kJ/mol
# GULP energy per Si atom -12399.003580 kJ/mol
# Density = 1.853631 g / cm^3
# Si number density = 18.578593 Si / 1000 Ang^3
#
#
#
# Elastic Constant Matrix: (Units=GPa)
#
#
# Indices 1 2 3 4 5 6 
#
# 1 107.6811 56.2589 33.4440 0.0000 1.2648 0.0000
# 2 56.2589 134.0525 48.8358 0.0000 -6.6627 0.0000
# 3 33.4440 48.8358 79.2115 0.0000 -0.6417 0.0000
# 4 0.0000 0.0000 0.0000 33.8166 0.0000 -2.3683
# 5 1.2648 -6.6627 -0.6417 0.0000 20.5191 0.0000
# 6 0.0000 0.0000 0.0000 -2.3683 0.0000 24.1569
#
#
#
# Elastic Compliance Matrix: (Units=1/GPa)
#
#
# Indices 1 2 3 4 5 6 
#
# 1 0.012397 -0.004387 -0.002548 0.000000 -0.002268 0.000000
# 2 -0.004387 0.011354 -0.005117 0.000000 0.003797 0.000000
# 3 -0.002548 -0.005117 0.016847 0.000000 -0.000978 0.000000
# 4 0.000000 0.000000 0.000000 0.029776 0.000000 0.002919
# 5 -0.002268 0.003797 -0.000978 0.000000 0.050077 0.000000
# 6 0.000000 0.000000 0.000000 0.002919 0.000000 0.041682
#
#
# Mechanical properties :
#
#
# Convention : Reuss Voigt Hill
#
# Bulk Modulus (GPa) = 60.62797 66.44696 63.53747
# Shear Modulus (GPa) = 26.07785 27.85895 26.96840
#
# Velocity S-wave (km/s) = 3.75060 3.87656 3.81410
# Velocity P-wave (km/s) = 7.17357 7.47529 7.32598
#
# Compressibility (1/GPa) = 0.01649404
#
# Stress axis : x y z
#
# Youngs Moduli (GPa) = 80.66642 88.07628 59.35871
#
# Poissons Ratio (x) = 0.38642 0.15122
# Poissons Ratio (y) = 0.35391 0.30372
# Poissons Ratio (z) = 0.20550 0.45067
#
# Static dielectric constant tensor:
#      x y z
#    x 3.485910 0.000000 0.026180 
#    y 0.000000 3.816300 0.000000 
#    z 0.026180 0.000000 3.328750 
# 
# 
# High freq. dielectric constant tensor:
#      x y z
#    x 1.713190 0.000000 0.003370 
#    y 0.000000 1.716540 0.000000 
#    z 0.003370 0.000000 1.709670 
# 
# From -- ./inp_files/40049.got.cif
#   From: 2010.06.25/outbox.cif.g09.slc.cpg/sg11_21_cif.got.tgz:40049.got - 2010.06.27 23:14:04.
