data_PCOD8072778
_publ_section_title
;
Structure prediction by ZEFSAII (Michael W. Deem and Ramdas Pophale) SiO2 
 PCOD8072778
Probable space group: P 21/M
;
_chemical_formula_sum "Si O2"
_cell_formula_units_Z 32
_cell_length_a 30.784243
_cell_length_b 9.388944
_cell_length_c 11.806544
_cell_angle_alpha 90.000000
_cell_angle_beta 152.802482
_cell_angle_gamma 90.000000
_cell_volume 1559.698521
_symmetry_space_group_name_H-M "P 21/M"
_symmetry_group_IT_number 11
_symmetry_cell_setting 'monoclinic'
loop_
_space_group_symop_operation_xyz
x,y,z
-x,1/2+y,-z
-x,-y,-z
x,1/2-y,z
loop_
_atom_site_type_symbol
_atom_site_label
_atom_site_fract_x
_atom_site_fract_y
_atom_site_fract_z
Si Si1 0.312446 0.590207 0.041443
Si Si2 0.875440 0.095218 0.268851
Si Si3 0.018307 0.408404 0.780734
Si Si4 0.374964 0.584855 0.431632
Si Si5 0.071896 0.417101 0.246869
Si Si6 0.462922 0.414330 0.022334
Si Si7 0.289405 0.082995 0.766628
Si Si8 0.204681 0.086939 0.105623
O O1 0.348194 0.750000 0.096367
O O2 0.367985 0.532152 0.284062
O O3 0.199944 0.588677 0.802816
O O4 0.331360 0.493145 0.975715
O O5 0.863970 0.250000 0.180486
O O6 0.980769 0.084588 0.564703
O O7 0.855292 0.964773 0.140806
O O8 0.996941 0.250000 0.783111
O O9 0.963437 0.537382 0.711999
O O10 0.132930 0.430683 0.046250
O O11 0.347169 0.750000 0.368672
O O12 0.476406 0.554683 0.723020
O O13 0.299702 0.504959 0.338867
O O14 0.060010 0.250000 0.200547
O O15 0.181861 0.463545 0.485277
O O16 0.000000 0.500000 0.000000
O O17 0.470484 0.250000 0.004665
O O18 0.500000 0.500000 0.000000
O O19 0.355342 0.454378 0.810227
O O20 0.293570 0.250000 0.803426
O O21 0.234561 0.250000 0.158043
#
# Coordination Sequence:
#
# PCOD8072778 Si02
#       8
#     4   4   4   4   4   4   4   4
#     4   9  17  32  58  88 119 156 193 232 285 354
#     4   9  17  31  51  77 115 156 191 230 278 339
#     4  10  20  35  53  77 112 154 195 235 282 336
#     4   9  20  39  59  84 121 160 196 239 296 354
#     4  11  24  40  59  84 115 152 193 241 292 346
#     4  10  23  44  66  87 116 152 194 243 294 352
#     4  10  22  40  62  89 118 149 189 245 301 344
#     4  10  20  31  51  83 117 152 191 237 282 329
#
# _framework density 20.516786
#
# number of rings (size 3 to 8) (size 9 to 14) (size 15 to 20)
#    0.000    2.250    1.250    1.875    0.000    6.500 
#    0.000    3.750    0.000    0.000    0.000    0.000 
#    0.000    0.000    0.000    0.000    0.000    0.000 
#
# Total GULP energy -396497.646658 kJ/mol
# GULP energy per Si atom -12390.551458 kJ/mol
# Density = 2.047009 g / cm^3
# Si number density = 20.516786 Si / 1000 Ang^3
#
#
#
# Elastic Constant Matrix: (Units=GPa)
#
#
# Indices 1 2 3 4 5 6 
#
# 1 97.7654 46.5052 52.1937 0.0000 12.9847 0.0000
# 2 46.5052 75.0288 45.9542 0.0000 6.7232 0.0000
# 3 52.1937 45.9542 99.4588 0.0000 5.1430 0.0000
# 4 0.0000 0.0000 0.0000 27.7532 0.0000 -2.1315
# 5 12.9847 6.7232 5.1430 0.0000 27.1580 0.0000
# 6 0.0000 0.0000 0.0000 -2.1315 0.0000 33.8943
#
#
#
# Elastic Compliance Matrix: (Units=1/GPa)
#
#
# Indices 1 2 3 4 5 6 
#
# 1 0.017138 -0.006690 -0.005619 0.000000 -0.005474 0.000000
# 2 -0.006690 0.021447 -0.006351 0.000000 -0.000908 0.000000
# 3 -0.005619 -0.006351 0.015873 0.000000 0.001253 0.000000
# 4 0.000000 0.000000 0.000000 0.036207 0.000000 0.002277
# 5 -0.005474 -0.000908 0.001253 0.000000 0.039426 0.000000
# 6 0.000000 0.000000 0.000000 0.002277 0.000000 0.029647
#
#
# Mechanical properties :
#
#
# Convention : Reuss Voigt Hill
#
# Bulk Modulus (GPa) = 58.35825 62.39547 60.37686
# Shear Modulus (GPa) = 24.65833 26.26776 25.46305
#
# Velocity S-wave (km/s) = 3.47055 3.58202 3.52672
# Velocity P-wave (km/s) = 6.67574 6.89824 6.78790
#
# Compressibility (1/GPa) = 0.01713554
#
# Stress axis : x y z
#
# Youngs Moduli (GPa) = 58.34966 46.62745 62.99971
#
# Poissons Ratio (x) = 0.31196 0.35402
# Poissons Ratio (y) = 0.39039 0.40013
# Poissons Ratio (z) = 0.32789 0.29614
#
# Static dielectric constant tensor:
#      x y z
#    x 3.747430 0.000000 0.138770 
#    y 0.000000 4.237420 0.000000 
#    z 0.138770 0.000000 3.801150 
# 
# 
# High freq. dielectric constant tensor:
#      x y z
#    x 1.784020 0.000000 0.011050 
#    y 0.000000 1.797150 0.000000 
#    z 0.011050 0.000000 1.803930 
# 
# From -- ./inp_files/45376.got.cif
#   From: 2010.06.25/outbox.cif.g09.slc.cpg/sg11_23_cif.got.tgz:45376.got - 2010.06.27 23:14:04.
