data_PCOD8072669
_publ_section_title
;
Structure prediction by ZEFSAII (Michael W. Deem and Ramdas Pophale) SiO2 
 PCOD8072669
Probable space group: P 21/M
;
_chemical_formula_sum "Si O2"
_cell_formula_units_Z 28
_cell_length_a 8.861953
_cell_length_b 12.683056
_cell_length_c 13.929390
_cell_angle_alpha 90.000000
_cell_angle_beta 118.058095
_cell_angle_gamma 90.000000
_cell_volume 1381.611538
_symmetry_space_group_name_H-M "P 21/M"
_symmetry_group_IT_number 11
_symmetry_cell_setting 'monoclinic'
loop_
_space_group_symop_operation_xyz
x,y,z
-x,1/2+y,-z
-x,-y,-z
x,1/2-y,z
loop_
_atom_site_type_symbol
_atom_site_label
_atom_site_fract_x
_atom_site_fract_y
_atom_site_fract_z
Si Si1 0.140681 0.631011 0.840481
Si Si2 0.475269 0.867259 0.233035
Si Si3 0.795815 0.493857 0.330691
Si Si4 0.122469 0.874577 0.459950
Si Si5 0.756071 0.865119 0.795390
Si Si6 0.199534 0.982612 0.040240
Si Si7 0.629821 0.460175 0.615984
O O1 0.221068 0.750000 0.861469
O O2 0.136977 0.581610 0.733844
O O3 0.954652 0.641550 0.829853
O O4 0.240200 0.549076 0.941932
O O5 0.532883 0.750000 0.220310
O O6 0.289355 0.891187 0.130756
O O7 0.455028 0.871067 0.342412
O O8 0.619418 0.951733 0.244451
O O9 0.772239 0.422323 0.418507
O O10 0.928192 0.585474 0.398581
O O11 0.122275 0.750000 0.470226
O O12 0.204963 0.910596 0.384576
O O13 0.670967 0.750000 0.764101
O O14 0.721136 0.908027 0.894103
O O15 0.669662 0.939087 0.692310
O O16 0.000000 0.000000 0.000000
O O17 0.500000 0.500000 0.500000
#
# Coordination Sequence:
#
# PCOD8072669 Si02
#       7
#     4   4   4   4   4   4   4
#     4  10  19  37  64  86 115 162 200 245 308 366
#     4  11  23  40  63  89 123 163 201 256 315 360
#     4  11  23  40  60  92 128 159 213 252 301 376
#     4  11  23  41  61  86 126 169 207 254 308 363
#     4   9  19  36  60  88 119 155 199 250 305 361
#     4   9  20  39  62  88 121 149 203 249 297 371
#     4  11  21  40  58  90 121 157 210 256 298 365
#
# _framework density 20.266189000000001
#
# number of rings (size 3 to 8) (size 9 to 14) (size 15 to 20)
#    0.000    1.714    2.857    1.714    0.000    2.286 
#    0.000    2.143    0.000    0.000    0.000    0.000 
#    0.000    0.000    0.000    0.000    0.000    0.000 
#
# Total GULP energy -346937.388215 kJ/mol
# GULP energy per Si atom -12390.621008 kJ/mol
# Density = 2.022006 g / cm^3
# Si number density = 20.266189 Si / 1000 Ang^3
#
#
#
# Elastic Constant Matrix: (Units=GPa)
#
#
# Indices 1 2 3 4 5 6 
#
# 1 50.4837 32.2453 17.7533 0.0000 -1.0524 0.0000
# 2 32.2453 162.5442 48.9361 0.0000 -2.0526 0.0000
# 3 17.7533 48.9361 101.3451 0.0000 -2.1825 0.0000
# 4 0.0000 0.0000 0.0000 25.2481 0.0000 -2.7733
# 5 -1.0524 -2.0526 -2.1825 0.0000 33.0578 0.0000
# 6 0.0000 0.0000 0.0000 -2.7733 0.0000 22.8759
#
#
#
# Elastic Compliance Matrix: (Units=1/GPa)
#
#
# Indices 1 2 3 4 5 6 
#
# 1 0.023078 -0.003930 -0.002137 0.000000 0.000350 0.000000
# 2 -0.003930 0.007870 -0.003108 0.000000 0.000158 0.000000
# 3 -0.002137 -0.003108 0.011754 0.000000 0.000515 0.000000
# 4 0.000000 0.000000 0.000000 0.040141 0.000000 0.004866
# 5 0.000350 0.000158 0.000515 0.000000 0.030305 0.000000
# 6 0.000000 0.000000 0.000000 0.004866 0.000000 0.044304
#
#
# Mechanical properties :
#
#
# Convention : Reuss Voigt Hill
#
# Bulk Modulus (GPa) = 41.06862 56.91582 48.99222
# Shear Modulus (GPa) = 27.18585 30.59889 28.89237
#
# Velocity S-wave (km/s) = 3.66654 3.88989 3.77987
# Velocity P-wave (km/s) = 6.18331 6.95127 6.57850
#
# Compressibility (1/GPa) = 0.02434949
#
# Stress axis : x y z
#
# Youngs Moduli (GPa) = 43.33197 127.07179 85.08065
#
# Poissons Ratio (x) = 0.49942 0.18185
# Poissons Ratio (y) = 0.17030 0.26444
# Poissons Ratio (z) = 0.09262 0.39495
#
# Static dielectric constant tensor:
#      x y z
#    x 3.605120 0.000000 -0.192090 
#    y 0.000000 3.846990 0.000000 
#    z -0.192090 0.000000 3.859960 
# 
# 
# High freq. dielectric constant tensor:
#      x y z
#    x 1.772660 0.000000 -0.000670 
#    y 0.000000 1.795150 0.000000 
#    z -0.000670 0.000000 1.800370 
# 
# From -- ./inp_files/21414.got.cif
#   From: 2010.06.25/outbox.cif.g09.slc.cpg/sg11_11_cif.got.tgz:21414.got - 2010.06.27 23:14:04.
