data_PCOD8072355
_publ_section_title
;
Structure prediction by ZEFSAII (Michael W. Deem and Ramdas Pophale) SiO2 
 PCOD8072355
Probable space group: P 21/M
;
_chemical_formula_sum "Si O2"
_cell_formula_units_Z 32
_cell_length_a 20.964494
_cell_length_b 8.813608
_cell_length_c 11.628752
_cell_angle_alpha 90.000000
_cell_angle_beta 130.647097
_cell_angle_gamma 90.000000
_cell_volume 1630.279175
_symmetry_space_group_name_H-M "P 21/M"
_symmetry_group_IT_number 11
_symmetry_cell_setting 'monoclinic'
loop_
_space_group_symop_operation_xyz
x,y,z
-x,1/2+y,-z
-x,-y,-z
x,1/2-y,z
loop_
_atom_site_type_symbol
_atom_site_label
_atom_site_fract_x
_atom_site_fract_y
_atom_site_fract_z
Si Si1 0.226931 0.571416 0.817354
Si Si2 0.464035 0.917367 0.790928
Si Si3 0.741204 0.929622 0.905706
Si Si4 0.072957 0.429386 0.510276
Si Si5 0.047730 0.426681 0.217741
Si Si6 0.373598 0.082999 0.865775
Si Si7 0.548943 0.930246 0.662412
Si Si8 0.128333 0.926880 0.101868
O O1 0.211516 0.750000 0.801780
O O2 0.161128 0.492655 0.656149
O O3 0.318040 0.532768 0.873876
O O4 0.217626 0.508788 0.935166
O O5 0.426928 0.750000 0.721773
O O6 0.500989 0.991876 0.718846
O O7 0.389090 0.020118 0.754838
O O8 0.537735 0.901323 0.969093
O O9 0.745803 0.750000 0.928444
O O10 0.645359 0.985542 0.777534
O O11 0.792688 0.979935 0.854052
O O12 0.069825 0.250000 0.520044
O O13 0.061092 0.478488 0.364153
O O14 0.000000 0.500000 0.500000
O O15 0.067229 0.250000 0.222526
O O16 0.111539 0.520852 0.212724
O O17 0.952116 0.464718 0.071397
O O18 0.330794 0.250000 0.807822
O O19 0.546256 0.750000 0.654245
O O20 0.500000 0.000000 0.500000
O O21 0.150472 0.750000 0.126730
#
# Coordination Sequence:
#
# PCOD8072355 Si02
#       8
#     4   4   4   4   4   4   4   4
#     4  12  24  38  59  88 120 155 199 248 298 352
#     4   9  18  36  58  83 115 147 187 237 289 348
#     4  11  22  40  62  86 117 154 197 244 295 353
#     4  11  23  40  62  89 124 162 200 243 295 351
#     4   9  20  39  60  85 120 158 197 238 285 345
#     4  10  19  35  59  86 114 148 191 237 292 352
#     4  10  22  40  60  84 116 152 193 241 293 352
#     4  10  20  36  62  93 119 152 197 243 290 343
#
# _framework density 19.628539
#
# number of rings (size 3 to 8) (size 9 to 14) (size 15 to 20)
#    0.000    1.750    1.250    3.375    0.000    4.500 
#    2.250    0.000    0.000    0.000    0.000    0.000 
#    0.000    0.000    0.000    0.000    0.000    0.000 
#
# Total GULP energy -396878.772089 kJ/mol
# GULP energy per Si atom -12402.461628 kJ/mol
# Density = 1.958386 g / cm^3
# Si number density = 19.628539 Si / 1000 Ang^3
#
#
#
# Elastic Constant Matrix: (Units=GPa)
#
#
# Indices 1 2 3 4 5 6 
#
# 1 126.0939 45.1788 36.2837 0.0000 -28.0166 0.0000
# 2 45.1788 80.6329 39.4456 0.0000 -12.9617 0.0000
# 3 36.2837 39.4456 88.7108 0.0000 -22.6676 0.0000
# 4 0.0000 0.0000 0.0000 29.9073 0.0000 -0.9986
# 5 -28.0166 -12.9617 -22.6676 0.0000 25.9384 0.0000
# 6 0.0000 0.0000 0.0000 -0.9986 0.0000 38.4422
#
#
#
# Elastic Compliance Matrix: (Units=1/GPa)
#
#
# Indices 1 2 3 4 5 6 
#
# 1 0.012088 -0.005084 0.000005 0.000000 0.010520 0.000000
# 2 -0.005084 0.018092 -0.006513 0.000000 -0.002142 0.000000
# 3 0.000005 -0.006513 0.017170 0.000000 0.011756 0.000000
# 4 0.000000 0.000000 0.000000 0.033466 0.000000 0.000869
# 5 0.010520 -0.002142 0.011756 0.000000 0.059119 0.000000
# 6 0.000000 0.000000 0.000000 0.000869 0.000000 0.026036
#
#
# Mechanical properties :
#
#
# Convention : Reuss Voigt Hill
#
# Bulk Modulus (GPa) = 41.37955 59.69487 50.53721
# Shear Modulus (GPa) = 25.35348 30.49288 27.92318
#
# Velocity S-wave (km/s) = 3.59787 3.94572 3.77580
# Velocity P-wave (km/s) = 6.19570 7.15797 6.69415
#
# Compressibility (1/GPa) = 0.02416653
#
# Stress axis : x y z
#
# Youngs Moduli (GPa) = 82.72362 55.27231 58.23967
#
# Poissons Ratio (x) = 0.28102 -0.00027
# Poissons Ratio (y) = 0.42059 0.37929
# Poissons Ratio (z) = -0.00038 0.35997
#
# Static dielectric constant tensor:
#      x y z
#    x 3.840510 0.000000 -0.117670 
#    y 0.000000 1.467770 0.000000 
#    z -0.117670 0.000000 3.537010 
# 
# 
# High freq. dielectric constant tensor:
#      x y z
#    x 1.778960 0.000000 -0.009260 
#    y 0.000000 1.769220 0.000000 
#    z -0.009260 0.000000 1.747190 
# 
# From -- ./inp_files/42939.got.cif
#   From: 2010.06.25/outbox.cif.g09.slc.cpg/sg11_22_cif.got.tgz:42939.got - 2010.06.27 23:14:04.
