data_PCOD8072137
_publ_section_title
;
Structure prediction by ZEFSAII (Michael W. Deem and Ramdas Pophale) SiO2 
 PCOD8072137
Probable space group: P 21/M
;
_chemical_formula_sum "Si O2"
_cell_formula_units_Z 28
_cell_length_a 14.104751
_cell_length_b 13.449610
_cell_length_c 14.973071
_cell_angle_alpha 90.000000
_cell_angle_beta 29.136828
_cell_angle_gamma 90.000000
_cell_volume 1383.002678
_symmetry_space_group_name_H-M "P 21/M"
_symmetry_group_IT_number 11
_symmetry_cell_setting 'monoclinic'
loop_
_space_group_symop_operation_xyz
x,y,z
-x,1/2+y,-z
-x,-y,-z
x,1/2-y,z
loop_
_atom_site_type_symbol
_atom_site_label
_atom_site_fract_x
_atom_site_fract_y
_atom_site_fract_z
Si Si1 0.296040 0.944149 0.584005
Si Si2 0.955505 0.592456 0.974484
Si Si3 0.717968 0.360386 0.587712
Si Si4 0.730129 0.522659 0.813025
Si Si5 0.680716 0.857411 0.340024
Si Si6 0.994829 0.362670 0.525635
Si Si7 0.711773 0.632265 0.008013
O O1 0.229513 0.933038 0.536881
O O2 0.513774 0.905410 0.415832
O O3 0.270361 0.062405 0.623911
O O4 0.162687 0.877123 0.760580
O O5 0.856258 0.667580 0.126049
O O6 0.812896 0.574514 0.007150
O O7 0.000000 0.500000 0.000000
O O8 0.698206 0.250000 0.563056
O O9 0.886294 0.365577 0.520704
O O10 0.517253 0.389907 0.800341
O O11 0.861001 0.421453 0.707610
O O12 0.797693 0.583647 0.667379
O O13 0.500000 0.500000 0.000000
O O14 0.785829 0.587220 0.853908
O O15 0.624989 0.750000 0.428637
O O16 0.027252 0.250000 0.533480
O O17 0.762207 0.750000 0.970207
#
# Coordination Sequence:
#
# PCOD8072137 Si02
#       7
#     4   4   4   4   4   4   4
#     4  10  20  33  53  80 111 147 189 244 293 346
#     4  10  21  36  57  85 115 152 192 245 303 355
#     4  10  19  34  59  88 117 151 199 249 297 356
#     4  11  22  37  61  94 127 161 200 258 312 360
#     4  10  20  34  51  77 111 148 191 239 293 354
#     4  10  22  39  61  91 124 161 202 247 305 371
#     4  11  21  36  62  92 121 157 203 253 304 360
#
# _framework density 20.245802999999999
#
# number of rings (size 3 to 8) (size 9 to 14) (size 15 to 20)
#    0.000    1.714    2.857    2.143    0.000    4.000 
#    0.000    0.000    0.000   16.286    0.000    0.000 
#    0.000    0.000    0.000    0.000    0.000    0.000 
#
# Total GULP energy -346880.387292 kJ/mol
# GULP energy per Si atom -12388.585260 kJ/mol
# Density = 2.019972 g / cm^3
# Si number density = 20.245803 Si / 1000 Ang^3
#
#
#
# Elastic Constant Matrix: (Units=GPa)
#
#
# Indices 1 2 3 4 5 6 
#
# 1 54.7986 17.9485 16.5406 0.0000 6.7958 0.0000
# 2 17.9485 118.4493 49.2184 0.0000 6.4863 0.0000
# 3 16.5406 49.2184 118.8774 0.0000 4.2184 0.0000
# 4 0.0000 0.0000 0.0000 24.8507 0.0000 4.1487
# 5 6.7958 6.4863 4.2184 0.0000 31.1974 0.0000
# 6 0.0000 0.0000 0.0000 4.1487 0.0000 20.0460
#
#
#
# Elastic Compliance Matrix: (Units=1/GPa)
#
#
# Indices 1 2 3 4 5 6 
#
# 1 0.019922 -0.002078 -0.001782 0.000000 -0.003667 0.000000
# 2 -0.002078 0.010489 -0.004012 0.000000 -0.001186 0.000000
# 3 -0.001782 -0.004012 0.010327 0.000000 -0.000174 0.000000
# 4 0.000000 0.000000 0.000000 0.041680 0.000000 -0.008626
# 5 -0.003667 -0.001186 -0.000174 0.000000 0.033123 0.000000
# 6 0.000000 0.000000 0.000000 -0.008626 0.000000 0.051670
#
#
# Mechanical properties :
#
#
# Convention : Reuss Voigt Hill
#
# Bulk Modulus (GPa) = 40.00627 51.06004 45.53316
# Shear Modulus (GPa) = 26.13900 29.11334 27.62617
#
# Velocity S-wave (km/s) = 3.59706 3.79620 3.69797
# Velocity P-wave (km/s) = 6.08728 6.67006 6.38532
#
# Compressibility (1/GPa) = 0.02499608
#
# Stress axis : x y z
#
# Youngs Moduli (GPa) = 50.19675 95.33706 96.83346
#
# Poissons Ratio (x) = 0.19807 0.17252
# Poissons Ratio (y) = 0.10429 0.38846
# Poissons Ratio (z) = 0.08943 0.38245
#
# Static dielectric constant tensor:
#      x y z
#    x 3.391890 0.000000 -0.025690 
#    y 0.000000 3.926670 0.000000 
#    z -0.025690 0.000000 4.223450 
# 
# 
# High freq. dielectric constant tensor:
#      x y z
#    x 1.761190 0.000000 -0.003380 
#    y 0.000000 1.779820 0.000000 
#    z -0.003380 0.000000 1.817250 
# 
# From -- ./inp_files/52442.got.cif
#   From: 2010.06.25/outbox.cif.g09.slc.cpg/sg11_27_cif.got.tgz:52442.got - 2010.06.27 23:14:04.
