data_PCOD8072644
_publ_section_title
;
Structure prediction by ZEFSAII (Michael W. Deem and Ramdas Pophale) SiO2 
 PCOD8072644
Probable space group: P 21/M
;
_chemical_formula_sum "Si O2"
_cell_formula_units_Z 28
_cell_length_a 15.458516
_cell_length_b 8.932710
_cell_length_c 19.828682
_cell_angle_alpha 90.000000
_cell_angle_beta 148.621369
_cell_angle_gamma 90.000000
_cell_volume 1425.690209
_symmetry_space_group_name_H-M "P 21/M"
_symmetry_group_IT_number 11
_symmetry_cell_setting 'monoclinic'
loop_
_space_group_symop_operation_xyz
x,y,z
-x,1/2+y,-z
-x,-y,-z
x,1/2-y,z
loop_
_atom_site_type_symbol
_atom_site_label
_atom_site_fract_x
_atom_site_fract_y
_atom_site_fract_z
Si Si1 0.212015 0.573619 0.947319
Si Si2 0.110721 0.576753 0.630660
Si Si3 0.055117 0.421860 0.335776
Si Si4 0.314185 0.914676 0.317088
Si Si5 0.386057 0.584869 0.519936
Si Si6 0.546031 0.571242 0.102170
Si Si7 0.997015 0.075119 0.069884
O O1 0.199239 0.750000 0.930459
O O2 0.080760 0.506810 0.805732
O O3 0.160866 0.524869 0.989316
O O4 0.399062 0.522398 0.055783
O O5 0.142634 0.750000 0.633447
O O6 0.286425 0.493326 0.754572
O O7 0.000000 0.500000 0.500000
O O8 0.012905 0.561866 0.634759
O O9 0.094192 0.250000 0.343368
O O10 0.224029 0.513814 0.444749
O O11 0.264105 0.750000 0.255631
O O12 0.379245 0.898683 0.435436
O O13 0.453443 0.981164 0.358821
O O14 0.160010 0.026546 0.218531
O O15 0.410874 0.750000 0.568391
O O16 0.559675 0.750000 0.103262
O O17 0.500000 0.500000 0.000000
O O18 0.997938 0.250000 0.059534
O O19 0.000000 0.000000 0.000000
#
# Coordination Sequence:
#
# PCOD8072644 Si02
#       7
#     4   4   4   4   4   4   4
#     4   9  19  37  62  88 117 156 201 246 303 368
#     4  11  24  43  64  91 126 165 204 255 315 375
#     4  10  19  37  62  86 116 156 199 244 302 369
#     4  10  20  35  55  81 113 150 189 235 294 353
#     4  10  20  33  55  87 115 143 189 245 291 341
#     4  11  21  39  66  97 127 163 209 258 311 376
#     4  11  22  39  60  82 115 157 200 250 303 360
#
# _framework density 19.639612
#
# number of rings (size 3 to 8) (size 9 to 14) (size 15 to 20)
#    0.000    1.714    2.857    2.143    0.000    2.286 
#    2.571    2.857    0.000    0.000    0.000    0.000 
#    0.000    0.000    0.000    0.000    0.000    0.000 
#
# Total GULP energy -347129.801287 kJ/mol
# GULP energy per Si atom -12397.492903 kJ/mol
# Density = 1.959491 g / cm^3
# Si number density = 19.639612 Si / 1000 Ang^3
#
#
#
# Elastic Constant Matrix: (Units=GPa)
#
#
# Indices 1 2 3 4 5 6 
#
# 1 119.2525 65.2102 56.8890 0.0000 21.7263 0.0000
# 2 65.2102 110.2207 49.8744 0.0000 10.2375 0.0000
# 3 56.8890 49.8744 103.4877 0.0000 18.9046 0.0000
# 4 0.0000 0.0000 0.0000 35.3960 0.0000 2.4128
# 5 21.7263 10.2375 18.9046 0.0000 41.1339 0.0000
# 6 0.0000 0.0000 0.0000 2.4128 0.0000 30.6703
#
#
#
# Elastic Compliance Matrix: (Units=1/GPa)
#
#
# Indices 1 2 3 4 5 6 
#
# 1 0.014644 -0.006367 -0.004212 0.000000 -0.004214 0.000000
# 2 -0.006367 0.014375 -0.003700 0.000000 0.001485 0.000000
# 3 -0.004212 -0.003700 0.014395 0.000000 -0.003470 0.000000
# 4 0.000000 0.000000 0.000000 0.028404 0.000000 -0.002235
# 5 -0.004214 0.001485 -0.003470 0.000000 0.027762 0.000000
# 6 0.000000 0.000000 0.000000 -0.002235 0.000000 0.032781
#
#
# Mechanical properties :
#
#
# Convention : Reuss Voigt Hill
#
# Bulk Modulus (GPa) = 67.30067 75.21201 71.25634
# Shear Modulus (GPa) = 30.14394 32.17252 31.15823
#
# Velocity S-wave (km/s) = 3.92197 4.05179 3.98741
# Velocity P-wave (km/s) = 7.40617 7.76328 7.58683
#
# Compressibility (1/GPa) = 0.01485869
#
# Stress axis : x y z
#
# Youngs Moduli (GPa) = 68.28695 69.56293 69.46729
#
# Poissons Ratio (x) = 0.44288 0.29259
# Poissons Ratio (y) = 0.43476 0.25700
# Poissons Ratio (z) = 0.28762 0.25735
#
# Static dielectric constant tensor:
#      x y z
#    x 3.691590 0.000000 0.303770 
#    y 0.000000 3.192520 0.000000 
#    z 0.303770 0.000000 3.780680 
# 
# 
# High freq. dielectric constant tensor:
#      x y z
#    x 1.765460 0.000000 0.018790 
#    y 0.000000 1.766300 0.000000 
#    z 0.018790 0.000000 1.758310 
# 
# From -- ./inp_files/54510.got.cif
#   From: 2010.06.25/outbox.cif.g09.slc.cpg/sg11_28_cif.got.tgz:54510.got - 2010.06.27 23:14:04.
