data_PCOD8072166
_publ_section_title
;
Structure prediction by ZEFSAII (Michael W. Deem and Ramdas Pophale) SiO2 
 PCOD8072166
Probable space group: P 21/M
;
_chemical_formula_sum "Si O2"
_cell_formula_units_Z 20
_cell_length_a 9.705265
_cell_length_b 16.431649
_cell_length_c 7.442546
_cell_angle_alpha 90.000000
_cell_angle_beta 130.693514
_cell_angle_gamma 90.000000
_cell_volume 899.908851
_symmetry_space_group_name_H-M "P 21/M"
_symmetry_group_IT_number 11
_symmetry_cell_setting 'monoclinic'
loop_
_space_group_symop_operation_xyz
x,y,z
-x,1/2+y,-z
-x,-y,-z
x,1/2-y,z
loop_
_atom_site_type_symbol
_atom_site_label
_atom_site_fract_x
_atom_site_fract_y
_atom_site_fract_z
Si Si1 0.763307 0.655949 0.619254
Si Si2 0.644053 0.155949 0.380746
Si Si3 0.731254 0.572592 0.962508
Si Si4 0.023366 0.156404 0.546733
Si Si5 0.592566 0.073207 0.685133
O O1 0.748229 0.750000 0.655890
O O2 0.807358 0.608289 0.839630
O O3 0.923986 0.639328 0.614527
O O4 0.570019 0.627378 0.367791
O O5 0.592338 0.250000 0.344107
O O6 0.467728 0.108289 0.160370
O O7 0.702226 0.127379 0.632208
O O8 0.809459 0.139328 0.385474
O O9 0.719838 0.472795 0.939677
O O10 0.868211 0.594136 0.236422
O O11 0.069707 0.250000 0.639414
O O12 0.500000 0.000000 0.500000
#
# Coordination Sequence:
#
# PCOD8072166 Si02
#       5
#     4   4   4   4   4
#     4   9  17  32  52  73  99 129 164 204 241 287
#     4   9  17  32  52  73  99 129 164 204 241 287
#     4  10  19  35  53  71 102 133 159 201 250 287
#     4  10  20  32  51  76  97 128 169 200 241 294
#     4   8  16  31  50  73  98 129 164 197 243 295
#
# _framework density 22.224473
#
# number of rings (size 3 to 8) (size 9 to 14) (size 15 to 20)
#    0.000    3.200    0.000    3.600    0.000    1.600 
#    0.000   13.000    0.000    9.600    0.000    0.000 
#    0.000    0.000    0.000    0.000    0.000    0.000 
#
# Total GULP energy -247850.618357 kJ/mol
# GULP energy per Si atom -12392.530918 kJ/mol
# Density = 2.217389 g / cm^3
# Si number density = 22.224473 Si / 1000 Ang^3
#
#
#
# Elastic Constant Matrix: (Units=GPa)
#
#
# Indices 1 2 3 4 5 6 
#
# 1 173.0139 22.1504 12.1172 0.0000 0.0002 0.0000
# 2 22.1504 39.8500 -5.6193 0.0000 0.0003 0.0000
# 3 12.1172 -5.6193 35.4296 0.0000 -0.0001 0.0000
# 4 0.0000 0.0000 0.0000 20.5714 0.0000 0.0000
# 5 0.0002 0.0003 -0.0001 0.0000 14.4417 0.0000
# 6 0.0000 0.0000 0.0000 0.0000 0.0000 0.8528
#
#
#
# Elastic Compliance Matrix: (Units=1/GPa)
#
#
# Indices 1 2 3 4 5 6 
#
# 1 0.006494 -0.004012 -0.002857 0.000000 0.000000 0.000000
# 2 -0.004012 0.028147 0.005837 0.000000 0.000000 0.000000
# 3 -0.002857 0.005837 0.030128 0.000000 0.000000 0.000000
# 4 0.000000 0.000000 0.000000 0.048611 0.000000 -0.000001
# 5 0.000000 0.000000 0.000000 0.000000 0.069244 0.000000
# 6 0.000000 0.000000 0.000000 -0.000001 0.000000 1.172561
#
#
# Mechanical properties :
#
#
# Convention : Reuss Voigt Hill
#
# Bulk Modulus (GPa) = 15.94821 33.95444 24.95133
# Shear Modulus (GPa) = 3.62805 21.81621 12.72213
#
# Velocity S-wave (km/s) = 1.27906 3.13650 2.39516
# Velocity P-wave (km/s) = 3.06152 5.33178 4.34746
#
# Compressibility (1/GPa) = 0.06270294
#
# Stress axis : x y z
#
# Youngs Moduli (GPa) = 153.99568 35.52727 33.19175
#
# Poissons Ratio (x) = 0.14255 0.09484
# Poissons Ratio (y) = 0.61789 -0.19373
# Poissons Ratio (z) = 0.44001 -0.20736
#
# Static dielectric constant tensor:
#      x y z
#    x 4.101700 0.000000 0.000000 
#    y 0.000000 4.662740 0.000000 
#    z 0.000000 0.000000 3.549510 
# 
# 
# High freq. dielectric constant tensor:
#      x y z
#    x 1.884610 0.000000 0.000000 
#    y 0.000000 1.884270 0.000000 
#    z 0.000000 0.000000 1.825190 
# 
# From -- ./inp_files/12991.got.cif
#   From: 2010.06.25/outbox.cif.g09.slc.cpg/sg11_7_cif.got.tgz:12991.got - 2010.06.27 23:14:04.
