data_PCOD8072559
_publ_section_title
;
Structure prediction by ZEFSAII (Michael W. Deem and Ramdas Pophale) SiO2 
 PCOD8072559
Probable space group: P 21/M
;
_chemical_formula_sum "Si O2"
_cell_formula_units_Z 32
_cell_length_a 10.131936
_cell_length_b 21.301233
_cell_length_c 16.721914
_cell_angle_alpha 90.000000
_cell_angle_beta 26.524434
_cell_angle_gamma 90.000000
_cell_volume 1611.691339
_symmetry_space_group_name_H-M "P 21/M"
_symmetry_group_IT_number 11
_symmetry_cell_setting 'monoclinic'
loop_
_space_group_symop_operation_xyz
x,y,z
-x,1/2+y,-z
-x,-y,-z
x,1/2-y,z
loop_
_atom_site_type_symbol
_atom_site_label
_atom_site_fract_x
_atom_site_fract_y
_atom_site_fract_z
Si Si1 0.754886 0.410816 0.500512
Si Si2 0.175974 0.986168 0.207892
Si Si3 0.350054 0.821636 0.674967
Si Si4 0.781364 0.096609 0.664662
Si Si5 0.672196 0.678102 0.002451
Si Si6 0.751184 0.822581 0.787287
Si Si7 0.656151 0.821483 0.666858
Si Si8 0.649591 0.931811 0.412433
O O1 0.718214 0.433328 0.611679
O O2 0.430989 0.409454 0.634209
O O3 0.985326 0.451346 0.323152
O O4 0.908833 0.342669 0.414199
O O5 0.201295 0.959414 0.282821
O O6 0.998934 0.940338 0.241898
O O7 0.500000 0.000000 0.000000
O O8 0.451140 0.750000 0.595640
O O9 0.385373 0.829359 0.752108
O O10 0.535939 0.876828 0.532701
O O11 0.013609 0.832270 0.835807
O O12 0.083708 0.134596 0.504985
O O13 0.509662 0.141112 0.833338
O O14 0.576103 0.750000 0.061606
O O15 0.609591 0.649871 0.946453
O O16 0.773132 0.750000 0.793654
O O17 0.560250 0.839218 0.810707
O O18 0.773409 0.750000 0.604414
O O19 0.500000 0.000000 0.500000
#
# Coordination Sequence:
#
# PCOD8072559 Si02
#       8
#     4   4   4   4   4   4   4   4
#     4  10  21  38  58  84 116 152 196 239 294 359
#     4  11  23  39  60  83 112 155 197 250 297 354
#     4  10  19  36  61  88 117 155 198 244 302 359
#     4  11  21  36  57  82 118 151 195 240 291 352
#     4  10  20  34  57  87 117 152 193 238 293 353
#     4   9  17  32  57  85 113 145 185 236 292 354
#     4   9  18  33  56  85 114 149 190 238 295 353
#     4  10  21  38  61  85 122 157 199 242 305 365
#
# _framework density 19.854918000000001
#
# number of rings (size 3 to 8) (size 9 to 14) (size 15 to 20)
#    0.000    2.000    2.500    1.500    1.750    0.500 
#    0.000    4.375    0.000    0.000    0.000    0.000 
#    0.000    0.000    0.000    0.000    0.000    0.000 
#
# Total GULP energy -396428.969092 kJ/mol
# GULP energy per Si atom -12388.405284 kJ/mol
# Density = 1.980973 g / cm^3
# Si number density = 19.854918 Si / 1000 Ang^3
#
#
#
# Elastic Constant Matrix: (Units=GPa)
#
#
# Indices 1 2 3 4 5 6 
#
# 1 154.3059 22.9018 37.2627 0.0000 8.3027 0.0000
# 2 22.9018 53.1850 22.0057 0.0000 1.2305 0.0000
# 3 37.2627 22.0057 71.9710 0.0000 4.2562 0.0000
# 4 0.0000 0.0000 0.0000 25.1902 0.0000 1.6953
# 5 8.3027 1.2305 4.2562 0.0000 24.6635 0.0000
# 6 0.0000 0.0000 0.0000 1.6953 0.0000 29.1480
#
#
#
# Elastic Compliance Matrix: (Units=1/GPa)
#
#
# Indices 1 2 3 4 5 6 
#
# 1 0.007655 -0.001899 -0.003269 0.000000 -0.001918 0.000000
# 2 -0.001899 0.021997 -0.005774 0.000000 0.000538 0.000000
# 3 -0.003269 -0.005774 0.017449 0.000000 -0.001622 0.000000
# 4 0.000000 0.000000 0.000000 0.039854 0.000000 -0.002318
# 5 -0.001918 0.000538 -0.001622 0.000000 0.041445 0.000000
# 6 0.000000 0.000000 0.000000 -0.002318 0.000000 0.034442
#
#
# Mechanical properties :
#
#
# Convention : Reuss Voigt Hill
#
# Bulk Modulus (GPa) = 39.65886 49.31137 44.48512
# Shear Modulus (GPa) = 25.88898 28.95311 27.42104
#
# Velocity S-wave (km/s) = 3.61488 3.82283 3.72031
# Velocity P-wave (km/s) = 6.11889 6.66146 6.39593
#
# Compressibility (1/GPa) = 0.02521504
#
# Stress axis : x y z
#
# Youngs Moduli (GPa) = 130.62978 45.46113 57.31116
#
# Poissons Ratio (x) = 0.08635 0.18737
# Poissons Ratio (y) = 0.24811 0.33093
# Poissons Ratio (z) = 0.42707 0.26250
#
# Static dielectric constant tensor:
#      x y z
#    x 4.209220 0.000000 0.041120 
#    y 0.000000 3.656600 0.000000 
#    z 0.041120 0.000000 3.315250 
# 
# 
# High freq. dielectric constant tensor:
#      x y z
#    x 1.799170 0.000000 0.004650 
#    y 0.000000 1.781740 0.000000 
#    z 0.004650 0.000000 1.730930 
# 
# From -- ./inp_files/48441.got.cif
#   From: 2010.06.25/outbox.cif.g09.slc.cpg/sg11_25_cif.got.tgz:48441.got - 2010.06.27 23:14:04.
