data_PCOD8072499
_publ_section_title
;
Structure prediction by ZEFSAII (Michael W. Deem and Ramdas Pophale) SiO2 
 PCOD8072499
Probable space group: P 21/M
;
_chemical_formula_sum "Si O2"
_cell_formula_units_Z 24
_cell_length_a 13.497588
_cell_length_b 16.591336
_cell_length_c 13.502325
_cell_angle_alpha 90.000000
_cell_angle_beta 158.311083
_cell_angle_gamma 90.000000
_cell_volume 1117.478808
_symmetry_space_group_name_H-M "P 21/M"
_symmetry_group_IT_number 11
_symmetry_cell_setting 'monoclinic'
loop_
_space_group_symop_operation_xyz
x,y,z
-x,1/2+y,-z
-x,-y,-z
x,1/2-y,z
loop_
_atom_site_type_symbol
_atom_site_label
_atom_site_fract_x
_atom_site_fract_y
_atom_site_fract_z
Si Si1 0.415964 0.344198 0.139868
Si Si2 0.086828 0.345730 0.460981
Si Si3 0.141838 0.899970 0.304971
Si Si4 0.688459 0.342487 0.746420
Si Si5 0.857717 0.586387 0.700519
Si Si6 0.475043 0.845381 0.977667
O O1 0.483315 0.250000 0.211277
O O2 0.586793 0.391840 0.379973
O O3 0.492964 0.379541 0.103542
O O4 0.101375 0.358241 0.863200
O O5 0.100119 0.250000 0.456541
O O6 0.176954 0.390036 0.445624
O O7 0.282142 0.375358 0.729198
O O8 0.795621 0.376432 0.223053
O O9 0.169680 0.855491 0.226511
O O10 0.077163 0.992886 0.225997
O O11 0.605506 0.250000 0.683148
O O12 0.418551 0.394890 0.499650
O O13 0.894313 0.364659 0.024330
O O14 0.474355 0.750000 0.969783
#
# Coordination Sequence:
#
# PCOD8072499 Si02
#       6
#     4   4   4   4   4   4
#     4  11  22  41  65  91 121 163 212 255 299 363
#     4  10  19  36  59  86 118 160 206 249 295 356
#     4  12  25  42  63  93 128 162 198 254 317 366
#     4  12  24  42  66  91 119 163 212 253 297 365
#     4  12  25  42  62  93 130 162 198 254 315 366
#     4   9  19  35  60  88 118 156 206 255 294 344
#
# _framework density 21.476917
#
# number of rings (size 3 to 8) (size 9 to 14) (size 15 to 20)
#    0.000    1.000    0.000    8.000    0.000    4.000 
#    0.000    5.000    0.000    0.000    0.000    0.000 
#    0.000    0.000    0.000    0.000    0.000    0.000 
#
# Total GULP energy -297805.572067 kJ/mol
# GULP energy per Si atom -12408.565503 kJ/mol
# Density = 2.142803 g / cm^3
# Si number density = 21.476917 Si / 1000 Ang^3
#
#
#
# Elastic Constant Matrix: (Units=GPa)
#
#
# Indices 1 2 3 4 5 6 
#
# 1 94.5071 18.8353 20.4454 0.0000 0.9002 0.0000
# 2 18.8353 58.5923 12.7337 0.0000 -5.1959 0.0000
# 3 20.4454 12.7337 101.3048 0.0000 1.1188 0.0000
# 4 0.0000 0.0000 0.0000 17.1676 0.0000 4.5818
# 5 0.9002 -5.1959 1.1188 0.0000 44.8045 0.0000
# 6 0.0000 0.0000 0.0000 4.5818 0.0000 -5.4560
#
#
#
# Elastic Compliance Matrix: (Units=1/GPa)
#
#
# Indices 1 2 3 4 5 6 
#
# 1 0.011678 -0.003387 -0.001925 0.000000 -0.000579 0.000000
# 2 -0.003387 0.018727 -0.001695 0.000000 0.002282 0.000000
# 3 -0.001925 -0.001695 0.010477 0.000000 -0.000420 0.000000
# 4 0.000000 0.000000 0.000000 0.047584 0.000000 0.039961
# 5 -0.000579 0.002282 -0.000420 0.000000 0.022606 0.000000
# 6 0.000000 0.000000 0.000000 0.039961 0.000000 -0.149728
#
#
# Mechanical properties :
#
#
# Convention : Reuss Voigt Hill
#
# Bulk Modulus (GPa) = 37.21965 39.82589 38.52277
# Shear Modulus (GPa) = -318.78859 24.79587 -146.99636
#
# Velocity S-wave (km/s) = -12.19653 3.40153 -8.28206
# Velocity P-wave (km/s) = 13.45261 5.83190 8.57210
#
# Compressibility (1/GPa) = 0.02686753
#
# Stress axis : x y z
#
# Youngs Moduli (GPa) = 85.62961 53.39942 95.44344
#
# Poissons Ratio (x) = 0.18087 0.18370
# Poissons Ratio (y) = 0.29004 0.16182
# Poissons Ratio (z) = 0.16482 0.09054
#
# Static dielectric constant tensor:
#      x y z
#    x 4.000300 0.000000 0.007690 
#    y 0.000000 3.780000 0.000000 
#    z 0.007690 0.000000 3.939950 
# 
# 
# High freq. dielectric constant tensor:
#      x y z
#    x 1.859590 0.000000 -0.000330 
#    y 0.000000 1.826420 0.000000 
#    z -0.000330 0.000000 1.857870 
# 
# From -- ./inp_files/52606.got.cif
#   From: 2010.06.25/outbox.cif.g09.slc.cpg/sg11_27_cif.got.tgz:52606.got - 2010.06.27 23:14:04.
