data_PCOD8072546
_publ_section_title
;
Structure prediction by ZEFSAII (Michael W. Deem and Ramdas Pophale) SiO2 
 PCOD8072546
Probable space group: P 21/M
;
_chemical_formula_sum "Si O2"
_cell_formula_units_Z 32
_cell_length_a 12.733829
_cell_length_b 8.831932
_cell_length_c 31.451148
_cell_angle_alpha 90.000000
_cell_angle_beta 152.846581
_cell_angle_gamma 90.000000
_cell_volume 1614.257383
_symmetry_space_group_name_H-M "P 21/M"
_symmetry_group_IT_number 11
_symmetry_cell_setting 'monoclinic'
loop_
_space_group_symop_operation_xyz
x,y,z
-x,1/2+y,-z
-x,-y,-z
x,1/2-y,z
loop_
_atom_site_type_symbol
_atom_site_label
_atom_site_fract_x
_atom_site_fract_y
_atom_site_fract_z
Si Si1 0.106959 0.569830 0.857073
Si Si2 0.933080 0.927777 0.070753
Si Si3 0.673343 0.923537 0.594384
Si Si4 0.585891 0.426061 0.885016
Si Si5 0.758277 0.429718 0.401945
Si Si6 0.564129 0.427696 0.778969
Si Si7 0.155756 0.427204 0.788580
Si Si8 0.601391 0.922223 0.662250
O O1 0.130646 0.750000 0.863038
O O2 0.187034 0.510509 0.931965
O O3 0.238527 0.499653 0.863633
O O4 0.848819 0.503583 0.759605
O O5 0.914398 0.750000 0.071014
O O6 0.198188 0.977485 0.158511
O O7 0.791303 0.975297 0.978300
O O8 0.717584 0.750000 0.597545
O O9 0.538068 0.935905 0.590127
O O10 0.500000 0.000000 0.500000
O O11 0.919915 0.003718 0.685494
O O12 0.649744 0.250000 0.912719
O O13 0.566805 0.474209 0.829177
O O14 0.348075 0.463932 0.822969
O O15 0.780890 0.250000 0.410300
O O16 0.652734 0.484662 0.319313
O O17 0.594304 0.498279 0.379835
O O18 0.000000 0.500000 0.500000
O O19 0.522764 0.250000 0.758875
O O20 0.121012 0.250000 0.782950
O O21 0.623461 0.750000 0.685176
#
# Coordination Sequence:
#
# PCOD8072546 Si02
#       8
#     4   4   4   4   4   4   4   4
#     4  10  19  36  61  85 113 152 192 236 293 352
#     4  11  22  36  61  92 118 149 200 252 292 346
#     4  10  20  36  58  84 112 150 194 240 293 351
#     4  10  23  41  60  83 121 164 196 236 299 360
#     4  11  22  38  59  86 116 152 194 241 296 352
#     4  10  22  41  61  86 118 155 198 247 295 348
#     4  10  21  38  58  84 116 153 196 244 294 347
#     4   8  17  34  55  77 106 145 186 228 284 345
#
# _framework density 19.823354999999999
#
# number of rings (size 3 to 8) (size 9 to 14) (size 15 to 20)
#    0.000    2.000    1.250    3.000    0.000    3.500 
#    0.000    6.875    0.000    0.000    0.000    0.000 
#    0.000    0.000    0.000    0.000    0.000    0.000 
#
# Total GULP energy -396763.976641 kJ/mol
# GULP energy per Si atom -12398.874270 kJ/mol
# Density = 1.977824 g / cm^3
# Si number density = 19.823355 Si / 1000 Ang^3
#
#
#
# Elastic Constant Matrix: (Units=GPa)
#
#
# Indices 1 2 3 4 5 6 
#
# 1 99.8946 43.0324 31.7999 0.0000 -12.4668 0.0000
# 2 43.0324 93.9427 46.2629 0.0000 -6.0280 0.0000
# 3 31.7999 46.2629 103.7168 0.0000 -13.8880 0.0000
# 4 0.0000 0.0000 0.0000 37.6863 0.0000 -6.6004
# 5 -12.4668 -6.0280 -13.8880 0.0000 30.1389 0.0000
# 6 0.0000 0.0000 0.0000 -6.6004 0.0000 28.1546
#
#
#
# Elastic Compliance Matrix: (Units=1/GPa)
#
#
# Indices 1 2 3 4 5 6 
#
# 1 0.013094 -0.005161 -0.001199 0.000000 0.003831 0.000000
# 2 -0.005161 0.015676 -0.005623 0.000000 -0.001591 0.000000
# 3 -0.001199 -0.005623 0.013109 0.000000 0.004420 0.000000
# 4 0.000000 0.000000 0.000000 0.027671 0.000000 0.006487
# 5 0.003831 -0.001591 0.004420 0.000000 0.036483 0.000000
# 6 0.000000 0.000000 0.000000 0.006487 0.000000 0.037039
#
#
# Mechanical properties :
#
#
# Convention : Reuss Voigt Hill
#
# Bulk Modulus (GPa) = 55.82838 59.97162 57.90000
# Shear Modulus (GPa) = 28.90004 30.95988 29.92996
#
# Velocity S-wave (km/s) = 3.82236 3.95623 3.88987
# Velocity P-wave (km/s) = 6.90686 7.15456 7.03180
#
# Compressibility (1/GPa) = 0.01791204
#
# Stress axis : x y z
#
# Youngs Moduli (GPa) = 76.37120 63.79162 76.28193
#
# Poissons Ratio (x) = 0.32926 0.09149
# Poissons Ratio (y) = 0.39419 0.42892
# Poissons Ratio (z) = 0.09159 0.35869
#
# Static dielectric constant tensor:
#      x y z
#    x 3.847560 0.000000 -0.035830 
#    y 0.000000 3.503610 0.000000 
#    z -0.035830 0.000000 3.468950 
# 
# 
# High freq. dielectric constant tensor:
#      x y z
#    x 1.782840 0.000000 -0.006360 
#    y 0.000000 1.768310 0.000000 
#    z -0.006360 0.000000 1.770600 
# 
# From -- ./inp_files/54372.got.cif
#   From: 2010.06.25/outbox.cif.g09.slc.cpg/sg11_28_cif.got.tgz:54372.got - 2010.06.27 23:14:04.
