data_PCOD8072941
_publ_section_title
;
Structure prediction by ZEFSAII (Michael W. Deem and Ramdas Pophale) SiO2 
 PCOD8072941
Probable space group: P 21/M
;
_chemical_formula_sum "Si O2"
_cell_formula_units_Z 28
_cell_length_a 15.909879
_cell_length_b 9.240858
_cell_length_c 12.714745
_cell_angle_alpha 90.000000
_cell_angle_beta 55.168722
_cell_angle_gamma 90.000000
_cell_volume 1534.419234
_symmetry_space_group_name_H-M "P 21/M"
_symmetry_group_IT_number 11
_symmetry_cell_setting 'monoclinic'
loop_
_space_group_symop_operation_xyz
x,y,z
-x,1/2+y,-z
-x,-y,-z
x,1/2-y,z
loop_
_atom_site_type_symbol
_atom_site_label
_atom_site_fract_x
_atom_site_fract_y
_atom_site_fract_z
Si Si1 0.471923 0.918052 0.915202
Si Si2 0.127584 0.081618 0.497245
Si Si3 0.707111 0.585089 0.213791
Si Si4 0.294395 0.418226 0.549126
Si Si5 0.522869 0.420088 0.677195
Si Si6 0.105413 0.580153 0.306107
Si Si7 0.238936 0.915554 0.019031
O O1 0.503631 0.750000 0.899144
O O2 0.535886 0.994209 0.777090
O O3 0.351978 0.937982 0.982790
O O4 0.500000 0.000000 0.000000
O O5 0.135857 0.250000 0.464949
O O6 0.204903 0.035406 0.533695
O O7 0.014020 0.040629 0.617476
O O8 0.155889 0.995785 0.371293
O O9 0.723483 0.750000 0.169733
O O10 0.746385 0.553619 0.303564
O O11 0.587145 0.545131 0.294391
O O12 0.774358 0.494885 0.082977
O O13 0.325574 0.250000 0.513112
O O14 0.392559 0.518876 0.462387
O O15 0.539480 0.250000 0.684344
O O16 0.125122 0.750000 0.305030
O O17 0.160171 0.521211 0.161637
O O18 0.213321 0.750000 0.014975
#
# Coordination Sequence:
#
# PCOD8072941 Si02
#       7
#     4   4   4   4   4   4   4
#     4  10  20  33  48  72 104 135 168 209 252 302
#     4   9  19  34  53  77 102 131 166 206 256 306
#     4   9  19  35  52  73 103 136 171 209 249 302
#     4  10  20  34  52  76 104 134 170 212 257 299
#     4  10  20  33  50  73 100 137 175 208 250 299
#     4   9  18  35  55  75 102 132 165 208 254 303
#     4   9  19  34  53  73  98 134 169 205 253 300
#
# _framework density 18.247945000000001
#
# number of rings (size 3 to 8) (size 9 to 14) (size 15 to 20)
#    0.000    2.571    0.000    1.286    2.000    2.857 
#    0.000    0.714    0.000    0.000    0.000    0.000 
#    0.000    0.000    0.000    0.000    0.000    0.000 
#
# Total GULP energy -347253.207405 kJ/mol
# GULP energy per Si atom -12401.900264 kJ/mol
# Density = 1.820641 g / cm^3
# Si number density = 18.247945 Si / 1000 Ang^3
#
#
#
# Elastic Constant Matrix: (Units=GPa)
#
#
# Indices 1 2 3 4 5 6 
#
# 1 72.7894 35.5908 51.5755 0.0000 19.8740 0.0000
# 2 35.5908 71.8017 57.4298 0.0000 8.7036 0.0000
# 3 51.5755 57.4298 148.6034 0.0000 14.0441 0.0000
# 4 0.0000 0.0000 0.0000 36.0453 0.0000 5.0813
# 5 19.8740 8.7036 14.0441 0.0000 25.4451 0.0000
# 6 0.0000 0.0000 0.0000 5.0813 0.0000 21.5673
#
#
#
# Elastic Compliance Matrix: (Units=1/GPa)
#
#
# Indices 1 2 3 4 5 6 
#
# 1 0.023931 -0.006631 -0.004422 0.000000 -0.013983 0.000000
# 2 -0.006631 0.022178 -0.006375 0.000000 0.001111 0.000000
# 3 -0.004422 -0.006375 0.010756 0.000000 -0.000303 0.000000
# 4 0.000000 0.000000 0.000000 0.028696 0.000000 -0.006761
# 5 -0.013983 0.001111 -0.000303 0.000000 0.050009 0.000000
# 6 0.000000 0.000000 0.000000 -0.006761 0.000000 0.047959
#
#
# Mechanical properties :
#
#
# Convention : Reuss Voigt Hill
#
# Bulk Modulus (GPa) = 45.43142 64.70964 55.07053
# Shear Modulus (GPa) = 22.15127 26.51810 24.33468
#
# Velocity S-wave (km/s) = 3.48789 3.81624 3.65575
# Velocity P-wave (km/s) = 6.41649 7.41327 6.93281
#
# Compressibility (1/GPa) = 0.02201120
#
# Stress axis : x y z
#
# Youngs Moduli (GPa) = 41.78627 45.08979 92.96969
#
# Poissons Ratio (x) = 0.29897 0.41109
# Poissons Ratio (y) = 0.27707 0.59266
# Poissons Ratio (z) = 0.18477 0.28744
#
# Static dielectric constant tensor:
#      x y z
#    x 3.273630 0.000000 0.060880 
#    y 0.000000 3.383610 0.000000 
#    z 0.060880 0.000000 3.526020 
# 
# 
# High freq. dielectric constant tensor:
#      x y z
#    x 1.690800 0.000000 0.010270 
#    y 0.000000 1.706190 0.000000 
#    z 0.010270 0.000000 1.713330 
# 
# From -- ./inp_files/37211.got.cif
#   From: 2010.06.25/outbox.cif.g09.slc.cpg/sg11_19_cif.got.tgz:37211.got - 2010.06.27 23:14:04.
