data_PCOD8072845
_publ_section_title
;
Structure prediction by ZEFSAII (Michael W. Deem and Ramdas Pophale) SiO2 
 PCOD8072845
Probable space group: P 21/M
;
_chemical_formula_sum "Si O2"
_cell_formula_units_Z 32
_cell_length_a 15.137596
_cell_length_b 9.489008
_cell_length_c 15.634088
_cell_angle_alpha 90.000000
_cell_angle_beta 128.150420
_cell_angle_gamma 90.000000
_cell_volume 1765.993954
_symmetry_space_group_name_H-M "P 21/M"
_symmetry_group_IT_number 11
_symmetry_cell_setting 'monoclinic'
loop_
_space_group_symop_operation_xyz
x,y,z
-x,1/2+y,-z
-x,-y,-z
x,1/2-y,z
loop_
_atom_site_type_symbol
_atom_site_label
_atom_site_fract_x
_atom_site_fract_y
_atom_site_fract_z
Si Si1 0.462417 0.908789 0.860200
Si Si2 0.129053 0.462510 0.088081
Si Si3 0.337373 0.586579 0.953753
Si Si4 0.864080 0.592472 0.095740
Si Si5 0.279740 0.587025 0.421348
Si Si6 0.544542 0.088939 0.335488
Si Si7 0.655892 0.403964 0.730598
Si Si8 0.915529 0.905135 0.755565
O O1 0.513474 0.750000 0.900541
O O2 0.361174 0.928709 0.866770
O O3 0.411731 0.929570 0.735313
O O4 0.557619 0.025311 0.931233
O O5 0.217205 0.590224 0.154950
O O6 0.136497 0.374997 0.180803
O O7 0.166351 0.386028 0.023016
O O8 0.000000 0.500000 0.000000
O O9 0.319002 0.750000 0.969047
O O10 0.229415 0.494445 0.910075
O O11 0.875833 0.750000 0.141893
O O12 0.977000 0.504528 0.174562
O O13 0.243331 0.750000 0.414848
O O14 0.360845 0.528455 0.544455
O O15 0.345149 0.571385 0.371483
O O16 0.171391 0.486222 0.357619
O O17 0.522896 0.250000 0.346932
O O18 0.424535 0.015386 0.272925
O O19 0.608449 0.250000 0.723582
O O20 0.943608 0.750000 0.733849
#
# Coordination Sequence:
#
# PCOD8072845 Si02
#       8
#     4   4   4   4   4   4   4   4
#     4   9  19  35  53  74 100 131 166 204 249 297
#     4   9  20  33  48  71 102 137 169 201 240 288
#     4  10  20  34  52  75 103 131 162 204 250 296
#     4  11  21  33  51  74 101 133 167 202 244 296
#     4   9  19  35  51  70 100 135 167 202 246 292
#     4  10  20  34  53  74  98 131 169 206 246 293
#     4  10  20  32  48  73 104 134 167 206 245 288
#     4  10  20  34  52  74 100 131 167 205 244 288
#
# _framework density 18.120107999999998
#
# number of rings (size 3 to 8) (size 9 to 14) (size 15 to 20)
#    0.000    2.250    0.000    2.625    0.000   11.500 
#    0.000    0.000    0.000    0.750    0.000    0.000 
#    0.000    0.000    0.000    0.000    0.000    0.000 
#
# Total GULP energy -396547.013257 kJ/mol
# GULP energy per Si atom -12392.094164 kJ/mol
# Density = 1.807887 g / cm^3
# Si number density = 18.120108 Si / 1000 Ang^3
#
#
#
# Elastic Constant Matrix: (Units=GPa)
#
#
# Indices 1 2 3 4 5 6 
#
# 1 93.3264 56.1702 51.6034 0.0000 5.0148 0.0000
# 2 56.1702 127.5110 42.8750 0.0000 7.1371 0.0000
# 3 51.6034 42.8750 112.2359 0.0000 4.9983 0.0000
# 4 0.0000 0.0000 0.0000 18.8708 0.0000 6.7194
# 5 5.0148 7.1371 4.9983 0.0000 20.2453 0.0000
# 6 0.0000 0.0000 0.0000 6.7194 0.0000 22.1018
#
#
#
# Elastic Compliance Matrix: (Units=1/GPa)
#
#
# Indices 1 2 3 4 5 6 
#
# 1 0.017364 -0.005655 -0.005784 0.000000 -0.000880 0.000000
# 2 -0.005655 0.010952 -0.001490 0.000000 -0.002092 0.000000
# 3 -0.005784 -0.001490 0.012185 0.000000 -0.001050 0.000000
# 4 0.000000 0.000000 0.000000 0.059425 0.000000 -0.018066
# 5 -0.000880 -0.002092 -0.001050 0.000000 0.050609 0.000000
# 6 0.000000 0.000000 0.000000 -0.018066 0.000000 0.050738
#
#
# Mechanical properties :
#
#
# Convention : Reuss Voigt Hill
#
# Bulk Modulus (GPa) = 68.29658 70.48562 69.39110
# Shear Modulus (GPa) = 21.55049 24.40522 22.97785
#
# Velocity S-wave (km/s) = 3.45238 3.67394 3.56488
# Velocity P-wave (km/s) = 7.32563 7.54855 7.43793
#
# Compressibility (1/GPa) = 0.01464202
#
# Stress axis : x y z
#
# Youngs Moduli (GPa) = 57.58979 91.30897 82.06545
#
# Poissons Ratio (x) = 0.51635 0.47468
# Poissons Ratio (y) = 0.32567 0.12232
# Poissons Ratio (z) = 0.33311 0.13609
#
# Static dielectric constant tensor:
#      x y z
#    x 3.300460 0.000000 -0.101770 
#    y 0.000000 3.451480 0.000000 
#    z -0.101770 0.000000 3.388380 
# 
# 
# High freq. dielectric constant tensor:
#      x y z
#    x 1.684920 0.000000 0.001760 
#    y 0.000000 1.707930 0.000000 
#    z 0.001760 0.000000 1.689880 
# 
# From -- ./inp_files/51785.got.cif
#   From: 2010.06.25/outbox.cif.g09.slc.cpg/sg11_26_cif.got.tgz:51785.got - 2010.06.27 23:14:04.
