data_PCOD8072848
_publ_section_title
;
Structure prediction by ZEFSAII (Michael W. Deem and Ramdas Pophale) SiO2 
 PCOD8072848
Probable space group: P 21/M
;
_chemical_formula_sum "Si O2"
_cell_formula_units_Z 32
_cell_length_a 10.165268
_cell_length_b 9.287360
_cell_length_c 23.602249
_cell_angle_alpha 90.000000
_cell_angle_beta 51.806322
_cell_angle_gamma 90.000000
_cell_volume 1751.240018
_symmetry_space_group_name_H-M "P 21/M"
_symmetry_group_IT_number 11
_symmetry_cell_setting 'monoclinic'
loop_
_space_group_symop_operation_xyz
x,y,z
-x,1/2+y,-z
-x,-y,-z
x,1/2-y,z
loop_
_atom_site_type_symbol
_atom_site_label
_atom_site_fract_x
_atom_site_fract_y
_atom_site_fract_z
Si Si1 0.043728 0.920600 0.247896
Si Si2 0.263936 0.080742 0.598394
Si Si3 0.139926 0.913430 0.429466
Si Si4 0.859271 0.582485 0.003469
Si Si5 0.298676 0.577966 0.272507
Si Si6 0.007845 0.578023 0.129496
Si Si7 0.369301 0.912075 0.468923
Si Si8 0.667514 0.915635 0.161878
O O1 0.032810 0.750000 0.249418
O O2 0.209219 0.971585 0.237890
O O3 0.041624 0.976855 0.184133
O O4 0.881503 0.982670 0.323310
O O5 0.242909 0.250000 0.596077
O O6 0.438964 0.035482 0.580521
O O7 0.251070 0.010854 0.539604
O O8 0.075659 0.750000 0.440508
O O9 0.187298 0.978317 0.355241
O O10 0.310801 0.921203 0.419914
O O11 0.000000 0.000000 0.500000
O O12 0.905237 0.750000 0.982429
O O13 0.847426 0.501321 0.946154
O O14 0.694072 0.567086 0.086693
O O15 0.000000 0.500000 0.000000
O O16 0.307197 0.750000 0.273253
O O17 0.487446 0.512129 0.224391
O O18 0.025258 0.750000 0.117709
O O19 0.823751 0.522829 0.157262
O O20 0.356502 0.750000 0.496001
O O21 0.656263 0.750000 0.181722
#
# Coordination Sequence:
#
# PCOD8072848 Si02
#       8
#     4   4   4   4   4   4   4   4
#     4   9  17  28  45  68  94 122 158 196 233 274
#     4   9  17  30  48  68  93 123 155 198 242 284
#     4  10  20  32  49  69  93 125 162 199 241 287
#     4   9  16  29  49  74  99 125 155 192 234 279
#     4   9  17  29  46  70  95 122 158 199 236 275
#     4   9  17  29  48  73  96 123 156 194 235 278
#     4   9  18  30  45  69  93 119 156 198 243 290
#     4   8  15  27  46  69  93 119 152 193 231 269
#
# _framework density 18.272766000000001
#
# number of rings (size 3 to 8) (size 9 to 14) (size 15 to 20)
#    0.000    3.000    0.000    1.875    1.750    1.500 
#    0.000    1.250    0.000    4.500    0.000    0.000 
#    0.000    0.000    0.000    0.000    0.000    0.000 
#
# Total GULP energy -396522.607000 kJ/mol
# GULP energy per Si atom -12391.331469 kJ/mol
# Density = 1.823118 g / cm^3
# Si number density = 18.272766 Si / 1000 Ang^3
#
#
#
# Elastic Constant Matrix: (Units=GPa)
#
#
# Indices 1 2 3 4 5 6 
#
# 1 95.2035 14.2277 56.7928 0.0000 16.2796 0.0000
# 2 14.2277 35.1661 28.2896 0.0000 3.4371 0.0000
# 3 56.7928 28.2896 119.9178 0.0000 12.6818 0.0000
# 4 0.0000 0.0000 0.0000 25.5121 0.0000 4.2956
# 5 16.2796 3.4371 12.6818 0.0000 30.9376 0.0000
# 6 0.0000 0.0000 0.0000 4.2956 0.0000 14.7523
#
#
#
# Elastic Compliance Matrix: (Units=1/GPa)
#
#
# Indices 1 2 3 4 5 6 
#
# 1 0.015450 -0.000366 -0.006664 0.000000 -0.005358 0.000000
# 2 -0.000366 0.035114 -0.008068 0.000000 -0.000401 0.000000
# 3 -0.006664 -0.008068 0.013519 0.000000 -0.001139 0.000000
# 4 0.000000 0.000000 0.000000 0.041218 0.000000 -0.012002
# 5 -0.005358 -0.000401 -0.001139 0.000000 0.035654 0.000000
# 6 0.000000 0.000000 0.000000 -0.012002 0.000000 0.071281
#
#
# Mechanical properties :
#
#
# Convention : Reuss Voigt Hill
#
# Bulk Modulus (GPa) = 29.51020 49.87862 39.69441
# Shear Modulus (GPa) = 19.70621 24.30555 22.00588
#
# Velocity S-wave (km/s) = 3.28753 3.65108 3.47407
# Velocity P-wave (km/s) = 5.53131 6.71787 6.15326
#
# Compressibility (1/GPa) = 0.03388659
#
# Stress axis : x y z
#
# Youngs Moduli (GPa) = 64.72430 28.47866 73.97080
#
# Poissons Ratio (x) = 0.01043 0.49295
# Poissons Ratio (y) = 0.02370 0.59678
# Poissons Ratio (z) = 0.43133 0.22976
#
# Static dielectric constant tensor:
#      x y z
#    x 3.545400 0.000000 0.172800 
#    y 0.000000 3.080690 0.000000 
#    z 0.172800 0.000000 3.856360 
# 
# 
# High freq. dielectric constant tensor:
#      x y z
#    x 1.703350 0.000000 0.006770 
#    y 0.000000 1.660080 0.000000 
#    z 0.006770 0.000000 1.712380 
# 
# From -- ./inp_files/67949.got.cif
#   From: 2010.06.25/outbox.cif.g09.slc.cpg/sg11_34_cif.got.tgz:67949.got - 2010.06.27 23:14:04.
