data_PCOD8072383
_publ_section_title
;
Structure prediction by ZEFSAII (Michael W. Deem and Ramdas Pophale) SiO2 
 PCOD8072383
Probable space group: P 21/M
;
_chemical_formula_sum "Si O2"
_cell_formula_units_Z 28
_cell_length_a 22.932369
_cell_length_b 14.455616
_cell_length_c 9.603497
_cell_angle_alpha 90.000000
_cell_angle_beta 25.900245
_cell_angle_gamma 90.000000
_cell_volume 1390.602999
_symmetry_space_group_name_H-M "P 21/M"
_symmetry_group_IT_number 11
_symmetry_cell_setting 'monoclinic'
loop_
_space_group_symop_operation_xyz
x,y,z
-x,1/2+y,-z
-x,-y,-z
x,1/2-y,z
loop_
_atom_site_type_symbol
_atom_site_label
_atom_site_fract_x
_atom_site_fract_y
_atom_site_fract_z
Si Si1 0.205278 0.988804 0.791540
Si Si2 0.041983 0.146705 0.651500
Si Si3 0.230537 0.477520 0.421916
Si Si4 0.533164 0.357502 0.385041
Si Si5 0.516554 0.473215 0.688210
Si Si6 0.816199 0.351012 0.658985
Si Si7 0.943229 0.594980 0.676924
O O1 0.352793 0.948549 0.502356
O O2 0.195028 0.029848 0.659460
O O3 0.096789 0.908304 0.043506
O O4 0.179187 0.072841 0.956164
O O5 0.013603 0.250000 0.764622
O O6 0.155968 0.104731 0.503810
O O7 0.100215 0.150741 0.367785
O O8 0.173810 0.574294 0.484736
O O9 0.389273 0.470123 0.062530
O O10 0.489269 0.250000 0.460320
O O11 0.494025 0.394045 0.621201
O O12 0.464201 0.424024 0.418791
O O13 0.692012 0.371032 0.027415
O O14 0.800951 0.250000 0.621291
O O15 0.945795 0.349686 0.476575
O O16 0.000000 0.500000 0.500000
#
# Coordination Sequence:
#
# PCOD8072383 Si02
#       7
#     4   4   4   4   4   4   4
#     4  11  23  41  63  88 125 168 201 250 305 374
#     4  11  24  41  65  93 122 161 208 259 308 360
#     4  11  23  42  60  91 129 161 203 256 304 367
#     4   9  19  36  61  92 121 157 208 259 302 359
#     4  10  22  37  64  88 123 166 204 247 310 364
#     4  10  19  35  61  90 121 162 207 254 308 362
#     4  10  19  35  60  86 119 152 200 257 302 351
#
# _framework density 20.135152000000001
#
# number of rings (size 3 to 8) (size 9 to 14) (size 15 to 20)
#    0.000    1.714    2.857    3.000    4.000    2.857 
#    0.000    2.143    0.000    3.429    0.000    0.000 
#    0.000    0.000    0.000    0.000    0.000    0.000 
#
# Total GULP energy -347169.817145 kJ/mol
# GULP energy per Si atom -12398.922041 kJ/mol
# Density = 2.008932 g / cm^3
# Si number density = 20.135152 Si / 1000 Ang^3
#
#
#
# Elastic Constant Matrix: (Units=GPa)
#
#
# Indices 1 2 3 4 5 6 
#
# 1 114.8613 31.7377 64.7472 0.0000 6.5539 0.0000
# 2 31.7377 108.5240 40.3827 0.0000 1.5625 0.0000
# 3 64.7472 40.3827 91.6454 0.0000 9.1851 0.0000
# 4 0.0000 0.0000 0.0000 20.0295 0.0000 -4.7893
# 5 6.5539 1.5625 9.1851 0.0000 35.1759 0.0000
# 6 0.0000 0.0000 0.0000 -4.7893 0.0000 9.2616
#
#
#
# Elastic Compliance Matrix: (Units=1/GPa)
#
#
# Indices 1 2 3 4 5 6 
#
# 1 0.014492 -0.000514 -0.010006 0.000000 -0.000065 0.000000
# 2 -0.000514 0.011062 -0.004592 0.000000 0.000803 0.000000
# 3 -0.010006 -0.004592 0.020328 0.000000 -0.003240 0.000000
# 4 0.000000 0.000000 0.000000 0.056971 0.000000 0.029460
# 5 -0.000065 0.000803 -0.003240 0.000000 0.029251 0.000000
# 6 0.000000 0.000000 0.000000 0.029460 0.000000 0.123206
#
#
# Mechanical properties :
#
#
# Convention : Reuss Voigt Hill
#
# Bulk Modulus (GPa) = 63.85756 65.41844 64.63800
# Shear Modulus (GPa) = 17.19673 24.77095 20.98384
#
# Velocity S-wave (km/s) = 2.92561 3.51127 3.23174
# Velocity P-wave (km/s) = 6.57233 6.99992 6.78950
#
# Compressibility (1/GPa) = 0.01565985
#
# Stress axis : x y z
#
# Youngs Moduli (GPa) = 69.00359 90.40016 49.19204
#
# Poissons Ratio (x) = 0.04647 0.49219
# Poissons Ratio (y) = 0.03547 0.22587
# Poissons Ratio (z) = 0.69042 0.41509
#
# Static dielectric constant tensor:
#      x y z
#    x 3.146870 0.000000 -0.015410 
#    y 0.000000 3.664240 0.000000 
#    z -0.015410 0.000000 3.710680 
# 
# 
# High freq. dielectric constant tensor:
#      x y z
#    x 1.779360 0.000000 -0.001610 
#    y 0.000000 1.776230 0.000000 
#    z -0.001610 0.000000 1.787480 
# 
# From -- ./inp_files/26918.got.cif
#   From: 2010.06.25/outbox.cif.g09.slc.cpg/sg11_14_cif.got.tgz:26918.got - 2010.06.27 23:14:04.
