data_PCOD8072759
_publ_section_title
;
Structure prediction by ZEFSAII (Michael W. Deem and Ramdas Pophale) SiO2 
 PCOD8072759
Probable space group: P 21/M
;
_chemical_formula_sum "Si O2"
_cell_formula_units_Z 28
_cell_length_a 20.966745
_cell_length_b 9.131427
_cell_length_c 11.247357
_cell_angle_alpha 90.000000
_cell_angle_beta 50.062133
_cell_angle_gamma 90.000000
_cell_volume 1651.082822
_symmetry_space_group_name_H-M "P 21/M"
_symmetry_group_IT_number 11
_symmetry_cell_setting 'monoclinic'
loop_
_space_group_symop_operation_xyz
x,y,z
-x,1/2+y,-z
-x,-y,-z
x,1/2-y,z
loop_
_atom_site_type_symbol
_atom_site_label
_atom_site_fract_x
_atom_site_fract_y
_atom_site_fract_z
Si Si1 0.931671 0.579625 0.660660
Si Si2 0.732832 0.080026 0.533223
Si Si3 0.889182 0.417181 0.200254
Si Si4 0.962838 0.079842 0.863279
Si Si5 0.756840 0.919592 0.745211
Si Si6 0.599395 0.413315 0.995313
Si Si7 0.553181 0.412592 0.775001
O O1 0.954853 0.750000 0.641245
O O2 0.928070 0.511286 0.795421
O O3 0.842207 0.554417 0.710927
O O4 0.000000 0.500000 0.500000
O O5 0.731278 0.250000 0.574871
O O6 0.793199 0.053450 0.348988
O O7 0.638663 0.032988 0.608864
O O8 0.766701 0.988306 0.603371
O O9 0.915211 0.250000 0.198580
O O10 0.945734 0.524802 0.210301
O O11 0.899477 0.447904 0.048070
O O12 0.969470 0.250000 0.820633
O O13 0.734512 0.750000 0.757602
O O14 0.683619 0.994184 0.909668
O O15 0.615168 0.250000 0.024367
O O16 0.572570 0.412831 0.891189
O O17 0.524251 0.482663 0.162894
O O18 0.528798 0.250000 0.761397
#
# Coordination Sequence:
#
# PCOD8072759 Si02
#       7
#     4   4   4   4   4   4   4
#     4  11  23  36  50  69  94 124 157 193 232 275
#     4   9  17  29  46  68  93 122 153 186 227 271
#     4   9  18  33  51  70  94 123 156 193 230 273
#     4  10  20  33  50  71  94 123 157 192 233 275
#     4  10  20  31  44  65  92 122 155 189 227 271
#     4   9  16  26  41  61  87 120 152 182 222 271
#     4   8  14  24  39  61  89 118 147 181 222 269
#
# _framework density 16.958569000000001
#
# number of rings (size 3 to 8) (size 9 to 14) (size 15 to 20)
#    0.000    2.571    0.000    3.429    0.000    9.143 
#    0.000    0.000    0.000    0.000    0.000    1.000 
#    0.000    0.000    0.000    0.000    0.000    0.000 
#
# Total GULP energy -347153.089395 kJ/mol
# GULP energy per Si atom -12398.324621 kJ/mol
# Density = 1.691997 g / cm^3
# Si number density = 16.958569 Si / 1000 Ang^3
#
#
#
# Elastic Constant Matrix: (Units=GPa)
#
#
# Indices 1 2 3 4 5 6 
#
# 1 60.4707 55.8891 53.3060 0.0000 -11.2743 0.0000
# 2 55.8891 118.1676 62.3926 0.0000 -14.1569 0.0000
# 3 53.3060 62.3926 127.8630 0.0000 -28.0093 0.0000
# 4 0.0000 0.0000 0.0000 26.1025 0.0000 -4.1931
# 5 -11.2743 -14.1569 -28.0093 0.0000 26.0273 0.0000
# 6 0.0000 0.0000 0.0000 -4.1931 0.0000 26.2268
#
#
#
# Elastic Compliance Matrix: (Units=1/GPa)
#
#
# Indices 1 2 3 4 5 6 
#
# 1 0.035644 -0.012146 -0.009157 0.000000 -0.001021 0.000000
# 2 -0.012146 0.015540 -0.002382 0.000000 0.000628 0.000000
# 3 -0.009157 -0.002382 0.015241 0.000000 0.011139 0.000000
# 4 0.000000 0.000000 0.000000 0.039320 0.000000 0.006286
# 5 -0.001021 0.000628 0.011139 0.000000 0.050309 0.000000
# 6 0.000000 0.000000 0.000000 0.006286 0.000000 0.039134
#
#
# Mechanical properties :
#
#
# Convention : Reuss Voigt Hill
#
# Bulk Modulus (GPa) = 52.47697 72.18631 62.33164
# Shear Modulus (GPa) = 20.08767 24.66555 22.37661
#
# Velocity S-wave (km/s) = 3.44541 3.81788 3.63642
# Velocity P-wave (km/s) = 6.84392 7.87995 7.38014
#
# Compressibility (1/GPa) = 0.01905598
#
# Stress axis : x y z
#
# Youngs Moduli (GPa) = 28.05499 64.35025 65.61372
#
# Poissons Ratio (x) = 0.78159 0.60082
# Poissons Ratio (y) = 0.34075 0.15627
# Poissons Ratio (z) = 0.25690 0.15326
#
# Static dielectric constant tensor:
#      x y z
#    x 2.910570 0.000000 -0.308200 
#    y 0.000000 3.395500 0.000000 
#    z -0.308200 0.000000 3.369800 
# 
# 
# High freq. dielectric constant tensor:
#      x y z
#    x 1.615780 0.000000 -0.031610 
#    y 0.000000 1.667120 0.000000 
#    z -0.031610 0.000000 1.651530 
# 
# From -- ./inp_files/42325.got.cif
#   From: 2010.06.25/outbox.cif.g09.slc.cpg/sg11_22_cif.got.tgz:42325.got - 2010.06.27 23:14:04.
