data_PCOD8072393
_publ_section_title
;
Structure prediction by ZEFSAII (Michael W. Deem and Ramdas Pophale) SiO2 
 PCOD8072393
Probable space group: P 21/M
;
_chemical_formula_sum "Si O2"
_cell_formula_units_Z 24
_cell_length_a 21.141383
_cell_length_b 11.507580
_cell_length_c 5.154768
_cell_angle_alpha 90.000000
_cell_angle_beta 90.915445
_cell_angle_gamma 90.000000
_cell_volume 1253.923624
_symmetry_space_group_name_H-M "P 21/M"
_symmetry_group_IT_number 11
_symmetry_cell_setting 'monoclinic'
loop_
_space_group_symop_operation_xyz
x,y,z
-x,1/2+y,-z
-x,-y,-z
x,1/2-y,z
loop_
_atom_site_type_symbol
_atom_site_label
_atom_site_fract_x
_atom_site_fract_y
_atom_site_fract_z
Si Si1 0.253992 0.750000 0.793605
Si Si2 0.632501 0.410836 0.247998
Si Si3 0.939467 0.612699 0.246601
Si Si4 0.918467 0.030662 0.742585
Si Si5 0.171668 0.750000 0.287998
Si Si6 0.576180 0.877098 0.432451
Si Si7 0.559644 0.088200 0.734670
O O1 0.295946 0.865902 0.758338
O O2 0.198176 0.750000 0.581150
O O3 0.227293 0.750000 0.081753
O O4 0.630207 0.551780 0.275649
O O5 0.595842 0.354779 0.490938
O O6 0.595494 0.369722 0.991064
O O7 0.924021 0.750000 0.247801
O O8 0.907575 0.549879 0.490651
O O9 0.014425 0.594760 0.260626
O O10 0.910808 0.553443 0.988716
O O11 0.867753 0.132855 0.754207
O O12 0.602765 0.750000 0.500304
O O13 0.512497 0.868900 0.255689
O O14 0.560022 0.947052 0.697803
#
# Coordination Sequence:
#
# PCOD8072393 Si02
#       7
#     2   4   4   4   2   4   4
#     4  12  26  38  66  76 118 164 210 248 289 327
#     4  10  21  38  52  82 107 147 193 241 280 357
#     4  10  19  35  60  96 128 166 186 239 321 360
#     4  10  21  35  60  90 132 157 203 248 287 374
#     4  12  24  44  60  94 114 172 206 260 285 341
#     4   9  20  33  57  83 112 146 173 239 309 378
#     4   9  20  34  52  83 116 138 178 230 310 363
#
# _framework density 19.139924000000001
#
# number of rings (size 3 to 8) (size 9 to 14) (size 15 to 20)
#    1.000    1.000    0.833    3.000    2.333    0.667 
#    0.000    0.000    0.000    6.000    0.000    0.000 
#    0.000    0.000    0.000    0.000    0.000    0.000 
#
# Total GULP energy -297382.326174 kJ/mol
# GULP energy per Si atom -12390.930257 kJ/mol
# Density = 1.909636 g / cm^3
# Si number density = 19.139924 Si / 1000 Ang^3
#
#
#
# Elastic Constant Matrix: (Units=GPa)
#
#
# Indices 1 2 3 4 5 6 
#
# 1 66.2296 40.5267 19.5272 0.0000 -5.9801 0.0000
# 2 40.5267 173.4170 37.2259 0.0000 -7.9806 0.0000
# 3 19.5272 37.2259 124.8890 0.0000 -4.4069 0.0000
# 4 0.0000 0.0000 0.0000 5.4006 0.0000 -7.0443
# 5 -5.9801 -7.9806 -4.4069 0.0000 26.0809 0.0000
# 6 0.0000 0.0000 0.0000 -7.0443 0.0000 35.8941
#
#
#
# Elastic Compliance Matrix: (Units=1/GPa)
#
#
# Indices 1 2 3 4 5 6 
#
# 1 0.018125 -0.003763 -0.001616 0.000000 0.002731 0.000000
# 2 -0.003763 0.007008 -0.001464 0.000000 0.001034 0.000000
# 3 -0.001616 -0.001464 0.008719 0.000000 0.000655 0.000000
# 4 0.000000 0.000000 0.000000 0.248871 0.000000 0.048842
# 5 0.002731 0.001034 0.000655 0.000000 0.039396 0.000000
# 6 0.000000 0.000000 0.000000 0.048842 0.000000 0.037445
#
#
# Mechanical properties :
#
#
# Convention : Reuss Voigt Hill
#
# Bulk Modulus (GPa) = 49.58875 62.12170 55.85523
# Shear Modulus (GPa) = 13.15891 31.29219 22.22555
#
# Velocity S-wave (km/s) = 2.62489 4.04780 3.41136
# Velocity P-wave (km/s) = 5.92887 7.37382 6.69047
#
# Compressibility (1/GPa) = 0.02016586
#
# Stress axis : x y z
#
# Youngs Moduli (GPa) = 55.17330 142.70018 114.68910
#
# Poissons Ratio (x) = 0.53699 0.18532
# Poissons Ratio (y) = 0.20762 0.16790
# Poissons Ratio (z) = 0.08915 0.20890
#
# Static dielectric constant tensor:
#      x y z
#    x 3.115740 0.000000 -0.017780 
#    y 0.000000 3.488240 0.000000 
#    z -0.017780 0.000000 3.529280 
# 
# 
# High freq. dielectric constant tensor:
#      x y z
#    x 1.701720 0.000000 -0.000450 
#    y 0.000000 1.753840 0.000000 
#    z -0.000450 0.000000 1.754590 
# 
# From -- ./inp_files/7704.got.cif
#   From: 2010.06.25/outbox.cif.g09.slc.cpg/sg11_4_cif.got.tgz:7704.got - 2010.06.27 23:14:04.
