data_PCOD8072164
_publ_section_title
;
Structure prediction by ZEFSAII (Michael W. Deem and Ramdas Pophale) SiO2 
 PCOD8072164
Probable space group: P 21/M
;
_chemical_formula_sum "Si O2"
_cell_formula_units_Z 24
_cell_length_a 11.437037
_cell_length_b 13.568378
_cell_length_c 18.619429
_cell_angle_alpha 90.000000
_cell_angle_beta 157.609403
_cell_angle_gamma 90.000000
_cell_volume 1100.626701
_symmetry_space_group_name_H-M "P 21/M"
_symmetry_group_IT_number 11
_symmetry_cell_setting 'monoclinic'
loop_
_space_group_symop_operation_xyz
x,y,z
-x,1/2+y,-z
-x,-y,-z
x,1/2-y,z
loop_
_atom_site_type_symbol
_atom_site_label
_atom_site_fract_x
_atom_site_fract_y
_atom_site_fract_z
Si Si1 0.007594 0.530316 0.832577
Si Si2 0.322769 0.984095 0.220237
Si Si3 0.524836 0.636563 0.217208
Si Si4 0.045652 0.861827 0.717987
Si Si5 0.245794 0.359685 0.876112
Si Si6 0.957457 0.045954 0.575934
O O1 0.867731 0.593509 0.686655
O O2 0.184443 0.433750 0.906123
O O3 0.725996 0.489856 0.721782
O O4 0.238813 0.598683 0.008353
O O5 0.446263 0.880186 0.257225
O O6 0.592615 0.063188 0.352667
O O7 0.000000 0.000000 0.000000
O O8 0.586129 0.750000 0.235451
O O9 0.832815 0.573561 0.373481
O O10 0.940717 0.750000 0.641177
O O11 0.398815 0.866946 0.942792
O O12 0.990823 0.930453 0.617619
O O13 0.159758 0.250000 0.853259
O O14 0.054383 0.384401 0.696575
#
# Coordination Sequence:
#
# PCOD8072164 Si02
#       6
#     4   4   4   4   4   4
#     4  10  19  39  60  90 125 162 193 247 312 362
#     4  10  25  41  58  81 122 167 206 251 300 353
#     4  11  21  39  65  87 118 165 212 253 295 357
#     4  10  19  34  63  95 122 154 195 249 310 367
#     4  10  19  34  63  97 124 153 196 252 307 366
#     4  11  20  39  62  90 119 157 208 250 304 359
#
# _framework density 21.805758999999998
#
# number of rings (size 3 to 8) (size 9 to 14) (size 15 to 20)
#    0.000    1.667    3.333    2.500    0.000    4.000 
#    0.000   10.000    0.000    2.000    0.000    0.000 
#    0.000    0.000    0.000    0.000    0.000    0.000 
#
# Total GULP energy -297376.486915 kJ/mol
# GULP energy per Si atom -12390.686955 kJ/mol
# Density = 2.175613 g / cm^3
# Si number density = 21.805759 Si / 1000 Ang^3
#
#
#
# Elastic Constant Matrix: (Units=GPa)
#
#
# Indices 1 2 3 4 5 6 
#
# 1 131.3691 66.3549 22.1570 0.0000 41.8085 0.0000
# 2 66.3549 159.4569 21.6338 0.0000 5.6519 0.0000
# 3 22.1570 21.6338 108.2501 0.0000 7.9967 0.0000
# 4 0.0000 0.0000 0.0000 10.9502 0.0000 -2.4136
# 5 41.8085 5.6519 7.9967 0.0000 14.9579 0.0000
# 6 0.0000 0.0000 0.0000 -2.4136 0.0000 29.7141
#
#
#
# Elastic Compliance Matrix: (Units=1/GPa)
#
#
# Indices 1 2 3 4 5 6 
#
# 1 -0.473650 0.155614 -0.028741 0.000000 1.280459 0.000000
# 2 0.155614 -0.044632 0.008280 0.000000 -0.422516 0.000000
# 3 -0.028741 0.008280 0.008082 0.000000 0.072885 0.000000
# 4 0.000000 0.000000 0.000000 0.092987 0.000000 0.007553
# 5 1.280459 -0.422516 0.072885 0.000000 -3.391454 0.000000
# 6 0.000000 0.000000 0.000000 0.007553 0.000000 0.034268
#
#
# Mechanical properties :
#
#
# Convention : Reuss Voigt Hill
#
# Bulk Modulus (GPa) = -4.16850 68.81860 32.32505
# Shear Modulus (GPa) = -1.21222 30.38647 14.58712
#
# Velocity S-wave (km/s) = -0.74641 3.73702 2.58923
# Velocity P-wave (km/s) = 1.63053 7.08864 4.87802
#
# Compressibility (1/GPa) = -0.23989431
#
# Stress axis : x y z
#
# Youngs Moduli (GPa) = -2.11126 -22.40563 123.73529
#
# Poissons Ratio (x) = 3.48662 3.55629
# Poissons Ratio (y) = 0.32854 -1.02455
# Poissons Ratio (z) = -0.06068 0.18552
#
# Static dielectric constant tensor:
#      x y z
#    x 4.398900 0.000000 0.231120 
#    y 0.000000 3.911610 0.000000 
#    z 0.231120 0.000000 4.046670 
# 
# 
# High freq. dielectric constant tensor:
#      x y z
#    x 1.863900 0.000000 -0.002760 
#    y 0.000000 1.838670 0.000000 
#    z -0.002760 0.000000 1.856380 
# 
# From -- ./inp_files/64830.got.cif
#   From: 2010.06.25/outbox.cif.g09.slc.cpg/sg11_33_cif.got.tgz:64830.got - 2010.06.27 23:14:04.
