data_PCOD8072514
_publ_section_title
;
Structure prediction by ZEFSAII (Michael W. Deem and Ramdas Pophale) SiO2 
 PCOD8072514
Probable space group: P 21/M
;
_chemical_formula_sum "Si O2"
_cell_formula_units_Z 24
_cell_length_a 11.789325
_cell_length_b 15.090383
_cell_length_c 14.180618
_cell_angle_alpha 90.000000
_cell_angle_beta 28.684116
_cell_angle_gamma 90.000000
_cell_volume 1210.898614
_symmetry_space_group_name_H-M "P 21/M"
_symmetry_group_IT_number 11
_symmetry_cell_setting 'monoclinic'
loop_
_space_group_symop_operation_xyz
x,y,z
-x,1/2+y,-z
-x,-y,-z
x,1/2-y,z
loop_
_atom_site_type_symbol
_atom_site_label
_atom_site_fract_x
_atom_site_fract_y
_atom_site_fract_z
Si Si1 0.466379 0.844650 0.959939
Si Si2 0.918958 0.646955 0.003334
Si Si3 0.357610 0.394830 0.973900
Si Si4 0.245912 0.013207 0.729358
Si Si5 0.753806 0.982822 0.629961
Si Si6 0.973746 0.050841 0.745975
O O1 0.502212 0.750000 0.886302
O O2 0.616488 0.908598 0.786221
O O3 0.550809 0.836082 0.006730
O O4 0.185922 0.864538 0.161871
O O5 0.967746 0.750000 0.001768
O O6 0.802300 0.657268 0.985006
O O7 0.741679 0.589416 0.199082
O O8 0.155576 0.584797 0.828931
O O9 0.587218 0.431306 0.751073
O O10 0.201530 0.468493 0.140341
O O11 0.063523 0.053648 0.787165
O O12 0.500000 0.000000 0.500000
O O13 0.801159 0.954683 0.487598
O O14 0.000000 0.000000 0.500000
#
# Coordination Sequence:
#
# PCOD8072514 Si02
#       6
#     4   4   4   4   4   4
#     4  11  22  34  52  85 119 148 185 234 289 345
#     4  10  22  40  62  89 118 153 198 248 298 351
#     4  10  19  36  60  83 112 149 187 235 289 346
#     4  10  22  41  63  87 116 156 200 248 298 350
#     4  11  18  35  58  81 110 156 192 225 279 349
#     4  10  20  37  58  79 112 151 192 230 286 347
#
# _framework density 19.819991000000002
#
# number of rings (size 3 to 8) (size 9 to 14) (size 15 to 20)
#    0.000    1.667    3.333    2.500    0.000    3.333 
#    0.000    0.000    0.000    0.000    0.000    0.000 
#    0.000    0.000    0.000    0.000    0.000    0.000 
#
# Total GULP energy -297410.309653 kJ/mol
# GULP energy per Si atom -12392.096236 kJ/mol
# Density = 1.977488 g / cm^3
# Si number density = 19.819991 Si / 1000 Ang^3
#
#
#
# Elastic Constant Matrix: (Units=GPa)
#
#
# Indices 1 2 3 4 5 6 
#
# 1 60.3148 22.6742 8.9288 0.0000 4.5669 0.0000
# 2 22.6742 117.5882 36.8851 0.0000 -0.5981 0.0000
# 3 8.9288 36.8851 127.9423 0.0000 10.5956 0.0000
# 4 0.0000 0.0000 0.0000 10.5676 0.0000 0.6321
# 5 4.5669 -0.5981 10.5956 0.0000 31.4419 0.0000
# 6 0.0000 0.0000 0.0000 0.6321 0.0000 14.8110
#
#
#
# Elastic Compliance Matrix: (Units=1/GPa)
#
#
# Indices 1 2 3 4 5 6 
#
# 1 0.018101 -0.003493 -0.000034 0.000000 -0.002684 0.000000
# 2 -0.003493 0.010062 -0.002793 0.000000 0.001640 0.000000
# 3 -0.000034 -0.002793 0.008875 0.000000 -0.003039 0.000000
# 4 0.000000 0.000000 0.000000 0.094871 0.000000 -0.004049
# 5 -0.002684 0.001640 -0.003039 0.000000 0.033250 0.000000
# 6 0.000000 0.000000 0.000000 -0.004049 0.000000 0.067690
#
#
# Mechanical properties :
#
#
# Convention : Reuss Voigt Hill
#
# Bulk Modulus (GPa) = 40.98629 49.20240 45.09435
# Shear Modulus (GPa) = 19.71430 27.18791 23.45110
#
# Velocity S-wave (km/s) = 3.15726 3.70772 3.44351
# Velocity P-wave (km/s) = 5.83225 6.57329 6.21383
#
# Compressibility (1/GPa) = 0.02439840
#
# Stress axis : x y z
#
# Youngs Moduli (GPa) = 55.24492 99.38066 112.67287
#
# Poissons Ratio (x) = 0.34718 0.00381
# Poissons Ratio (y) = 0.19300 0.31469
# Poissons Ratio (z) = 0.00187 0.27756
#
# Static dielectric constant tensor:
#      x y z
#    x 4.169340 0.000000 -0.133810 
#    y 0.000000 3.652510 0.000000 
#    z -0.133810 0.000000 3.907110 
# 
# 
# High freq. dielectric constant tensor:
#      x y z
#    x 1.780340 0.000000 0.003670 
#    y 0.000000 1.753820 0.000000 
#    z 0.003670 0.000000 1.774960 
# 
# From -- ./inp_files/39710.got.cif
#   From: 2010.06.25/outbox.cif.g09.slc.cpg/sg11_20_cif.got.tgz:39710.got - 2010.06.27 23:14:04.
