data_PCOD8072089
_publ_section_title
;
Structure prediction by ZEFSAII (Michael W. Deem and Ramdas Pophale) SiO2 
 PCOD8072089
Probable space group: P 21/M
;
_chemical_formula_sum "Si O2"
_cell_formula_units_Z 32
_cell_length_a 21.121824
_cell_length_b 9.106133
_cell_length_c 11.460690
_cell_angle_alpha 90.000000
_cell_angle_beta 129.657454
_cell_angle_gamma 90.000000
_cell_volume 1697.053922
_symmetry_space_group_name_H-M "P 21/M"
_symmetry_group_IT_number 11
_symmetry_cell_setting 'monoclinic'
loop_
_space_group_symop_operation_xyz
x,y,z
-x,1/2+y,-z
-x,-y,-z
x,1/2-y,z
loop_
_atom_site_type_symbol
_atom_site_label
_atom_site_fract_x
_atom_site_fract_y
_atom_site_fract_z
Si Si1 0.609004 0.417802 0.562723
Si Si2 0.027256 0.087752 0.698788
Si Si3 0.874322 0.087524 0.350644
Si Si4 0.434005 0.421062 0.003040
Si Si5 0.762550 0.080097 0.593723
Si Si6 0.052594 0.576112 0.159418
Si Si7 0.735923 0.580031 0.327024
Si Si8 0.538042 0.421373 0.723992
O O1 0.581531 0.250000 0.505730
O O2 0.703054 0.443892 0.634682
O O3 0.601230 0.451769 0.691560
O O4 0.552045 0.524466 0.419701
O O5 0.063048 0.250000 0.765817
O O6 0.957684 0.099221 0.520056
O O7 0.986201 0.020315 0.765449
O O8 0.103274 0.986665 0.747028
O O9 0.837630 0.250000 0.285170
O O10 0.809949 0.990385 0.343570
O O11 0.456792 0.250000 0.040093
O O12 0.430583 0.490749 0.127291
O O13 0.500000 0.500000 0.000000
O O14 0.346264 0.445886 0.841861
O O15 0.767554 0.250000 0.561846
O O16 0.852823 0.022594 0.735336
O O17 0.726016 0.992714 0.441583
O O18 0.047520 0.750000 0.139508
O O19 0.000000 0.500000 0.000000
O O20 0.755758 0.750000 0.368172
O O21 0.532420 0.250000 0.749162
#
# Coordination Sequence:
#
# PCOD8072089 Si02
#       8
#     4   4   4   4   4   4   4   4
#     4   9  19  36  61  86 112 151 192 234 279 327
#     4   9  18  35  56  80 112 143 179 228 280 330
#     4  10  19  34  58  84 108 143 185 227 278 334
#     4  11  24  40  58  84 118 154 189 233 286 338
#     4  10  20  38  60  82 110 144 190 236 278 334
#     4  10  21  38  57  80 113 147 184 232 282 335
#     4  11  23  37  56  84 116 147 187 236 285 337
#     4  10  20  36  58  86 119 152 191 232 277 336
#
# _framework density 18.856207999999999
#
# number of rings (size 3 to 8) (size 9 to 14) (size 15 to 20)
#    0.000    2.000    1.250    2.250    0.000    6.500 
#    2.250    0.000    0.000    0.000    0.000    0.000 
#    0.000    0.000    0.000    0.000    0.000    0.000 
#
# Total GULP energy -396832.523924 kJ/mol
# GULP energy per Si atom -12401.016373 kJ/mol
# Density = 1.881329 g / cm^3
# Si number density = 18.856208 Si / 1000 Ang^3
#
#
#
# Elastic Constant Matrix: (Units=GPa)
#
#
# Indices 1 2 3 4 5 6 
#
# 1 132.1678 48.6125 41.7589 0.0000 -18.7322 0.0000
# 2 48.6125 95.2350 49.9981 0.0000 -9.5080 0.0000
# 3 41.7589 49.9981 87.1893 0.0000 -16.9580 0.0000
# 4 0.0000 0.0000 0.0000 32.1788 0.0000 -2.5527
# 5 -18.7322 -9.5080 -16.9580 0.0000 17.0165 0.0000
# 6 0.0000 0.0000 0.0000 -2.5527 0.0000 30.5175
#
#
#
# Elastic Compliance Matrix: (Units=1/GPa)
#
#
# Indices 1 2 3 4 5 6 
#
# 1 0.010560 -0.003940 -0.001198 0.000000 0.008230 0.000000
# 2 -0.003940 0.016494 -0.008215 0.000000 -0.003308 0.000000
# 3 -0.001198 -0.008215 0.019356 0.000000 0.013381 0.000000
# 4 0.000000 0.000000 0.000000 0.031284 0.000000 0.002617
# 5 0.008230 -0.003308 0.013381 0.000000 0.079313 0.000000
# 6 0.000000 0.000000 0.000000 0.002617 0.000000 0.032987
#
#
# Mechanical properties :
#
#
# Convention : Reuss Voigt Hill
#
# Bulk Modulus (GPa) = 50.74691 66.14790 58.44741
# Shear Modulus (GPa) = 22.39469 27.55740 24.97605
#
# Velocity S-wave (km/s) = 3.44998 3.82704 3.64339
# Velocity P-wave (km/s) = 6.54529 7.39491 6.98303
#
# Compressibility (1/GPa) = 0.01970563
#
# Stress axis : x y z
#
# Youngs Moduli (GPa) = 94.69586 60.62841 51.66319
#
# Poissons Ratio (x) = 0.23887 0.06188
# Poissons Ratio (y) = 0.37310 0.42439
# Poissons Ratio (z) = 0.11342 0.49804
#
# Static dielectric constant tensor:
#      x y z
#    x -11.912640 0.000000 -6.622370 
#    y 0.000000 3.656310 0.000000 
#    z -6.622370 0.000000 0.509210 
# 
# 
# High freq. dielectric constant tensor:
#      x y z
#    x 1.748500 0.000000 -0.006680 
#    y 0.000000 1.739610 0.000000 
#    z -0.006680 0.000000 1.711410 
# 
# From -- ./inp_files/42932.got.cif
#   From: 2010.06.25/outbox.cif.g09.slc.cpg/sg11_22_cif.got.tgz:42932.got - 2010.06.27 23:14:04.
