data_PCOD8072168
_publ_section_title
;
Structure prediction by ZEFSAII (Michael W. Deem and Ramdas Pophale) SiO2 
 PCOD8072168
Probable space group: P 21/M
;
_chemical_formula_sum "Si O2"
_cell_formula_units_Z 24
_cell_length_a 13.975826
_cell_length_b 13.417535
_cell_length_c 20.470544
_cell_angle_alpha 90.000000
_cell_angle_beta 20.658142
_cell_angle_gamma 90.000000
_cell_volume 1354.245921
_symmetry_space_group_name_H-M "P 21/M"
_symmetry_group_IT_number 11
_symmetry_cell_setting 'monoclinic'
loop_
_space_group_symop_operation_xyz
x,y,z
-x,1/2+y,-z
-x,-y,-z
x,1/2-y,z
loop_
_atom_site_type_symbol
_atom_site_label
_atom_site_fract_x
_atom_site_fract_y
_atom_site_fract_z
Si Si1 0.213903 0.025574 0.104488
Si Si2 0.208313 0.634821 0.542805
Si Si3 0.855734 0.520161 0.524501
Si Si4 0.732357 0.133118 0.820527
Si Si5 0.816839 0.862593 0.131888
Si Si6 0.236063 0.976792 0.941353
O O1 0.946884 0.084030 0.298118
O O2 0.260489 0.924018 0.115060
O O3 0.471134 0.098282 0.946510
O O4 0.167632 0.996776 0.059727
O O5 0.125499 0.750000 0.589567
O O6 0.121768 0.582422 0.530466
O O7 0.527509 0.619810 0.351731
O O8 0.547914 0.553848 0.732564
O O9 0.000000 0.500000 0.500000
O O10 0.001744 0.609112 0.392099
O O11 0.717745 0.250000 0.844454
O O12 0.848572 0.750000 0.088122
O O13 0.843486 0.925787 0.048942
O O14 0.050073 0.886559 0.035121
#
# Coordination Sequence:
#
# PCOD8072168 Si02
#       6
#     4   4   4   4   4   4
#     4  10  20  35  55  79 111 143 180 222 272 324
#     4   9  19  35  54  76 106 142 180 221 268 323
#     4  10  19  35  53  78 111 142 179 222 274 324
#     4  10  21  35  52  79 114 147 180 219 265 330
#     4   9  20  37  55  78 106 140 184 227 267 317
#     4  10  20  36  58  79 108 142 179 226 271 316
#
# _framework density 17.72204
#
# number of rings (size 3 to 8) (size 9 to 14) (size 15 to 20)
#    0.000    2.333    1.667    0.500    0.000    4.000 
#    0.000    0.000    0.000    0.000    0.000    0.000 
#    0.000    0.000    0.000    0.000    0.000    0.000 
#
# Total GULP energy -297663.381740 kJ/mol
# GULP energy per Si atom -12402.640906 kJ/mol
# Density = 1.768170 g / cm^3
# Si number density = 17.722040 Si / 1000 Ang^3
#
#
#
# Elastic Constant Matrix: (Units=GPa)
#
#
# Indices 1 2 3 4 5 6 
#
# 1 117.5693 31.6379 55.8042 0.0000 0.4928 0.0000
# 2 31.6379 101.2090 36.7772 0.0000 -4.5357 0.0000
# 3 55.8042 36.7772 100.9864 0.0000 -1.7581 0.0000
# 4 0.0000 0.0000 0.0000 24.9387 0.0000 -4.7644
# 5 0.4928 -4.5357 -1.7581 0.0000 30.6160 0.0000
# 6 0.0000 0.0000 0.0000 -4.7644 0.0000 15.1822
#
#
#
# Elastic Compliance Matrix: (Units=1/GPa)
#
#
# Indices 1 2 3 4 5 6 
#
# 1 0.011744 -0.001547 -0.005940 0.000000 -0.000759 0.000000
# 2 -0.001547 0.011656 -0.003363 0.000000 0.001559 0.000000
# 3 -0.005940 -0.003363 0.014417 0.000000 0.000425 0.000000
# 4 0.000000 0.000000 0.000000 0.042656 0.000000 0.013386
# 5 -0.000759 0.001559 0.000425 0.000000 0.032930 0.000000
# 6 0.000000 0.000000 0.000000 0.013386 0.000000 0.070067
#
#
# Mechanical properties :
#
#
# Convention : Reuss Voigt Hill
#
# Bulk Modulus (GPa) = 62.04283 63.13372 62.58827
# Shear Modulus (GPa) = 23.74822 27.18373 25.46598
#
# Velocity S-wave (km/s) = 3.66463 3.92074 3.79485
# Velocity P-wave (km/s) = 7.27948 7.49654 7.38881
#
# Compressibility (1/GPa) = 0.01611790
#
# Stress axis : x y z
#
# Youngs Moduli (GPa) = 85.14728 85.79289 69.36420
#
# Poissons Ratio (x) = 0.13272 0.41200
# Poissons Ratio (y) = 0.13172 0.23327
# Poissons Ratio (z) = 0.50575 0.28851
#
# Static dielectric constant tensor:
#      x y z
#    x 3.173360 0.000000 -0.089510 
#    y 0.000000 3.240550 0.000000 
#    z -0.089510 0.000000 3.533340 
# 
# 
# High freq. dielectric constant tensor:
#      x y z
#    x 1.678410 0.000000 -0.003190 
#    y 0.000000 1.680170 0.000000 
#    z -0.003190 0.000000 1.700470 
# 
# From -- ./inp_files/41382.got.cif
#   From: 2010.06.25/outbox.cif.g09.slc.cpg/sg11_21_cif.got.tgz:41382.got - 2010.06.27 23:14:04.
