data_PCOD8072136
_publ_section_title
;
Structure prediction by ZEFSAII (Michael W. Deem and Ramdas Pophale) SiO2 
 PCOD8072136
Probable space group: P 21/M
;
_chemical_formula_sum "Si O2"
_cell_formula_units_Z 32
_cell_length_a 21.470592
_cell_length_b 17.142212
_cell_length_c 10.794303
_cell_angle_alpha 90.000000
_cell_angle_beta 156.148656
_cell_angle_gamma 90.000000
_cell_volume 1606.493960
_symmetry_space_group_name_H-M "P 21/M"
_symmetry_group_IT_number 11
_symmetry_cell_setting 'monoclinic'
loop_
_space_group_symop_operation_xyz
x,y,z
-x,1/2+y,-z
-x,-y,-z
x,1/2-y,z
loop_
_atom_site_type_symbol
_atom_site_label
_atom_site_fract_x
_atom_site_fract_y
_atom_site_fract_z
Si Si1 0.096978 0.836105 0.514548
Si Si2 0.839276 0.940655 0.473127
Si Si3 0.080957 0.057111 0.982863
Si Si4 0.558753 0.337025 0.873129
Si Si5 0.084182 0.839796 0.779513
Si Si6 0.262506 0.341062 0.497566
Si Si7 0.626606 0.490273 0.882356
Si Si8 0.312192 0.546233 0.272403
O O1 0.027639 0.750000 0.372460
O O2 0.118130 0.856037 0.697500
O O3 0.971903 0.893707 0.231888
O O4 0.265420 0.841343 0.754834
O O5 0.734096 0.882509 0.362333
O O6 0.940000 0.890285 0.561628
O O7 0.735519 0.996170 0.198076
O O8 0.941080 0.995256 0.752033
O O9 0.123442 0.117101 0.169235
O O10 0.233896 0.009267 0.230839
O O11 0.531947 0.250000 0.766134
O O12 0.432704 0.351800 0.750646
O O13 0.543089 0.404992 0.742238
O O14 0.053348 0.750000 0.753711
O O15 0.233909 0.868399 0.128891
O O16 0.219575 0.250000 0.432292
O O17 0.491301 0.555077 0.633348
O O18 0.714089 0.493315 0.910825
#
# Coordination Sequence:
#
# PCOD8072136 Si02
#       8
#     4   4   4   4   4   4   4   4
#     4  10  19  34  59  88 114 145 186 234 290 342
#     4  11  23  38  59  83 113 156 191 234 285 340
#     4  11  20  37  58  87 110 145 193 239 287 338
#     4  10  20  37  58  83 114 153 189 231 286 334
#     4  10  20  37  58  84 118 151 185 232 291 349
#     4  11  24  41  57  78 114 154 194 238 281 336
#     4  11  20  38  58  89 120 149 190 238 283 347
#     4  10  21  34  60  89 118 149 187 236 294 338
#
# _framework density 19.919155
#
# number of rings (size 3 to 8) (size 9 to 14) (size 15 to 20)
#    0.000    1.500    3.750    1.875    0.000    2.500 
#    0.000    1.250    0.000    2.250    0.000    0.000 
#    0.000    0.000    0.000    0.000    0.000    0.000 
#
# Total GULP energy -396588.753846 kJ/mol
# GULP energy per Si atom -12393.398558 kJ/mol
# Density = 1.987382 g / cm^3
# Si number density = 19.919155 Si / 1000 Ang^3
#
#
#
# Elastic Constant Matrix: (Units=GPa)
#
#
# Indices 1 2 3 4 5 6 
#
# 1 65.3186 25.5419 16.4861 0.0000 12.8946 0.0000
# 2 25.5419 91.5166 22.6755 0.0000 5.2738 0.0000
# 3 16.4861 22.6755 68.5043 0.0000 4.5961 0.0000
# 4 0.0000 0.0000 0.0000 21.0909 0.0000 1.4794
# 5 12.8946 5.2738 4.5961 0.0000 23.0642 0.0000
# 6 0.0000 0.0000 0.0000 1.4794 0.0000 29.5761
#
#
#
# Elastic Compliance Matrix: (Units=1/GPa)
#
#
# Indices 1 2 3 4 5 6 
#
# 1 0.019494 -0.004241 -0.002657 0.000000 -0.009399 0.000000
# 2 -0.004241 0.012914 -0.003259 0.000000 0.000067 0.000000
# 3 -0.002657 -0.003259 0.016385 0.000000 -0.001035 0.000000
# 4 0.000000 0.000000 0.000000 0.047581 0.000000 -0.002380
# 5 -0.009399 0.000067 -0.001035 0.000000 0.048803 0.000000
# 6 0.000000 0.000000 0.000000 -0.002380 0.000000 0.033930
#
#
# Mechanical properties :
#
#
# Convention : Reuss Voigt Hill
#
# Bulk Modulus (GPa) = 35.11181 39.41629 37.26405
# Shear Modulus (GPa) = 23.93337 25.45530 24.69433
#
# Velocity S-wave (km/s) = 3.47006 3.57869 3.52480
# Velocity P-wave (km/s) = 5.80694 6.07513 5.94255
#
# Compressibility (1/GPa) = 0.02848044
#
# Stress axis : x y z
#
# Youngs Moduli (GPa) = 51.29777 77.43496 61.03099
#
# Poissons Ratio (x) = 0.32838 0.16216
# Poissons Ratio (y) = 0.21754 0.19888
# Poissons Ratio (z) = 0.13630 0.25233
#
# Static dielectric constant tensor:
#      x y z
#    x 3.426780 0.000000 0.199330 
#    y 0.000000 3.854560 0.000000 
#    z 0.199330 0.000000 3.428350 
# 
# 
# High freq. dielectric constant tensor:
#      x y z
#    x 1.761210 0.000000 0.020060 
#    y 0.000000 1.790050 0.000000 
#    z 0.020060 0.000000 1.764030 
# 
# From -- ./inp_files/44348.got.cif
#   From: 2010.06.25/outbox.cif.g09.slc.cpg/sg11_23_cif.got.tgz:44348.got - 2010.06.27 23:14:04.
