data_PCOD8072013
_publ_section_title
;
Structure prediction by ZEFSAII (Michael W. Deem and Ramdas Pophale) SiO2 
 PCOD8072013
Probable space group: P 21/M
;
_chemical_formula_sum "Si O2"
_cell_formula_units_Z 32
_cell_length_a 25.733287
_cell_length_b 9.306605
_cell_length_c 21.021847
_cell_angle_alpha 90.000000
_cell_angle_beta 20.107085
_cell_angle_gamma 90.000000
_cell_volume 1730.743619
_symmetry_space_group_name_H-M "P 21/M"
_symmetry_group_IT_number 11
_symmetry_cell_setting 'monoclinic'
loop_
_space_group_symop_operation_xyz
x,y,z
-x,1/2+y,-z
-x,-y,-z
x,1/2-y,z
loop_
_atom_site_type_symbol
_atom_site_label
_atom_site_fract_x
_atom_site_fract_y
_atom_site_fract_z
Si Si1 0.358953 0.409265 0.180388
Si Si2 0.859231 0.586384 0.686828
Si Si3 0.628129 0.918131 0.314329
Si Si4 0.676063 0.914275 0.641808
Si Si5 0.228954 0.916811 0.583574
Si Si6 0.958172 0.919396 0.984272
Si Si7 0.441344 0.082486 0.750012
Si Si8 0.338332 0.581863 0.987103
O O1 0.419613 0.250000 0.125813
O O2 0.247272 0.410246 0.250985
O O3 0.281799 0.464247 0.334816
O O4 0.500000 0.500000 0.000000
O O5 0.899486 0.750000 0.661314
O O6 0.000000 0.500000 0.500000
O O7 0.787937 0.502371 0.828031
O O8 0.601657 0.750000 0.355296
O O9 0.614235 0.958248 0.256284
O O10 0.500000 0.000000 0.500000
O O11 0.792945 0.965950 0.149613
O O12 0.717943 0.750000 0.580064
O O13 0.498130 0.943064 0.837346
O O14 0.775251 0.006702 0.479641
O O15 0.220767 0.750000 0.578411
O O16 0.380627 0.955813 0.448563
O O17 0.082363 0.968766 0.790253
O O18 0.967040 0.750000 0.986583
O O19 0.000000 0.000000 0.000000
O O20 0.413397 0.250000 0.797639
O O21 0.343814 0.985968 0.910340
O O22 0.295651 0.750000 0.031642
#
# Coordination Sequence:
#
# PCOD8072013 Si02
#       8
#     4   4   4   4   4   4   4   4
#     4  10  20  35  57  82 109 142 184 232 277 328
#     4  11  23  38  56  79 111 149 188 231 281 333
#     4  10  21  37  58  83 114 148 187 229 270 325
#     4   9  18  33  54  81 109 138 177 226 274 323
#     4   9  18  33  53  77 107 143 182 221 268 323
#     4  10  21  37  57  83 114 146 182 224 272 324
#     4   9  18  34  55  78 107 145 185 226 272 326
#     4  10  19  34  57  81 109 143 184 230 277 331
#
# _framework density 18.489163999999999
#
# number of rings (size 3 to 8) (size 9 to 14) (size 15 to 20)
#    0.000    2.250    1.250    1.500    0.000    4.000 
#    2.250    2.500    0.000    0.000    0.000    0.000 
#    0.000    0.000    0.000    0.000    0.000    0.000 
#
# Total GULP energy -396788.946068 kJ/mol
# GULP energy per Si atom -12399.654565 kJ/mol
# Density = 1.844708 g / cm^3
# Si number density = 18.489164 Si / 1000 Ang^3
#
#
#
# Elastic Constant Matrix: (Units=GPa)
#
#
# Indices 1 2 3 4 5 6 
#
# 1 115.4687 52.7751 65.2145 0.0000 22.5210 0.0000
# 2 52.7751 90.2271 73.0634 0.0000 17.7647 0.0000
# 3 65.2145 73.0634 155.2387 0.0000 23.7238 0.0000
# 4 0.0000 0.0000 0.0000 35.4333 0.0000 9.0326
# 5 22.5210 17.7647 23.7238 0.0000 30.1988 0.0000
# 6 0.0000 0.0000 0.0000 9.0326 0.0000 29.8609
#
#
#
# Elastic Compliance Matrix: (Units=1/GPa)
#
#
# Indices 1 2 3 4 5 6 
#
# 1 0.013244 -0.004634 -0.002602 0.000000 -0.005107 0.000000
# 2 -0.004634 0.020071 -0.007073 0.000000 -0.002795 0.000000
# 3 -0.002602 -0.007073 0.011286 0.000000 -0.002765 0.000000
# 4 0.000000 0.000000 0.000000 0.030580 0.000000 -0.009250
# 5 -0.005107 -0.002795 -0.002765 0.000000 0.040739 0.000000
# 6 0.000000 0.000000 0.000000 -0.009250 0.000000 0.036287
#
#
# Mechanical properties :
#
#
# Convention : Reuss Voigt Hill
#
# Bulk Modulus (GPa) = 62.56449 82.56006 72.56227
# Shear Modulus (GPa) = 26.85968 30.42402 28.64185
#
# Velocity S-wave (km/s) = 3.81560 4.06088 3.94015
# Velocity P-wave (km/s) = 7.30230 8.16932 7.74795
#
# Compressibility (1/GPa) = 0.01598351
#
# Stress axis : x y z
#
# Youngs Moduli (GPa) = 75.50579 49.82272 88.60303
#
# Poissons Ratio (x) = 0.23087 0.23058
# Poissons Ratio (y) = 0.34988 0.62667
# Poissons Ratio (z) = 0.19650 0.35238
#
# Static dielectric constant tensor:
#      x y z
#    x 4.046510 0.000000 -1.041770 
#    y 0.000000 3.565830 0.000000 
#    z -1.041770 0.000000 5.719420 
# 
# 
# High freq. dielectric constant tensor:
#      x y z
#    x 1.720420 0.000000 0.014620 
#    y 0.000000 1.718560 0.000000 
#    z 0.014620 0.000000 1.714550 
# 
# From -- ./inp_files/67101.got.cif
#   From: 2010.06.25/outbox.cif.g09.slc.cpg/sg11_34_cif.got.tgz:67101.got - 2010.06.27 23:14:04.
