data_PCOD8072344
_publ_section_title
;
Structure prediction by ZEFSAII (Michael W. Deem and Ramdas Pophale) SiO2 
 PCOD8072344
Probable space group: P 21/M
;
_chemical_formula_sum "Si O2"
_cell_formula_units_Z 28
_cell_length_a 9.439592
_cell_length_b 8.965803
_cell_length_c 24.630505
_cell_angle_alpha 90.000000
_cell_angle_beta 45.607713
_cell_angle_gamma 90.000000
_cell_volume 1489.562062
_symmetry_space_group_name_H-M "P 21/M"
_symmetry_group_IT_number 11
_symmetry_cell_setting 'monoclinic'
loop_
_space_group_symop_operation_xyz
x,y,z
-x,1/2+y,-z
-x,-y,-z
x,1/2-y,z
loop_
_atom_site_type_symbol
_atom_site_label
_atom_site_fract_x
_atom_site_fract_y
_atom_site_fract_z
Si Si1 0.790647 0.423722 0.711547
Si Si2 0.011217 0.073950 0.759159
Si Si3 0.819174 0.426989 0.579323
Si Si4 0.414890 0.588218 0.800194
Si Si5 0.008209 0.071975 0.055536
Si Si6 0.286931 0.926896 0.064654
Si Si7 0.572669 0.415799 0.328731
O O1 0.762680 0.250000 0.721618
O O2 0.949661 0.473902 0.714344
O O3 0.846188 0.474346 0.635570
O O4 0.577214 0.487643 0.786492
O O5 0.047864 0.250000 0.754366
O O6 0.837337 0.024450 0.847954
O O7 0.218566 0.992922 0.714557
O O8 0.823669 0.250000 0.572022
O O9 0.617755 0.484675 0.603378
O O10 0.000000 0.500000 0.500000
O O11 0.421410 0.750000 0.827060
O O12 0.463377 0.602752 0.724697
O O13 0.196693 0.521392 0.862240
O O14 0.043294 0.250000 0.045832
O O15 0.177717 0.987568 0.041568
O O16 0.000000 0.000000 0.000000
O O17 0.309655 0.750000 0.056980
O O18 0.500000 0.000000 0.000000
O O19 0.567941 0.250000 0.357114
#
# Coordination Sequence:
#
# PCOD8072344 Si02
#       7
#     4   4   4   4   4   4   4
#     4   9  20  36  57  84 113 146 186 230 279 335
#     4  10  21  38  58  83 114 150 191 235 285 341
#     4  10  20  37  61  88 118 150 185 230 280 337
#     4   9  19  35  54  78 107 141 184 233 281 333
#     4  11  23  39  56  80 111 147 193 244 295 348
#     4  11  24  40  58  82 115 156 197 244 298 351
#     4  10  19  35  59  85 112 147 187 229 279 335
#
# _framework density 18.797471000000002
#
# number of rings (size 3 to 8) (size 9 to 14) (size 15 to 20)
#    0.000    2.000    1.429    1.714    2.000    3.429 
#    0.000    0.714    0.000    0.000    0.000    0.000 
#    0.000    0.000    0.000    0.000    0.000    0.000 
#
# Total GULP energy -346964.706815 kJ/mol
# GULP energy per Si atom -12391.596672 kJ/mol
# Density = 1.875469 g / cm^3
# Si number density = 18.797471 Si / 1000 Ang^3
#
#
#
# Elastic Constant Matrix: (Units=GPa)
#
#
# Indices 1 2 3 4 5 6 
#
# 1 129.2090 61.0104 65.5083 0.0000 -18.1054 0.0000
# 2 61.0104 73.3896 58.7662 0.0000 -13.4539 0.0000
# 3 65.5083 58.7662 124.1368 0.0000 -29.6452 0.0000
# 4 0.0000 0.0000 0.0000 31.4840 0.0000 -9.4505
# 5 -18.1054 -13.4539 -29.6452 0.0000 31.2441 0.0000
# 6 0.0000 0.0000 0.0000 -9.4505 0.0000 31.2541
#
#
#
# Elastic Compliance Matrix: (Units=1/GPa)
#
#
# Indices 1 2 3 4 5 6 
#
# 1 0.013413 -0.008850 -0.002512 0.000000 0.001579 0.000000
# 2 -0.008850 0.027790 -0.008860 0.000000 -0.001569 0.000000
# 3 -0.002512 -0.008860 0.015925 0.000000 0.009840 0.000000
# 4 0.000000 0.000000 0.000000 0.034933 0.000000 0.010563
# 5 0.001579 -0.001569 0.009840 0.000000 0.041581 0.000000
# 6 0.000000 0.000000 0.000000 0.010563 0.000000 0.035190
#
#
# Mechanical properties :
#
#
# Convention : Reuss Voigt Hill
#
# Bulk Modulus (GPa) = 59.93453 77.47836 68.70645
# Shear Modulus (GPa) = 23.27344 28.22646 25.74995
#
# Velocity S-wave (km/s) = 3.52250 3.87926 3.70518
# Velocity P-wave (km/s) = 6.96402 7.83402 7.41180
#
# Compressibility (1/GPa) = 0.01668487
#
# Stress axis : x y z
#
# Youngs Moduli (GPa) = 74.55641 35.98389 62.79314
#
# Poissons Ratio (x) = 0.31845 0.15771
# Poissons Ratio (y) = 0.65980 0.55637
# Poissons Ratio (z) = 0.18725 0.31883
#
# Static dielectric constant tensor:
#      x y z
#    x 3.569440 0.000000 0.009340 
#    y 0.000000 3.723150 0.000000 
#    z 0.009340 0.000000 3.468150 
# 
# 
# High freq. dielectric constant tensor:
#      x y z
#    x 1.729960 0.000000 -0.014150 
#    y 0.000000 1.737120 0.000000 
#    z -0.014150 0.000000 1.725530 
# 
# From -- ./inp_files/28325.got.cif
#   From: 2010.06.25/outbox.cif.g09.slc.cpg/sg11_15_cif.got.tgz:28325.got - 2010.06.27 23:14:04.
