data_PCOD8072032
_publ_section_title
;
Structure prediction by ZEFSAII (Michael W. Deem and Ramdas Pophale) SiO2 
 PCOD8072032
Probable space group: P 21/M
;
_chemical_formula_sum "Si O2"
_cell_formula_units_Z 32
_cell_length_a 32.541730
_cell_length_b 8.982054
_cell_length_c 12.653562
_cell_angle_alpha 90.000000
_cell_angle_beta 26.623962
_cell_angle_gamma 90.000000
_cell_volume 1657.433149
_symmetry_space_group_name_H-M "P 21/M"
_symmetry_group_IT_number 11
_symmetry_cell_setting 'monoclinic'
loop_
_space_group_symop_operation_xyz
x,y,z
-x,1/2+y,-z
-x,-y,-z
x,1/2-y,z
loop_
_atom_site_type_symbol
_atom_site_label
_atom_site_fract_x
_atom_site_fract_y
_atom_site_fract_z
Si Si1 0.651903 0.420158 0.733574
Si Si2 0.860362 0.080239 0.317656
Si Si3 0.375185 0.578763 0.610627
Si Si4 0.897595 0.425966 0.463528
Si Si5 0.583968 0.921961 0.086733
Si Si6 0.707663 0.573626 0.398657
Si Si7 0.094705 0.074774 0.992001
Si Si8 0.292980 0.926110 0.021394
O O1 0.620178 0.250000 0.791460
O O2 0.752043 0.432648 0.552071
O O3 0.647608 0.500091 0.629690
O O4 0.583806 0.500951 0.971968
O O5 0.893161 0.250000 0.231272
O O6 0.883208 0.009763 0.378824
O O7 0.913003 0.985026 0.109177
O O8 0.348254 0.750000 0.650065
O O9 0.483733 0.557819 0.366566
O O10 0.331462 0.474916 0.622978
O O11 0.334977 0.522123 0.814138
O O12 0.891986 0.250000 0.467150
O O13 0.999632 0.473836 0.270424
O O14 0.814334 0.478375 0.730601
O O15 0.610313 0.750000 0.012273
O O16 0.655562 0.997124 0.000547
O O17 0.701499 0.750000 0.424863
O O18 0.813733 0.515230 0.160472
O O19 0.101029 0.250000 0.969709
O O20 0.303445 0.750000 0.013385
#
# Coordination Sequence:
#
# PCOD8072032 Si02
#       8
#     4   4   4   4   4   4   4   4
#     4  10  19  34  57  83 112 146 181 219 267 327
#     4   9  16  28  48  76 108 141 175 211 258 320
#     4  10  23  40  58  78 104 146 190 226 268 325
#     4   9  16  30  52  78 107 139 177 216 262 320
#     4  11  22  36  56  85 114 137 174 227 282 328
#     4  10  21  37  56  80 112 146 183 227 272 315
#     4   9  18  31  50  77 108 141 175 217 266 314
#     4  10  20  38  60  81 108 143 184 223 268 325
#
# _framework density 19.306964000000001
#
# number of rings (size 3 to 8) (size 9 to 14) (size 15 to 20)
#    0.000    2.250    1.250    1.875    0.000    3.000 
#    0.000    1.250    0.000    0.000    0.000    0.000 
#    0.000    0.000    0.000    0.000    0.000    0.000 
#
# Total GULP energy -396717.640869 kJ/mol
# GULP energy per Si atom -12397.426277 kJ/mol
# Density = 1.926302 g / cm^3
# Si number density = 19.306964 Si / 1000 Ang^3
#
#
#
# Elastic Constant Matrix: (Units=GPa)
#
#
# Indices 1 2 3 4 5 6 
#
# 1 72.2777 28.3698 35.0377 0.0000 15.4384 0.0000
# 2 28.3698 58.6240 32.7258 0.0000 7.2728 0.0000
# 3 35.0377 32.7258 124.7722 0.0000 18.6281 0.0000
# 4 0.0000 0.0000 0.0000 22.0053 0.0000 6.4108
# 5 15.4384 7.2728 18.6281 0.0000 12.8963 0.0000
# 6 0.0000 0.0000 0.0000 6.4108 0.0000 16.3588
#
#
#
# Elastic Compliance Matrix: (Units=1/GPa)
#
#
# Indices 1 2 3 4 5 6 
#
# 1 0.021527 -0.007297 -0.001145 0.000000 -0.020001 0.000000
# 2 -0.007297 0.022685 -0.004201 0.000000 0.002010 0.000000
# 3 -0.001145 -0.004201 0.011321 0.000000 -0.012613 0.000000
# 4 0.000000 0.000000 0.000000 0.051301 0.000000 -0.020104
# 5 -0.020001 0.002010 -0.012613 0.000000 0.118570 0.000000
# 6 0.000000 0.000000 0.000000 -0.020104 0.000000 0.069008
#
#
# Mechanical properties :
#
#
# Convention : Reuss Voigt Hill
#
# Bulk Modulus (GPa) = 33.06130 49.77116 41.41623
# Shear Modulus (GPa) = 15.16167 20.88812 18.02489
#
# Velocity S-wave (km/s) = 2.80535 3.29279 3.05879
# Velocity P-wave (km/s) = 5.25876 6.34755 5.82863
#
# Compressibility (1/GPa) = 0.03024684
#
# Stress axis : x y z
#
# Youngs Moduli (GPa) = 46.45341 44.08252 88.33113
#
# Poissons Ratio (x) = 0.32167 0.10115
# Poissons Ratio (y) = 0.33897 0.37107
# Poissons Ratio (z) = 0.05319 0.18519
#
# Static dielectric constant tensor:
#      x y z
#    x 3.351520 0.000000 -0.065070 
#    y 0.000000 3.408480 0.000000 
#    z -0.065070 0.000000 3.967990 
# 
# 
# High freq. dielectric constant tensor:
#      x y z
#    x 1.732800 0.000000 -0.006920 
#    y 0.000000 1.736890 0.000000 
#    z -0.006920 0.000000 1.764020 
# 
# From -- ./inp_files/45200.got.cif
#   From: 2010.06.25/outbox.cif.g09.slc.cpg/sg11_23_cif.got.tgz:45200.got - 2010.06.27 23:14:04.
