data_PCOD8072471
_publ_section_title
;
Structure prediction by ZEFSAII (Michael W. Deem and Ramdas Pophale) SiO2 
 PCOD8072471
Probable space group: P 21/M
;
_chemical_formula_sum "Si O2"
_cell_formula_units_Z 32
_cell_length_a 23.926248
_cell_length_b 9.070108
_cell_length_c 15.099173
_cell_angle_alpha 90.000000
_cell_angle_beta 150.593456
_cell_angle_gamma 90.000000
_cell_volume 1608.883475
_symmetry_space_group_name_H-M "P 21/M"
_symmetry_group_IT_number 11
_symmetry_cell_setting 'monoclinic'
loop_
_space_group_symop_operation_xyz
x,y,z
-x,1/2+y,-z
-x,-y,-z
x,1/2-y,z
loop_
_atom_site_type_symbol
_atom_site_label
_atom_site_fract_x
_atom_site_fract_y
_atom_site_fract_z
Si Si1 0.950880 0.408960 0.011190
Si Si2 0.303073 0.589018 0.397135
Si Si3 0.224421 0.077525 0.973570
Si Si4 0.006043 0.573411 0.732493
Si Si5 0.391475 0.921975 0.705107
Si Si6 0.383915 0.079615 0.351537
Si Si7 0.232675 0.573365 0.642957
Si Si8 0.350686 0.423626 0.965593
O O1 0.012676 0.250000 0.098335
O O2 0.967577 0.481757 0.130742
O O3 0.821787 0.385723 0.809106
O O4 0.000000 0.500000 0.000000
O O5 0.366508 0.750000 0.473751
O O6 0.312405 0.538696 0.511850
O O7 0.351719 0.455912 0.407420
O O8 0.194349 0.250000 0.936989
O O9 0.305071 0.043302 0.001138
O O10 0.291418 0.022214 0.153276
O O11 0.106155 0.987123 0.806545
O O12 0.001355 0.750000 0.717573
O O13 0.887903 0.501590 0.541435
O O14 0.402308 0.750000 0.734429
O O15 0.326385 0.986235 0.701174
O O16 0.519471 0.983119 0.866512
O O17 0.402965 0.250000 0.363744
O O18 0.500000 0.000000 0.500000
O O19 0.219506 0.750000 0.622025
O O20 0.272396 0.519281 0.793279
O O21 0.341009 0.250000 0.930256
#
# Coordination Sequence:
#
# PCOD8072471 Si02
#       8
#     4   4   4   4   4   4   4   4
#     4  10  21  35  56  85 119 158 196 239 291 347
#     4  10  19  36  58  84 117 155 193 233 287 349
#     4  10  22  40  62  87 120 162 204 248 302 362
#     4  11  23  40  61  88 122 161 203 253 302 352
#     4   9  19  37  63  90 122 159 196 243 305 368
#     4  11  22  36  57  86 119 157 197 240 289 350
#     4  11  23  40  63  90 118 158 203 250 309 368
#     4  10  21  40  63  88 117 155 201 254 309 362
#
# _framework density 19.889569999999999
#
# number of rings (size 3 to 8) (size 9 to 14) (size 15 to 20)
#    0.000    1.750    1.250    3.000    0.000    6.000 
#    0.000    3.750    0.000    0.000    0.000    0.000 
#    0.000    0.000    0.000    0.000    0.000    0.000 
#
# Total GULP energy -396651.865382 kJ/mol
# GULP energy per Si atom -12395.370793 kJ/mol
# Density = 1.984430 g / cm^3
# Si number density = 19.889570 Si / 1000 Ang^3
#
#
#
# Elastic Constant Matrix: (Units=GPa)
#
#
# Indices 1 2 3 4 5 6 
#
# 1 83.0911 34.0178 6.9755 0.0000 6.7634 0.0000
# 2 34.0178 63.5236 31.3575 0.0000 5.8538 0.0000
# 3 6.9755 31.3575 78.6713 0.0000 1.4357 0.0000
# 4 0.0000 0.0000 0.0000 40.5546 0.0000 2.9820
# 5 6.7634 5.8538 1.4357 0.0000 39.8275 0.0000
# 6 0.0000 0.0000 0.0000 2.9820 0.0000 33.1960
#
#
#
# Elastic Compliance Matrix: (Units=1/GPa)
#
#
# Indices 1 2 3 4 5 6 
#
# 1 0.015859 -0.009567 0.002432 0.000000 -0.001375 0.000000
# 2 -0.009567 0.025642 -0.009339 0.000000 -0.001808 0.000000
# 3 0.002432 -0.009339 0.016211 0.000000 0.000375 0.000000
# 4 0.000000 0.000000 0.000000 0.024822 0.000000 -0.002230
# 5 -0.001375 -0.001808 0.000375 0.000000 0.025594 0.000000
# 6 0.000000 0.000000 0.000000 -0.002230 0.000000 0.030324
#
#
# Mechanical properties :
#
#
# Convention : Reuss Voigt Hill
#
# Bulk Modulus (GPa) = 40.38037 41.10974 40.74505
# Shear Modulus (GPa) = 27.83092 32.91130 30.37111
#
# Velocity S-wave (km/s) = 3.74474 4.07221 3.91191
# Velocity P-wave (km/s) = 6.24851 6.54404 6.39798
#
# Compressibility (1/GPa) = 0.02476451
#
# Stress axis : x y z
#
# Youngs Moduli (GPa) = 63.05411 38.99824 61.68566
#
# Poissons Ratio (x) = 0.37309 -0.15003
# Poissons Ratio (y) = 0.60323 0.57611
# Poissons Ratio (z) = -0.15335 0.36422
#
# Static dielectric constant tensor:
#      x y z
#    x 3.578080 0.000000 0.010260 
#    y 0.000000 3.352060 0.000000 
#    z 0.010260 0.000000 3.581750 
# 
# 
# High freq. dielectric constant tensor:
#      x y z
#    x 1.782310 0.000000 -0.000230 
#    y 0.000000 1.761730 0.000000 
#    z -0.000230 0.000000 1.784130 
# 
# From -- ./inp_files/49445.got.cif
#   From: 2010.06.25/outbox.cif.g09.slc.cpg/sg11_25_cif.got.tgz:49445.got - 2010.06.27 23:14:04.
