data_PCOD8072628
_publ_section_title
;
Structure prediction by ZEFSAII (Michael W. Deem and Ramdas Pophale) SiO2 
 PCOD8072628
Probable space group: P 21/M
;
_chemical_formula_sum "Si O2"
_cell_formula_units_Z 32
_cell_length_a 12.784048
_cell_length_b 8.907261
_cell_length_c 31.835731
_cell_angle_alpha 90.000000
_cell_angle_beta 153.707641
_cell_angle_gamma 90.000000
_cell_volume 1605.771340
_symmetry_space_group_name_H-M "P 21/M"
_symmetry_group_IT_number 11
_symmetry_cell_setting 'monoclinic'
loop_
_space_group_symop_operation_xyz
x,y,z
-x,1/2+y,-z
-x,-y,-z
x,1/2-y,z
loop_
_atom_site_type_symbol
_atom_site_label
_atom_site_fract_x
_atom_site_fract_y
_atom_site_fract_z
Si Si1 0.535366 0.917655 0.636298
Si Si2 0.466718 0.425764 0.226372
Si Si3 0.755827 0.572669 0.399039
Si Si4 0.846012 0.922617 0.208820
Si Si5 0.047182 0.571667 0.928965
Si Si6 0.913410 0.083225 0.150558
Si Si7 0.603564 0.424233 0.578103
Si Si8 0.463313 0.425314 0.127509
O O1 0.422959 0.750000 0.597470
O O2 0.811995 0.905645 0.741401
O O3 0.441071 0.022543 0.638963
O O4 0.473343 0.995097 0.569884
O O5 0.497735 0.250000 0.247024
O O6 0.676823 0.515217 0.324807
O O7 0.491235 0.463207 0.186360
O O8 0.214804 0.483309 0.153211
O O9 0.781777 0.750000 0.407808
O O10 0.000000 0.500000 0.500000
O O11 0.770392 0.750000 0.184095
O O12 0.116168 0.948115 0.318909
O O13 0.692780 0.016171 0.186216
O O14 0.793013 0.976814 0.142011
O O15 0.058128 0.750000 0.935289
O O16 0.120964 0.516763 0.908715
O O17 0.226383 0.503939 0.026729
O O18 0.801830 0.250000 0.113784
O O19 0.500000 0.500000 0.500000
O O20 0.536423 0.250000 0.554653
O O21 0.437765 0.250000 0.110222
#
# Coordination Sequence:
#
# PCOD8072628 Si02
#       8
#     4   4   4   4   4   4   4   4
#     4  10  19  37  61  85 117 153 193 246 303 359
#     4  10  22  43  64  87 122 161 204 253 304 359
#     4  12  25  40  62  91 122 158 201 249 303 363
#     4  10  22  39  58  83 120 158 199 250 300 357
#     4  10  20  38  64  90 120 158 200 249 306 365
#     4   9  18  35  62  88 114 153 195 242 298 355
#     4  10  21  37  59  88 117 155 204 250 302 364
#     4  11  24  39  60  89 123 162 203 250 303 363
#
# _framework density 19.928118999999999
#
# number of rings (size 3 to 8) (size 9 to 14) (size 15 to 20)
#    0.000    1.750    1.250    3.000    0.000    5.500 
#    0.000    2.500    0.000    0.000    0.000    0.000 
#    0.000    0.000    0.000    0.000    0.000    0.000 
#
# Total GULP energy -396886.733418 kJ/mol
# GULP energy per Si atom -12402.710419 kJ/mol
# Density = 1.988276 g / cm^3
# Si number density = 19.928119 Si / 1000 Ang^3
#
#
#
# Elastic Constant Matrix: (Units=GPa)
#
#
# Indices 1 2 3 4 5 6 
#
# 1 123.1644 46.8708 41.5795 0.0000 -20.0222 0.0000
# 2 46.8708 85.7917 46.7505 0.0000 -15.2032 0.0000
# 3 41.5795 46.7505 79.6477 0.0000 -19.4436 0.0000
# 4 0.0000 0.0000 0.0000 32.7621 0.0000 -1.0381
# 5 -20.0222 -15.2032 -19.4436 0.0000 28.5133 0.0000
# 6 0.0000 0.0000 0.0000 -1.0381 0.0000 29.6400
#
#
#
# Elastic Compliance Matrix: (Units=1/GPa)
#
#
# Indices 1 2 3 4 5 6 
#
# 1 0.011136 -0.004029 -0.002476 0.000000 0.003983 0.000000
# 2 -0.004029 0.018775 -0.008594 0.000000 0.001321 0.000000
# 3 -0.002476 -0.008594 0.020815 0.000000 0.007872 0.000000
# 4 0.000000 0.000000 0.000000 0.030557 0.000000 0.001070
# 5 0.003983 0.001321 0.007872 0.000000 0.043941 0.000000
# 6 0.000000 0.000000 0.000000 0.001070 0.000000 0.033776
#
#
# Mechanical properties :
#
#
# Convention : Reuss Voigt Hill
#
# Bulk Modulus (GPa) = 48.71883 62.11171 55.41527
# Shear Modulus (GPa) = 25.50511 28.40995 26.95753
#
# Velocity S-wave (km/s) = 3.58139 3.77984 3.68195
# Velocity P-wave (km/s) = 6.44997 7.09120 6.77817
#
# Compressibility (1/GPa) = 0.02052594
#
# Stress axis : x y z
#
# Youngs Moduli (GPa) = 89.80023 53.26357 48.04334
#
# Poissons Ratio (x) = 0.21458 0.11898
# Poissons Ratio (y) = 0.36176 0.41291
# Poissons Ratio (z) = 0.22239 0.45777
#
# Static dielectric constant tensor:
#      x y z
#    x 4.080750 0.000000 -0.127460 
#    y 0.000000 3.879640 0.000000 
#    z -0.127460 0.000000 3.523570 
# 
# 
# High freq. dielectric constant tensor:
#      x y z
#    x 1.787240 0.000000 -0.010300 
#    y 0.000000 1.781380 0.000000 
#    z -0.010300 0.000000 1.774540 
# 
# From -- ./inp_files/73139.got.cif
#   From: 2010.06.25/outbox.cif.g09.slc.cpg/sg11_37_cif.got.tgz:73139.got - 2010.06.27 23:14:04.
