data_PCOD8072754
_publ_section_title
;
Structure prediction by ZEFSAII (Michael W. Deem and Ramdas Pophale) SiO2 
 PCOD8072754
Probable space group: P 21/M
;
_chemical_formula_sum "Si O2"
_cell_formula_units_Z 32
_cell_length_a 23.057446
_cell_length_b 9.082580
_cell_length_c 17.150487
_cell_angle_alpha 90.000000
_cell_angle_beta 31.470176
_cell_angle_gamma 90.000000
_cell_volume 1875.050095
_symmetry_space_group_name_H-M "P 21/M"
_symmetry_group_IT_number 11
_symmetry_cell_setting 'monoclinic'
loop_
_space_group_symop_operation_xyz
x,y,z
-x,1/2+y,-z
-x,-y,-z
x,1/2-y,z
loop_
_atom_site_type_symbol
_atom_site_label
_atom_site_fract_x
_atom_site_fract_y
_atom_site_fract_z
Si Si1 0.173243 0.922867 0.148634
Si Si2 0.394489 0.078652 0.452797
Si Si3 0.927440 0.578235 0.422865
Si Si4 0.824053 0.417645 0.680626
Si Si5 0.400320 0.918119 0.154349
Si Si6 0.382237 0.423038 0.637250
Si Si7 0.646231 0.425677 0.179756
Si Si8 0.713896 0.924879 0.578158
O O1 0.193339 0.750000 0.131574
O O2 0.179087 0.989058 0.229302
O O3 0.051970 0.959480 0.250933
O O4 0.270360 0.987130 0.982254
O O5 0.408637 0.250000 0.422011
O O6 0.333262 0.049002 0.606128
O O7 0.521254 0.016277 0.304157
O O8 0.315504 0.015459 0.474861
O O9 0.912608 0.750000 0.454430
O O10 0.908865 0.504335 0.528134
O O11 0.838671 0.523929 0.459453
O O12 0.866481 0.250000 0.635708
O O13 0.701332 0.428405 0.787904
O O14 0.432028 0.750000 0.136438
O O15 0.375164 0.000856 0.263408
O O16 0.500000 0.000000 0.000000
O O17 0.500000 0.500000 0.500000
O O18 0.393961 0.250000 0.640863
O O19 0.312049 0.501410 0.786278
O O20 0.652012 0.250000 0.182302
O O21 0.702162 0.750000 0.598330
#
# Coordination Sequence:
#
# PCOD8072754 Si02
#       8
#     4   4   4   4   4   4   4   4
#     4   9  17  29  47  68  89 118 154 188 223 266
#     4   8  15  27  47  68  86 116 150 176 212 272
#     4   9  17  30  47  67  90 115 150 196 229 253
#     4   9  18  31  47  64  85 120 158 186 220 270
#     4  10  20  31  44  63  90 122 151 183 225 267
#     4   9  16  29  47  67  92 118 146 179 221 271
#     4   9  17  29  46  67  91 118 150 183 220 269
#     4   9  17  30  48  67  88 116 152 186 220 264
#
# _framework density 17.066210000000002
#
# number of rings (size 3 to 8) (size 9 to 14) (size 15 to 20)
#    0.000    3.000    0.000    1.875    1.750    0.500 
#    0.000    4.375    0.000    0.750    0.000    0.000 
#    0.000    0.000    0.000    0.000    0.000    0.500 
#
# Total GULP energy -396532.089015 kJ/mol
# GULP energy per Si atom -12391.627782 kJ/mol
# Density = 1.702737 g / cm^3
# Si number density = 17.066210 Si / 1000 Ang^3
#
#
#
# Elastic Constant Matrix: (Units=GPa)
#
#
# Indices 1 2 3 4 5 6 
#
# 1 127.9986 22.6522 55.7541 0.0000 24.1686 0.0000
# 2 22.6522 34.7910 16.9183 0.0000 5.7114 0.0000
# 3 55.7541 16.9183 88.3931 0.0000 14.6762 0.0000
# 4 0.0000 0.0000 0.0000 21.1069 0.0000 6.5343
# 5 24.1686 5.7114 14.6762 0.0000 19.7871 0.0000
# 6 0.0000 0.0000 0.0000 6.5343 0.0000 19.1023
#
#
#
# Elastic Compliance Matrix: (Units=1/GPa)
#
#
# Indices 1 2 3 4 5 6 
#
# 1 0.012967 -0.003960 -0.005681 0.000000 -0.010482 0.000000
# 2 -0.003960 0.033397 -0.003532 0.000000 -0.002184 0.000000
# 3 -0.005681 -0.003532 0.016252 0.000000 -0.004096 0.000000
# 4 0.000000 0.000000 0.000000 0.052989 0.000000 -0.018126
# 5 -0.010482 -0.002184 -0.004096 0.000000 0.067009 0.000000
# 6 0.000000 0.000000 0.000000 -0.018126 0.000000 0.058550
#
#
# Mechanical properties :
#
#
# Convention : Reuss Voigt Hill
#
# Bulk Modulus (GPa) = 27.56965 49.09244 38.33104
# Shear Modulus (GPa) = 17.88262 22.38978 20.13620
#
# Velocity S-wave (km/s) = 3.24054 3.62600 3.43867
# Velocity P-wave (km/s) = 5.49464 6.80873 6.18667
#
# Compressibility (1/GPa) = 0.03627177
#
# Stress axis : x y z
#
# Youngs Moduli (GPa) = 77.11921 29.94260 61.52941
#
# Poissons Ratio (x) = 0.11856 0.34953
# Poissons Ratio (y) = 0.30536 0.21733
# Poissons Ratio (z) = 0.43809 0.10576
#
# Static dielectric constant tensor:
#      x y z
#    x 3.645560 0.000000 0.249840 
#    y 0.000000 3.097100 0.000000 
#    z 0.249840 0.000000 2.922840 
# 
# 
# High freq. dielectric constant tensor:
#      x y z
#    x 1.659860 0.000000 0.008520 
#    y 0.000000 1.635800 0.000000 
#    z 0.008520 0.000000 1.641990 
# 
# From -- ./inp_files/43759.got.cif
#   From: 2010.06.25/outbox.cif.g09.slc.cpg/sg11_22_cif.got.tgz:43759.got - 2010.06.27 23:14:04.
