data_PCOD8072242
_publ_section_title
;
Structure prediction by ZEFSAII (Michael W. Deem and Ramdas Pophale) SiO2 
 PCOD8072242
Probable space group: P 21/M
;
_chemical_formula_sum "Si O2"
_cell_formula_units_Z 32
_cell_length_a 8.481133
_cell_length_b 21.413111
_cell_length_c 15.946091
_cell_angle_alpha 90.000000
_cell_angle_beta 144.213479
_cell_angle_gamma 90.000000
_cell_volume 1693.443174
_symmetry_space_group_name_H-M "P 21/M"
_symmetry_group_IT_number 11
_symmetry_cell_setting 'monoclinic'
loop_
_space_group_symop_operation_xyz
x,y,z
-x,1/2+y,-z
-x,-y,-z
x,1/2-y,z
loop_
_atom_site_type_symbol
_atom_site_label
_atom_site_fract_x
_atom_site_fract_y
_atom_site_fract_z
Si Si1 0.748820 0.821639 0.244129
Si Si2 0.626564 0.180424 0.070860
Si Si3 0.232426 0.033244 0.146854
Si Si4 0.015515 0.044409 0.386923
Si Si5 0.713731 0.561853 0.331255
Si Si6 0.649551 0.179284 0.440190
Si Si7 0.558468 0.134951 0.218137
Si Si8 0.846785 0.595775 0.721351
O O1 0.682221 0.750000 0.243959
O O2 0.630416 0.834742 0.100121
O O3 0.609340 0.873917 0.243846
O O4 0.070223 0.833139 0.389707
O O5 0.729943 0.250000 0.096393
O O6 0.519353 0.180102 0.121286
O O7 0.880066 0.136315 0.160551
O O8 0.281282 0.101705 0.127043
O O9 0.138263 0.043467 0.200961
O O10 0.488361 0.989057 0.251701
O O11 0.000000 0.000000 0.000000
O O12 0.736162 0.080018 0.255732
O O13 0.169242 0.079263 0.528201
O O14 0.187511 0.054608 0.377282
O O15 0.952353 0.971161 0.378528
O O16 0.556611 0.250000 0.412934
O O17 0.686859 0.167544 0.356068
O O18 0.419948 0.137218 0.382695
#
# Coordination Sequence:
#
# PCOD8072242 Si02
#       8
#     4   4   4   4   4   4   4   4
#     4  10  21  36  58  83 110 146 187 227 277 329
#     4  10  20  36  58  81 111 149 188 230 272 331
#     4  10  21  35  53  80 114 144 178 229 287 331
#     4   9  19  34  57  82 104 140 188 226 273 322
#     4  10  19  37  57  77 111 146 182 230 272 333
#     4  10  19  35  57  80 112 145 181 232 277 323
#     4   9  18  35  56  81 106 142 193 221 265 338
#     4  10  21  36  54  86 111 140 190 229 280 335
#
# _framework density 18.896412999999999
#
# number of rings (size 3 to 8) (size 9 to 14) (size 15 to 20)
#    0.000    2.250    1.250    1.500    1.750    1.500 
#    2.250    4.375    0.000    0.750    0.000    0.000 
#    0.000    0.000    0.000    0.000    0.000    0.000 
#
# Total GULP energy -396506.181614 kJ/mol
# GULP energy per Si atom -12390.818175 kJ/mol
# Density = 1.885340 g / cm^3
# Si number density = 18.896413 Si / 1000 Ang^3
#
#
#
# Elastic Constant Matrix: (Units=GPa)
#
#
# Indices 1 2 3 4 5 6 
#
# 1 115.3443 49.0202 57.9055 0.0000 -24.5600 0.0000
# 2 49.0202 87.9178 42.8350 0.0000 -13.4508 0.0000
# 3 57.9055 42.8350 117.7234 0.0000 -13.8519 0.0000
# 4 0.0000 0.0000 0.0000 28.8572 0.0000 -0.6554
# 5 -24.5600 -13.4508 -13.8519 0.0000 27.3510 0.0000
# 6 0.0000 0.0000 0.0000 -0.6554 0.0000 23.7519
#
#
#
# Elastic Compliance Matrix: (Units=1/GPa)
#
#
# Indices 1 2 3 4 5 6 
#
# 1 0.014800 -0.004711 -0.004545 0.000000 0.008671 0.000000
# 2 -0.004711 0.015871 -0.003230 0.000000 0.001940 0.000000
# 3 -0.004545 -0.003230 0.011950 0.000000 0.000382 0.000000
# 4 0.000000 0.000000 0.000000 0.034675 0.000000 0.000957
# 5 0.008671 0.001940 0.000382 0.000000 0.045495 0.000000
# 6 0.000000 0.000000 0.000000 0.000957 0.000000 0.042128
#
#
# Mechanical properties :
#
#
# Convention : Reuss Voigt Hill
#
# Bulk Modulus (GPa) = 56.65748 68.94521 62.80135
# Shear Modulus (GPa) = 25.53952 27.40700 26.47326
#
# Velocity S-wave (km/s) = 3.68034 3.81252 3.74701
# Velocity P-wave (km/s) = 6.93600 7.47967 7.21296
#
# Compressibility (1/GPa) = 0.01764992
#
# Stress axis : x y z
#
# Youngs Moduli (GPa) = 67.56794 63.00786 83.67943
#
# Poissons Ratio (x) = 0.29682 0.38036
# Poissons Ratio (y) = 0.31830 0.27024
# Poissons Ratio (z) = 0.30712 0.20349
#
# Static dielectric constant tensor:
#      x y z
#    x 2.061970 0.000000 -4.524190 
#    y 0.000000 3.593740 0.000000 
#    z -4.524190 0.000000 -10.518300 
# 
# 
# High freq. dielectric constant tensor:
#      x y z
#    x 1.719270 0.000000 -0.008390 
#    y 0.000000 1.740240 0.000000 
#    z -0.008390 0.000000 1.735880 
# 
# From -- ./inp_files/48285.got.cif
#   From: 2010.06.25/outbox.cif.g09.slc.cpg/sg11_25_cif.got.tgz:48285.got - 2010.06.27 23:14:04.
