data_PCOD8072316
_publ_section_title
;
Structure prediction by ZEFSAII (Michael W. Deem and Ramdas Pophale) SiO2 
 PCOD8072316
Probable space group: P 21/M
;
_chemical_formula_sum "Si O2"
_cell_formula_units_Z 32
_cell_length_a 12.296963
_cell_length_b 17.014137
_cell_length_c 16.455875
_cell_angle_alpha 90.000000
_cell_angle_beta 151.172040
_cell_angle_gamma 90.000000
_cell_volume 1660.118500
_symmetry_space_group_name_H-M "P 21/M"
_symmetry_group_IT_number 11
_symmetry_cell_setting 'monoclinic'
loop_
_space_group_symop_operation_xyz
x,y,z
-x,1/2+y,-z
-x,-y,-z
x,1/2-y,z
loop_
_atom_site_type_symbol
_atom_site_label
_atom_site_fract_x
_atom_site_fract_y
_atom_site_fract_z
Si Si1 0.496034 0.482831 0.903102
Si Si2 0.997843 0.539997 0.776690
Si Si3 0.194213 0.990460 0.192870
Si Si4 0.656016 0.161613 0.626605
Si Si5 0.233918 0.163163 0.465446
Si Si6 0.661138 0.069716 0.472071
Si Si7 0.161553 0.925149 0.589121
Si Si8 0.738026 0.840464 0.337050
O O1 0.375678 0.559293 0.786453
O O2 0.378962 0.399407 0.803726
O O3 0.500000 0.500000 0.000000
O O4 0.747982 0.480379 0.034015
O O5 0.861806 0.551332 0.771565
O O6 0.983078 0.616518 0.709695
O O7 0.883179 0.472282 0.649677
O O8 0.444660 0.011420 0.325154
O O9 0.183948 0.901724 0.223128
O O10 0.000000 0.000000 0.000000
O O11 0.758938 0.250000 0.700149
O O12 0.419800 0.158319 0.517843
O O13 0.614732 0.141443 0.504149
O O14 0.143304 0.250000 0.421697
O O15 0.332265 0.133258 0.616917
O O16 0.732457 0.094113 0.429140
O O17 0.011014 0.849004 0.511708
O O18 0.000000 0.000000 0.500000
O O19 0.669633 0.750000 0.273109
#
# Coordination Sequence:
#
# PCOD8072316 Si02
#       8
#     4   4   4   4   4   4   4   4
#     4  11  22  36  58  91 121 155 202 250 300 360
#     4  11  19  34  57  83 118 152 195 244 293 353
#     4  11  22  35  58  88 119 158 201 249 298 354
#     4  10  21  38  60  85 118 161 199 245 303 360
#     4  10  19  35  58  85 117 155 197 246 300 359
#     4  11  20  39  59  86 117 156 207 246 294 364
#     4  10  21  37  61  85 117 155 200 249 296 358
#     4  10  22  39  61  87 119 158 200 250 311 363
#
# _framework density 19.275732000000001
#
# number of rings (size 3 to 8) (size 9 to 14) (size 15 to 20)
#    0.000    1.500    2.500    5.250    1.750    1.000 
#    0.000    1.875    0.000    6.000    0.000    0.000 
#    0.000    0.000    0.000    0.000    0.000    0.000 
#
# Total GULP energy -396476.243678 kJ/mol
# GULP energy per Si atom -12389.882615 kJ/mol
# Density = 1.923186 g / cm^3
# Si number density = 19.275732 Si / 1000 Ang^3
#
#
#
# Elastic Constant Matrix: (Units=GPa)
#
#
# Indices 1 2 3 4 5 6 
#
# 1 122.4238 36.7286 30.0453 0.0000 -15.6540 0.0000
# 2 36.7286 88.7327 48.2467 0.0000 -9.1639 0.0000
# 3 30.0453 48.2467 113.1812 0.0000 -5.1175 0.0000
# 4 0.0000 0.0000 0.0000 26.8661 0.0000 -4.0062
# 5 -15.6540 -9.1639 -5.1175 0.0000 38.4411 0.0000
# 6 0.0000 0.0000 0.0000 -4.0062 0.0000 22.3400
#
#
#
# Elastic Compliance Matrix: (Units=1/GPa)
#
#
# Indices 1 2 3 4 5 6 
#
# 1 0.009774 -0.003114 -0.001128 0.000000 0.003088 0.000000
# 2 -0.003114 0.015942 -0.005890 0.000000 0.001748 0.000000
# 3 -0.001128 -0.005890 0.011631 0.000000 -0.000315 0.000000
# 4 0.000000 0.000000 0.000000 0.038244 0.000000 0.006858
# 5 0.003088 0.001748 -0.000315 0.000000 0.027646 0.000000
# 6 0.000000 0.000000 0.000000 0.006858 0.000000 0.045993
#
#
# Mechanical properties :
#
#
# Convention : Reuss Voigt Hill
#
# Bulk Modulus (GPa) = 58.53321 61.59766 60.06544
# Shear Modulus (GPa) = 28.54079 31.48390 30.01235
#
# Velocity S-wave (km/s) = 3.85211 4.04585 3.95017
# Velocity P-wave (km/s) = 7.08641 7.33830 7.21345
#
# Compressibility (1/GPa) = 0.01708432
#
# Stress axis : x y z
#
# Youngs Moduli (GPa) = 102.31141 62.72833 85.97484
#
# Poissons Ratio (x) = 0.19531 0.09696
# Poissons Ratio (y) = 0.31856 0.50639
# Poissons Ratio (z) = 0.11538 0.36947
#
# Static dielectric constant tensor:
#      x y z
#    x 3.864940 0.000000 -0.168870 
#    y 0.000000 3.731370 0.000000 
#    z -0.168870 0.000000 3.777000 
# 
# 
# High freq. dielectric constant tensor:
#      x y z
#    x 1.767790 0.000000 -0.008180 
#    y 0.000000 1.729990 0.000000 
#    z -0.008180 0.000000 1.739280 
# 
# From -- ./inp_files/50687.got.cif
#   From: 2010.06.25/outbox.cif.g09.slc.cpg/sg11_26_cif.got.tgz:50687.got - 2010.06.27 23:14:04.
