data_PCOD8072027
_publ_section_title
;
Structure prediction by ZEFSAII (Michael W. Deem and Ramdas Pophale) SiO2 
 PCOD8072027
Probable space group: P 21/M
;
_chemical_formula_sum "Si O2"
_cell_formula_units_Z 32
_cell_length_a 21.369122
_cell_length_b 8.982800
_cell_length_c 25.738552
_cell_angle_alpha 90.000000
_cell_angle_beta 160.727495
_cell_angle_gamma 90.000000
_cell_volume 1630.712185
_symmetry_space_group_name_H-M "P 21/M"
_symmetry_group_IT_number 11
_symmetry_cell_setting 'monoclinic'
loop_
_space_group_symop_operation_xyz
x,y,z
-x,1/2+y,-z
-x,-y,-z
x,1/2-y,z
loop_
_atom_site_type_symbol
_atom_site_label
_atom_site_fract_x
_atom_site_fract_y
_atom_site_fract_z
Si Si1 0.688275 0.074243 0.668506
Si Si2 0.351493 0.425861 0.747063
Si Si3 0.646122 0.083452 0.412315
Si Si4 0.080049 0.420665 0.440840
Si Si5 0.934737 0.073533 0.069667
Si Si6 0.647850 0.422513 0.755392
Si Si7 0.674621 0.075515 0.165036
Si Si8 0.355767 0.080235 0.090155
O O1 0.683706 0.250000 0.654921
O O2 0.710805 0.035881 0.746890
O O3 0.500000 0.000000 0.500000
O O4 0.861183 0.001698 0.773217
O O5 0.377380 0.250000 0.774416
O O6 0.187787 0.467999 0.577916
O O7 0.287392 0.499204 0.750289
O O8 0.552343 0.496086 0.886920
O O9 0.691732 0.250000 0.465352
O O10 0.502710 0.074334 0.252233
O O11 0.843797 0.009594 0.549586
O O12 0.550043 0.003247 0.386171
O O13 0.124201 0.250000 0.463865
O O14 0.857988 0.452391 0.272949
O O15 0.955489 0.250000 0.091523
O O16 0.817024 0.027255 0.926069
O O17 0.833118 0.007879 0.041174
O O18 0.605277 0.250000 0.728944
O O19 0.636792 0.250000 0.143492
O O20 0.500000 0.000000 0.000000
O O21 0.305727 0.250000 0.035926
#
# Coordination Sequence:
#
# PCOD8072027 Si02
#       8
#     4   4   4   4   4   4   4   4
#     4  11  23  38  54  76 107 144 182 222 266 316
#     4  10  19  34  57  83 108 138 175 218 266 317
#     4   9  17  29  52  83 110 135 170 216 264 311
#     4   9  19  35  56  80 108 140 175 215 264 318
#     4  10  19  34  57  83 108 138 175 218 266 317
#     4   9  19  35  56  80 108 140 175 215 264 318
#     4  11  23  38  54  76 107 144 182 222 266 316
#     4   9  17  31  52  81 112 139 170 214 262 313
#
# _framework density 19.623325999999999
#
# number of rings (size 3 to 8) (size 9 to 14) (size 15 to 20)
#    0.000    2.250    0.000    3.000    0.000    6.000 
#    0.000    1.250    0.000    4.500    0.000    0.000 
#    0.000    0.000    0.000    0.000    0.000    0.000 
#
# Total GULP energy -396878.009560 kJ/mol
# GULP energy per Si atom -12402.437799 kJ/mol
# Density = 1.957866 g / cm^3
# Si number density = 19.623326 Si / 1000 Ang^3
#
#
#
# Elastic Constant Matrix: (Units=GPa)
#
#
# Indices 1 2 3 4 5 6 
#
# 1 37.3363 31.5475 26.5404 0.0000 25.6919 0.0000
# 2 31.5475 107.3990 47.3723 0.0000 18.6403 0.0000
# 3 26.5404 47.3723 99.1643 0.0000 24.7370 0.0000
# 4 0.0000 0.0000 0.0000 32.2475 0.0000 8.0737
# 5 25.6919 18.6403 24.7370 0.0000 29.0014 0.0000
# 6 0.0000 0.0000 0.0000 8.0737 0.0000 36.1331
#
#
#
# Elastic Compliance Matrix: (Units=1/GPa)
#
#
# Indices 1 2 3 4 5 6 
#
# 1 0.081929 -0.013042 0.000403 0.000000 -0.064541 0.000000
# 2 -0.013042 0.014164 -0.004937 0.000000 0.006661 0.000000
# 3 0.000403 -0.004937 0.014777 0.000000 -0.009787 0.000000
# 4 0.000000 0.000000 0.000000 0.032848 0.000000 -0.007340
# 5 -0.064541 0.006661 -0.009787 0.000000 0.095724 0.000000
# 6 0.000000 0.000000 0.000000 -0.007340 0.000000 0.029315
#
#
# Mechanical properties :
#
#
# Convention : Reuss Voigt Hill
#
# Bulk Modulus (GPa) = 13.20709 50.53555 31.87132
# Shear Modulus (GPa) = 15.19070 28.70569 21.94819
#
# Velocity S-wave (km/s) = 2.78531 3.82885 3.34799
# Velocity P-wave (km/s) = 4.13387 6.73465 5.58768
#
# Compressibility (1/GPa) = 0.07571688
#
# Stress axis : x y z
#
# Youngs Moduli (GPa) = 12.20562 70.60335 67.67441
#
# Poissons Ratio (x) = 0.92080 -0.02726
# Poissons Ratio (y) = 0.15918 0.33414
# Poissons Ratio (z) = -0.00492 0.34860
#
# Static dielectric constant tensor:
#      x y z
#    x 3.654090 0.000000 0.155780 
#    y 0.000000 3.681730 0.000000 
#    z 0.155780 0.000000 3.476920 
# 
# 
# High freq. dielectric constant tensor:
#      x y z
#    x 1.760690 0.000000 0.026130 
#    y 0.000000 1.775610 0.000000 
#    z 0.026130 0.000000 1.747150 
# 
# From -- ./inp_files/72159.got.cif
#   From: 2010.06.25/outbox.cif.g09.slc.cpg/sg11_37_cif.got.tgz:72159.got - 2010.06.27 23:14:04.
