data_PCOD8072896
_publ_section_title
;
Structure prediction by ZEFSAII (Michael W. Deem and Ramdas Pophale) SiO2 
 PCOD8072896
Probable space group: P 21/M
;
_chemical_formula_sum "Si O2"
_cell_formula_units_Z 32
_cell_length_a 8.701142
_cell_length_b 15.036962
_cell_length_c 23.505244
_cell_angle_alpha 90.000000
_cell_angle_beta 30.788786
_cell_angle_gamma 90.000000
_cell_volume 1574.217803
_symmetry_space_group_name_H-M "P 21/M"
_symmetry_group_IT_number 11
_symmetry_cell_setting 'monoclinic'
loop_
_space_group_symop_operation_xyz
x,y,z
-x,1/2+y,-z
-x,-y,-z
x,1/2-y,z
loop_
_atom_site_type_symbol
_atom_site_label
_atom_site_fract_x
_atom_site_fract_y
_atom_site_fract_z
Si Si1 0.245618 0.560567 0.054297
Si Si2 0.175153 0.586843 0.428278
Si Si3 0.559191 0.651904 0.631489
Si Si4 0.797312 0.148956 0.818149
Si Si5 0.475456 0.351119 0.576362
Si Si6 0.824428 0.355881 0.354010
Si Si7 0.568250 0.966462 0.844397
Si Si8 0.386880 0.988090 0.777349
O O1 0.184009 0.640173 0.118647
O O2 0.944412 0.505292 0.139992
O O3 0.500000 0.500000 0.000000
O O4 0.372868 0.590585 0.952232
O O5 0.396891 0.599861 0.409993
O O6 0.388748 0.572234 0.305124
O O7 0.000000 0.500000 0.500000
O O8 0.913953 0.659251 0.500788
O O9 0.446668 0.750000 0.682319
O O10 0.361738 0.614612 0.642293
O O11 0.516694 0.595244 0.701592
O O12 0.677775 0.250000 0.843265
O O13 0.119919 0.135655 0.686639
O O14 0.595265 0.070078 0.855787
O O15 0.566815 0.250000 0.555637
O O16 0.623349 0.386178 0.471299
O O17 0.895762 0.250000 0.331753
O O18 0.120050 0.415498 0.262029
O O19 0.383469 0.965267 0.844764
#
# Coordination Sequence:
#
# PCOD8072896 Si02
#       8
#     4   4   4   4   4   4   4   4
#     4  10  21  42  66  87 116 158 207 258 304 362
#     4  10  20  32  54  83 119 158 194 244 303 371
#     4  10  21  37  58  88 125 163 204 256 310 371
#     4  10  22  41  63  90 121 162 207 254 310 367
#     4  10  20  37  58  84 121 161 205 256 306 368
#     4  10  22  38  61  93 126 163 212 259 309 368
#     4  11  24  39  65  91 125 167 202 262 304 369
#     4  11  22  40  59  92 123 161 208 251 315 368
#
# _framework density 20.327556000000001
#
# number of rings (size 3 to 8) (size 9 to 14) (size 15 to 20)
#    0.000    1.750    1.250    3.750    3.500    2.500 
#    0.000    5.000    0.000    3.000    0.000    0.000 
#    0.000    0.000    0.000    0.000    0.000    0.000 
#
# Total GULP energy -396579.266214 kJ/mol
# GULP energy per Si atom -12393.102069 kJ/mol
# Density = 2.028129 g / cm^3
# Si number density = 20.327556 Si / 1000 Ang^3
#
#
#
# Elastic Constant Matrix: (Units=GPa)
#
#
# Indices 1 2 3 4 5 6 
#
# 1 93.0546 15.9129 25.4526 0.0000 7.0825 0.0000
# 2 15.9129 55.6513 23.6452 0.0000 2.0168 0.0000
# 3 25.4526 23.6452 118.4513 0.0000 13.5268 0.0000
# 4 0.0000 0.0000 0.0000 17.7984 0.0000 1.4887
# 5 7.0825 2.0168 13.5268 0.0000 42.5578 0.0000
# 6 0.0000 0.0000 0.0000 1.4887 0.0000 25.2573
#
#
#
# Elastic Compliance Matrix: (Units=1/GPa)
#
#
# Indices 1 2 3 4 5 6 
#
# 1 0.011789 -0.002524 -0.001887 0.000000 -0.001242 0.000000
# 2 -0.002524 0.020179 -0.003554 0.000000 0.000593 0.000000
# 3 -0.001887 -0.003554 0.009860 0.000000 -0.002651 0.000000
# 4 0.000000 0.000000 0.000000 0.056463 0.000000 -0.003328
# 5 -0.001242 0.000593 -0.002651 0.000000 0.024519 0.000000
# 6 0.000000 0.000000 0.000000 -0.003328 0.000000 0.039789
#
#
# Mechanical properties :
#
#
# Convention : Reuss Voigt Hill
#
# Bulk Modulus (GPa) = 38.61297 44.13096 41.37197
# Shear Modulus (GPa) = 26.71493 30.59912 28.65702
#
# Velocity S-wave (km/s) = 3.62915 3.88403 3.75875
# Velocity P-wave (km/s) = 6.04960 6.47081 6.26374
#
# Compressibility (1/GPa) = 0.02589803
#
# Stress axis : x y z
#
# Youngs Moduli (GPa) = 84.82628 49.55629 101.41982
#
# Poissons Ratio (x) = 0.12508 0.19143
# Poissons Ratio (y) = 0.21409 0.36040
# Poissons Ratio (z) = 0.16011 0.17610
#
# Static dielectric constant tensor:
#      x y z
#    x 3.718270 0.000000 0.047170 
#    y 0.000000 3.925120 0.000000 
#    z 0.047170 0.000000 4.420340 
# 
# 
# High freq. dielectric constant tensor:
#      x y z
#    x 1.795030 0.000000 0.003470 
#    y 0.000000 1.780430 0.000000 
#    z 0.003470 0.000000 1.803370 
# 
# From -- ./inp_files/68139.got.cif
#   From: 2010.06.25/outbox.cif.g09.slc.cpg/sg11_35_cif.got.tgz:68139.got - 2010.06.27 23:14:04.
