data_PCOD8072671
_publ_section_title
;
Structure prediction by ZEFSAII (Michael W. Deem and Ramdas Pophale) SiO2 
 PCOD8072671
Probable space group: P 21/M
;
_chemical_formula_sum "Si O2"
_cell_formula_units_Z 28
_cell_length_a 9.739069
_cell_length_b 18.772514
_cell_length_c 17.155317
_cell_angle_alpha 90.000000
_cell_angle_beta 154.929587
_cell_angle_gamma 90.000000
_cell_volume 1329.014204
_symmetry_space_group_name_H-M "P 21/M"
_symmetry_group_IT_number 11
_symmetry_cell_setting 'monoclinic'
loop_
_space_group_symop_operation_xyz
x,y,z
-x,1/2+y,-z
-x,-y,-z
x,1/2-y,z
loop_
_atom_site_type_symbol
_atom_site_label
_atom_site_fract_x
_atom_site_fract_y
_atom_site_fract_z
Si Si1 0.375220 0.482193 0.680390
Si Si2 0.244030 0.572355 0.259984
Si Si3 0.214817 0.830702 0.387267
Si Si4 0.311913 0.173254 0.062676
Si Si5 0.545186 0.169895 0.023999
Si Si6 0.159410 0.570136 0.948164
Si Si7 0.581065 0.628972 0.726011
O O1 0.447313 0.434886 0.639657
O O2 0.559898 0.554405 0.759487
O O3 0.000000 0.500000 0.500000
O O4 0.532410 0.448419 0.839108
O O5 0.358861 0.614177 0.397067
O O6 0.071605 0.496972 0.192252
O O7 0.982421 0.619167 0.079976
O O8 0.344606 0.750000 0.439716
O O9 0.315469 0.857622 0.524113
O O10 0.831384 0.833691 0.190645
O O11 0.173337 0.250000 0.963179
O O12 0.471330 0.184203 0.229918
O O13 0.574306 0.150625 0.131448
O O14 0.680309 0.250000 0.075034
O O15 0.724802 0.106667 0.071959
O O16 0.942717 0.631564 0.877008
#
# Coordination Sequence:
#
# PCOD8072671 Si02
#       7
#     4   4   4   4   4   4   4
#     4  11  22  39  62  93 127 159 207 268 317 371
#     4  10  20  41  62  90 127 162 211 258 311 376
#     4  10  22  40  62  91 128 166 208 259 318 374
#     4  10  19  37  64  88 120 162 206 256 311 368
#     4   9  21  39  59  89 125 162 208 261 319 376
#     4  11  21  39  65  92 125 162 214 260 308 384
#     4  11  21  40  62  88 125 161 211 255 311 376
#
# _framework density 21.068247
#
# number of rings (size 3 to 8) (size 9 to 14) (size 15 to 20)
#    0.000    1.714    2.857    3.429    0.000    5.714 
#    5.143    0.000    0.000    1.714    0.000    0.000 
#    0.000    0.000    0.000    0.000    0.000    0.000 
#
# Total GULP energy -346910.871825 kJ/mol
# GULP energy per Si atom -12389.673994 kJ/mol
# Density = 2.102029 g / cm^3
# Si number density = 21.068247 Si / 1000 Ang^3
#
#
#
# Elastic Constant Matrix: (Units=GPa)
#
#
# Indices 1 2 3 4 5 6 
#
# 1 167.8910 69.4414 54.6069 0.0000 -14.1663 0.0000
# 2 69.4414 97.6089 18.5089 0.0000 -7.5136 0.0000
# 3 54.6069 18.5089 67.9547 0.0000 -22.9728 0.0000
# 4 0.0000 0.0000 0.0000 12.5218 0.0000 -8.7846
# 5 -14.1663 -7.5136 -22.9728 0.0000 41.9330 0.0000
# 6 0.0000 0.0000 0.0000 -8.7846 0.0000 28.6992
#
#
#
# Elastic Compliance Matrix: (Units=1/GPa)
#
#
# Indices 1 2 3 4 5 6 
#
# 1 0.010977 -0.006493 -0.007599 0.000000 -0.001618 0.000000
# 2 -0.006493 0.014649 0.001686 0.000000 0.001355 0.000000
# 3 -0.007599 0.001686 0.024052 0.000000 0.010912 0.000000
# 4 0.000000 0.000000 0.000000 0.101700 0.000000 0.031130
# 5 -0.001618 0.001355 0.010912 0.000000 0.029521 0.000000
# 6 0.000000 0.000000 0.000000 0.031130 0.000000 0.044373
#
#
# Mechanical properties :
#
#
# Convention : Reuss Voigt Hill
#
# Bulk Modulus (GPa) = 40.21821 68.72990 54.47406
# Shear Modulus (GPa) = 19.35185 29.35729 24.35457
#
# Velocity S-wave (km/s) = 3.03402 3.73693 3.40367
# Velocity P-wave (km/s) = 5.60398 7.16330 6.43107
#
# Compressibility (1/GPa) = 0.02486436
#
# Stress axis : x y z
#
# Youngs Moduli (GPa) = 91.10027 68.26518 41.57635
#
# Poissons Ratio (x) = 0.44323 0.31596
# Poissons Ratio (y) = 0.59149 -0.07008
# Poissons Ratio (z) = 0.69231 -0.11506
#
# Static dielectric constant tensor:
#      x y z
#    x 4.443940 0.000000 -0.209080 
#    y 0.000000 4.110320 0.000000 
#    z -0.209080 0.000000 3.524360 
# 
# 
# High freq. dielectric constant tensor:
#      x y z
#    x 1.832730 0.000000 -0.021800 
#    y 0.000000 1.832850 0.000000 
#    z -0.021800 0.000000 1.803950 
# 
# From -- ./inp_files/48343.got.cif
#   From: 2010.06.25/outbox.cif.g09.slc.cpg/sg11_25_cif.got.tgz:48343.got - 2010.06.27 23:14:04.
