data_PCOD8072615
_publ_section_title
;
Structure prediction by ZEFSAII (Michael W. Deem and Ramdas Pophale) SiO2 
 PCOD8072615
Probable space group: P 21/M
;
_chemical_formula_sum "Si O2"
_cell_formula_units_Z 32
_cell_length_a 14.473889
_cell_length_b 13.716265
_cell_length_c 9.201573
_cell_angle_alpha 90.000000
_cell_angle_beta 114.564320
_cell_angle_gamma 90.000000
_cell_volume 1661.435842
_symmetry_space_group_name_H-M "P 21/M"
_symmetry_group_IT_number 11
_symmetry_cell_setting 'monoclinic'
loop_
_space_group_symop_operation_xyz
x,y,z
-x,1/2+y,-z
-x,-y,-z
x,1/2-y,z
loop_
_atom_site_type_symbol
_atom_site_label
_atom_site_fract_x
_atom_site_fract_y
_atom_site_fract_z
Si Si1 0.736084 0.140079 0.382294
Si Si2 0.649871 0.640267 0.437992
Si Si3 0.450722 0.980426 0.814298
Si Si4 0.121555 0.138855 0.417672
Si Si5 0.410494 0.029121 0.337473
Si Si6 0.034889 0.865697 0.438189
Si Si7 0.932692 0.028399 0.820637
Si Si8 0.732051 0.361474 0.717846
O O1 0.732072 0.250000 0.322167
O O2 0.653315 0.080557 0.235568
O O3 0.851216 0.099333 0.440149
O O4 0.704543 0.131802 0.529655
O O5 0.609518 0.750000 0.408564
O O6 0.574465 0.580905 0.285043
O O7 0.763598 0.631303 0.448097
O O8 0.654689 0.606317 0.611033
O O9 0.538441 0.926132 0.775428
O O10 0.500000 0.000000 0.000000
O O11 0.094578 0.250000 0.357089
O O12 0.045228 0.100801 0.492848
O O13 0.111882 0.072612 0.269406
O O14 0.344757 0.933621 0.249397
O O15 0.500000 0.000000 0.500000
O O16 0.034161 0.750000 0.413061
O O17 0.004685 0.916531 0.266004
O O18 0.845933 0.101677 0.820318
O O19 0.000000 0.000000 0.000000
O O20 0.721335 0.250000 0.767001
#
# Coordination Sequence:
#
# PCOD8072615 Si02
#       8
#     4   4   4   4   4   4   4   4
#     4   9  17  34  60  83 109 146 195 241 278 336
#     4  10  20  38  61  83 111 151 198 237 277 346
#     4  11  23  38  55  84 121 149 188 242 301 350
#     4  10  20  37  60  84 114 152 197 239 282 348
#     4  10  19  37  60  85 109 147 199 239 287 342
#     4   9  19  37  61  86 111 152 201 238 283 346
#     4  11  21  35  56  86 120 153 185 239 302 350
#     4  10  19  37  62  84 110 149 199 244 280 340
#
# _framework density 19.260446999999999
#
# number of rings (size 3 to 8) (size 9 to 14) (size 15 to 20)
#    0.000    2.000    3.750    2.250    0.000    4.000 
#    4.500    0.000    0.000    0.000    0.000    0.000 
#    0.000    0.000    0.000    0.000    0.000    0.000 
#
# Total GULP energy -396666.827397 kJ/mol
# GULP energy per Si atom -12395.838356 kJ/mol
# Density = 1.921661 g / cm^3
# Si number density = 19.260447 Si / 1000 Ang^3
#
#
#
# Elastic Constant Matrix: (Units=GPa)
#
#
# Indices 1 2 3 4 5 6 
#
# 1 106.3583 30.5757 36.0023 0.0000 -3.3802 0.0000
# 2 30.5757 84.9702 39.8926 0.0000 5.3139 0.0000
# 3 36.0023 39.8926 114.1307 0.0000 5.5132 0.0000
# 4 0.0000 0.0000 0.0000 18.1236 0.0000 4.6983
# 5 -3.3802 5.3139 5.5132 0.0000 18.7883 0.0000
# 6 0.0000 0.0000 0.0000 4.6983 0.0000 30.0900
#
#
#
# Elastic Compliance Matrix: (Units=1/GPa)
#
#
# Indices 1 2 3 4 5 6 
#
# 1 0.011300 -0.003038 -0.002680 0.000000 0.003679 0.000000
# 2 -0.003038 0.015020 -0.004118 0.000000 -0.003586 0.000000
# 3 -0.002680 -0.004118 0.011172 0.000000 -0.002596 0.000000
# 4 0.000000 0.000000 0.000000 0.057504 0.000000 -0.008979
# 5 0.003679 -0.003586 -0.002596 0.000000 0.055662 0.000000
# 6 0.000000 0.000000 0.000000 -0.008979 0.000000 0.034636
#
#
# Mechanical properties :
#
#
# Convention : Reuss Voigt Hill
#
# Bulk Modulus (GPa) = 56.12090 57.60006 56.86048
# Shear Modulus (GPa) = 23.70714 26.66627 25.18670
#
# Velocity S-wave (km/s) = 3.51218 3.72494 3.62012
# Velocity P-wave (km/s) = 6.75636 6.96211 6.86001
#
# Compressibility (1/GPa) = 0.01781867
#
# Stress axis : x y z
#
# Youngs Moduli (GPa) = 88.49805 66.57896 89.50678
#
# Poissons Ratio (x) = 0.20225 0.23991
# Poissons Ratio (y) = 0.26883 0.36863
# Poissons Ratio (z) = 0.23721 0.27420
#
# Static dielectric constant tensor:
#      x y z
#    x 4.063220 0.000000 -0.187560 
#    y 0.000000 3.718420 0.000000 
#    z -0.187560 0.000000 3.149320 
# 
# 
# High freq. dielectric constant tensor:
#      x y z
#    x 1.762050 0.000000 0.007340 
#    y 0.000000 1.758220 0.000000 
#    z 0.007340 0.000000 1.701020 
# 
# From -- ./inp_files/22247.got.cif
#   From: 2010.06.25/outbox.cif.g09.slc.cpg/sg11_12_cif.got.tgz:22247.got - 2010.06.27 23:14:04.
