data_PCOD8072771
_publ_section_title
;
Structure prediction by ZEFSAII (Michael W. Deem and Ramdas Pophale) SiO2 
 PCOD8072771
Probable space group: P 21/M
;
_chemical_formula_sum "Si O2"
_cell_formula_units_Z 32
_cell_length_a 27.856666
_cell_length_b 9.086768
_cell_length_c 22.767845
_cell_angle_alpha 90.000000
_cell_angle_beta 17.843091
_cell_angle_gamma 90.000000
_cell_volume 1765.896617
_symmetry_space_group_name_H-M "P 21/M"
_symmetry_group_IT_number 11
_symmetry_cell_setting 'monoclinic'
loop_
_space_group_symop_operation_xyz
x,y,z
-x,1/2+y,-z
-x,-y,-z
x,1/2-y,z
loop_
_atom_site_type_symbol
_atom_site_label
_atom_site_fract_x
_atom_site_fract_y
_atom_site_fract_z
Si Si1 0.480183 0.915636 0.382969
Si Si2 0.799081 0.082302 0.571375
Si Si3 0.916190 0.924223 0.326695
Si Si4 0.190967 0.078117 0.936770
Si Si5 0.344770 0.921144 0.660047
Si Si6 0.417188 0.420759 0.338421
Si Si7 0.341720 0.076331 0.164736
Si Si8 0.539673 0.586842 0.092941
O O1 0.476504 0.750000 0.362775
O O2 0.648110 0.949210 0.216048
O O3 0.341643 0.936837 0.592795
O O4 0.449628 0.024137 0.365588
O O5 0.857496 0.250000 0.511064
O O6 0.626101 0.075706 0.746487
O O7 0.915576 0.995158 0.392348
O O8 0.799667 0.000197 0.634272
O O9 0.939826 0.750000 0.304595
O O10 0.757132 0.965657 0.477828
O O11 0.055526 0.996608 0.128937
O O12 0.152143 0.250000 0.974902
O O13 0.201274 0.003955 0.859706
O O14 0.347847 0.750000 0.674890
O O15 0.500000 0.000000 0.500000
O O16 0.442230 0.250000 0.309729
O O17 0.544945 0.481335 0.143099
O O18 0.348709 0.250000 0.170986
O O19 0.326382 0.049662 0.111918
O O20 0.500000 0.000000 0.000000
O O21 0.566149 0.750000 0.086869
#
# Coordination Sequence:
#
# PCOD8072771 Si02
#       8
#     4   4   4   4   4   4   4   4
#     4   9  19  34  52  73  97 124 157 195 237 284
#     4   9  16  26  41  62  89 123 158 195 238 283
#     4  10  20  33  48  70 100 131 161 198 240 286
#     4  10  20  34  53  76  97 124 161 199 239 285
#     4   9  17  31  51  74  97 123 156 197 240 282
#     4  10  20  31  47  71  98 128 162 197 238 284
#     4   9  15  23  37  59  86 119 157 196 237 281
#     4   8  15  26  40  59  88 124 157 191 236 281
#
# _framework density 18.121106000000001
#
# number of rings (size 3 to 8) (size 9 to 14) (size 15 to 20)
#    0.000    2.750    0.000    3.750    0.000    8.000 
#    0.000    0.625    0.000    0.000    0.000    0.875 
#    0.000    0.000    0.000    0.000    0.000    0.000 
#
# Total GULP energy -396570.985111 kJ/mol
# GULP energy per Si atom -12392.843285 kJ/mol
# Density = 1.807986 g / cm^3
# Si number density = 18.121106 Si / 1000 Ang^3
#
#
#
# Elastic Constant Matrix: (Units=GPa)
#
#
# Indices 1 2 3 4 5 6 
#
# 1 45.9870 59.0956 118.0207 0.0000 47.8193 0.0000
# 2 59.0956 91.9455 0.2449 0.0000 13.9301 0.0000
# 3 118.0207 0.2449 -156.9615 0.0000 -8.5414 0.0000
# 4 0.0000 0.0000 0.0000 32.9944 0.0000 11.0566
# 5 47.8193 13.9301 -8.5414 0.0000 21.8892 0.0000
# 6 0.0000 0.0000 0.0000 11.0566 0.0000 29.7064
#
#
#
# Elastic Compliance Matrix: (Units=1/GPa)
#
#
# Indices 1 2 3 4 5 6 
#
# 1 0.022429 -0.009024 0.018805 0.000000 -0.035918 0.000000
# 2 -0.009024 0.015638 -0.007141 0.000000 0.006976 0.000000
# 3 0.018805 -0.007141 0.009543 0.000000 -0.032814 0.000000
# 4 0.000000 0.000000 0.000000 0.034627 0.000000 -0.012888
# 5 -0.035918 0.006976 -0.032814 0.000000 0.106908 0.000000
# 6 0.000000 0.000000 0.000000 -0.012888 0.000000 0.038460
#
#
# Mechanical properties :
#
#
# Convention : Reuss Voigt Hill
#
# Bulk Modulus (GPa) = 18.90638 37.29929 28.10284
# Shear Modulus (GPa) = 20.83717 3.82532 12.33124
#
# Velocity S-wave (km/s) = 3.39467 1.45450 2.61145
# Velocity P-wave (km/s) = 5.08144 4.84239 4.96336
#
# Compressibility (1/GPa) = 0.05289219
#
# Stress axis : x y z
#
# Youngs Moduli (GPa) = 44.58422 63.94579 104.78367
#
# Poissons Ratio (x) = 0.57706 -1.97050
# Poissons Ratio (y) = 0.40234 0.74822
# Poissons Ratio (z) = -0.83842 0.45661
#
# Static dielectric constant tensor:
#      x y z
#    x 3.327290 0.000000 0.653630 
#    y 0.000000 3.574310 0.000000 
#    z 0.653630 0.000000 3.456320 
# 
# 
# High freq. dielectric constant tensor:
#      x y z
#    x 1.670330 0.000000 0.050960 
#    y 0.000000 1.718680 0.000000 
#    z 0.050960 0.000000 1.685940 
# 
# From -- ./inp_files/67066.got.cif
#   From: 2010.06.25/outbox.cif.g09.slc.cpg/sg11_34_cif.got.tgz:67066.got - 2010.06.27 23:14:04.
