data_PCOD8072052
_publ_section_title
;
Structure prediction by ZEFSAII (Michael W. Deem and Ramdas Pophale) SiO2 
 PCOD8072052
Probable space group: P 21/M
;
_chemical_formula_sum "Si O2"
_cell_formula_units_Z 32
_cell_length_a 12.169012
_cell_length_b 8.803055
_cell_length_c 16.259281
_cell_angle_alpha 90.000000
_cell_angle_beta 92.039990
_cell_angle_gamma 90.000000
_cell_volume 1740.663166
_symmetry_space_group_name_H-M "P 21/M"
_symmetry_group_IT_number 11
_symmetry_cell_setting 'monoclinic'
loop_
_space_group_symop_operation_xyz
x,y,z
-x,1/2+y,-z
-x,-y,-z
x,1/2-y,z
loop_
_atom_site_type_symbol
_atom_site_label
_atom_site_fract_x
_atom_site_fract_y
_atom_site_fract_z
Si Si1 0.163937 0.928591 0.985595
Si Si2 0.894723 0.929244 0.539756
Si Si3 0.676702 0.074324 0.489943
Si Si4 0.860965 0.429011 0.716055
Si Si5 0.599201 0.069726 0.952989
Si Si6 0.643551 0.925351 0.782545
Si Si7 0.994852 0.072484 0.875474
Si Si8 0.529149 0.577484 0.615618
O O1 0.156044 0.750000 0.979512
O O2 0.289595 0.981141 0.997628
O O3 0.098301 0.989239 0.064038
O O4 0.111704 0.996501 0.900707
O O5 0.905986 0.750000 0.539856
O O6 0.787440 0.976824 0.484674
O O7 0.885206 0.985900 0.632571
O O8 0.000000 0.000000 0.500000
O O9 0.710291 0.250000 0.494098
O O10 0.596951 0.036545 0.410667
O O11 0.613660 0.033719 0.572356
O O12 0.851727 0.250000 0.699440
O O13 0.749121 0.485522 0.753549
O O14 0.960162 0.467562 0.781573
O O15 0.588927 0.250000 0.947289
O O16 0.596351 0.002298 0.862075
O O17 0.500000 0.000000 0.000000
O O18 0.674721 0.750000 0.799129
O O19 0.545577 0.939383 0.713284
O O20 0.008469 0.250000 0.887421
O O21 0.554784 0.750000 0.587079
#
# Coordination Sequence:
#
# PCOD8072052 Si02
#       8
#     4   4   4   4   4   4   4   4
#     4   9  18  34  54  80 113 148 186 232 282 332
#     4  12  25  41  59  84 116 153 195 237 288 348
#     4  10  19  34  57  84 116 153 189 233 287 337
#     4  11  21  37  59  87 118 149 188 238 286 335
#     4  11  23  40  58  82 116 153 193 236 286 343
#     4  11  21  35  58  88 117 150 192 237 281 335
#     4   9  18  33  55  84 114 143 183 233 282 335
#     4   9  19  34  55  86 118 147 189 238 282 336
#
# _framework density 18.383796
#
# number of rings (size 3 to 8) (size 9 to 14) (size 15 to 20)
#    0.000    1.750    2.500    2.625    0.000    3.000 
#    0.000    1.250    0.000    1.500    0.000    0.000 
#    0.000    0.000    0.000    0.000    0.000    0.000 
#
# Total GULP energy -396835.515937 kJ/mol
# GULP energy per Si atom -12401.109873 kJ/mol
# Density = 1.834195 g / cm^3
# Si number density = 18.383796 Si / 1000 Ang^3
#
#
#
# Elastic Constant Matrix: (Units=GPa)
#
#
# Indices 1 2 3 4 5 6 
#
# 1 136.3999 55.0717 68.7473 0.0000 13.3306 0.0000
# 2 55.0717 96.8613 45.1867 0.0000 7.1339 0.0000
# 3 68.7473 45.1867 97.5635 0.0000 9.2003 0.0000
# 4 0.0000 0.0000 0.0000 31.3677 0.0000 0.7275
# 5 13.3306 7.1339 9.2003 0.0000 30.7015 0.0000
# 6 0.0000 0.0000 0.0000 0.7275 0.0000 33.8607
#
#
#
# Elastic Compliance Matrix: (Units=1/GPa)
#
#
# Indices 1 2 3 4 5 6 
#
# 1 0.012555 -0.003746 -0.006874 0.000000 -0.002521 0.000000
# 2 -0.003746 0.014335 -0.003951 0.000000 -0.000521 0.000000
# 3 -0.006874 -0.003951 0.017037 0.000000 -0.001203 0.000000
# 4 0.000000 0.000000 0.000000 0.031896 0.000000 -0.000685
# 5 -0.002521 -0.000521 -0.001203 0.000000 0.034148 0.000000
# 6 0.000000 0.000000 0.000000 -0.000685 0.000000 0.029548
#
#
# Mechanical properties :
#
#
# Convention : Reuss Voigt Hill
#
# Bulk Modulus (GPa) = 67.63426 74.31512 70.97469
# Shear Modulus (GPa) = 28.80398 29.97391 29.38895
#
# Velocity S-wave (km/s) = 3.96259 4.04227 4.00263
# Velocity P-wave (km/s) = 7.60304 7.89294 7.74935
#
# Compressibility (1/GPa) = 0.01478541
#
# Stress axis : x y z
#
# Youngs Moduli (GPa) = 79.65177 69.75850 58.69678
#
# Poissons Ratio (x) = 0.26129 0.40348
# Poissons Ratio (y) = 0.29835 0.23191
# Poissons Ratio (z) = 0.54753 0.27561
#
# Static dielectric constant tensor:
#      x y z
#    x 3.499890 0.000000 0.245660 
#    y 0.000000 3.523500 0.000000 
#    z 0.245660 0.000000 3.727180 
# 
# 
# High freq. dielectric constant tensor:
#      x y z
#    x 1.707490 0.000000 0.026550 
#    y 0.000000 1.723070 0.000000 
#    z 0.026550 0.000000 1.704540 
# 
# From -- ./inp_files/49317.got.cif
#   From: 2010.06.25/outbox.cif.g09.slc.cpg/sg11_25_cif.got.tgz:49317.got - 2010.06.27 23:14:04.
