data_PCOD8072429
_publ_section_title
;
Structure prediction by ZEFSAII (Michael W. Deem and Ramdas Pophale) SiO2 
 PCOD8072429
Probable space group: P 21/M
;
_chemical_formula_sum "Si O2"
_cell_formula_units_Z 26
_cell_length_a 8.794015
_cell_length_b 24.107682
_cell_length_c 11.232846
_cell_angle_alpha 90.000000
_cell_angle_beta 38.474457
_cell_angle_gamma 90.000000
_cell_volume 1481.625733
_symmetry_space_group_name_H-M "P 21/M"
_symmetry_group_IT_number 11
_symmetry_cell_setting 'monoclinic'
loop_
_space_group_symop_operation_xyz
x,y,z
-x,1/2+y,-z
-x,-y,-z
x,1/2-y,z
loop_
_atom_site_type_symbol
_atom_site_label
_atom_site_fract_x
_atom_site_fract_y
_atom_site_fract_z
Si Si1 0.052633 0.853083 0.499999
Si Si2 0.615098 0.052642 0.779398
Si Si3 0.173893 0.052642 0.220606
Si Si4 0.371704 0.545168 0.499998
Si Si5 0.599178 0.331608 0.500000
Si Si6 0.170863 0.250000 0.500001
Si Si7 0.283743 0.750000 0.771744
Si Si8 0.172768 0.250000 0.771745
O O1 0.217350 0.892451 0.314651
O O2 0.218926 0.825358 0.500001
O O3 0.846652 0.892451 0.685346
O O4 0.928837 0.805293 0.499998
O O5 0.542519 0.039181 0.688599
O O6 0.757967 0.000000 0.742031
O O7 0.370725 0.065513 0.000002
O O8 0.919714 0.039180 0.311408
O O9 0.500000 0.500000 0.500000
O O10 0.453371 0.604793 0.500000
O O11 0.724378 0.303816 0.308083
O O12 0.340545 0.303816 0.691917
O O13 0.464212 0.250000 0.308402
O O14 0.081015 0.250000 0.691599
O O15 0.056804 0.750000 1.000000
#
# Coordination Sequence:
#
# PCOD8072429 Si02
#       8
#     4   4   4   4   4   2   2   2
#     4  10  19  36  56  75 103 133 171 218 251 294
#     4   9  19  35  55  78 103 135 172 209 254 303
#     4   9  19  35  55  78 103 135 172 209 254 303
#     4  10  20  34  53  78 108 138 167 210 255 297
#     4   8  19  36  55  76  98 136 177 205 248 305
#     4  10  22  36  52  80 104 130 174 210 256 316
#     4  10  21  37  53  73 105 136 166 212 260 302
#     4  10  21  37  53  73 105 136 166 212 260 302
#
# _framework density 17.548292
#
# number of rings (size 3 to 8) (size 9 to 14) (size 15 to 20)
#    0.000    3.077    0.000    2.769    0.000   11.692 
#    0.000    4.615    0.000    0.000    0.000    0.000 
#    0.000    0.000    0.000    0.000    0.000    0.000 
#
# Total GULP energy -322318.742708 kJ/mol
# GULP energy per Si atom -12396.874720 kJ/mol
# Density = 1.750835 g / cm^3
# Si number density = 17.548292 Si / 1000 Ang^3
#
#
#
# Elastic Constant Matrix: (Units=GPa)
#
#
# Indices 1 2 3 4 5 6 
#
# 1 110.6327 90.9448 65.6597 0.0000 -0.3892 0.0000
# 2 90.9448 159.6487 79.2992 0.0000 -0.1480 0.0000
# 3 65.6597 79.2992 182.8798 0.0000 1.3306 0.0000
# 4 0.0000 0.0000 0.0000 -9.0151 0.0000 -0.6838
# 5 -0.3892 -0.1480 1.3306 0.0000 7.4077 0.0000
# 6 0.0000 0.0000 0.0000 -0.6838 0.0000 43.9389
#
#
#
# Elastic Compliance Matrix: (Units=1/GPa)
#
#
# Indices 1 2 3 4 5 6 
#
# 1 0.017900 -0.008920 -0.002568 0.000000 0.001223 0.000000
# 2 -0.008920 0.012433 -0.002190 0.000000 0.000173 0.000000
# 3 -0.002568 -0.002190 0.007350 0.000000 -0.001499 0.000000
# 4 0.000000 0.000000 0.000000 -0.110794 0.000000 -0.001724
# 5 0.001223 0.000173 -0.001499 0.000000 0.135332 0.000000
# 6 0.000000 0.000000 0.000000 -0.001724 0.000000 0.022732
#
#
# Mechanical properties :
#
#
# Convention : Reuss Voigt Hill
#
# Bulk Modulus (GPa) = 96.82342 102.77427 99.79885
# Shear Modulus (GPa) = 43.19622 22.95014 33.07318
#
# Velocity S-wave (km/s) = 4.96680 3.62031 4.34602
# Velocity P-wave (km/s) = 9.39081 8.72750 9.06522
#
# Compressibility (1/GPa) = 0.01032808
#
# Stress axis : x y z
#
# Youngs Moduli (GPa) = 55.86604 80.43046 136.04851
#
# Poissons Ratio (x) = 0.71747 0.34931
# Poissons Ratio (y) = 0.49834 0.29791
# Poissons Ratio (z) = 0.14344 0.17612
#
# Static dielectric constant tensor:
#      x y z
#    x 3.185260 0.000000 0.000420 
#    y 0.000000 3.364380 0.000000 
#    z 0.000420 0.000000 3.217390 
# 
# 
# High freq. dielectric constant tensor:
#      x y z
#    x 1.675640 0.000000 0.000010 
#    y 0.000000 1.691350 0.000000 
#    z 0.000010 0.000000 1.676170 
# 
# From -- ./inp_files/32974.got.cif
#   From: 2010.06.25/outbox.cif.g09.slc.cpg/sg11_17_cif.got.tgz:32974.got - 2010.06.27 23:14:04.
