data_PCOD8072908
_publ_section_title
;
Structure prediction by ZEFSAII (Michael W. Deem and Ramdas Pophale) SiO2 
 PCOD8072908
Probable space group: P 21/M
;
_chemical_formula_sum "Si O2"
_cell_formula_units_Z 32
_cell_length_a 15.002896
_cell_length_b 9.071263
_cell_length_c 14.833127
_cell_angle_alpha 90.000000
_cell_angle_beta 100.927974
_cell_angle_gamma 90.000000
_cell_volume 1982.110738
_symmetry_space_group_name_H-M "P 21/M"
_symmetry_group_IT_number 11
_symmetry_cell_setting 'monoclinic'
loop_
_space_group_symop_operation_xyz
x,y,z
-x,1/2+y,-z
-x,-y,-z
x,1/2-y,z
loop_
_atom_site_type_symbol
_atom_site_label
_atom_site_fract_x
_atom_site_fract_y
_atom_site_fract_z
Si Si1 0.876058 0.078670 0.912526
Si Si2 0.874083 0.079739 0.628377
Si Si3 0.081362 0.421450 0.708455
Si Si4 0.611261 0.079107 0.442462
Si Si5 0.054307 0.578147 0.881372
Si Si6 0.412008 0.078690 0.379285
Si Si7 0.240370 0.422684 0.241916
Si Si8 0.803617 0.420517 0.417002
O O1 0.879047 0.250000 0.888657
O O2 0.784419 0.006354 0.855698
O O3 0.880236 0.051524 0.020311
O O4 0.959572 0.003859 0.877239
O O5 0.852875 0.250000 0.647111
O O6 0.842511 0.039095 0.522271
O O7 0.980490 0.044870 0.654680
O O8 0.822392 0.977028 0.688628
O O9 0.096992 0.250000 0.730333
O O10 0.103475 0.510383 0.804085
O O11 0.151327 0.474297 0.646884
O O12 0.609866 0.250000 0.466448
O O13 0.515984 0.030048 0.377450
O O14 0.695677 0.044412 0.393310
O O15 0.626147 0.999818 0.539885
O O16 0.034322 0.750000 0.863327
O O17 0.407453 0.250000 0.400429
O O18 0.346002 0.040444 0.283093
O O19 0.224233 0.250000 0.225400
O O20 0.823581 0.250000 0.397442
#
# Coordination Sequence:
#
# PCOD8072908 Si02
#       8
#     4   4   4   4   4   4   4   4
#     4  10  20  33  50  71  97 125 158 197 238 287
#     4  10  20  33  46  66  96 131 168 199 231 275
#     4  11  22  33  48  69  97 131 164 202 239 279
#     4   9  17  31  49  68  93 127 162 200 242 282
#     4  10  20  34  51  71  94 124 160 199 240 283
#     4   9  18  30  46  71  98 123 158 200 243 286
#     4  11  20  29  47  73 100 131 160 195 239 287
#     4  10  20  33  49  67  93 132 171 202 234 280
#
# _framework density 16.144404999999999
#
# number of rings (size 3 to 8) (size 9 to 14) (size 15 to 20)
#    0.000    2.000    2.500    1.875    0.000    3.500 
#    0.000    0.000    0.000    0.000    0.000    0.875 
#    0.000    0.000    0.000    0.000    0.000    0.000 
#
# Total GULP energy -396801.746819 kJ/mol
# GULP energy per Si atom -12400.054588 kJ/mol
# Density = 1.610766 g / cm^3
# Si number density = 16.144405 Si / 1000 Ang^3
#
#
#
# Elastic Constant Matrix: (Units=GPa)
#
#
# Indices 1 2 3 4 5 6 
#
# 1 85.9970 41.1308 49.2053 0.0000 14.5250 0.0000
# 2 41.1308 77.9855 49.1986 0.0000 11.2918 0.0000
# 3 49.2053 49.1986 97.1664 0.0000 14.8340 0.0000
# 4 0.0000 0.0000 0.0000 28.9285 0.0000 -0.8732
# 5 14.5250 11.2918 14.8340 0.0000 19.9856 0.0000
# 6 0.0000 0.0000 0.0000 -0.8732 0.0000 19.3986
#
#
#
# Elastic Compliance Matrix: (Units=1/GPa)
#
#
# Indices 1 2 3 4 5 6 
#
# 1 0.018464 -0.005200 -0.005771 0.000000 -0.006198 0.000000
# 2 -0.005200 0.020597 -0.007439 0.000000 -0.002336 0.000000
# 3 -0.005771 -0.007439 0.017705 0.000000 -0.004744 0.000000
# 4 0.000000 0.000000 0.000000 0.034615 0.000000 0.001558
# 5 -0.006198 -0.002336 -0.004744 0.000000 0.059382 0.000000
# 6 0.000000 0.000000 0.000000 0.001558 0.000000 0.051620
#
#
# Mechanical properties :
#
#
# Convention : Reuss Voigt Hill
#
# Bulk Modulus (GPa) = 50.13584 60.02426 55.08005
# Shear Modulus (GPa) = 20.33746 21.77015 21.05380
#
# Velocity S-wave (km/s) = 3.55311 3.67613 3.61514
# Velocity P-wave (km/s) = 6.92494 7.43498 7.18449
#
# Compressibility (1/GPa) = 0.01994581
#
# Stress axis : x y z
#
# Youngs Moduli (GPa) = 54.15828 48.55147 56.48147
#
# Poissons Ratio (x) = 0.25247 0.32597
# Poissons Ratio (y) = 0.28163 0.42015
# Poissons Ratio (z) = 0.31256 0.36116
#
# Static dielectric constant tensor:
#      x y z
#    x 3.174490 0.000000 0.280680 
#    y 0.000000 3.137740 0.000000 
#    z 0.280680 0.000000 3.108730 
# 
# 
# High freq. dielectric constant tensor:
#      x y z
#    x 1.603760 0.000000 0.017710 
#    y 0.000000 1.632020 0.000000 
#    z 0.017710 0.000000 1.607840 
# 
# From -- ./inp_files/51186.got.cif
#   From: 2010.06.25/outbox.cif.g09.slc.cpg/sg11_26_cif.got.tgz:51186.got - 2010.06.27 23:14:04.
