data_PCOD8072810
_publ_section_title
;
Structure prediction by ZEFSAII (Michael W. Deem and Ramdas Pophale) SiO2 
 PCOD8072810
Probable space group: P 21/M
;
_chemical_formula_sum "Si O2"
_cell_formula_units_Z 32
_cell_length_a 9.869792
_cell_length_b 9.318818
_cell_length_c 23.339935
_cell_angle_alpha 90.000000
_cell_angle_beta 121.345839
_cell_angle_gamma 90.000000
_cell_volume 1833.361762
_symmetry_space_group_name_H-M "P 21/M"
_symmetry_group_IT_number 11
_symmetry_cell_setting 'monoclinic'
loop_
_space_group_symop_operation_xyz
x,y,z
-x,1/2+y,-z
-x,-y,-z
x,1/2-y,z
loop_
_atom_site_type_symbol
_atom_site_label
_atom_site_fract_x
_atom_site_fract_y
_atom_site_fract_z
Si Si1 0.446626 0.580783 0.847067
Si Si2 0.757341 0.083676 0.933654
Si Si3 0.026273 0.410177 0.331063
Si Si4 0.228759 0.088691 0.578290
Si Si5 0.996805 0.583731 0.912806
Si Si6 0.327539 0.591513 0.699538
Si Si7 0.872667 0.411600 0.546376
Si Si8 0.108630 0.579535 0.814375
O O1 0.472695 0.750000 0.862919
O O2 0.589313 0.492093 0.906046
O O3 0.437654 0.545733 0.777139
O O4 0.287533 0.523861 0.843375
O O5 0.733723 0.250000 0.913540
O O6 0.852388 0.062051 0.013295
O O7 0.848838 0.009015 0.901401
O O8 0.100758 0.250000 0.347863
O O9 0.852307 0.402594 0.319300
O O10 0.009820 0.471918 0.262603
O O11 0.136441 0.514381 0.393126
O O12 0.286545 0.250000 0.578656
O O13 0.050981 0.088362 0.562662
O O14 0.346477 0.019189 0.651268
O O15 0.239018 0.998572 0.521935
O O16 0.944892 0.750000 0.899466
O O17 0.043772 0.523995 0.860675
O O18 0.376785 0.750000 0.688552
O O19 0.807745 0.250000 0.537392
O O20 0.115815 0.750000 0.813790
#
# Coordination Sequence:
#
# PCOD8072810 Si02
#       8
#     4   4   4   4   4   4   4   4
#     4   9  17  30  48  68  91 120 151 184 227 277
#     4  10  20  32  47  69  94 119 150 188 227 268
#     4   8  13  23  38  55  77 105 139 179 219 259
#     4   9  15  21  31  48  72 106 145 180 213 251
#     4   9  18  34  52  67  88 120 154 187 226 271
#     4   8  14  24  37  54  78 108 140 175 217 263
#     4   9  15  21  30  47  74 108 143 176 212 257
#     4   8  15  29  49  69  88 116 154 190 225 271
#
# _framework density 17.454274999999999
#
# number of rings (size 3 to 8) (size 9 to 14) (size 15 to 20)
#    0.000    3.250    0.000    2.625    0.000    4.500 
#    0.000    3.125    0.000    0.000    0.000    0.000 
#    0.000    1.000    0.000    3.000    0.000    6.250 
#
# Total GULP energy -396661.742858 kJ/mol
# GULP energy per Si atom -12395.679464 kJ/mol
# Density = 1.741455 g / cm^3
# Si number density = 17.454275 Si / 1000 Ang^3
#
#
#
# Elastic Constant Matrix: (Units=GPa)
#
#
# Indices 1 2 3 4 5 6 
#
# 1 44.3871 24.1111 33.5381 0.0000 -21.5351 0.0000
# 2 24.1111 92.6854 42.7951 0.0000 -17.1976 0.0000
# 3 33.5381 42.7951 82.0982 0.0000 -33.3997 0.0000
# 4 0.0000 0.0000 0.0000 30.0653 0.0000 1.5604
# 5 -21.5351 -17.1976 -33.3997 0.0000 18.4906 0.0000
# 6 0.0000 0.0000 0.0000 1.5604 0.0000 14.8806
#
#
#
# Elastic Compliance Matrix: (Units=1/GPa)
#
#
# Indices 1 2 3 4 5 6 
#
# 1 0.057818 -0.005728 0.017325 0.000000 0.093305 0.000000
# 2 -0.005728 0.014778 -0.009375 0.000000 -0.009859 0.000000
# 3 0.017325 -0.009375 0.055257 0.000000 0.111270 0.000000
# 4 0.000000 0.000000 0.000000 0.033443 0.000000 -0.003507
# 5 0.093305 -0.009859 0.111270 0.000000 0.354566 0.000000
# 6 0.000000 0.000000 0.000000 -0.003507 0.000000 0.067569
#
#
# Mechanical properties :
#
#
# Convention : Reuss Voigt Hill
#
# Bulk Modulus (GPa) = 7.55861 46.67327 27.11594
# Shear Modulus (GPa) = 8.02457 20.60239 14.31348
#
# Velocity S-wave (km/s) = 2.14650 3.43937 2.86677
# Velocity P-wave (km/s) = 3.23778 6.52462 5.15043
#
# Compressibility (1/GPa) = 0.13229947
#
# Stress axis : x y z
#
# Youngs Moduli (GPa) = 17.29560 67.66670 18.09718
#
# Poissons Ratio (x) = 0.38757 -0.31354
# Poissons Ratio (y) = 0.09906 0.16966
# Poissons Ratio (z) = -0.29965 0.63435
#
# Static dielectric constant tensor:
#      x y z
#    x 2.781640 0.000000 -0.242970 
#    y 0.000000 3.277400 0.000000 
#    z -0.242970 0.000000 3.483190 
# 
# 
# High freq. dielectric constant tensor:
#      x y z
#    x 1.613330 0.000000 -0.015390 
#    y 0.000000 1.665960 0.000000 
#    z -0.015390 0.000000 1.682840 
# 
# From -- ./inp_files/68342.got.cif
#   From: 2010.06.25/outbox.cif.g09.slc.cpg/sg11_35_cif.got.tgz:68342.got - 2010.06.27 23:14:04.
