data_PCOD8072534
_publ_section_title
;
Structure prediction by ZEFSAII (Michael W. Deem and Ramdas Pophale) SiO2 
 PCOD8072534
Probable space group: P 21/M
;
_chemical_formula_sum "Si O2"
_cell_formula_units_Z 32
_cell_length_a 18.247479
_cell_length_b 8.897497
_cell_length_c 23.647329
_cell_angle_alpha 90.000000
_cell_angle_beta 155.405842
_cell_angle_gamma 90.000000
_cell_volume 1597.873729
_symmetry_space_group_name_H-M "P 21/M"
_symmetry_group_IT_number 11
_symmetry_cell_setting 'monoclinic'
loop_
_space_group_symop_operation_xyz
x,y,z
-x,1/2+y,-z
-x,-y,-z
x,1/2-y,z
loop_
_atom_site_type_symbol
_atom_site_label
_atom_site_fract_x
_atom_site_fract_y
_atom_site_fract_z
Si Si1 0.010932 0.417669 0.377860
Si Si2 0.328809 0.428196 0.906464
Si Si3 0.207211 0.415759 0.398190
Si Si4 0.483302 0.423055 0.339573
Si Si5 0.137104 0.926954 0.137409
Si Si6 0.648657 0.574002 0.947468
Si Si7 0.978054 0.074475 0.132206
Si Si8 0.665761 0.423711 0.350241
O O1 0.956883 0.250000 0.360187
O O2 0.109557 0.410825 0.388483
O O3 0.148691 0.486731 0.520162
O O4 0.836847 0.516939 0.246841
O O5 0.339719 0.250000 0.910112
O O6 0.322392 0.480124 0.967704
O O7 0.500000 0.500000 0.000000
O O8 0.285663 0.250000 0.439374
O O9 0.359579 0.540461 0.506425
O O10 0.065044 0.463895 0.252831
O O11 0.426581 0.250000 0.305920
O O12 0.327406 0.532035 0.247619
O O13 0.544787 0.463405 0.319470
O O14 0.113285 0.750000 0.121551
O O15 0.101552 0.991525 0.174260
O O16 0.000000 0.000000 0.000000
O O17 0.686535 0.750000 0.967778
O O18 0.449196 0.537303 0.786381
O O19 0.780423 0.489227 0.997113
O O20 0.969505 0.250000 0.111585
O O21 0.718380 0.250000 0.389220
#
# Coordination Sequence:
#
# PCOD8072534 Si02
#       8
#     4   4   4   4   4   4   4   4
#     4  10  19  36  60  88 120 154 194 238 286 346
#     4  11  23  39  62  90 121 157 194 238 293 350
#     4   9  19  35  56  83 114 150 191 237 287 345
#     4  10  20  35  57  83 114 151 193 241 294 347
#     4  12  25  40  56  77 110 151 195 245 298 353
#     4  10  21  38  61  89 120 153 196 246 295 350
#     4  11  22  37  59  85 115 152 193 241 294 348
#     4   9  19  36  59  87 117 152 194 242 291 347
#
# _framework density 20.026613999999999
#
# number of rings (size 3 to 8) (size 9 to 14) (size 15 to 20)
#    0.000    1.750    1.250    3.375    0.000    4.500 
#    0.000    0.625    0.000    0.000    0.000    0.000 
#    0.000    0.000    0.000    0.000    0.000    0.000 
#
# Total GULP energy -396784.435231 kJ/mol
# GULP energy per Si atom -12399.513601 kJ/mol
# Density = 1.998103 g / cm^3
# Si number density = 20.026614 Si / 1000 Ang^3
#
#
#
# Elastic Constant Matrix: (Units=GPa)
#
#
# Indices 1 2 3 4 5 6 
#
# 1 38.2946 29.2149 23.8405 0.0000 7.3020 0.0000
# 2 29.2149 102.5234 46.3532 0.0000 7.2089 0.0000
# 3 23.8405 46.3532 124.9787 0.0000 5.8249 0.0000
# 4 0.0000 0.0000 0.0000 41.1196 0.0000 5.4218
# 5 7.3020 7.2089 5.8249 0.0000 23.7892 0.0000
# 6 0.0000 0.0000 0.0000 5.4218 0.0000 26.3351
#
#
#
# Elastic Compliance Matrix: (Units=1/GPa)
#
#
# Indices 1 2 3 4 5 6 
#
# 1 0.035955 -0.008127 -0.003484 0.000000 -0.007720 0.000000
# 2 -0.008127 0.013707 -0.003496 0.000000 -0.000803 0.000000
# 3 -0.003484 -0.003496 0.009977 0.000000 -0.000314 0.000000
# 4 0.000000 0.000000 0.000000 0.024998 0.000000 -0.005147
# 5 -0.007720 -0.000803 -0.000314 0.000000 0.044726 0.000000
# 6 0.000000 0.000000 0.000000 -0.005147 0.000000 0.039032
#
#
# Mechanical properties :
#
#
# Convention : Reuss Voigt Hill
#
# Bulk Modulus (GPa) = 33.98633 51.62379 42.80506
# Shear Modulus (GPa) = 23.99019 29.34131 26.66575
#
# Velocity S-wave (km/s) = 3.46485 3.83184 3.65295
# Velocity P-wave (km/s) = 5.74581 6.73876 6.26199
#
# Compressibility (1/GPa) = 0.02942359
#
# Stress axis : x y z
#
# Youngs Moduli (GPa) = 27.81237 72.95583 100.22749
#
# Poissons Ratio (x) = 0.59295 0.34924
# Poissons Ratio (y) = 0.22604 0.35039
# Poissons Ratio (z) = 0.09691 0.25505
#
# Static dielectric constant tensor:
#      x y z
#    x 3.397250 0.000000 -0.197360 
#    y 0.000000 3.769150 0.000000 
#    z -0.197360 0.000000 3.981760 
# 
# 
# High freq. dielectric constant tensor:
#      x y z
#    x 1.760600 0.000000 -0.004180 
#    y 0.000000 1.786840 0.000000 
#    z -0.004180 0.000000 1.795660 
# 
# From -- ./inp_files/72119.got.cif
#   From: 2010.06.25/outbox.cif.g09.slc.cpg/sg11_37_cif.got.tgz:72119.got - 2010.06.27 23:14:04.
