data_PCOD8072510
_publ_section_title
;
Structure prediction by ZEFSAII (Michael W. Deem and Ramdas Pophale) SiO2 
 PCOD8072510
Probable space group: P 21/M
;
_chemical_formula_sum "Si O2"
_cell_formula_units_Z 32
_cell_length_a 24.111404
_cell_length_b 8.744326
_cell_length_c 24.112933
_cell_angle_alpha 90.000000
_cell_angle_beta 161.269263
_cell_angle_gamma 90.000000
_cell_volume 1632.554560
_symmetry_space_group_name_H-M "P 21/M"
_symmetry_group_IT_number 11
_symmetry_cell_setting 'monoclinic'
loop_
_space_group_symop_operation_xyz
x,y,z
-x,1/2+y,-z
-x,-y,-z
x,1/2-y,z
loop_
_atom_site_type_symbol
_atom_site_label
_atom_site_fract_x
_atom_site_fract_y
_atom_site_fract_z
Si Si1 0.207209 0.429459 0.140037
Si Si2 0.542957 0.930416 0.099573
Si Si3 0.850899 0.569991 0.788780
Si Si4 0.024426 0.069871 0.357526
Si Si5 0.626478 0.932139 0.369630
Si Si6 0.347489 0.928305 0.021087
Si Si7 0.443798 0.068493 0.573821
Si Si8 0.095195 0.569283 0.537715
O O1 0.219013 0.250000 0.142859
O O2 0.208391 0.476083 0.205736
O O3 0.369955 0.505942 0.265462
O O4 0.031953 0.489595 0.945301
O O5 0.562331 0.750000 0.111179
O O6 0.715998 0.999483 0.288145
O O7 0.396348 0.978585 0.004817
O O8 0.500000 0.000000 0.000000
O O9 0.879201 0.750000 0.809506
O O10 0.703235 0.508793 0.607523
O O11 0.037069 0.250000 0.383033
O O12 0.190229 0.010368 0.480790
O O13 0.853770 0.032929 0.159109
O O14 0.998726 0.978300 0.390222
O O15 0.623704 0.750000 0.367418
O O16 0.604523 0.994077 0.411072
O O17 0.471520 0.003220 0.185250
O O18 0.382666 0.750000 0.059185
O O19 0.453069 0.250000 0.580867
O O20 0.102048 0.750000 0.550857
O O21 0.000000 0.500000 0.500000
#
# Coordination Sequence:
#
# PCOD8072510 Si02
#       8
#     4   4   4   4   4   4   4   4
#     4  10  20  34  54  81 117 157 192 236 294 347
#     4  11  21  36  57  85 119 148 182 227 279 343
#     4   9  19  35  55  83 116 151 194 242 290 343
#     4  10  19  36  60  82 109 143 181 228 283 341
#     4   9  18  34  56  84 112 144 187 236 285 336
#     4   9  18  33  57  84 108 139 178 224 280 336
#     4  10  20  34  57  85 113 149 197 245 288 340
#     4  12  24  38  57  83 113 147 186 232 287 343
#
# _framework density 19.601182000000001
#
# number of rings (size 3 to 8) (size 9 to 14) (size 15 to 20)
#    0.000    2.000    1.250    3.000    0.000    3.000 
#    0.000    5.000    0.000    1.500    0.000    0.000 
#    0.000    0.000    0.000    0.000    0.000    0.000 
#
# Total GULP energy -396802.430821 kJ/mol
# GULP energy per Si atom -12400.075963 kJ/mol
# Density = 1.955657 g / cm^3
# Si number density = 19.601182 Si / 1000 Ang^3
#
#
#
# Elastic Constant Matrix: (Units=GPa)
#
#
# Indices 1 2 3 4 5 6 
#
# 1 133.5234 29.0028 78.3364 0.0000 7.0291 0.0000
# 2 29.0028 52.4689 23.1815 0.0000 2.6847 0.0000
# 3 78.3364 23.1815 148.8501 0.0000 13.5880 0.0000
# 4 0.0000 0.0000 0.0000 23.6417 0.0000 0.2130
# 5 7.0291 2.6847 13.5880 0.0000 26.0163 0.0000
# 6 0.0000 0.0000 0.0000 0.2130 0.0000 21.7712
#
#
#
# Elastic Compliance Matrix: (Units=1/GPa)
#
#
# Indices 1 2 3 4 5 6 
#
# 1 0.011559 -0.003977 -0.005477 0.000000 0.000148 0.000000
# 2 -0.003977 0.021841 -0.001261 0.000000 -0.000521 0.000000
# 3 -0.005477 -0.001261 0.010133 0.000000 -0.003682 0.000000
# 4 0.000000 0.000000 0.000000 0.042302 0.000000 -0.000414
# 5 0.000148 -0.000521 -0.003682 0.000000 0.040374 0.000000
# 6 0.000000 0.000000 0.000000 -0.000414 0.000000 0.045936
#
#
# Mechanical properties :
#
#
# Convention : Reuss Voigt Hill
#
# Bulk Modulus (GPa) = 45.24333 66.20931 55.72632
# Shear Modulus (GPa) = 24.88262 27.90730 26.39496
#
# Velocity S-wave (km/s) = 3.56679 3.77736 3.67359
# Velocity P-wave (km/s) = 6.33204 7.27160 6.81802
#
# Compressibility (1/GPa) = 0.02210270
#
# Stress axis : x y z
#
# Youngs Moduli (GPa) = 86.51400 45.78559 98.68456
#
# Poissons Ratio (x) = 0.18208 0.54053
# Poissons Ratio (y) = 0.34406 0.12444
# Poissons Ratio (z) = 0.47386 0.05773
#
# Static dielectric constant tensor:
#      x y z
#    x 3.715820 0.000000 -0.065590 
#    y 0.000000 3.431560 0.000000 
#    z -0.065590 0.000000 3.841190 
# 
# 
# High freq. dielectric constant tensor:
#      x y z
#    x 1.762250 0.000000 0.002600 
#    y 0.000000 1.733010 0.000000 
#    z 0.002600 0.000000 1.781580 
# 
# From -- ./inp_files/69990.got.cif
#   From: 2010.06.25/outbox.cif.g09.slc.cpg/sg11_35_cif.got.tgz:69990.got - 2010.06.27 23:14:04.
