data_PCOD8072210
_publ_section_title
;
Structure prediction by ZEFSAII (Michael W. Deem and Ramdas Pophale) SiO2 
 PCOD8072210
Probable space group: P 21/M
;
_chemical_formula_sum "Si O2"
_cell_formula_units_Z 32
_cell_length_a 13.072443
_cell_length_b 8.828121
_cell_length_c 23.320175
_cell_angle_alpha 90.000000
_cell_angle_beta 39.506934
_cell_angle_gamma 90.000000
_cell_volume 1712.107838
_symmetry_space_group_name_H-M "P 21/M"
_symmetry_group_IT_number 11
_symmetry_cell_setting 'monoclinic'
loop_
_space_group_symop_operation_xyz
x,y,z
-x,1/2+y,-z
-x,-y,-z
x,1/2-y,z
loop_
_atom_site_type_symbol
_atom_site_label
_atom_site_fract_x
_atom_site_fract_y
_atom_site_fract_z
Si Si1 0.450903 0.930586 0.233020
Si Si2 0.670775 0.421612 0.423410
Si Si3 0.467665 0.073328 0.103883
Si Si4 0.254909 0.573175 0.105232
Si Si5 0.829236 0.925147 0.580690
Si Si6 0.347533 0.421278 0.748067
Si Si7 0.896843 0.569545 0.234452
Si Si8 0.329520 0.583426 0.447837
O O1 0.445360 0.750000 0.236558
O O2 0.581305 0.994855 0.223847
O O3 0.498396 0.988066 0.150021
O O4 0.274534 0.993428 0.324929
O O5 0.500000 0.500000 0.500000
O O6 0.651585 0.250000 0.409044
O O7 0.800872 0.509197 0.330278
O O8 0.737113 0.424670 0.459411
O O9 0.445697 0.250000 0.125440
O O10 0.309271 0.013376 0.139422
O O11 0.623737 0.036712 0.998603
O O12 0.251576 0.750000 0.121602
O O13 0.080635 0.513965 0.159989
O O14 0.844938 0.750000 0.589645
O O15 0.745751 0.947042 0.555417
O O16 0.000000 0.000000 0.500000
O O17 0.308240 0.250000 0.781575
O O18 0.184577 0.492500 0.790238
O O19 0.477018 0.433609 0.640181
O O20 0.885886 0.750000 0.239845
O O21 0.284957 0.750000 0.440699
#
# Coordination Sequence:
#
# PCOD8072210 Si02
#       8
#     4   4   4   4   4   4   4   4
#     4  10  20  36  58  81 107 143 184 223 274 333
#     4  11  21  33  51  77 109 145 183 222 267 318
#     4  10  20  37  59  83 111 143 185 231 281 333
#     4   9  20  37  59  83 110 146 183 228 281 336
#     4  11  22  36  54  78 108 142 181 227 273 321
#     4   8  15  31  53  75 103 141 176 214 265 322
#     4  10  19  35  56  80 110 144 185 228 277 330
#     4   9  18  34  51  70 103 145 183 219 267 321
#
# _framework density 18.690411999999998
#
# number of rings (size 3 to 8) (size 9 to 14) (size 15 to 20)
#    0.000    2.250    1.250    3.000    0.000    3.000 
#    0.000    3.750    0.000    0.000    0.000    0.000 
#    0.000    0.000    0.000    0.000    0.000    0.000 
#
# Total GULP energy -396590.257215 kJ/mol
# GULP energy per Si atom -12393.445538 kJ/mol
# Density = 1.864787 g / cm^3
# Si number density = 18.690412 Si / 1000 Ang^3
#
#
#
# Elastic Constant Matrix: (Units=GPa)
#
#
# Indices 1 2 3 4 5 6 
#
# 1 129.1754 38.2513 66.5247 0.0000 -2.3878 0.0000
# 2 38.2513 67.7791 33.3004 0.0000 -1.2118 0.0000
# 3 66.5247 33.3004 85.7891 0.0000 -3.8614 0.0000
# 4 0.0000 0.0000 0.0000 28.9701 0.0000 3.6619
# 5 -2.3878 -1.2118 -3.8614 0.0000 33.8350 0.0000
# 6 0.0000 0.0000 0.0000 3.6619 0.0000 25.9693
#
#
#
# Elastic Compliance Matrix: (Units=1/GPa)
#
#
# Indices 1 2 3 4 5 6 
#
# 1 0.013375 -0.003029 -0.009206 0.000000 -0.000215 0.000000
# 2 -0.003029 0.018918 -0.004999 0.000000 -0.000107 0.000000
# 3 -0.009206 -0.004999 0.020805 0.000000 0.001546 0.000000
# 4 0.000000 0.000000 0.000000 0.035145 0.000000 -0.004956
# 5 -0.000215 -0.000107 0.001546 0.000000 0.029713 0.000000
# 6 0.000000 0.000000 0.000000 -0.004956 0.000000 0.039206
#
#
# Mechanical properties :
#
#
# Convention : Reuss Voigt Hill
#
# Bulk Modulus (GPa) = 53.67668 62.09960 57.88814
# Shear Modulus (GPa) = 25.27315 27.39937 26.33626
#
# Velocity S-wave (km/s) = 3.68121 3.83294 3.75784
# Velocity P-wave (km/s) = 6.84468 7.27228 7.06172
#
# Compressibility (1/GPa) = 0.01863006
#
# Stress axis : x y z
#
# Youngs Moduli (GPa) = 74.76439 52.86107 48.06580
#
# Poissons Ratio (x) = 0.16014 0.44247
# Poissons Ratio (y) = 0.22650 0.24027
# Poissons Ratio (z) = 0.68825 0.26424
#
# Static dielectric constant tensor:
#      x y z
#    x 4.368550 0.000000 -0.252020 
#    y 0.000000 2.984640 0.000000 
#    z -0.252020 0.000000 3.761540 
# 
# 
# High freq. dielectric constant tensor:
#      x y z
#    x 1.733250 0.000000 0.001980 
#    y 0.000000 1.716170 0.000000 
#    z 0.001980 0.000000 1.708810 
# 
# From -- ./inp_files/68965.got.cif
#   From: 2010.06.25/outbox.cif.g09.slc.cpg/sg11_35_cif.got.tgz:68965.got - 2010.06.27 23:14:04.
