data_PCOD8072306
_publ_section_title
;
Structure prediction by ZEFSAII (Michael W. Deem and Ramdas Pophale) SiO2 
 PCOD8072306
Probable space group: P 21/M
;
_chemical_formula_sum "Si O2"
_cell_formula_units_Z 32
_cell_length_a 26.128633
_cell_length_b 8.818613
_cell_length_c 20.816313
_cell_angle_alpha 90.000000
_cell_angle_beta 158.914851
_cell_angle_gamma 90.000000
_cell_volume 1725.550173
_symmetry_space_group_name_H-M "P 21/M"
_symmetry_group_IT_number 11
_symmetry_cell_setting 'monoclinic'
loop_
_space_group_symop_operation_xyz
x,y,z
-x,1/2+y,-z
-x,-y,-z
x,1/2-y,z
loop_
_atom_site_type_symbol
_atom_site_label
_atom_site_fract_x
_atom_site_fract_y
_atom_site_fract_z
Si Si1 0.420025 0.428937 0.465710
Si Si2 0.103742 0.071327 0.071158
Si Si3 0.390161 0.074248 0.961061
Si Si4 0.030666 0.073408 0.351178
Si Si5 0.273429 0.572641 0.950613
Si Si6 0.913205 0.576163 0.092676
Si Si7 0.396136 0.076784 0.215720
Si Si8 0.695713 0.426425 0.269083
O O1 0.500000 0.500000 0.500000
O O2 0.433753 0.250000 0.476966
O O3 0.259256 0.486331 0.272181
O O4 0.480314 0.484172 0.604454
O O5 0.096030 0.250000 0.066270
O O6 0.059416 0.019537 0.947586
O O7 0.000000 0.000000 0.000000
O O8 0.358260 0.250000 0.936841
O O9 0.559320 0.042146 0.154897
O O10 0.319294 0.975550 0.933607
O O11 0.314757 0.026794 0.806863
O O12 0.068822 0.250000 0.401496
O O13 0.892194 0.030554 0.231528
O O14 0.162248 0.973031 0.527909
O O15 0.001577 0.032714 0.242986
O O16 0.296702 0.750000 0.987427
O O17 0.374474 0.487184 0.119059
O O18 0.961446 0.750000 0.160134
O O19 0.745757 0.560148 0.908742
O O20 0.444736 0.250000 0.266575
O O21 0.701860 0.250000 0.257093
#
# Coordination Sequence:
#
# PCOD8072306 Si02
#       8
#     4   4   4   4   4   4   4   4
#     4  11  21  36  58  84 111 144 188 233 278 333
#     4  10  22  39  56  80 112 146 185 231 281 332
#     4  10  21  38  60  85 113 148 187 228 275 327
#     4  10  21  36  57  86 113 144 187 229 274 332
#     4  10  21  37  57  85 117 148 184 230 279 327
#     4   9  18  36  57  78 110 147 183 228 277 329
#     4  10  19  35  58  84 112 145 185 231 281 331
#     4  10  21  38  60  84 112 149 188 227 274 329
#
# _framework density 18.544809999999998
#
# number of rings (size 3 to 8) (size 9 to 14) (size 15 to 20)
#    0.000    2.000    1.250    2.250    0.000    5.500 
#    2.250    0.000    0.000    0.000    0.000    0.000 
#    0.000    0.000    0.000    0.000    0.000    0.000 
#
# Total GULP energy -396907.993191 kJ/mol
# GULP energy per Si atom -12403.374787 kJ/mol
# Density = 1.850260 g / cm^3
# Si number density = 18.544810 Si / 1000 Ang^3
#
#
#
# Elastic Constant Matrix: (Units=GPa)
#
#
# Indices 1 2 3 4 5 6 
#
# 1 110.9461 26.4287 46.9779 0.0000 3.2756 0.0000
# 2 26.4287 58.9299 36.1079 0.0000 5.4618 0.0000
# 3 46.9779 36.1079 115.4275 0.0000 1.0265 0.0000
# 4 0.0000 0.0000 0.0000 33.5590 0.0000 -4.7960
# 5 3.2756 5.4618 1.0265 0.0000 18.2057 0.0000
# 6 0.0000 0.0000 0.0000 -4.7960 0.0000 35.1976
#
#
#
# Elastic Compliance Matrix: (Units=1/GPa)
#
#
# Indices 1 2 3 4 5 6 
#
# 1 0.011262 -0.002664 -0.003741 0.000000 -0.001016 0.000000
# 2 -0.002664 0.022284 -0.005834 0.000000 -0.005877 0.000000
# 3 -0.003741 -0.005834 0.011996 0.000000 0.001747 0.000000
# 4 0.000000 0.000000 0.000000 0.030390 0.000000 0.004141
# 5 -0.001016 -0.005877 0.001747 0.000000 0.056775 0.000000
# 6 0.000000 0.000000 0.000000 0.004141 0.000000 0.028975
#
#
# Mechanical properties :
#
#
# Convention : Reuss Voigt Hill
#
# Bulk Modulus (GPa) = 47.47851 56.03693 51.75772
# Shear Modulus (GPa) = 25.88238 29.11173 27.49706
#
# Velocity S-wave (km/s) = 3.73992 3.96637 3.85481
# Velocity P-wave (km/s) = 6.65634 7.15953 6.91251
#
# Compressibility (1/GPa) = 0.02106216
#
# Stress axis : x y z
#
# Youngs Moduli (GPa) = 88.79290 44.87607 83.36459
#
# Poissons Ratio (x) = 0.11957 0.31187
# Poissons Ratio (y) = 0.23658 0.48636
# Poissons Ratio (z) = 0.33218 0.26181
#
# Static dielectric constant tensor:
#      x y z
#    x 3.355730 0.000000 0.021890 
#    y 0.000000 3.458450 0.000000 
#    z 0.021890 0.000000 3.390360 
# 
# 
# High freq. dielectric constant tensor:
#      x y z
#    x 1.716040 0.000000 -0.009380 
#    y 0.000000 1.729310 0.000000 
#    z -0.009380 0.000000 1.719680 
# 
# From -- ./inp_files/67170.got.cif
#   From: 2010.06.25/outbox.cif.g09.slc.cpg/sg11_34_cif.got.tgz:67170.got - 2010.06.27 23:14:04.
