data_PCOD8072508
_publ_section_title
;
Structure prediction by ZEFSAII (Michael W. Deem and Ramdas Pophale) SiO2 
 PCOD8072508
Probable space group: P 21/M
;
_chemical_formula_sum "Si O2"
_cell_formula_units_Z 32
_cell_length_a 21.756774
_cell_length_b 9.303208
_cell_length_c 28.232136
_cell_angle_alpha 90.000000
_cell_angle_beta 162.107949
_cell_angle_gamma 90.000000
_cell_volume 1755.605563
_symmetry_space_group_name_H-M "P 21/M"
_symmetry_group_IT_number 11
_symmetry_cell_setting 'monoclinic'
loop_
_space_group_symop_operation_xyz
x,y,z
-x,1/2+y,-z
-x,-y,-z
x,1/2-y,z
loop_
_atom_site_type_symbol
_atom_site_label
_atom_site_fract_x
_atom_site_fract_y
_atom_site_fract_z
Si Si1 0.883509 0.418232 0.582711
Si Si2 0.022144 0.083094 0.586583
Si Si3 0.446381 0.415742 0.237933
Si Si4 0.510526 0.417687 0.458696
Si Si5 0.061741 0.581593 0.272902
Si Si6 0.290761 0.580752 0.034946
Si Si7 0.798078 0.585761 0.845962
Si Si8 0.702913 0.583571 0.293903
O O1 0.854583 0.250000 0.569869
O O2 0.043954 0.454753 0.658578
O O3 0.668897 0.478331 0.408883
O O4 0.954956 0.480210 0.685512
O O5 0.971759 0.250000 0.543941
O O6 0.224569 0.042428 0.706378
O O7 0.830727 0.002400 0.425710
O O8 0.447700 0.250000 0.221423
O O9 0.337966 0.515179 0.120451
O O10 0.333259 0.432126 0.203973
O O11 0.500000 0.500000 0.500000
O O12 0.489698 0.250000 0.454216
O O13 0.717315 0.449989 0.583846
O O14 0.329861 0.471552 0.292610
O O15 0.007414 0.750000 0.229639
O O16 0.909831 0.491357 0.130343
O O17 0.256608 0.750000 0.015490
O O18 0.469895 0.545851 0.129208
O O19 0.856917 0.750000 0.880554
O O20 0.000000 0.500000 0.000000
O O21 0.742778 0.750000 0.333502
#
# Coordination Sequence:
#
# PCOD8072508 Si02
#       8
#     4   4   4   4   4   4   4   4
#     4   9  16  32  59  83 100 132 184 231 265 307
#     4   9  16  29  54  80 103 137 180 222 266 321
#     4  10  19  36  60  82 105 138 184 231 268 312
#     4  10  22  40  59  80 109 143 178 219 266 320
#     4  10  21  39  59  78 105 143 186 226 264 314
#     4  11  23  36  51  79 117 149 177 220 274 323
#     4  10  22  39  59  84 113 140 174 224 273 319
#     4   9  18  31  47  76 114 143 171 217 274 322
#
# _framework density 18.227329000000001
#
# number of rings (size 3 to 8) (size 9 to 14) (size 15 to 20)
#    0.000    2.250    2.500    0.375    1.750    2.000 
#    0.000    1.875    0.000    0.000    0.000    0.000 
#    0.000    0.000    0.000    0.000    0.000    0.000 
#
# Total GULP energy -396714.292251 kJ/mol
# GULP energy per Si atom -12397.321633 kJ/mol
# Density = 1.818584 g / cm^3
# Si number density = 18.227329 Si / 1000 Ang^3
#
#
#
# Elastic Constant Matrix: (Units=GPa)
#
#
# Indices 1 2 3 4 5 6 
#
# 1 113.7148 40.7392 46.3114 0.0000 -16.7288 0.0000
# 2 40.7392 55.1921 45.8784 0.0000 -5.6960 0.0000
# 3 46.3114 45.8784 110.5018 0.0000 -18.2218 0.0000
# 4 0.0000 0.0000 0.0000 21.3176 0.0000 2.1507
# 5 -16.7288 -5.6960 -18.2218 0.0000 29.8797 0.0000
# 6 0.0000 0.0000 0.0000 2.1507 0.0000 25.3386
#
#
#
# Elastic Compliance Matrix: (Units=1/GPa)
#
#
# Indices 1 2 3 4 5 6 
#
# 1 0.012884 -0.007922 -0.001301 0.000000 0.004910 0.000000
# 2 -0.007922 0.032638 -0.011047 0.000000 -0.004950 0.000000
# 3 -0.001301 -0.011047 0.015247 0.000000 0.006464 0.000000
# 4 0.000000 0.000000 0.000000 0.047315 0.000000 -0.004016
# 5 0.004910 -0.004950 0.006464 0.000000 0.039215 0.000000
# 6 0.000000 0.000000 0.000000 -0.004016 0.000000 0.039806
#
#
# Mechanical properties :
#
#
# Convention : Reuss Voigt Hill
#
# Bulk Modulus (GPa) = 49.43281 60.58518 55.00899
# Shear Modulus (GPa) = 21.33212 25.07249 23.20230
#
# Velocity S-wave (km/s) = 3.42473 3.71286 3.57170
# Velocity P-wave (km/s) = 6.54350 7.18966 6.87418
#
# Compressibility (1/GPa) = 0.02022948
#
# Stress axis : x y z
#
# Youngs Moduli (GPa) = 77.61407 30.63924 65.58555
#
# Poissons Ratio (x) = 0.24273 0.08533
# Poissons Ratio (y) = 0.61487 0.72451
# Poissons Ratio (z) = 0.10098 0.33847
#
# Static dielectric constant tensor:
#      x y z
#    x 3.509140 0.000000 -0.529420 
#    y 0.000000 3.304410 0.000000 
#    z -0.529420 0.000000 1.353200 
# 
# 
# High freq. dielectric constant tensor:
#      x y z
#    x 1.725670 0.000000 0.004630 
#    y 0.000000 1.688740 0.000000 
#    z 0.004630 0.000000 1.693910 
# 
# From -- ./inp_files/72232.got.cif
#   From: 2010.06.25/outbox.cif.g09.slc.cpg/sg11_37_cif.got.tgz:72232.got - 2010.06.27 23:14:04.
