data_PCOD8072192
_publ_section_title
;
Structure prediction by ZEFSAII (Michael W. Deem and Ramdas Pophale) SiO2 
 PCOD8072192
Probable space group: P 21/M
;
_chemical_formula_sum "Si O2"
_cell_formula_units_Z 32
_cell_length_a 12.228245
_cell_length_b 9.225095
_cell_length_c 19.829727
_cell_angle_alpha 90.000000
_cell_angle_beta 130.181560
_cell_angle_gamma 90.000000
_cell_volume 1709.020170
_symmetry_space_group_name_H-M "P 21/M"
_symmetry_group_IT_number 11
_symmetry_cell_setting 'monoclinic'
loop_
_space_group_symop_operation_xyz
x,y,z
-x,1/2+y,-z
-x,-y,-z
x,1/2-y,z
loop_
_atom_site_type_symbol
_atom_site_label
_atom_site_fract_x
_atom_site_fract_y
_atom_site_fract_z
Si Si1 0.344632 0.083321 0.319352
Si Si2 0.349349 0.420196 0.937127
Si Si3 0.338328 0.579201 0.553807
Si Si4 0.132215 0.921601 0.587821
Si Si5 0.168721 0.918265 0.357888
Si Si6 0.868801 0.920202 0.035708
Si Si7 0.151032 0.417110 0.733506
Si Si8 0.853797 0.914863 0.877630
O O1 0.346001 0.250000 0.342756
O O2 0.502349 0.012537 0.388039
O O3 0.293382 0.067279 0.221797
O O4 0.233340 0.000150 0.320830
O O5 0.376589 0.250000 0.956463
O O6 0.248283 0.478443 0.957594
O O7 0.274905 0.454903 0.836004
O O8 0.500000 0.500000 0.000000
O O9 0.349579 0.750000 0.551624
O O10 0.271083 0.538901 0.598901
O O11 0.238602 0.518171 0.454276
O O12 0.101909 0.750000 0.577859
O O13 0.166205 0.979426 0.675497
O O14 0.000000 0.000000 0.500000
O O15 0.204330 0.750000 0.364257
O O16 0.000008 0.947228 0.290783
O O17 0.888365 0.750000 0.054095
O O18 0.819178 0.963263 0.940380
O O19 0.023349 0.991199 0.109588
O O20 0.159118 0.250000 0.712892
O O21 0.909028 0.750000 0.899119
#
# Coordination Sequence:
#
# PCOD8072192 Si02
#       8
#     4   4   4   4   4   4   4   4
#     4  10  20  33  50  78 111 138 173 219 269 323
#     4  10  22  38  57  81 112 147 185 231 279 330
#     4   9  19  35  54  76 106 143 176 218 272 320
#     4  11  21  37  60  83 109 145 188 232 275 326
#     4  10  19  35  56  76 106 144 180 220 268 323
#     4   9  18  35  57  77 101 141 183 217 268 330
#     4  10  21  38  58  82 112 146 184 231 281 328
#     4   9  18  32  53  80 107 134 171 225 271 315
#
# _framework density 18.724178999999999
#
# number of rings (size 3 to 8) (size 9 to 14) (size 15 to 20)
#    0.000    2.250    1.250    1.500    0.000    4.000 
#    0.000    3.750    0.000    0.000    0.000    0.000 
#    0.000    0.000    0.000    0.000    0.000    0.000 
#
# Total GULP energy -396802.597024 kJ/mol
# GULP energy per Si atom -12400.081157 kJ/mol
# Density = 1.868156 g / cm^3
# Si number density = 18.724179 Si / 1000 Ang^3
#
#
#
# Elastic Constant Matrix: (Units=GPa)
#
#
# Indices 1 2 3 4 5 6 
#
# 1 101.7421 39.0872 54.6301 0.0000 -5.4894 0.0000
# 2 39.0872 49.9718 40.7343 0.0000 -2.8633 0.0000
# 3 54.6301 40.7343 120.6910 0.0000 7.1520 0.0000
# 4 0.0000 0.0000 0.0000 28.7133 0.0000 -1.7550
# 5 -5.4894 -2.8633 7.1520 0.0000 30.8415 0.0000
# 6 0.0000 0.0000 0.0000 -1.7550 0.0000 29.9686
#
#
#
# Elastic Compliance Matrix: (Units=1/GPa)
#
#
# Indices 1 2 3 4 5 6 
#
# 1 0.015591 -0.008449 -0.004384 0.000000 0.003007 0.000000
# 2 -0.008449 0.032901 -0.007474 0.000000 0.003284 0.000000
# 3 -0.004384 -0.007474 0.013059 0.000000 -0.004503 0.000000
# 4 0.000000 0.000000 0.000000 0.034952 0.000000 0.002047
# 5 0.003007 0.003284 -0.004503 0.000000 0.034308 0.000000
# 6 0.000000 0.000000 0.000000 0.002047 0.000000 0.033488
#
#
# Mechanical properties :
#
#
# Convention : Reuss Voigt Hill
#
# Bulk Modulus (GPa) = 47.76343 60.14536 53.95439
# Shear Modulus (GPa) = 23.59677 27.10157 25.34917
#
# Velocity S-wave (km/s) = 3.55382 3.80861 3.68342
# Velocity P-wave (km/s) = 6.51183 7.17859 6.85332
#
# Compressibility (1/GPa) = 0.02093652
#
# Stress axis : x y z
#
# Youngs Moduli (GPa) = 64.14031 30.39402 76.57359
#
# Poissons Ratio (x) = 0.25681 0.33566
# Poissons Ratio (y) = 0.54195 0.57235
# Poissons Ratio (z) = 0.28116 0.22718
#
# Static dielectric constant tensor:
#      x y z
#    x 3.536210 0.000000 -0.012830 
#    y 0.000000 2.998990 0.000000 
#    z -0.012830 0.000000 3.614250 
# 
# 
# High freq. dielectric constant tensor:
#      x y z
#    x 1.729100 0.000000 -0.004760 
#    y 0.000000 1.707960 0.000000 
#    z -0.004760 0.000000 1.737630 
# 
# From -- ./inp_files/64413.got.cif
#   From: 2010.06.25/outbox.cif.g09.slc.cpg/sg11_33_cif.got.tgz:64413.got - 2010.06.27 23:14:04.
