data_PCOD8072992
_publ_section_title
;
Structure prediction by ZEFSAII (Michael W. Deem and Ramdas Pophale) SiO2 
 PCOD8072992
Probable space group: P 21/M
;
_chemical_formula_sum "Si O2"
_cell_formula_units_Z 32
_cell_length_a 24.830367
_cell_length_b 9.343320
_cell_length_c 9.073553
_cell_angle_alpha 90.000000
_cell_angle_beta 123.238992
_cell_angle_gamma 90.000000
_cell_volume 1760.643158
_symmetry_space_group_name_H-M "P 21/M"
_symmetry_group_IT_number 11
_symmetry_cell_setting 'monoclinic'
loop_
_space_group_symop_operation_xyz
x,y,z
-x,1/2+y,-z
-x,-y,-z
x,1/2-y,z
loop_
_atom_site_type_symbol
_atom_site_label
_atom_site_fract_x
_atom_site_fract_y
_atom_site_fract_z
Si Si1 0.057113 0.918141 0.507072
Si Si2 0.057113 0.581859 0.164268
Si Si3 0.562607 0.083779 0.765206
Si Si4 0.689666 0.420565 0.450798
Si Si5 0.185486 0.920217 0.194316
Si Si6 0.185486 0.579783 0.862141
Si Si7 0.562607 0.083779 0.422615
Si Si8 0.689666 0.079435 0.118199
O O1 0.047395 0.750000 0.517794
O O2 0.058298 0.957831 0.337447
O O3 0.123626 0.972330 0.678241
O O4 0.000000 0.000000 0.500000
O O5 0.047395 0.750000 0.124391
O O6 0.123626 0.527669 0.192638
O O7 0.000000 0.500000 0.000000
O O8 0.550979 0.250000 0.780172
O O9 0.575614 0.054652 0.613422
O O10 0.500000 1.000000 0.727914
O O11 0.624138 0.023916 0.945212
O O12 0.691298 0.250000 0.456271
O O13 0.750633 0.482228 0.631821
O O14 0.624138 0.476085 0.427201
O O15 0.692989 0.478836 0.289483
O O16 0.188474 0.750000 0.196716
O O17 0.181524 0.980861 0.022286
O O18 0.188474 0.750000 0.868707
O O19 0.249367 0.517772 0.879921
O O20 0.550979 0.250000 0.372764
O O21 0.691298 0.250000 0.117624
#
# Coordination Sequence:
#
# PCOD8072992 Si02
#       8
#     4   4   4   4   4   4   4   4
#     4  10  20  33  50  73 100 129 161 197 238 284
#     4  10  20  33  50  73 100 129 161 197 238 284
#     4   9  17  29  45  65  89 117 148 182 222 268
#     4   9  16  26  42  65  91 117 148 188 230 270
#     4   9  16  27  45  68  93 121 154 193 235 276
#     4   9  16  27  45  68  93 121 154 193 235 276
#     4   9  17  29  45  65  89 117 148 182 222 268
#     4   9  16  26  42  65  91 117 148 188 230 270
#
# _framework density 18.175177000000001
#
# number of rings (size 3 to 8) (size 9 to 14) (size 15 to 20)
#    0.000    2.750    0.000    2.250    0.000    8.000 
#    0.000    0.000    0.000    1.500    0.000    3.500 
#    0.000    0.000    0.000    0.000    0.000    0.000 
#
# Total GULP energy -396809.976547 kJ/mol
# GULP energy per Si atom -12400.311767 kJ/mol
# Density = 1.813381 g / cm^3
# Si number density = 18.175177 Si / 1000 Ang^3
#
#
#
# Elastic Constant Matrix: (Units=GPa)
#
#
# Indices 1 2 3 4 5 6 
#
# 1 199.3149 34.4428 106.2336 0.0000 9.4971 0.0000
# 2 34.4428 18.6240 31.6446 0.0000 3.6156 0.0000
# 3 106.2336 31.6446 181.4810 0.0000 13.5465 0.0000
# 4 0.0000 0.0000 0.0000 19.1368 0.0000 5.0835
# 5 9.4971 3.6156 13.5465 0.0000 37.6330 0.0000
# 6 0.0000 0.0000 0.0000 5.0835 0.0000 23.0709
#
#
#
# Elastic Compliance Matrix: (Units=1/GPa)
#
#
# Indices 1 2 3 4 5 6 
#
# 1 0.008489 -0.010310 -0.003171 0.000000 -0.000010 0.000000
# 2 -0.010310 0.089072 -0.009301 0.000000 -0.002608 0.000000
# 3 -0.003171 -0.009301 0.009106 0.000000 -0.001584 0.000000
# 4 0.000000 0.000000 0.000000 0.055504 0.000000 -0.012230
# 5 -0.000010 -0.002608 -0.001584 0.000000 0.027396 0.000000
# 6 0.000000 0.000000 0.000000 -0.012230 0.000000 0.046039
#
#
# Mechanical properties :
#
#
# Convention : Reuss Voigt Hill
#
# Bulk Modulus (GPa) = 16.36581 82.67354 49.51967
# Shear Modulus (GPa) = 16.58150 31.10806 23.84478
#
# Velocity S-wave (km/s) = 3.02373 4.14160 3.62600
# Velocity P-wave (km/s) = 4.60594 8.27383 6.69593
#
# Compressibility (1/GPa) = 0.06110301
#
# Stress axis : x y z
#
# Youngs Moduli (GPa) = 117.79336 11.22681 109.81190
#
# Poissons Ratio (x) = 0.11575 0.34820
# Poissons Ratio (y) = 1.21450 1.02141
# Poissons Ratio (z) = 0.37351 0.10443
#
# Static dielectric constant tensor:
#      x y z
#    x 3.592500 0.000000 0.031090 
#    y 0.000000 2.782800 0.000000 
#    z 0.031090 0.000000 3.568440 
# 
# 
# High freq. dielectric constant tensor:
#      x y z
#    x 1.721880 0.000000 0.002530 
#    y 0.000000 1.637000 0.000000 
#    z 0.002530 0.000000 1.719930 
# 
# From -- ./inp_files/26407.got.cif
#   From: 2010.06.25/outbox.cif.g09.slc.cpg/sg11_14_cif.got.tgz:26407.got - 2010.06.27 23:14:04.
