data_PCOD8072231
_publ_section_title
;
Structure prediction by ZEFSAII (Michael W. Deem and Ramdas Pophale) SiO2 
 PCOD8072231
Probable space group: P 21/M
;
_chemical_formula_sum "Si O2"
_cell_formula_units_Z 28
_cell_length_a 20.435139
_cell_length_b 8.925413
_cell_length_c 16.127017
_cell_angle_alpha 90.000000
_cell_angle_beta 150.070779
_cell_angle_gamma 90.000000
_cell_volume 1467.571943
_symmetry_space_group_name_H-M "P 21/M"
_symmetry_group_IT_number 11
_symmetry_cell_setting 'monoclinic'
loop_
_space_group_symop_operation_xyz
x,y,z
-x,1/2+y,-z
-x,-y,-z
x,1/2-y,z
loop_
_atom_site_type_symbol
_atom_site_label
_atom_site_fract_x
_atom_site_fract_y
_atom_site_fract_z
Si Si1 0.195934 0.424576 0.021449
Si Si2 0.920241 0.424405 0.636753
Si Si3 0.440987 0.428318 0.183669
Si Si4 0.115683 0.426247 0.576146
Si Si5 0.283675 0.927136 0.450231
Si Si6 0.862589 0.427218 0.871607
Si Si7 0.398874 0.072984 0.951462
O O1 0.207616 0.250000 0.057590
O O2 0.319697 0.484862 0.105626
O O3 0.191015 0.518704 0.099747
O O4 0.069171 0.454058 0.826337
O O5 0.896384 0.250000 0.590575
O O6 0.886026 0.521158 0.519833
O O7 0.826325 0.483967 0.606541
O O8 0.441044 0.250000 0.182630
O O9 0.574557 0.494492 0.370080
O O10 0.427512 0.488350 0.075220
O O11 0.096753 0.250000 0.559470
O O12 0.252404 0.475963 0.766959
O O13 0.000000 0.500000 0.500000
O O14 0.290594 0.750000 0.463135
O O15 0.243667 0.977920 0.314017
O O16 0.882149 0.250000 0.893151
O O17 0.000000 0.500000 0.000000
O O18 0.416860 0.250000 0.966298
O O19 0.500000 0.000000 0.000000
#
# Coordination Sequence:
#
# PCOD8072231 Si02
#       7
#     4   4   4   4   4   4   4
#     4  10  20  36  58  83 111 147 187 229 277 332
#     4  10  19  35  57  79 108 148 190 231 279 334
#     4   9  18  34  56  80 109 146 185 223 275 335
#     4  11  23  37  55  84 116 148 190 237 285 339
#     4   9  18  33  55  81 108 142 184 225 271 333
#     4  11  21  36  57  83 113 145 184 229 278 332
#     4  10  21  38  60  84 112 149 191 236 284 340
#
# _framework density 19.079134
#
# number of rings (size 3 to 8) (size 9 to 14) (size 15 to 20)
#    0.000    2.000    1.429    2.571    0.000    5.714 
#    0.000    0.714    0.000    2.571    0.000    0.000 
#    0.000    0.000    0.000    0.000    0.000    0.000 
#
# Total GULP energy -347265.451819 kJ/mol
# GULP energy per Si atom -12402.337565 kJ/mol
# Density = 1.903571 g / cm^3
# Si number density = 19.079134 Si / 1000 Ang^3
#
#
#
# Elastic Constant Matrix: (Units=GPa)
#
#
# Indices 1 2 3 4 5 6 
#
# 1 152.6720 39.8222 84.7721 0.0000 2.4402 0.0000
# 2 39.8222 44.4827 47.6368 0.0000 -1.1765 0.0000
# 3 84.7721 47.6368 172.6418 0.0000 1.2814 0.0000
# 4 0.0000 0.0000 0.0000 21.6347 0.0000 -7.1461
# 5 2.4402 -1.1765 1.2814 0.0000 43.1064 0.0000
# 6 0.0000 0.0000 0.0000 -7.1461 0.0000 33.0673
#
#
#
# Elastic Compliance Matrix: (Units=1/GPa)
#
#
# Indices 1 2 3 4 5 6 
#
# 1 0.009778 -0.005156 -0.003374 0.000000 -0.000594 0.000000
# 2 -0.005156 0.034684 -0.007049 0.000000 0.001448 0.000000
# 3 -0.003374 -0.007049 0.009396 0.000000 -0.000281 0.000000
# 4 0.000000 0.000000 0.000000 0.049775 0.000000 0.010757
# 5 -0.000594 0.001448 -0.000281 0.000000 0.023280 0.000000
# 6 0.000000 0.000000 0.000000 0.010757 0.000000 0.032566
#
#
# Mechanical properties :
#
#
# Convention : Reuss Voigt Hill
#
# Bulk Modulus (GPa) = 44.05406 79.36207 61.70807
# Shear Modulus (GPa) = 25.22660 32.73271 28.97966
#
# Velocity S-wave (km/s) = 3.64016 4.14651 3.90156
# Velocity P-wave (km/s) = 6.38812 8.03811 7.26014
#
# Compressibility (1/GPa) = 0.02269938
#
# Stress axis : x y z
#
# Youngs Moduli (GPa) = 102.27268 28.83207 106.42405
#
# Poissons Ratio (x) = 0.14865 0.35909
# Poissons Ratio (y) = 0.52728 0.75022
# Poissons Ratio (z) = 0.34509 0.20325
#
# Static dielectric constant tensor:
#      x y z
#    x 3.670350 0.000000 0.056470 
#    y 0.000000 3.239320 0.000000 
#    z 0.056470 0.000000 3.933340 
# 
# 
# High freq. dielectric constant tensor:
#      x y z
#    x 1.756090 0.000000 -0.001350 
#    y 0.000000 1.709450 0.000000 
#    z -0.001350 0.000000 1.759530 
# 
# From -- ./inp_files/28395.got.cif
#   From: 2010.06.25/outbox.cif.g09.slc.cpg/sg11_15_cif.got.tgz:28395.got - 2010.06.27 23:14:04.
