data_PCOD8072792
_publ_section_title
;
Structure prediction by ZEFSAII (Michael W. Deem and Ramdas Pophale) SiO2 
 PCOD8072792
Probable space group: P 21/M
;
_chemical_formula_sum "Si O2"
_cell_formula_units_Z 24
_cell_length_a 11.408395
_cell_length_b 9.575362
_cell_length_c 19.846548
_cell_angle_alpha 90.000000
_cell_angle_beta 43.579451
_cell_angle_gamma 90.000000
_cell_volume 1494.550759
_symmetry_space_group_name_H-M "P 21/M"
_symmetry_group_IT_number 11
_symmetry_cell_setting 'monoclinic'
loop_
_space_group_symop_operation_xyz
x,y,z
-x,1/2+y,-z
-x,-y,-z
x,1/2-y,z
loop_
_atom_site_type_symbol
_atom_site_label
_atom_site_fract_x
_atom_site_fract_y
_atom_site_fract_z
Si Si1 0.704968 0.411533 0.276124
Si Si2 0.593473 0.592240 0.514085
Si Si3 0.901353 0.912536 0.305867
Si Si4 0.716667 0.088448 0.857648
Si Si5 0.415423 0.911173 0.940155
Si Si6 0.170747 0.913901 0.921617
O O1 0.754152 0.250000 0.267212
O O2 0.500245 0.435673 0.375104
O O3 0.820346 0.502416 0.277974
O O4 0.738933 0.456124 0.185659
O O5 0.500000 0.500000 0.500000
O O6 0.558539 0.750000 0.506604
O O7 0.796033 0.562763 0.420373
O O8 0.901722 0.750000 0.284234
O O9 0.093228 0.962252 0.239328
O O10 0.688110 0.250000 0.851896
O O11 0.588246 0.999860 0.865453
O O12 0.686710 0.058602 0.948891
O O13 0.466873 0.750000 0.912078
O O14 0.296853 0.959639 0.928456
O O15 0.128007 0.750000 0.943373
O O16 0.000000 0.000000 0.000000
#
# Coordination Sequence:
#
# PCOD8072792 Si02
#       6
#     4   4   4   4   4   4
#     4   9  17  28  43  65  91 116 142 173 211 257
#     4   8  14  25  41  62  87 113 140 172 211 252
#     4   9  16  27  45  67  89 113 142 177 216 253
#     4   9  17  29  45  63  82 107 142 180 213 249
#     4   9  18  31  44  60  84 112 141 174 213 253
#     4  10  20  32  46  65  89 116 144 174 211 256
#
# _framework density 16.058337000000002
#
# number of rings (size 3 to 8) (size 9 to 14) (size 15 to 20)
#    0.000    3.000    0.000    1.000    0.000    3.333 
#    0.000    3.333    0.000    1.000    0.000    0.000 
#    0.000    0.000    0.000    0.000    0.000    0.000 
#
# Total GULP energy -297364.896063 kJ/mol
# GULP energy per Si atom -12390.204003 kJ/mol
# Density = 1.602179 g / cm^3
# Si number density = 16.058337 Si / 1000 Ang^3
#
#
#
# Elastic Constant Matrix: (Units=GPa)
#
#
# Indices 1 2 3 4 5 6 
#
# 1 111.0945 45.5091 74.9932 0.0000 -14.4448 0.0000
# 2 45.5091 45.8394 47.0365 0.0000 -9.3137 0.0000
# 3 74.9932 47.0365 149.9438 0.0000 -20.1046 0.0000
# 4 0.0000 0.0000 0.0000 21.6819 0.0000 -4.7140
# 5 -14.4448 -9.3137 -20.1046 0.0000 26.9075 0.0000
# 6 0.0000 0.0000 0.0000 -4.7140 0.0000 24.9762
#
#
#
# Elastic Compliance Matrix: (Units=1/GPa)
#
#
# Indices 1 2 3 4 5 6 
#
# 1 0.017294 -0.012072 -0.004643 0.000000 0.001636 0.000000
# 2 -0.012072 0.040989 -0.006431 0.000000 0.002902 0.000000
# 3 -0.004643 -0.006431 0.011531 0.000000 0.003897 0.000000
# 4 0.000000 0.000000 0.000000 0.048095 0.000000 0.009078
# 5 0.001636 0.002902 0.003897 0.000000 0.041959 0.000000
# 6 0.000000 0.000000 0.000000 0.009078 0.000000 0.041751
#
#
# Mechanical properties :
#
#
# Convention : Reuss Voigt Hill
#
# Bulk Modulus (GPa) = 42.51446 71.32838 56.92142
# Shear Modulus (GPa) = 19.55012 24.00238 21.77625
#
# Velocity S-wave (km/s) = 3.49297 3.87033 3.68648
# Velocity P-wave (km/s) = 6.54219 8.03040 7.32419
#
# Compressibility (1/GPa) = 0.02352141
#
# Stress axis : x y z
#
# Youngs Moduli (GPa) = 57.82499 24.39654 86.72139
#
# Poissons Ratio (x) = 0.29453 0.40263
# Poissons Ratio (y) = 0.69809 0.55771
# Poissons Ratio (z) = 0.26847 0.15690
#
# Static dielectric constant tensor:
#      x y z
#    x 5.150970 0.000000 -0.266680 
#    y 0.000000 3.059380 0.000000 
#    z -0.266680 0.000000 3.698830 
# 
# 
# High freq. dielectric constant tensor:
#      x y z
#    x 1.579130 0.000000 -0.012060 
#    y 0.000000 1.620150 0.000000 
#    z -0.012060 0.000000 1.633390 
# 
# From -- ./inp_files/21007.got.cif
#   From: 2010.06.25/outbox.cif.g09.slc.cpg/sg11_11_cif.got.tgz:21007.got - 2010.06.27 23:14:04.
