data_PCOD8072561
_publ_section_title
;
Structure prediction by ZEFSAII (Michael W. Deem and Ramdas Pophale) SiO2 
 PCOD8072561
Probable space group: P 21/M
;
_chemical_formula_sum "Si O2"
_cell_formula_units_Z 32
_cell_length_a 9.028639
_cell_length_b 14.173160
_cell_length_c 24.132521
_cell_angle_alpha 90.000000
_cell_angle_beta 147.270607
_cell_angle_gamma 90.000000
_cell_volume 1669.650258
_symmetry_space_group_name_H-M "P 21/M"
_symmetry_group_IT_number 11
_symmetry_cell_setting 'monoclinic'
loop_
_space_group_symop_operation_xyz
x,y,z
-x,1/2+y,-z
-x,-y,-z
x,1/2-y,z
loop_
_atom_site_type_symbol
_atom_site_label
_atom_site_fract_x
_atom_site_fract_y
_atom_site_fract_z
Si Si1 0.855152 0.139467 0.933912
Si Si2 0.597060 0.858019 0.299157
Si Si3 0.891692 0.028494 0.524324
Si Si4 0.869108 0.021642 0.161265
Si Si5 0.736519 0.000079 0.993561
Si Si6 0.652396 0.641723 0.638786
Si Si7 0.747647 0.356685 0.705610
Si Si8 0.305568 0.145935 0.478014
O O1 0.921605 0.250000 0.963957
O O2 0.591957 0.124455 0.812931
O O3 0.787054 0.091004 0.970931
O O4 0.112015 0.090990 0.984231
O O5 0.660149 0.750000 0.329989
O O6 0.455326 0.897905 0.310705
O O7 0.888282 0.904184 0.377262
O O8 0.602592 0.078822 0.422799
O O9 0.890250 0.935164 0.561405
O O10 0.000000 0.000000 0.500000
O O11 0.579267 0.031040 0.100876
O O12 0.069990 0.103055 0.246508
O O13 0.979472 0.917997 0.211186
O O14 0.848352 0.030718 0.088597
O O15 0.613949 0.750000 0.645399
O O16 0.660560 0.631986 0.575835
O O17 0.836411 0.250000 0.748282
O O18 0.601941 0.363573 0.600256
O O19 0.181965 0.250000 0.452628
#
# Coordination Sequence:
#
# PCOD8072561 Si02
#       8
#     4   4   4   4   4   4   4   4
#     4  10  22  43  65  89 120 154 197 257 307 352
#     4  10  20  35  60  90 120 154 199 245 299 357
#     4  12  22  36  62  90 122 160 197 244 294 353
#     4  11  22  41  62  90 118 162 201 249 302 354
#     4  10  24  40  65  91 119 151 208 254 302 360
#     4  11  25  41  58  87 128 165 199 239 297 364
#     4  10  19  36  61  89 121 156 199 248 300 352
#     4  10  22  39  59  88 123 160 199 242 292 355
#
# _framework density 19.165692
#
# number of rings (size 3 to 8) (size 9 to 14) (size 15 to 20)
#    0.000    1.500    3.750    0.750    1.750    2.000 
#    0.000    5.000    0.000    0.000    0.000    0.000 
#    0.000    0.000    0.000    0.000    0.000    0.000 
#
# Total GULP energy -396837.271292 kJ/mol
# GULP energy per Si atom -12401.164728 kJ/mol
# Density = 1.912207 g / cm^3
# Si number density = 19.165692 Si / 1000 Ang^3
#
#
#
# Elastic Constant Matrix: (Units=GPa)
#
#
# Indices 1 2 3 4 5 6 
#
# 1 110.3583 65.6373 60.7127 0.0000 1.4495 0.0000
# 2 65.6373 131.5406 61.9803 0.0000 8.6652 0.0000
# 3 60.7127 61.9803 115.3129 0.0000 4.9787 0.0000
# 4 0.0000 0.0000 0.0000 33.6070 0.0000 0.7346
# 5 1.4495 8.6652 4.9787 0.0000 31.4969 0.0000
# 6 0.0000 0.0000 0.0000 0.7346 0.0000 30.4213
#
#
#
# Elastic Compliance Matrix: (Units=1/GPa)
#
#
# Indices 1 2 3 4 5 6 
#
# 1 0.014931 -0.005111 -0.005181 0.000000 0.001538 0.000000
# 2 -0.005111 0.012050 -0.003678 0.000000 -0.002499 0.000000
# 3 -0.005181 -0.003678 0.013414 0.000000 -0.000870 0.000000
# 4 0.000000 0.000000 0.000000 0.029771 0.000000 -0.000719
# 5 0.001538 -0.002499 -0.000870 0.000000 0.032503 0.000000
# 6 0.000000 0.000000 0.000000 -0.000719 0.000000 0.032889
#
#
# Mechanical properties :
#
#
# Convention : Reuss Voigt Hill
#
# Bulk Modulus (GPa) = 80.28073 81.54139 80.91106
# Shear Modulus (GPa) = 29.82402 30.36381 30.09391
#
# Velocity S-wave (km/s) = 3.94904 3.98462 3.96687
# Velocity P-wave (km/s) = 7.92287 7.98796 7.95548
#
# Compressibility (1/GPa) = 0.01245629
#
# Stress axis : x y z
#
# Youngs Moduli (GPa) = 66.97524 82.98702 74.54732
#
# Poissons Ratio (x) = 0.42411 0.38620
# Poissons Ratio (y) = 0.34228 0.27420
# Poissons Ratio (z) = 0.34697 0.30525
#
# Static dielectric constant tensor:
#      x y z
#    x 3.502220 0.000000 -0.060370 
#    y 0.000000 3.660000 0.000000 
#    z -0.060370 0.000000 3.527600 
# 
# 
# High freq. dielectric constant tensor:
#      x y z
#    x 1.746020 0.000000 -0.008270 
#    y 0.000000 1.756060 0.000000 
#    z -0.008270 0.000000 1.746330 
# 
# From -- ./inp_files/27775.got.cif
#   From: 2010.06.25/outbox.cif.g09.slc.cpg/sg11_14_cif.got.tgz:27775.got - 2010.06.27 23:14:04.
