data_PCOD8072265
_publ_section_title
;
Structure prediction by ZEFSAII (Michael W. Deem and Ramdas Pophale) SiO2 
 PCOD8072265
Probable space group: P 21/M
;
_chemical_formula_sum "Si O2"
_cell_formula_units_Z 32
_cell_length_a 12.040678
_cell_length_b 17.458324
_cell_length_c 10.000948
_cell_angle_alpha 90.000000
_cell_angle_beta 53.972534
_cell_angle_gamma 90.000000
_cell_volume 1700.203755
_symmetry_space_group_name_H-M "P 21/M"
_symmetry_group_IT_number 11
_symmetry_cell_setting 'monoclinic'
loop_
_space_group_symop_operation_xyz
x,y,z
-x,1/2+y,-z
-x,-y,-z
x,1/2-y,z
loop_
_atom_site_type_symbol
_atom_site_label
_atom_site_fract_x
_atom_site_fract_y
_atom_site_fract_z
Si Si1 0.380931 0.161388 0.391502
Si Si2 0.589489 0.578106 0.076906
Si Si3 0.903360 0.099584 0.828260
Si Si4 0.902597 0.578628 0.793032
Si Si5 0.643598 0.661866 0.297305
Si Si6 0.038854 0.161356 0.987587
Si Si7 0.586763 0.401225 0.044525
Si Si8 0.901068 0.838914 0.527693
O O1 0.348279 0.250000 0.435365
O O2 0.401351 0.127801 0.526631
O O3 0.517183 0.149798 0.208406
O O4 0.246404 0.126407 0.414113
O O5 0.563856 0.613965 0.240749
O O6 0.563371 0.488173 0.106319
O O7 0.741642 0.597079 0.918645
O O8 0.483478 0.615940 0.048240
O O9 0.990977 0.152931 0.668556
O O10 0.939350 0.118296 0.955375
O O11 0.934288 0.011136 0.775692
O O12 0.744865 0.120540 0.918699
O O13 0.954802 0.612414 0.615679
O O14 0.984247 0.621220 0.853202
O O15 0.601200 0.750000 0.308049
O O16 0.806314 0.650987 0.171362
O O17 0.997327 0.250000 0.028309
O O18 0.889547 0.750000 0.576935
#
# Coordination Sequence:
#
# PCOD8072265 Si02
#       8
#     4   4   4   4   4   4   4   4
#     4  10  20  35  57  82 108 145 191 229 267 328
#     4   9  19  36  57  81 113 145 184 229 274 329
#     4  11  22  36  57  85 118 149 181 230 291 341
#     4  10  20  36  59  85 111 147 194 236 273 330
#     4   9  18  34  57  83 107 141 190 236 269 317
#     4  10  19  35  57  83 113 146 187 236 283 329
#     4  10  21  37  55  82 115 147 180 225 281 334
#     4  11  21  37  58  84 113 146 191 235 275 329
#
# _framework density 18.821273999999999
#
# number of rings (size 3 to 8) (size 9 to 14) (size 15 to 20)
#    0.000    2.000    2.500    1.500    0.000    2.500 
#    0.000    1.250    0.000    1.500    0.000    0.000 
#    0.000    0.000    0.000    0.000    0.000    0.000 
#
# Total GULP energy -396915.037941 kJ/mol
# GULP energy per Si atom -12403.594936 kJ/mol
# Density = 1.877844 g / cm^3
# Si number density = 18.821274 Si / 1000 Ang^3
#
#
#
# Elastic Constant Matrix: (Units=GPa)
#
#
# Indices 1 2 3 4 5 6 
#
# 1 103.6426 34.4450 38.8872 0.0000 25.3385 0.0000
# 2 34.4450 58.3399 18.7475 0.0000 10.6806 0.0000
# 3 38.8872 18.7475 85.2843 0.0000 19.9933 0.0000
# 4 0.0000 0.0000 0.0000 30.2163 0.0000 7.4093
# 5 25.3385 10.6806 19.9933 0.0000 36.7913 0.0000
# 6 0.0000 0.0000 0.0000 7.4093 0.0000 27.9390
#
#
#
# Elastic Compliance Matrix: (Units=1/GPa)
#
#
# Indices 1 2 3 4 5 6 
#
# 1 0.014712 -0.006308 -0.003868 0.000000 -0.006199 0.000000
# 2 -0.006308 0.021577 -0.001624 0.000000 -0.001037 0.000000
# 3 -0.003868 -0.001624 0.015025 0.000000 -0.005030 0.000000
# 4 0.000000 0.000000 0.000000 0.035397 0.000000 -0.009387
# 5 -0.006199 -0.001037 -0.005030 0.000000 0.034484 0.000000
# 6 0.000000 0.000000 0.000000 -0.009387 0.000000 0.038282
#
#
# Mechanical properties :
#
#
# Convention : Reuss Voigt Hill
#
# Bulk Modulus (GPa) = 36.08306 47.93624 42.00965
# Shear Modulus (GPa) = 25.99905 29.33512 27.66708
#
# Velocity S-wave (km/s) = 3.72070 3.95221 3.83820
# Velocity P-wave (km/s) = 6.13769 6.80817 6.48160
#
# Compressibility (1/GPa) = 0.02771384
#
# Stress axis : x y z
#
# Youngs Moduli (GPa) = 67.97194 46.34553 66.55415
#
# Poissons Ratio (x) = 0.29236 0.25745
# Poissons Ratio (y) = 0.42879 0.10806
# Poissons Ratio (z) = 0.26294 0.07525
#
# Static dielectric constant tensor:
#      x y z
#    x 3.491370 0.000000 0.251190 
#    y 0.000000 3.326010 0.000000 
#    z 0.251190 0.000000 3.337190 
# 
# 
# High freq. dielectric constant tensor:
#      x y z
#    x 1.727080 0.000000 0.021930 
#    y 0.000000 1.724780 0.000000 
#    z 0.021930 0.000000 1.726850 
# 
# From -- ./inp_files/18815.got.cif
#   From: 2010.06.25/outbox.cif.g09.slc.cpg/sg11_10_cif.got.tgz:18815.got - 2010.06.27 23:14:04.
