data_PCOD8072604
_publ_section_title
;
Structure prediction by ZEFSAII (Michael W. Deem and Ramdas Pophale) SiO2 
 PCOD8072604
Probable space group: P 21/M
;
_chemical_formula_sum "Si O2"
_cell_formula_units_Z 32
_cell_length_a 8.864717
_cell_length_b 11.815902
_cell_length_c 28.554815
_cell_angle_alpha 90.000000
_cell_angle_beta 148.055429
_cell_angle_gamma 90.000000
_cell_volume 1582.514574
_symmetry_space_group_name_H-M "P 21/M"
_symmetry_group_IT_number 11
_symmetry_cell_setting 'monoclinic'
loop_
_space_group_symop_operation_xyz
x,y,z
-x,1/2+y,-z
-x,-y,-z
x,1/2-y,z
loop_
_atom_site_type_symbol
_atom_site_label
_atom_site_fract_x
_atom_site_fract_y
_atom_site_fract_z
Si Si1 0.871328 0.616172 0.990615
Si Si2 0.786234 0.023986 0.293994
Si Si3 0.266815 0.876055 0.177703
Si Si4 0.418820 0.071323 0.553625
Si Si5 0.207246 0.879718 0.804846
Si Si6 0.702485 0.127372 0.537815
Si Si7 0.733803 0.026186 0.721943
Si Si8 0.213197 0.874049 0.610005
O O1 0.936744 0.750000 0.988349
O O2 0.974674 0.613474 0.071564
O O3 0.535208 0.597382 0.902751
O O4 0.000000 0.500000 0.000000
O O5 0.866502 0.082941 0.266988
O O6 0.770239 0.119577 0.329351
O O7 0.483178 0.962174 0.210323
O O8 0.017057 0.931892 0.368975
O O9 0.393151 0.750000 0.207283
O O10 0.209322 0.900113 0.217199
O O11 0.477063 0.140195 0.521045
O O12 0.665776 0.099718 0.657122
O O13 0.108033 0.101424 0.492147
O O14 0.431822 0.938974 0.541597
O O15 0.125238 0.750000 0.789794
O O16 0.012725 0.949537 0.789623
O O17 0.785240 0.250000 0.540335
O O18 0.436710 0.958911 0.646306
O O19 0.303963 0.750000 0.617863
#
# Coordination Sequence:
#
# PCOD8072604 Si02
#       8
#     4   4   4   4   4   4   4   4
#     4  10  21  41  68  98 128 164 208 261 320 380
#     4  10  19  37  59  87 118 151 205 251 304 366
#     4  10  22  40  63  89 125 163 201 254 315 379
#     4  10  21  37  53  82 115 154 204 254 297 364
#     4  11  22  38  63  91 124 162 203 259 313 372
#     4  10  20  34  55  83 116 151 197 256 309 355
#     4  11  23  40  56  87 125 159 206 248 305 377
#     4  10  21  36  56  80 114 159 200 249 302 358
#
# _framework density 20.220984000000001
#
# number of rings (size 3 to 8) (size 9 to 14) (size 15 to 20)
#    0.000    1.750    2.500    1.875    0.000    2.500 
#    0.000    1.250    0.000    0.000    0.000    0.000 
#    0.000    0.000    0.000    0.000    0.000    0.000 
#
# Total GULP energy -396485.440647 kJ/mol
# GULP energy per Si atom -12390.170020 kJ/mol
# Density = 2.017496 g / cm^3
# Si number density = 20.220984 Si / 1000 Ang^3
#
#
#
# Elastic Constant Matrix: (Units=GPa)
#
#
# Indices 1 2 3 4 5 6 
#
# 1 51.3692 3.8199 22.5374 0.0000 0.3647 0.0000
# 2 3.8199 94.8670 28.0661 0.0000 0.3001 0.0000
# 3 22.5374 28.0661 92.7672 0.0000 -10.0877 0.0000
# 4 0.0000 0.0000 0.0000 20.4082 0.0000 -3.5224
# 5 0.3647 0.3001 -10.0877 0.0000 34.8437 0.0000
# 6 0.0000 0.0000 0.0000 -3.5224 0.0000 -1.1430
#
#
#
# Elastic Compliance Matrix: (Units=1/GPa)
#
#
# Indices 1 2 3 4 5 6 
#
# 1 0.021962 0.000837 -0.005797 0.000000 -0.001915 0.000000
# 2 0.000837 0.011654 -0.003863 0.000000 -0.001227 0.000000
# 3 -0.005797 -0.003863 0.013801 0.000000 0.004090 0.000000
# 4 0.000000 0.000000 0.000000 0.031986 0.000000 -0.098574
# 5 -0.001915 -0.001227 0.004090 0.000000 0.029914 0.000000
# 6 0.000000 0.000000 0.000000 -0.098574 0.000000 -0.571129
#
#
# Mechanical properties :
#
#
# Convention : Reuss Voigt Hill
#
# Bulk Modulus (GPa) = 33.58927 38.65003 36.11965
# Shear Modulus (GPa) = -11.51432 23.12710 5.80639
#
# Velocity S-wave (km/s) = -2.38885 3.38556 1.69638
# Velocity P-wave (km/s) = 3.00639 5.86839 4.66242
#
# Compressibility (1/GPa) = 0.02977141
#
# Stress axis : x y z
#
# Youngs Moduli (GPa) = 45.53400 85.80745 72.45679
#
# Poissons Ratio (x) = -0.07180 0.42003
# Poissons Ratio (y) = -0.03810 0.27987
# Poissons Ratio (z) = 0.26396 0.33144
#
# Static dielectric constant tensor:
#      x y z
#    x 3.714890 0.000000 -0.025930 
#    y 0.000000 3.949710 0.000000 
#    z -0.025930 0.000000 3.691610 
# 
# 
# High freq. dielectric constant tensor:
#      x y z
#    x 1.778560 0.000000 -0.001830 
#    y 0.000000 1.792320 0.000000 
#    z -0.001830 0.000000 1.794610 
# 
# From -- ./inp_files/26617.got.cif
#   From: 2010.06.25/outbox.cif.g09.slc.cpg/sg11_14_cif.got.tgz:26617.got - 2010.06.27 23:14:04.
