data_PCOD8072620
_publ_section_title
;
Structure prediction by ZEFSAII (Michael W. Deem and Ramdas Pophale) SiO2 
 PCOD8072620
Probable space group: P 21/M
;
_chemical_formula_sum "Si O2"
_cell_formula_units_Z 32
_cell_length_a 18.674018
_cell_length_b 9.075412
_cell_length_c 14.158543
_cell_angle_alpha 90.000000
_cell_angle_beta 135.980009
_cell_angle_gamma 90.000000
_cell_volume 1667.442316
_symmetry_space_group_name_H-M "P 21/M"
_symmetry_group_IT_number 11
_symmetry_cell_setting 'monoclinic'
loop_
_space_group_symop_operation_xyz
x,y,z
-x,1/2+y,-z
-x,-y,-z
x,1/2-y,z
loop_
_atom_site_type_symbol
_atom_site_label
_atom_site_fract_x
_atom_site_fract_y
_atom_site_fract_z
Si Si1 0.042682 0.081014 0.950498
Si Si2 0.800086 0.075191 0.193493
Si Si3 0.796093 0.424882 0.405064
Si Si4 0.602266 0.075702 0.335623
Si Si5 0.403139 0.924579 0.456161
Si Si6 0.374422 0.420396 0.086615
Si Si7 0.723659 0.918056 0.808706
Si Si8 0.999353 0.924288 0.296289
O O1 0.023796 0.250000 0.954273
O O2 0.985079 0.034868 0.799297
O O3 0.162291 0.044926 0.047796
O O4 0.000000 0.000000 0.000000
O O5 0.807715 0.250000 0.192954
O O6 0.795341 0.020626 0.296927
O O7 0.899784 0.005468 0.241018
O O8 0.695848 0.022899 0.044569
O O9 0.793155 0.250000 0.408060
O O10 0.695949 0.491854 0.363078
O O11 0.900079 0.482519 0.553670
O O12 0.612178 0.250000 0.348760
O O13 0.609442 0.015803 0.449263
O O14 0.493470 0.032910 0.183798
O O15 0.417359 0.750000 0.466684
O O16 0.500000 0.000000 0.500000
O O17 0.302424 0.973047 0.302151
O O18 0.353922 0.250000 0.040522
O O19 0.352569 0.446279 0.176390
O O20 0.713938 0.750000 0.763915
O O21 0.981631 0.750000 0.291821
#
# Coordination Sequence:
#
# PCOD8072620 Si02
#       8
#     4   4   4   4   4   4   4   4
#     4  10  22  37  56  83 116 149 186 230 278 334
#     4  11  22  36  58  88 114 139 185 246 289 323
#     4   9  20  37  58  84 113 144 186 239 284 329
#     4   9  19  36  57  82 112 150 190 226 274 340
#     4  11  21  34  57  84 111 148 189 228 271 331
#     4  10  19  37  61  81 111 153 191 225 276 347
#     4  10  20  37  55  80 114 149 189 232 276 328
#     4  10  20  39  63  82 110 154 192 224 275 346
#
# _framework density 19.191067
#
# number of rings (size 3 to 8) (size 9 to 14) (size 15 to 20)
#    0.000    2.000    2.500    1.125    1.750    2.000 
#    0.000    0.625    0.000    4.500    0.000    0.000 
#    0.000    0.000    0.000    0.000    0.000    0.000 
#
# Total GULP energy -396825.428232 kJ/mol
# GULP energy per Si atom -12400.794632 kJ/mol
# Density = 1.914739 g / cm^3
# Si number density = 19.191067 Si / 1000 Ang^3
#
#
#
# Elastic Constant Matrix: (Units=GPa)
#
#
# Indices 1 2 3 4 5 6 
#
# 1 121.9474 41.7971 72.9423 0.0000 -9.6542 0.0000
# 2 41.7971 49.5632 41.5692 0.0000 -4.6616 0.0000
# 3 72.9423 41.5692 144.1125 0.0000 -3.2320 0.0000
# 4 0.0000 0.0000 0.0000 28.4756 0.0000 -1.8380
# 5 -9.6542 -4.6616 -3.2320 0.0000 27.6753 0.0000
# 6 0.0000 0.0000 0.0000 -1.8380 0.0000 23.3764
#
#
#
# Elastic Compliance Matrix: (Units=1/GPa)
#
#
# Indices 1 2 3 4 5 6 
#
# 1 0.013839 -0.007345 -0.004818 0.000000 0.003028 0.000000
# 2 -0.007345 0.030875 -0.005143 0.000000 0.002038 0.000000
# 3 -0.004818 -0.005143 0.010832 0.000000 -0.001282 0.000000
# 4 0.000000 0.000000 0.000000 0.035297 0.000000 0.002775
# 5 0.003028 0.002038 -0.001282 0.000000 0.037383 0.000000
# 6 0.000000 0.000000 0.000000 0.002775 0.000000 0.042996
#
#
# Mechanical properties :
#
#
# Convention : Reuss Voigt Hill
#
# Bulk Modulus (GPa) = 47.76608 69.80445 58.78527
# Shear Modulus (GPa) = 23.49474 26.52642 25.01058
#
# Velocity S-wave (km/s) = 3.50273 3.72187 3.61396
# Velocity P-wave (km/s) = 6.42671 7.41094 6.93631
#
# Compressibility (1/GPa) = 0.02093536
#
# Stress axis : x y z
#
# Youngs Moduli (GPa) = 72.25709 32.38845 92.31588
#
# Poissons Ratio (x) = 0.23790 0.44480
# Poissons Ratio (y) = 0.53073 0.47474
# Poissons Ratio (z) = 0.34815 0.16656
#
# Static dielectric constant tensor:
#      x y z
#    x 4.319380 0.000000 -0.011520 
#    y 0.000000 3.297290 0.000000 
#    z -0.011520 0.000000 3.829660 
# 
# 
# High freq. dielectric constant tensor:
#      x y z
#    x 1.750340 0.000000 0.002250 
#    y 0.000000 1.715580 0.000000 
#    z 0.002250 0.000000 1.763180 
# 
# From -- ./inp_files/54360.got.cif
#   From: 2010.06.25/outbox.cif.g09.slc.cpg/sg11_28_cif.got.tgz:54360.got - 2010.06.27 23:14:04.
