data_PCOD8072093
_publ_section_title
;
Structure prediction by ZEFSAII (Michael W. Deem and Ramdas Pophale) SiO2 
 PCOD8072093
Probable space group: P 21/M
;
_chemical_formula_sum "Si O2"
_cell_formula_units_Z 32
_cell_length_a 26.209536
_cell_length_b 13.269382
_cell_length_c 9.445253
_cell_angle_alpha 90.000000
_cell_angle_beta 29.919410
_cell_angle_gamma 90.000000
_cell_volume 1638.452534
_symmetry_space_group_name_H-M "P 21/M"
_symmetry_group_IT_number 11
_symmetry_cell_setting 'monoclinic'
loop_
_space_group_symop_operation_xyz
x,y,z
-x,1/2+y,-z
-x,-y,-z
x,1/2-y,z
loop_
_atom_site_type_symbol
_atom_site_label
_atom_site_fract_x
_atom_site_fract_y
_atom_site_fract_z
Si Si1 0.630564 0.976193 0.733865
Si Si2 0.817197 0.633503 0.409042
Si Si3 0.608323 0.483715 0.312500
Si Si4 0.009975 0.865881 0.755843
Si Si5 0.121569 0.137661 0.190526
Si Si6 0.443010 0.629449 0.290117
Si Si7 0.816631 0.982814 0.687262
Si Si8 0.654182 0.858741 0.413356
O O1 0.743320 0.948675 0.513030
O O2 0.596327 0.916189 0.675810
O O3 0.620111 0.091870 0.699978
O O4 0.549610 0.934158 0.043304
O O5 0.781040 0.750000 0.472897
O O6 0.815638 0.609596 0.579456
O O7 0.929063 0.615962 0.076048
O O8 0.500000 0.500000 0.500000
O O9 0.611448 0.398552 0.429016
O O10 0.633708 0.593442 0.311325
O O11 0.703789 0.465523 0.975699
O O12 0.043161 0.750000 0.672011
O O13 0.965458 0.898112 0.709351
O O14 0.110101 0.930359 0.549317
O O15 0.097398 0.250000 0.308745
O O16 0.134844 0.058060 0.283925
O O17 0.224405 0.143691 0.848533
O O18 0.458198 0.750000 0.245110
O O19 0.603931 0.750000 0.528656
#
# Coordination Sequence:
#
# PCOD8072093 Si02
#       8
#     4   4   4   4   4   4   4   4
#     4  10  19  34  58  85 109 146 195 242 289 339
#     4  11  21  36  61  88 114 145 192 248 296 341
#     4  10  22  36  51  78 115 153 195 235 284 346
#     4  10  21  37  58  82 112 152 193 236 294 357
#     4   9  17  33  56  83 111 141 187 239 289 344
#     4  10  21  36  56  82 117 154 196 242 290 348
#     4  11  22  36  56  83 117 153 190 240 296 350
#     4   9  16  30  54  80 104 136 185 243 286 326
#
# _framework density 19.530624
#
# number of rings (size 3 to 8) (size 9 to 14) (size 15 to 20)
#    0.000    2.000    1.250    3.000    0.000    1.500 
#    0.000    0.625    0.000    2.250    0.000    0.000 
#    0.000    0.000    0.000    0.000    0.000    0.000 
#
# Total GULP energy -396509.657404 kJ/mol
# GULP energy per Si atom -12390.926794 kJ/mol
# Density = 1.948617 g / cm^3
# Si number density = 19.530624 Si / 1000 Ang^3
#
#
#
# Elastic Constant Matrix: (Units=GPa)
#
#
# Indices 1 2 3 4 5 6 
#
# 1 58.3484 21.4949 29.3154 0.0000 -2.5451 0.0000
# 2 21.4949 85.0797 31.5175 0.0000 -1.7092 0.0000
# 3 29.3154 31.5175 103.9990 0.0000 -1.6528 0.0000
# 4 0.0000 0.0000 0.0000 24.6936 0.0000 0.2043
# 5 -2.5451 -1.7092 -1.6528 0.0000 30.2001 0.0000
# 6 0.0000 0.0000 0.0000 0.2043 0.0000 26.3634
#
#
#
# Elastic Compliance Matrix: (Units=1/GPa)
#
#
# Indices 1 2 3 4 5 6 
#
# 1 0.020893 -0.003468 -0.004818 0.000000 0.001301 0.000000
# 2 -0.003468 0.013824 -0.003207 0.000000 0.000315 0.000000
# 3 -0.004818 -0.003207 0.011946 0.000000 0.000066 0.000000
# 4 0.000000 0.000000 0.000000 0.040499 0.000000 -0.000314
# 5 0.001301 0.000315 0.000066 0.000000 0.033244 0.000000
# 6 0.000000 0.000000 0.000000 -0.000314 0.000000 0.037934
#
#
# Mechanical properties :
#
#
# Convention : Reuss Voigt Hill
#
# Bulk Modulus (GPa) = 42.23187 45.78695 44.00941
# Shear Modulus (GPa) = 26.42456 27.25805 26.84130
#
# Velocity S-wave (km/s) = 3.68228 3.73990 3.71120
# Velocity P-wave (km/s) = 6.30470 6.49182 6.39894
#
# Compressibility (1/GPa) = 0.02367880
#
# Stress axis : x y z
#
# Youngs Moduli (GPa) = 47.86251 72.33740 83.70658
#
# Poissons Ratio (x) = 0.25084 0.40328
# Poissons Ratio (y) = 0.16597 0.26845
# Poissons Ratio (z) = 0.23059 0.23199
#
# Static dielectric constant tensor:
#      x y z
#    x 3.399300 0.000000 0.058890 
#    y 0.000000 3.504300 0.000000 
#    z 0.058890 0.000000 3.699650 
# 
# 
# High freq. dielectric constant tensor:
#      x y z
#    x 1.749220 0.000000 0.009920 
#    y 0.000000 1.749440 0.000000 
#    z 0.009920 0.000000 1.762450 
# 
# From -- ./inp_files/27791.got.cif
#   From: 2010.06.25/outbox.cif.g09.slc.cpg/sg11_14_cif.got.tgz:27791.got - 2010.06.27 23:14:04.
