data_PCOD8072211
_publ_section_title
;
Structure prediction by ZEFSAII (Michael W. Deem and Ramdas Pophale) SiO2 
 PCOD8072211
Probable space group: P 21/M
;
_chemical_formula_sum "Si O2"
_cell_formula_units_Z 28
_cell_length_a 14.628947
_cell_length_b 9.383605
_cell_length_c 20.846138
_cell_angle_alpha 90.000000
_cell_angle_beta 29.370159
_cell_angle_gamma 90.000000
_cell_volume 1403.469817
_symmetry_space_group_name_H-M "P 21/M"
_symmetry_group_IT_number 11
_symmetry_cell_setting 'monoclinic'
loop_
_space_group_symop_operation_xyz
x,y,z
-x,1/2+y,-z
-x,-y,-z
x,1/2-y,z
loop_
_atom_site_type_symbol
_atom_site_label
_atom_site_fract_x
_atom_site_fract_y
_atom_site_fract_z
Si Si1 0.179379 0.090285 0.907103
Si Si2 0.424349 0.090730 0.632594
Si Si3 0.946941 0.917468 0.597253
Si Si4 0.824452 0.417943 0.420690
Si Si5 0.730182 0.089404 0.034121
Si Si6 0.445145 0.417444 0.098189
Si Si7 0.888227 0.587138 0.266971
O O1 0.120155 0.250000 0.964245
O O2 0.307567 0.096007 0.767837
O O3 0.303352 0.018007 0.886964
O O4 0.000000 0.000000 0.000000
O O5 0.470997 0.250000 0.581419
O O6 0.619643 0.015258 0.530845
O O7 0.299711 0.020576 0.651798
O O8 0.940900 0.750000 0.584891
O O9 0.751691 0.965413 0.749505
O O10 0.109603 0.956708 0.548307
O O11 0.000000 0.000000 0.500000
O O12 0.838621 0.250000 0.402228
O O13 0.952060 0.494631 0.289285
O O14 0.677816 0.250000 0.087477
O O15 0.947723 0.079609 0.884688
O O16 0.604504 0.042957 0.051367
O O17 0.439847 0.250000 0.085088
O O18 0.500000 0.500000 0.000000
O O19 0.855682 0.750000 0.308088
#
# Coordination Sequence:
#
# PCOD8072211 Si02
#       7
#     4   4   4   4   4   4   4
#     4  11  21  36  57  82 114 151 189 232 282 340
#     4   9  19  35  54  78 112 147 181 224 275 331
#     4  10  23  41  60  85 119 154 197 249 297 350
#     4  10  21  37  57  80 110 146 186 232 277 330
#     4  10  21  37  57  82 116 151 186 236 290 338
#     4  10  22  40  62  89 120 155 199 253 303 355
#     4  10  19  35  56  80 112 146 180 226 281 337
#
# _framework density 19.950552999999999
#
# number of rings (size 3 to 8) (size 9 to 14) (size 15 to 20)
#    0.000    2.000    1.429    1.714    2.000    2.286 
#    0.000    1.429    0.000    0.000    0.000    0.000 
#    0.000    0.000    0.000    0.000    0.000    0.000 
#
# Total GULP energy -347049.809973 kJ/mol
# GULP energy per Si atom -12394.636070 kJ/mol
# Density = 1.990514 g / cm^3
# Si number density = 19.950553 Si / 1000 Ang^3
#
#
#
# Elastic Constant Matrix: (Units=GPa)
#
#
# Indices 1 2 3 4 5 6 
#
# 1 154.1821 62.1116 42.8224 0.0000 5.4220 0.0000
# 2 62.1116 71.2166 28.4443 0.0000 9.1339 0.0000
# 3 42.8224 28.4443 75.8331 0.0000 -0.1249 0.0000
# 4 0.0000 0.0000 0.0000 23.0024 0.0000 10.6363
# 5 5.4220 9.1339 -0.1249 0.0000 33.2266 0.0000
# 6 0.0000 0.0000 0.0000 10.6363 0.0000 35.6539
#
#
#
# Elastic Compliance Matrix: (Units=1/GPa)
#
#
# Indices 1 2 3 4 5 6 
#
# 1 0.010537 -0.008088 -0.002915 0.000000 0.000493 0.000000
# 2 -0.008088 0.023447 -0.004236 0.000000 -0.005142 0.000000
# 3 -0.002915 -0.004236 0.016425 0.000000 0.001702 0.000000
# 4 0.000000 0.000000 0.000000 0.050430 0.000000 -0.015044
# 5 0.000493 -0.005142 0.001702 0.000000 0.031436 0.000000
# 6 0.000000 0.000000 0.000000 -0.015044 0.000000 0.032536
#
#
# Mechanical properties :
#
#
# Convention : Reuss Voigt Hill
#
# Bulk Modulus (GPa) = 50.17670 63.10982 56.64326
# Shear Modulus (GPa) = 24.76081 29.56680 27.16380
#
# Velocity S-wave (km/s) = 3.52676 3.85386 3.69393
# Velocity P-wave (km/s) = 6.46445 7.17668 6.82986
#
# Compressibility (1/GPa) = 0.01992957
#
# Stress axis : x y z
#
# Youngs Moduli (GPa) = 94.90800 42.64903 60.88387
#
# Poissons Ratio (x) = 0.34496 0.17749
# Poissons Ratio (y) = 0.76765 0.25790
# Poissons Ratio (z) = 0.27668 0.18066
#
# Static dielectric constant tensor:
#      x y z
#    x 3.868470 0.000000 -0.221460 
#    y 0.000000 3.745130 0.000000 
#    z -0.221460 0.000000 4.026200 
# 
# 
# High freq. dielectric constant tensor:
#      x y z
#    x 1.796260 0.000000 -0.003980 
#    y 0.000000 1.759010 0.000000 
#    z -0.003980 0.000000 1.776830 
# 
# From -- ./inp_files/37905.got.cif
#   From: 2010.06.25/outbox.cif.g09.slc.cpg/sg11_19_cif.got.tgz:37905.got - 2010.06.27 23:14:04.
