data_PCOD8072872
_publ_section_title
;
Structure prediction by ZEFSAII (Michael W. Deem and Ramdas Pophale) SiO2 
 PCOD8072872
Probable space group: P 21/M
;
_chemical_formula_sum "Si O2"
_cell_formula_units_Z 32
_cell_length_a 8.058624
_cell_length_b 14.004454
_cell_length_c 25.562888
_cell_angle_alpha 90.000000
_cell_angle_beta 145.234015
_cell_angle_gamma 90.000000
_cell_volume 1645.068498
_symmetry_space_group_name_H-M "P 21/M"
_symmetry_group_IT_number 11
_symmetry_cell_setting 'monoclinic'
loop_
_space_group_symop_operation_xyz
x,y,z
-x,1/2+y,-z
-x,-y,-z
x,1/2-y,z
loop_
_atom_site_type_symbol
_atom_site_label
_atom_site_fract_x
_atom_site_fract_y
_atom_site_fract_z
Si Si1 0.241095 0.479197 0.839156
Si Si2 0.584897 0.645819 0.963786
Si Si3 0.244719 0.041508 0.491718
Si Si4 0.031586 0.641249 0.487349
Si Si5 0.373813 0.144857 0.709987
Si Si6 0.269024 0.643591 0.992381
Si Si7 0.104329 0.553194 0.353808
Si Si8 0.072902 0.972716 0.132131
O O1 0.391931 0.582185 0.875582
O O2 0.037128 0.478011 0.736673
O O3 0.041553 0.468191 0.838454
O O4 0.501092 0.400155 0.906197
O O5 0.607674 0.750000 0.944419
O O6 0.438818 0.647537 0.982356
O O7 0.906680 0.603488 0.053011
O O8 0.038877 0.112236 0.471217
O O9 0.566428 0.086648 0.572076
O O10 0.111515 0.032423 0.398741
O O11 0.260292 0.935030 0.522357
O O12 0.156680 0.750000 0.518064
O O13 0.729255 0.633734 0.376728
O O14 0.516859 0.250000 0.754646
O O15 0.590408 0.058380 0.780964
O O16 0.087366 0.139464 0.672379
O O17 0.172064 0.750000 0.985203
O O18 0.983375 0.576716 0.909204
#
# Coordination Sequence:
#
# PCOD8072872 Si02
#       8
#     4   4   4   4   4   4   4   4
#     4   9  17  29  49  74  97 130 174 217 257 305
#     4   8  14  27  46  69  97 130 171 214 255 296
#     4   9  19  36  56  76 104 136 164 210 263 308
#     4   9  18  35  59  81  99 129 176 218 253 300
#     4  10  20  32  50  78 107 135 171 214 257 303
#     4   8  15  28  48  74 102 134 174 218 255 293
#     4  10  20  34  50  73 108 139 163 201 263 319
#     4   9  16  29  51  74 101 136 175 216 254 295
#
# _framework density 19.452078
#
# number of rings (size 3 to 8) (size 9 to 14) (size 15 to 20)
#    0.000    3.000    0.000    2.625    0.000    1.500 
#    0.000    5.625    0.000   17.250    0.000    0.000 
#    0.000    0.000    0.000    0.000    0.000    0.000 
#
# Total GULP energy -396512.162805 kJ/mol
# GULP energy per Si atom -12391.005088 kJ/mol
# Density = 1.940780 g / cm^3
# Si number density = 19.452078 Si / 1000 Ang^3
#
#
#
# Elastic Constant Matrix: (Units=GPa)
#
#
# Indices 1 2 3 4 5 6 
#
# 1 53.0777 17.6447 25.7481 0.0000 4.0324 0.0000
# 2 17.6447 131.9347 35.5312 0.0000 7.4855 0.0000
# 3 25.7481 35.5312 98.9480 0.0000 -9.0268 0.0000
# 4 0.0000 0.0000 0.0000 19.0678 0.0000 5.3545
# 5 4.0324 7.4855 -9.0268 0.0000 29.5324 0.0000
# 6 0.0000 0.0000 0.0000 5.3545 0.0000 15.6905
#
#
#
# Elastic Compliance Matrix: (Units=1/GPa)
#
#
# Indices 1 2 3 4 5 6 
#
# 1 0.022399 -0.001170 -0.005823 0.000000 -0.004542 0.000000
# 2 -0.001170 0.008744 -0.003110 0.000000 -0.003007 0.000000
# 3 -0.005823 -0.003110 0.013252 0.000000 0.005634 0.000000
# 4 0.000000 0.000000 0.000000 0.058003 0.000000 -0.019794
# 5 -0.004542 -0.003007 0.005634 0.000000 0.036966 0.000000
# 6 0.000000 0.000000 0.000000 -0.019794 0.000000 0.070488
#
#
# Mechanical properties :
#
#
# Convention : Reuss Voigt Hill
#
# Bulk Modulus (GPa) = 41.33903 49.08983 45.21443
# Shear Modulus (GPa) = 20.99780 26.52721 23.76251
#
# Velocity S-wave (km/s) = 3.28908 3.69687 3.49892
# Velocity P-wave (km/s) = 5.97678 6.59648 6.29426
#
# Compressibility (1/GPa) = 0.02419021
#
# Stress axis : x y z
#
# Youngs Moduli (GPa) = 44.64506 114.36316 75.45894
#
# Poissons Ratio (x) = 0.13378 0.43939
# Poissons Ratio (y) = 0.05222 0.23467
# Poissons Ratio (z) = 0.25996 0.35565
#
# Static dielectric constant tensor:
#      x y z
#    x 3.355790 0.000000 -0.062660 
#    y 0.000000 3.841370 0.000000 
#    z -0.062660 0.000000 3.443960 
# 
# 
# High freq. dielectric constant tensor:
#      x y z
#    x 1.741720 0.000000 -0.006950 
#    y 0.000000 1.745750 0.000000 
#    z -0.006950 0.000000 1.744790 
# 
# From -- ./inp_files/71117.got.cif
#   From: 2010.06.25/outbox.cif.g09.slc.cpg/sg11_36_cif.got.tgz:71117.got - 2010.06.27 23:14:04.
