data_PCOD8072044
_publ_section_title
;
Structure prediction by ZEFSAII (Michael W. Deem and Ramdas Pophale) SiO2 
 PCOD8072044
Probable space group: P 21/M
;
_chemical_formula_sum "Si O2"
_cell_formula_units_Z 32
_cell_length_a 25.785807
_cell_length_b 9.206988
_cell_length_c 20.011674
_cell_angle_alpha 90.000000
_cell_angle_beta 21.345753
_cell_angle_gamma 90.000000
_cell_volume 1729.327592
_symmetry_space_group_name_H-M "P 21/M"
_symmetry_group_IT_number 11
_symmetry_cell_setting 'monoclinic'
loop_
_space_group_symop_operation_xyz
x,y,z
-x,1/2+y,-z
-x,-y,-z
x,1/2-y,z
loop_
_atom_site_type_symbol
_atom_site_label
_atom_site_fract_x
_atom_site_fract_y
_atom_site_fract_z
Si Si1 0.726185 0.919403 0.975250
Si Si2 0.646228 0.578694 0.810376
Si Si3 0.770308 0.579877 0.520753
Si Si4 0.701420 0.583460 0.228177
Si Si5 0.601576 0.081672 0.471275
Si Si6 0.852752 0.918860 0.680962
Si Si7 0.435826 0.421519 0.352397
Si Si8 0.063122 0.081712 0.160967
O O1 0.684901 0.750000 0.033426
O O2 0.592638 0.016644 0.154130
O O3 0.770944 0.959189 0.846750
O O4 0.856363 0.960940 0.867486
O O5 0.618540 0.750000 0.843855
O O6 0.708111 0.523908 0.665638
O O7 0.756483 0.530713 0.734872
O O8 0.500000 0.500000 0.000000
O O9 0.797463 0.750000 0.490805
O O10 0.658451 0.536378 0.598175
O O11 0.919982 0.507498 0.325472
O O12 0.704080 0.750000 0.249240
O O13 0.563756 0.556088 0.347412
O O14 0.700757 0.480089 0.293291
O O15 0.838833 0.542978 0.020006
O O16 0.638030 0.250000 0.437842
O O17 0.637672 0.994878 0.495242
O O18 0.887415 0.750000 0.636144
O O19 0.000000 0.000000 0.500000
O O20 0.445109 0.250000 0.352429
O O21 0.023104 0.250000 0.209624
#
# Coordination Sequence:
#
# PCOD8072044 Si02
#       8
#     4   4   4   4   4   4   4   4
#     4  10  20  36  56  82 111 140 182 233 278 328
#     4  10  21  38  57  80 109 145 188 232 277 328
#     4  10  23  39  54  78 115 149 185 231 274 327
#     4   9  18  34  55  83 115 143 177 225 272 325
#     4  10  19  34  57  84 114 144 179 228 274 322
#     4  10  21  35  55  81 111 143 180 228 280 333
#     4  11  22  36  55  81 110 146 186 229 275 322
#     4  10  20  36  57  82 112 146 183 225 275 328
#
# _framework density 18.504303
#
# number of rings (size 3 to 8) (size 9 to 14) (size 15 to 20)
#    0.000    2.000    1.250    2.250    0.000    4.000 
#    0.000    0.625    0.000    0.000    0.000    0.000 
#    0.000    0.000    0.000    0.000    0.000    0.000 
#
# Total GULP energy -396951.161998 kJ/mol
# GULP energy per Si atom -12404.723812 kJ/mol
# Density = 1.846219 g / cm^3
# Si number density = 18.504303 Si / 1000 Ang^3
#
#
#
# Elastic Constant Matrix: (Units=GPa)
#
#
# Indices 1 2 3 4 5 6 
#
# 1 114.9933 51.9576 48.0354 0.0000 17.5959 0.0000
# 2 51.9576 62.4745 43.3954 0.0000 6.0569 0.0000
# 3 48.0354 43.3954 103.4149 0.0000 7.8989 0.0000
# 4 0.0000 0.0000 0.0000 40.2042 0.0000 -0.1153
# 5 17.5959 6.0569 7.8989 0.0000 24.6721 0.0000
# 6 0.0000 0.0000 0.0000 -0.1153 0.0000 25.6622
#
#
#
# Elastic Compliance Matrix: (Units=1/GPa)
#
#
# Indices 1 2 3 4 5 6 
#
# 1 0.015661 -0.010766 -0.002158 0.000000 -0.007835 0.000000
# 2 -0.010766 0.030153 -0.007866 0.000000 0.002794 0.000000
# 3 -0.002158 -0.007866 0.014051 0.000000 -0.001028 0.000000
# 4 0.000000 0.000000 0.000000 0.024873 0.000000 0.000112
# 5 -0.007835 0.002794 -0.001028 0.000000 0.045763 0.000000
# 6 0.000000 0.000000 0.000000 0.000112 0.000000 0.038968
#
#
# Mechanical properties :
#
#
# Convention : Reuss Voigt Hill
#
# Bulk Modulus (GPa) = 54.68759 63.07327 58.88043
# Shear Modulus (GPa) = 23.02615 27.27400 25.15007
#
# Velocity S-wave (km/s) = 3.53139 3.84334 3.69066
# Velocity P-wave (km/s) = 6.80042 7.33858 7.07462
#
# Compressibility (1/GPa) = 0.01828568
#
# Stress axis : x y z
#
# Youngs Moduli (GPa) = 63.85280 33.16460 71.16700
#
# Poissons Ratio (x) = 0.35704 0.15360
# Poissons Ratio (y) = 0.68743 0.55977
# Poissons Ratio (z) = 0.13782 0.26086
#
# Static dielectric constant tensor:
#      x y z
#    x 3.713430 0.000000 0.139950 
#    y 0.000000 3.376220 0.000000 
#    z 0.139950 0.000000 3.306500 
# 
# 
# High freq. dielectric constant tensor:
#      x y z
#    x 1.728100 0.000000 0.013210 
#    y 0.000000 1.716010 0.000000 
#    z 0.013210 0.000000 1.717500 
# 
# From -- ./inp_files/66937.got.cif
#   From: 2010.06.25/outbox.cif.g09.slc.cpg/sg11_34_cif.got.tgz:66937.got - 2010.06.27 23:14:04.
