data_PCOD8072694
_publ_section_title
;
Structure prediction by ZEFSAII (Michael W. Deem and Ramdas Pophale) SiO2 
 PCOD8072694
Probable space group: P 21/M
;
_chemical_formula_sum "Si O2"
_cell_formula_units_Z 24
_cell_length_a 15.411140
_cell_length_b 17.442080
_cell_length_c 10.717243
_cell_angle_alpha 90.000000
_cell_angle_beta 154.751305
_cell_angle_gamma 90.000000
_cell_volume 1228.808395
_symmetry_space_group_name_H-M "P 21/M"
_symmetry_group_IT_number 11
_symmetry_cell_setting 'monoclinic'
loop_
_space_group_symop_operation_xyz
x,y,z
-x,1/2+y,-z
-x,-y,-z
x,1/2-y,z
loop_
_atom_site_type_symbol
_atom_site_label
_atom_site_fract_x
_atom_site_fract_y
_atom_site_fract_z
Si Si1 0.074348 0.750000 0.127131
Si Si2 0.466078 0.750000 0.483743
Si Si3 0.679682 0.910676 0.432140
Si Si4 0.203355 0.750000 0.889377
Si Si5 0.990766 0.012994 0.692348
Si Si6 0.208892 0.373274 0.146392
Si Si7 0.178258 0.250000 0.451843
Si Si8 0.233391 0.587771 0.817183
O O1 0.315115 0.750000 0.407955
O O2 0.000790 0.825117 0.107012
O O3 0.960000 0.750000 0.848783
O O4 0.610067 0.824019 0.679525
O O5 0.347570 0.750000 0.198355
O O6 0.708637 0.906291 0.617328
O O7 0.687464 0.826966 0.376106
O O8 0.460385 0.946892 0.116029
O O9 0.848064 0.968210 0.601474
O O10 0.249361 0.677783 0.862919
O O11 0.965225 0.750000 0.614037
O O12 0.863124 0.072738 0.443403
O O13 0.098525 0.949973 0.748506
O O14 0.161906 0.057670 0.992194
#
# Coordination Sequence:
#
# PCOD8072694 Si02
#       8
#     2   2   4   2   4   4   2   4
#     4   8  19  34  60  85 119 151 192 254 299 333
#     4  10  19  38  62  92 117 148 215 251 282 356
#     4  11  20  39  62  89 116 157 206 242 293 355
#     4  11  18  40  65  83 110 157 207 244 287 349
#     4  11  25  40  55  91 133 155 189 247 308 362
#     4  10  21  37  62  90 120 155 197 252 301 342
#     4   9  18  34  63  88 108 146 206 253 276 338
#     4  11  24  40  63  85 120 166 198 242 296 358
#
# _framework density 19.531116000000001
#
# number of rings (size 3 to 8) (size 9 to 14) (size 15 to 20)
#    0.000    1.667    3.333    2.000    0.000    3.333 
#    0.000    0.000    3.667    0.000    0.000    0.000 
#    0.000    0.000    0.000    0.000    0.000    0.000 
#
# Total GULP energy -297633.515536 kJ/mol
# GULP energy per Si atom -12401.396481 kJ/mol
# Density = 1.948666 g / cm^3
# Si number density = 19.531116 Si / 1000 Ang^3
#
#
#
# Elastic Constant Matrix: (Units=GPa)
#
#
# Indices 1 2 3 4 5 6 
#
# 1 51.6108 5.9597 26.5119 0.0000 14.9320 0.0000
# 2 5.9597 73.6032 28.1567 0.0000 -7.1387 0.0000
# 3 26.5119 28.1567 94.4958 0.0000 15.9998 0.0000
# 4 0.0000 0.0000 0.0000 -46.0860 0.0000 -55.5232
# 5 14.9320 -7.1387 15.9998 0.0000 22.6100 0.0000
# 6 0.0000 0.0000 0.0000 -55.5232 0.0000 -30.2186
#
#
#
# Elastic Compliance Matrix: (Units=1/GPa)
#
#
# Indices 1 2 3 4 5 6 
#
# 1 0.026060 -0.001933 -0.004224 0.000000 -0.014831 0.000000
# 2 -0.001933 0.017358 -0.006560 0.000000 0.011399 0.000000
# 3 -0.004224 -0.006560 0.015452 0.000000 -0.010216 0.000000
# 4 0.000000 0.000000 0.000000 0.017879 0.000000 -0.032851
# 5 -0.014831 0.011399 -0.010216 0.000000 0.064851 0.000000
# 6 0.000000 0.000000 0.000000 -0.032851 0.000000 0.027267
#
#
# Mechanical properties :
#
#
# Convention : Reuss Voigt Hill
#
# Bulk Modulus (GPa) = 29.90772 37.88515 33.89644
# Shear Modulus (GPa) = 24.33730 -0.13346 12.10192
#
# Velocity S-wave (km/s) = 3.53381 -0.26169 2.49192
# Velocity P-wave (km/s) = 5.65655 4.39865 5.06679
#
# Compressibility (1/GPa) = 0.03343618
#
# Stress axis : x y z
#
# Youngs Moduli (GPa) = 38.37309 57.61072 64.71640
#
# Poissons Ratio (x) = 0.11134 0.27339
# Poissons Ratio (y) = 0.07416 0.42453
# Poissons Ratio (z) = 0.16210 0.37792
#
# Static dielectric constant tensor:
#      x y z
#    x 3.647500 0.000000 0.270320 
#    y 0.000000 3.722110 0.000000 
#    z 0.270320 0.000000 3.551260 
# 
# 
# High freq. dielectric constant tensor:
#      x y z
#    x 1.760960 0.000000 0.020180 
#    y 0.000000 1.761320 0.000000 
#    z 0.020180 0.000000 1.752250 
# 
# From -- ./inp_files/19096.got.cif
#   From: 2010.06.25/outbox.cif.g09.slc.cpg/sg11_10_cif.got.tgz:19096.got - 2010.06.27 23:14:04.
