data_PCOD8072962
_publ_section_title
;
Structure prediction by ZEFSAII (Michael W. Deem and Ramdas Pophale) SiO2 
 PCOD8072962
Probable space group: P 21/M
;
_chemical_formula_sum "Si O2"
_cell_formula_units_Z 32
_cell_length_a 33.398203
_cell_length_b 8.859406
_cell_length_c 12.283168
_cell_angle_alpha 90.000000
_cell_angle_beta 151.999677
_cell_angle_gamma 90.000000
_cell_volume 1706.286647
_symmetry_space_group_name_H-M "P 21/M"
_symmetry_group_IT_number 11
_symmetry_cell_setting 'monoclinic'
loop_
_space_group_symop_operation_xyz
x,y,z
-x,1/2+y,-z
-x,-y,-z
x,1/2-y,z
loop_
_atom_site_type_symbol
_atom_site_label
_atom_site_fract_x
_atom_site_fract_y
_atom_site_fract_z
Si Si1 0.274124 0.921850 0.291955
Si Si2 0.225719 0.570771 0.734089
Si Si3 0.747315 0.929997 0.977003
Si Si4 0.279847 0.429593 0.647277
Si Si5 0.145947 0.570066 0.167879
Si Si6 0.931617 0.589891 0.396538
Si Si7 0.589892 0.075338 0.195121
Si Si8 0.045915 0.414758 0.304031
O O1 0.262329 0.750000 0.226262
O O2 0.188101 0.975570 0.151315
O O3 0.354244 0.941966 0.562745
O O4 0.301017 0.017289 0.248289
O O5 0.230774 0.750000 0.745300
O O6 0.273621 0.508778 0.958047
O O7 0.280400 0.499631 0.768761
O O8 0.126159 0.524212 0.476964
O O9 0.741109 0.750000 0.978476
O O10 0.841762 0.993560 0.179190
O O11 0.279779 0.250000 0.653023
O O12 0.196436 0.486712 0.384102
O O13 0.365828 0.487139 0.797190
O O14 0.156249 0.750000 0.206957
O O15 0.047486 0.518174 0.951386
O O16 0.920314 0.750000 0.309488
O O17 0.965265 0.616420 0.596894
O O18 0.000000 0.500000 0.500000
O O19 0.579144 0.250000 0.136923
O O20 0.500000 0.000000 0.000000
O O21 0.062244 0.250000 0.286571
#
# Coordination Sequence:
#
# PCOD8072962 Si02
#       8
#     4   4   4   4   4   4   4   4
#     4   9  18  33  54  81 111 141 174 216 265 315
#     4  11  22  36  53  73 102 143 189 230 270 317
#     4  10  20  33  49  72 103 139 180 222 264 315
#     4  11  22  37  57  80 108 141 178 220 268 322
#     4   9  18  33  52  75 106 142 182 230 278 321
#     4   9  17  27  40  61  91 129 173 221 267 308
#     4  10  21  39  63  91 118 141 170 209 258 316
#     4   9  18  32  47  67  99 138 182 230 274 316
#
# _framework density 18.754176000000001
#
# number of rings (size 3 to 8) (size 9 to 14) (size 15 to 20)
#    0.000    2.250    0.000    5.250    0.000    7.000 
#    0.000    0.000    0.000    0.750    0.000    0.000 
#    0.000    0.000    0.000    0.000    0.000    0.000 
#
# Total GULP energy -396455.762736 kJ/mol
# GULP energy per Si atom -12389.242586 kJ/mol
# Density = 1.871149 g / cm^3
# Si number density = 18.754176 Si / 1000 Ang^3
#
#
#
# Elastic Constant Matrix: (Units=GPa)
#
#
# Indices 1 2 3 4 5 6 
#
# 1 119.8204 61.0013 39.1324 0.0000 -9.5292 0.0000
# 2 61.0013 119.2275 28.4306 0.0000 -6.0408 0.0000
# 3 39.1324 28.4306 43.3872 0.0000 2.9367 0.0000
# 4 0.0000 0.0000 0.0000 24.7111 0.0000 -9.3460
# 5 -9.5292 -6.0408 2.9367 0.0000 22.5890 0.0000
# 6 0.0000 0.0000 0.0000 -9.3460 0.0000 13.0148
#
#
#
# Elastic Compliance Matrix: (Units=1/GPa)
#
#
# Indices 1 2 3 4 5 6 
#
# 1 0.014694 -0.004663 -0.010626 0.000000 0.006333 0.000000
# 2 -0.004663 0.011709 -0.003577 0.000000 0.001629 0.000000
# 3 -0.010626 -0.003577 0.035658 0.000000 -0.010075 0.000000
# 4 0.000000 0.000000 0.000000 0.055556 0.000000 0.039895
# 5 0.006333 0.001629 -0.010075 0.000000 0.048686 0.000000
# 6 0.000000 0.000000 0.000000 0.039895 0.000000 0.105484
#
#
# Mechanical properties :
#
#
# Convention : Reuss Voigt Hill
#
# Bulk Modulus (GPa) = 41.10378 59.95150 50.52764
# Shear Modulus (GPa) = 15.74165 22.32104 19.03134
#
# Velocity S-wave (km/s) = 2.90033 3.45366 3.18902
# Velocity P-wave (km/s) = 5.76026 6.92388 6.36870
#
# Compressibility (1/GPa) = 0.02432866
#
# Stress axis : x y z
#
# Youngs Moduli (GPa) = 68.05543 85.40698 28.04439
#
# Poissons Ratio (x) = 0.39828 0.29800
# Poissons Ratio (y) = 0.31736 0.10031
# Poissons Ratio (z) = 0.72315 0.30547
#
# Static dielectric constant tensor:
#      x y z
#    x 3.510430 0.000000 -0.116340 
#    y 0.000000 3.398930 0.000000 
#    z -0.116340 0.000000 3.290220 
# 
# 
# High freq. dielectric constant tensor:
#      x y z
#    x 1.725170 0.000000 -0.010400 
#    y 0.000000 1.732710 0.000000 
#    z -0.010400 0.000000 1.703050 
# 
# From -- ./inp_files/45344.got.cif
#   From: 2010.06.25/outbox.cif.g09.slc.cpg/sg11_23_cif.got.tgz:45344.got - 2010.06.27 23:14:04.
