data_PCOD8072916
_publ_section_title
;
Structure prediction by ZEFSAII (Michael W. Deem and Ramdas Pophale) SiO2 
 PCOD8072916
Probable space group: P 21/M
;
_chemical_formula_sum "Si O2"
_cell_formula_units_Z 32
_cell_length_a 33.611378
_cell_length_b 8.810144
_cell_length_c 12.213331
_cell_angle_alpha 90.000000
_cell_angle_beta 152.626016
_cell_angle_gamma 90.000000
_cell_volume 1662.911814
_symmetry_space_group_name_H-M "P 21/M"
_symmetry_group_IT_number 11
_symmetry_cell_setting 'monoclinic'
loop_
_space_group_symop_operation_xyz
x,y,z
-x,1/2+y,-z
-x,-y,-z
x,1/2-y,z
loop_
_atom_site_type_symbol
_atom_site_label
_atom_site_fract_x
_atom_site_fract_y
_atom_site_fract_z
Si Si1 0.262116 0.925171 0.276932
Si Si2 0.223071 0.570661 0.734498
Si Si3 0.749462 0.931271 0.976850
Si Si4 0.290643 0.073702 0.688410
Si Si5 0.139969 0.425778 0.148166
Si Si6 0.938419 0.587346 0.424686
Si Si7 0.410746 0.925928 0.815495
Si Si8 0.035932 0.418266 0.269444
O O1 0.240902 0.750000 0.202939
O O2 0.344440 0.947559 0.554521
O O3 0.176806 0.998001 0.126107
O O4 0.292579 0.004661 0.237160
O O5 0.214497 0.750000 0.725317
O O6 0.277040 0.504126 0.971116
O O7 0.281821 0.525904 0.775506
O O8 0.127265 0.502535 0.477129
O O9 0.738499 0.750000 0.957678
O O10 0.847096 0.994725 0.208987
O O11 0.301454 0.250000 0.744956
O O12 0.207690 0.045781 0.409882
O O13 0.376390 0.014749 0.837607
O O14 0.126141 0.250000 0.087175
O O15 0.049717 0.491132 0.978103
O O16 0.921846 0.750000 0.329661
O O17 0.983289 0.602992 0.650421
O O18 0.000000 0.500000 0.500000
O O19 0.423628 0.750000 0.876451
O O20 0.500000 0.000000 0.000000
O O21 0.041106 0.250000 0.226218
#
# Coordination Sequence:
#
# PCOD8072916 Si02
#       8
#     4   4   4   4   4   4   4   4
#     4  10  20  34  54  82 113 143 177 220 269 320
#     4  11  22  36  54  76 105 144 189 230 270 318
#     4  10  20  34  51  73 104 142 182 222 266 318
#     4  10  21  38  58  80 109 143 180 222 269 323
#     4  10  20  33  51  76 105 141 184 230 279 324
#     4   9  18  28  40  61  90 128 173 220 266 309
#     4  10  21  38  62  91 118 142 172 212 262 320
#     4  10  20  33  47  67 100 141 185 231 275 318
#
# _framework density 19.243355000000001
#
# number of rings (size 3 to 8) (size 9 to 14) (size 15 to 20)
#    0.000    2.000    0.000    4.875    0.000    8.500 
#    0.000    0.000    0.000    0.750    0.000    0.000 
#    0.000    0.000    0.000    0.000    0.000    0.000 
#
# Total GULP energy -396574.174414 kJ/mol
# GULP energy per Si atom -12392.942950 kJ/mol
# Density = 1.919956 g / cm^3
# Si number density = 19.243355 Si / 1000 Ang^3
#
#
#
# Elastic Constant Matrix: (Units=GPa)
#
#
# Indices 1 2 3 4 5 6 
#
# 1 110.4554 49.9193 21.7124 0.0000 -1.5132 0.0000
# 2 49.9193 135.0376 25.1508 0.0000 -1.9738 0.0000
# 3 21.7124 25.1508 34.8626 0.0000 8.8853 0.0000
# 4 0.0000 0.0000 0.0000 28.4067 0.0000 0.2353
# 5 -1.5132 -1.9738 8.8853 0.0000 23.6634 0.0000
# 6 0.0000 0.0000 0.0000 0.2353 0.0000 35.9899
#
#
#
# Elastic Compliance Matrix: (Units=1/GPa)
#
#
# Indices 1 2 3 4 5 6 
#
# 1 0.011644 -0.003228 -0.005578 0.000000 0.002570 0.000000
# 2 -0.003228 0.009697 -0.005683 0.000000 0.002736 0.000000
# 3 -0.005578 -0.005683 0.040329 0.000000 -0.015974 0.000000
# 4 0.000000 0.000000 0.000000 0.035205 0.000000 -0.000230
# 5 0.002570 0.002736 -0.015974 0.000000 0.048650 0.000000
# 6 0.000000 0.000000 0.000000 -0.000230 0.000000 0.027787
#
#
# Mechanical properties :
#
#
# Convention : Reuss Voigt Hill
#
# Bulk Modulus (GPa) = 30.58810 52.65783 41.62297
# Shear Modulus (GPa) = 23.45361 29.85020 26.65190
#
# Velocity S-wave (km/s) = 3.49490 3.94279 3.72559
# Velocity P-wave (km/s) = 5.67589 6.93910 6.33904
#
# Compressibility (1/GPa) = 0.03269245
#
# Stress axis : x y z
#
# Youngs Moduli (GPa) = 85.88132 103.12452 24.79608
#
# Poissons Ratio (x) = 0.33288 0.13832
# Poissons Ratio (y) = 0.27722 0.14091
# Poissons Ratio (z) = 0.47906 0.58602
#
# Static dielectric constant tensor:
#      x y z
#    x 3.621960 0.000000 -0.165190 
#    y 0.000000 3.484680 0.000000 
#    z -0.165190 0.000000 3.264470 
# 
# 
# High freq. dielectric constant tensor:
#      x y z
#    x 1.749210 0.000000 -0.010430 
#    y 0.000000 1.763560 0.000000 
#    z -0.010430 0.000000 1.716330 
# 
# From -- ./inp_files/45345.got.cif
#   From: 2010.06.25/outbox.cif.g09.slc.cpg/sg11_23_cif.got.tgz:45345.got - 2010.06.27 23:14:04.
