data_PCOD8072557
_publ_section_title
;
Structure prediction by ZEFSAII (Michael W. Deem and Ramdas Pophale) SiO2 
 PCOD8072557
Probable space group: P 21/M
;
_chemical_formula_sum "Si O2"
_cell_formula_units_Z 32
_cell_length_a 13.829296
_cell_length_b 8.815519
_cell_length_c 22.180586
_cell_angle_alpha 90.000000
_cell_angle_beta 143.079615
_cell_angle_gamma 90.000000
_cell_volume 1624.358952
_symmetry_space_group_name_H-M "P 21/M"
_symmetry_group_IT_number 11
_symmetry_cell_setting 'monoclinic'
loop_
_space_group_symop_operation_xyz
x,y,z
-x,1/2+y,-z
-x,-y,-z
x,1/2-y,z
loop_
_atom_site_type_symbol
_atom_site_label
_atom_site_fract_x
_atom_site_fract_y
_atom_site_fract_z
Si Si1 0.506978 0.570815 0.568861
Si Si2 0.880795 0.930176 0.303931
Si Si3 0.213411 0.429415 0.493771
Si Si4 0.696287 0.570720 0.329180
Si Si5 0.325234 0.428985 0.913252
Si Si6 0.335649 0.928910 0.149901
Si Si7 0.846279 0.926428 0.050879
Si Si8 0.216871 0.572907 0.220616
O O1 0.500000 0.500000 0.500000
O O2 0.487438 0.750000 0.554738
O O3 0.366943 0.503194 0.539777
O O4 0.677707 0.528314 0.682481
O O5 0.903976 0.750000 0.316485
O O6 0.797048 0.992955 0.322977
O O7 0.772689 0.983862 0.194055
O O8 0.053736 0.007407 0.382969
O O9 0.223824 0.250000 0.490553
O O10 0.214660 0.476696 0.564839
O O11 0.683938 0.750000 0.317797
O O12 0.515978 0.501910 0.237891
O O13 0.344295 0.250000 0.921862
O O14 0.230336 0.484710 0.925006
O O15 0.500000 0.500000 0.000000
O O16 0.344165 0.750000 0.149839
O O17 0.249142 0.979572 0.168286
O O18 0.233170 0.986658 0.043433
O O19 0.813905 0.750000 0.024858
O O20 0.034317 0.962736 0.146687
O O21 0.260149 0.750000 0.250913
#
# Coordination Sequence:
#
# PCOD8072557 Si02
#       8
#     4   4   4   4   4   4   4   4
#     4  12  26  43  65  92 124 161 201 246 300 362
#     4  10  21  37  59  88 120 160 206 253 307 360
#     4  11  22  40  62  89 123 159 202 250 303 361
#     4   9  18  35  59  86 121 159 201 252 304 357
#     4  10  22  40  60  85 120 158 203 252 303 361
#     4  10  19  36  61  87 119 162 203 248 302 361
#     4  10  22  37  57  88 122 157 199 254 306 358
#     4  10  21  40  63  88 123 160 199 249 308 361
#
# _framework density 19.700078999999999
#
# number of rings (size 3 to 8) (size 9 to 14) (size 15 to 20)
#    0.000    1.750    1.250    3.000    1.750    3.000 
#    0.000    1.250    0.000    0.000    0.000    0.000 
#    0.000    0.000    0.000    0.000    0.000    0.000 
#
# Total GULP energy -396927.848558 kJ/mol
# GULP energy per Si atom -12403.995267 kJ/mol
# Density = 1.965524 g / cm^3
# Si number density = 19.700079 Si / 1000 Ang^3
#
#
#
# Elastic Constant Matrix: (Units=GPa)
#
#
# Indices 1 2 3 4 5 6 
#
# 1 93.2088 18.3593 53.8540 0.0000 -9.0171 0.0000
# 2 18.3593 47.8497 39.5934 0.0000 -6.0710 0.0000
# 3 53.8540 39.5934 142.1689 0.0000 -8.9096 0.0000
# 4 0.0000 0.0000 0.0000 35.0256 0.0000 1.2349
# 5 -9.0171 -6.0710 -8.9096 0.0000 42.7326 0.0000
# 6 0.0000 0.0000 0.0000 1.2349 0.0000 27.2380
#
#
#
# Elastic Compliance Matrix: (Units=1/GPa)
#
#
# Indices 1 2 3 4 5 6 
#
# 1 0.013922 -0.001098 -0.004857 0.000000 0.001769 0.000000
# 2 -0.001098 0.027471 -0.007097 0.000000 0.002191 0.000000
# 3 -0.004857 -0.007097 0.010865 0.000000 0.000232 0.000000
# 4 0.000000 0.000000 0.000000 0.028596 0.000000 -0.001296
# 5 0.001769 0.002191 0.000232 0.000000 0.024134 0.000000
# 6 0.000000 0.000000 0.000000 -0.001296 0.000000 0.036772
#
#
# Mechanical properties :
#
#
# Convention : Reuss Voigt Hill
#
# Bulk Modulus (GPa) = 38.23672 56.31563 47.27617
# Shear Modulus (GPa) = 28.31522 32.42729 30.37126
#
# Velocity S-wave (km/s) = 3.79531 4.06155 3.93069
# Velocity P-wave (km/s) = 6.21750 7.11643 6.68210
#
# Compressibility (1/GPa) = 0.02615287
#
# Stress axis : x y z
#
# Youngs Moduli (GPa) = 71.82664 36.40235 92.04015
#
# Poissons Ratio (x) = 0.03998 0.44705
# Poissons Ratio (y) = 0.07889 0.65322
# Poissons Ratio (z) = 0.34887 0.25835
#
# Static dielectric constant tensor:
#      x y z
#    x 3.822950 0.000000 0.070500 
#    y 0.000000 3.343270 0.000000 
#    z 0.070500 0.000000 3.215120 
# 
# 
# High freq. dielectric constant tensor:
#      x y z
#    x 1.785360 0.000000 0.000740 
#    y 0.000000 1.747020 0.000000 
#    z 0.000740 0.000000 1.783100 
# 
# From -- ./inp_files/69080.got.cif
#   From: 2010.06.25/outbox.cif.g09.slc.cpg/sg11_35_cif.got.tgz:69080.got - 2010.06.27 23:14:04.
