data_PCOD8072652
_publ_section_title
;
Structure prediction by ZEFSAII (Michael W. Deem and Ramdas Pophale) SiO2 
 PCOD8072652
Probable space group: P 21/M
;
_chemical_formula_sum "Si O2"
_cell_formula_units_Z 28
_cell_length_a 21.111534
_cell_length_b 8.455516
_cell_length_c 14.729189
_cell_angle_alpha 90.000000
_cell_angle_beta 150.169804
_cell_angle_gamma 90.000000
_cell_volume 1307.891695
_symmetry_space_group_name_H-M "P 21/M"
_symmetry_group_IT_number 11
_symmetry_cell_setting 'monoclinic'
loop_
_space_group_symop_operation_xyz
x,y,z
-x,1/2+y,-z
-x,-y,-z
x,1/2-y,z
loop_
_atom_site_type_symbol
_atom_site_label
_atom_site_fract_x
_atom_site_fract_y
_atom_site_fract_z
Si Si1 0.393395 0.438694 0.937545
Si Si2 0.104892 0.563263 0.559017
Si Si3 0.880190 0.564411 0.798475
Si Si4 0.258765 0.428990 0.118150
Si Si5 0.635621 0.067739 0.579231
Si Si6 0.021481 0.561986 0.254909
Si Si7 0.556657 0.930521 0.802608
O O1 0.391636 0.250000 0.932994
O O2 0.248430 0.496042 0.743844
O O3 0.500000 0.500000 0.000000
O O4 0.438265 0.507516 0.091397
O O5 0.112578 0.750000 0.580272
O O6 0.055335 0.512123 0.398650
O O7 0.000000 0.500000 0.500000
O O8 0.858714 0.750000 0.788156
O O9 0.773022 0.459118 0.709910
O O10 0.883020 0.525838 0.694805
O O11 0.000000 0.500000 0.000000
O O12 0.245748 0.250000 0.133933
O O13 0.364012 0.503123 0.317037
O O14 0.304506 0.442060 0.070901
O O15 0.118655 0.505197 0.945538
O O16 0.597744 0.250000 0.539533
O O17 0.539673 0.983875 0.387912
O O18 0.030685 0.750000 0.254247
O O19 0.512931 0.750000 0.761309
#
# Coordination Sequence:
#
# PCOD8072652 Si02
#       7
#     4   4   4   4   4   4   4
#     4  11  24  45  68  95 129 173 222 277 334 393
#     4  11  24  44  70 100 132 172 218 274 335 395
#     4  12  24  39  59  87 122 161 206 256 308 368
#     4  10  19  37  62  89 120 160 202 248 301 368
#     4  11  22  37  59  89 123 162 203 249 304 369
#     4  10  22  39  63  90 124 165 206 252 314 376
#     4   9  21  40  63  87 121 165 205 247 312 375
#
# _framework density 21.4085
#
# number of rings (size 3 to 8) (size 9 to 14) (size 15 to 20)
#    0.000    1.429    1.429    3.857    2.000    3.429 
#    0.000    5.714    0.000    0.000    0.000    0.000 
#    0.000    0.000    0.000    0.000    0.000    0.000 
#
# Total GULP energy -346980.750873 kJ/mol
# GULP energy per Si atom -12392.169674 kJ/mol
# Density = 2.135977 g / cm^3
# Si number density = 21.408500 Si / 1000 Ang^3
#
#
#
# Elastic Constant Matrix: (Units=GPa)
#
#
# Indices 1 2 3 4 5 6 
#
# 1 139.5615 24.1384 49.6410 0.0000 -26.9605 0.0000
# 2 24.1384 56.6663 23.7952 0.0000 -11.4627 0.0000
# 3 49.6410 23.7952 126.0302 0.0000 -16.5045 0.0000
# 4 0.0000 0.0000 0.0000 28.0179 0.0000 -1.4758
# 5 -26.9605 -11.4627 -16.5045 0.0000 41.8973 0.0000
# 6 0.0000 0.0000 0.0000 -1.4758 0.0000 33.4576
#
#
#
# Elastic Compliance Matrix: (Units=1/GPa)
#
#
# Indices 1 2 3 4 5 6 
#
# 1 0.009320 -0.001935 -0.002730 0.000000 0.004392 0.000000
# 2 -0.001935 0.020235 -0.002632 0.000000 0.003254 0.000000
# 3 -0.002730 -0.002632 0.009682 0.000000 0.001337 0.000000
# 4 0.000000 0.000000 0.000000 0.035775 0.000000 0.001578
# 5 0.004392 0.003254 0.001337 0.000000 0.028111 0.000000
# 6 0.000000 0.000000 0.000000 0.001578 0.000000 0.029958
#
#
# Mechanical properties :
#
#
# Convention : Reuss Voigt Hill
#
# Bulk Modulus (GPa) = 40.58155 57.48970 49.03563
# Shear Modulus (GPa) = 32.07407 35.65348 33.86377
#
# Velocity S-wave (km/s) = 3.87485 4.08535 3.98149
# Velocity P-wave (km/s) = 6.24630 7.01180 6.64009
#
# Compressibility (1/GPa) = 0.02464174
#
# Stress axis : x y z
#
# Youngs Moduli (GPa) = 107.30098 49.41945 103.28359
#
# Poissons Ratio (x) = 0.09562 0.28200
# Poissons Ratio (y) = 0.20762 0.27186
# Poissons Ratio (z) = 0.29296 0.13008
#
# Static dielectric constant tensor:
#      x y z
#    x 4.223890 0.000000 -0.085070 
#    y 0.000000 3.087360 0.000000 
#    z -0.085070 0.000000 4.205050 
# 
# 
# High freq. dielectric constant tensor:
#      x y z
#    x 1.862920 0.000000 -0.002320 
#    y 0.000000 1.815480 0.000000 
#    z -0.002320 0.000000 1.851950 
# 
# From -- ./inp_files/54634.got.cif
#   From: 2010.06.25/outbox.cif.g09.slc.cpg/sg11_28_cif.got.tgz:54634.got - 2010.06.27 23:14:04.
