data_PCOD8072455
_publ_section_title
;
Structure prediction by ZEFSAII (Michael W. Deem and Ramdas Pophale) SiO2 
 PCOD8072455
Probable space group: P 21/M
;
_chemical_formula_sum "Si O2"
_cell_formula_units_Z 24
_cell_length_a 8.010859
_cell_length_b 9.192558
_cell_length_c 18.529314
_cell_angle_alpha 90.000000
_cell_angle_beta 65.590671
_cell_angle_gamma 90.000000
_cell_volume 1242.539685
_symmetry_space_group_name_H-M "P 21/M"
_symmetry_group_IT_number 11
_symmetry_cell_setting 'monoclinic'
loop_
_space_group_symop_operation_xyz
x,y,z
-x,1/2+y,-z
-x,-y,-z
x,1/2-y,z
loop_
_atom_site_type_symbol
_atom_site_label
_atom_site_fract_x
_atom_site_fract_y
_atom_site_fract_z
Si Si1 0.999438 0.418275 0.160891
Si Si2 0.591170 0.423185 0.416505
Si Si3 0.673764 0.580369 0.998807
Si Si4 0.658214 0.579191 0.167368
Si Si5 0.622066 0.577963 0.690055
Si Si6 0.999079 0.082597 0.323567
O O1 0.946438 0.250000 0.156708
O O2 0.820990 0.516253 0.186090
O O3 0.070819 0.442562 0.229283
O O4 0.150091 0.473552 0.077245
O O5 0.500000 0.500000 0.500000
O O6 0.586274 0.250000 0.427114
O O7 0.473849 0.468836 0.367179
O O8 0.798702 0.488199 0.373104
O O9 0.642393 0.750000 0.992313
O O10 0.500000 0.500000 0.000000
O O11 0.701164 0.539859 0.077051
O O12 0.640668 0.750000 0.183001
O O13 0.471765 0.503124 0.225992
O O14 0.605549 0.750000 0.706510
O O15 0.837347 0.528236 0.652524
O O16 0.964201 0.250000 0.344702
#
# Coordination Sequence:
#
# PCOD8072455 Si02
#       6
#     4   4   4   4   4   4
#     4  10  19  36  58  79 108 153 199 232 274 340
#     4  10  21  38  59  86 115 146 186 232 282 342
#     4  10  22  36  53  80 114 151 195 241 284 334
#     4  11  22  35  53  84 119 147 186 242 290 330
#     4  10  20  38  63  84 110 154 195 229 277 341
#     4   9  18  35  60  86 109 143 196 237 266 331
#
# _framework density 19.315277999999999
#
# number of rings (size 3 to 8) (size 9 to 14) (size 15 to 20)
#    0.000    2.000    1.667    2.000    0.000    4.667 
#    0.000    1.667    0.000    0.000    0.000    0.000 
#    0.000    0.000    0.000    0.000    0.000    0.000 
#
# Total GULP energy -297563.037864 kJ/mol
# GULP energy per Si atom -12398.459911 kJ/mol
# Density = 1.927132 g / cm^3
# Si number density = 19.315278 Si / 1000 Ang^3
#
#
#
# Elastic Constant Matrix: (Units=GPa)
#
#
# Indices 1 2 3 4 5 6 
#
# 1 158.3562 31.6148 64.6501 0.0000 -18.9082 0.0000
# 2 31.6148 33.5494 29.2395 0.0000 -1.5491 0.0000
# 3 64.6501 29.2395 136.7578 0.0000 -12.7042 0.0000
# 4 0.0000 0.0000 0.0000 33.6969 0.0000 -2.6172
# 5 -18.9082 -1.5491 -12.7042 0.0000 23.7859 0.0000
# 6 0.0000 0.0000 0.0000 -2.6172 0.0000 20.4015
#
#
#
# Elastic Compliance Matrix: (Units=1/GPa)
#
#
# Indices 1 2 3 4 5 6 
#
# 1 0.009266 -0.006279 -0.002516 0.000000 0.005613 0.000000
# 2 -0.006279 0.040969 -0.006320 0.000000 -0.005699 0.000000
# 3 -0.002516 -0.006320 0.010132 0.000000 0.002999 0.000000
# 4 0.000000 0.000000 0.000000 0.029975 0.000000 0.003845
# 5 0.005613 -0.005699 0.002999 0.000000 0.047734 0.000000
# 6 0.000000 0.000000 0.000000 0.003845 0.000000 0.049509
#
#
# Mechanical properties :
#
#
# Convention : Reuss Voigt Hill
#
# Bulk Modulus (GPa) = 33.18425 64.40802 48.79613
# Shear Modulus (GPa) = 21.94299 29.12080 25.53190
#
# Velocity S-wave (km/s) = 3.37418 3.88707 3.63967
# Velocity P-wave (km/s) = 5.69190 7.31873 6.55597
#
# Compressibility (1/GPa) = 0.03013478
#
# Stress axis : x y z
#
# Youngs Moduli (GPa) = 107.92066 24.40847 98.69970
#
# Poissons Ratio (x) = 0.15327 0.24837
# Poissons Ratio (y) = 0.67768 0.62382
# Poissons Ratio (z) = 0.27157 0.15427
#
# Static dielectric constant tensor:
#      x y z
#    x 3.521210 0.000000 -0.398800 
#    y 0.000000 3.288790 0.000000 
#    z -0.398800 0.000000 3.531860 
# 
# 
# High freq. dielectric constant tensor:
#      x y z
#    x 1.764830 0.000000 -0.004980 
#    y 0.000000 1.724380 0.000000 
#    z -0.004980 0.000000 1.755290 
# 
# From -- ./inp_files/63158.got.cif
#   From: 2010.06.25/outbox.cif.g09.slc.cpg/sg11_32_cif.got.tgz:63158.got - 2010.06.27 23:14:04.
