data_PCOD8072059
_publ_section_title
;
Structure prediction by ZEFSAII (Michael W. Deem and Ramdas Pophale) SiO2 
 PCOD8072059
Probable space group: P 21/M
;
_chemical_formula_sum "Si O2"
_cell_formula_units_Z 28
_cell_length_a 27.645148
_cell_length_b 8.951714
_cell_length_c 9.591427
_cell_angle_alpha 90.000000
_cell_angle_beta 138.954660
_cell_angle_gamma 90.000000
_cell_volume 1558.641707
_symmetry_space_group_name_H-M "P 21/M"
_symmetry_group_IT_number 11
_symmetry_cell_setting 'monoclinic'
loop_
_space_group_symop_operation_xyz
x,y,z
-x,1/2+y,-z
-x,-y,-z
x,1/2-y,z
loop_
_atom_site_type_symbol
_atom_site_label
_atom_site_fract_x
_atom_site_fract_y
_atom_site_fract_z
Si Si1 0.077401 0.578241 0.142594
Si Si2 0.645505 0.426000 0.135463
Si Si3 0.940109 0.418071 0.209611
Si Si4 0.512066 0.927104 0.676717
Si Si5 0.563482 0.421701 0.219544
Si Si6 0.799886 0.572875 0.411435
Si Si7 0.898315 0.925159 0.376061
O O1 0.075462 0.750000 0.192053
O O2 0.142066 0.482931 0.349566
O O3 0.095339 0.573525 0.018463
O O4 0.000000 0.500000 0.000000
O O5 0.641570 0.250000 0.094848
O O6 0.636353 0.456134 0.284496
O O7 0.723726 0.489333 0.263317
O O8 0.584804 0.507923 0.908572
O O9 0.943085 0.250000 0.272262
O O10 0.886794 0.508787 0.197163
O O11 0.023688 0.483963 0.391111
O O12 0.521408 0.750000 0.676401
O O13 0.441205 0.965910 0.625318
O O14 0.500000 0.000000 0.500000
O O15 0.544020 0.250000 0.168781
O O16 0.500000 0.500000 0.000000
O O17 0.789576 0.750000 0.404802
O O18 0.831296 0.525232 0.328805
O O19 0.899365 0.750000 0.367991
#
# Coordination Sequence:
#
# PCOD8072059 Si02
#       7
#     4   4   4   4   4   4   4
#     4  11  21  35  54  78 105 136 177 225 271 319
#     4  10  20  36  56  81 109 143 182 221 268 322
#     4   9  18  33  51  74 100 129 172 222 267 317
#     4  10  19  34  57  86 114 145 179 219 263 311
#     4   8  16  31  53  78 107 138 175 215 256 308
#     4  11  22  37  54  78 110 142 179 224 273 325
#     4   9  18  33  51  73 101 134 172 217 267 320
#
# _framework density 17.964359000000002
#
# number of rings (size 3 to 8) (size 9 to 14) (size 15 to 20)
#    0.000    2.286    1.429    1.714    0.000    3.429 
#    0.000    1.429    0.000    1.714    0.000    0.000 
#    0.000    0.000    0.000    0.000    0.000    0.000 
#
# Total GULP energy -346900.029244 kJ/mol
# GULP energy per Si atom -12389.286759 kJ/mol
# Density = 1.792347 g / cm^3
# Si number density = 17.964359 Si / 1000 Ang^3
#
#
#
# Elastic Constant Matrix: (Units=GPa)
#
#
# Indices 1 2 3 4 5 6 
#
# 1 168.7532 60.7873 59.9307 0.0000 -10.0185 0.0000
# 2 60.7873 55.1935 28.7185 0.0000 -5.0339 0.0000
# 3 59.9307 28.7185 70.9119 0.0000 -4.9965 0.0000
# 4 0.0000 0.0000 0.0000 31.8262 0.0000 -1.1787
# 5 -10.0185 -5.0339 -4.9965 0.0000 28.6666 0.0000
# 6 0.0000 0.0000 0.0000 -1.1787 0.0000 31.8423
#
#
#
# Elastic Compliance Matrix: (Units=1/GPa)
#
#
# Indices 1 2 3 4 5 6 
#
# 1 0.011479 -0.009530 -0.005748 0.000000 0.001337 0.000000
# 2 -0.009530 0.031037 -0.004420 0.000000 0.001349 0.000000
# 3 -0.005748 -0.004420 0.020809 0.000000 0.000842 0.000000
# 4 0.000000 0.000000 0.000000 0.031464 0.000000 0.001165
# 5 0.001337 0.001349 0.000842 0.000000 0.035734 0.000000
# 6 0.000000 0.000000 0.000000 0.001165 0.000000 0.031448
#
#
# Mechanical properties :
#
#
# Convention : Reuss Voigt Hill
#
# Bulk Modulus (GPa) = 41.79021 65.97018 53.88020
# Shear Modulus (GPa) = 23.88404 28.16184 26.02294
#
# Velocity S-wave (km/s) = 3.65022 3.96365 3.81016
# Velocity P-wave (km/s) = 6.40928 7.59934 7.02954
#
# Compressibility (1/GPa) = 0.02392905
#
# Stress axis : x y z
#
# Youngs Moduli (GPa) = 87.11305 32.21963 48.05534
#
# Poissons Ratio (x) = 0.30705 0.27622
# Poissons Ratio (y) = 0.83019 0.21242
# Poissons Ratio (z) = 0.50072 0.14242
#
# Static dielectric constant tensor:
#      x y z
#    x 3.915930 0.000000 -0.245920 
#    y 0.000000 3.468160 0.000000 
#    z -0.245920 0.000000 2.946310 
# 
# 
# High freq. dielectric constant tensor:
#      x y z
#    x 1.710960 0.000000 -0.016990 
#    y 0.000000 1.707230 0.000000 
#    z -0.016990 0.000000 1.659850 
# 
# From -- ./inp_files/28595.got.cif
#   From: 2010.06.25/outbox.cif.g09.slc.cpg/sg11_15_cif.got.tgz:28595.got - 2010.06.27 23:14:04.
