data_PCOD8072302
_publ_section_title
;
Structure prediction by ZEFSAII (Michael W. Deem and Ramdas Pophale) SiO2 
 PCOD8072302
Probable space group: P 21/M
;
_chemical_formula_sum "Si O2"
_cell_formula_units_Z 28
_cell_length_a 16.183287
_cell_length_b 13.200934
_cell_length_c 9.573224
_cell_angle_alpha 90.000000
_cell_angle_beta 133.412985
_cell_angle_gamma 90.000000
_cell_volume 1485.650913
_symmetry_space_group_name_H-M "P 21/M"
_symmetry_group_IT_number 11
_symmetry_cell_setting 'monoclinic'
loop_
_space_group_symop_operation_xyz
x,y,z
-x,1/2+y,-z
-x,-y,-z
x,1/2-y,z
loop_
_atom_site_type_symbol
_atom_site_label
_atom_site_fract_x
_atom_site_fract_y
_atom_site_fract_z
Si Si1 0.754612 0.634152 0.967205
Si Si2 0.343547 0.442600 0.880279
Si Si3 0.452002 0.366262 0.477005
Si Si4 0.322515 0.869228 0.397844
Si Si5 0.868749 0.521538 0.863106
Si Si6 0.590764 0.133970 0.195511
Si Si7 0.285334 0.367936 0.512735
O O1 0.786584 0.750000 0.036957
O O2 0.633841 0.625417 0.751355
O O3 0.852894 0.586942 0.985128
O O4 0.749219 0.571997 0.106206
O O5 0.361800 0.562021 0.872671
O O6 0.298647 0.387711 0.690128
O O7 0.457833 0.387005 0.063133
O O8 0.481061 0.250000 0.541870
O O9 0.572570 0.417871 0.572376
O O10 0.392958 0.413704 0.548019
O O11 0.314468 0.750000 0.362708
O O12 0.342441 0.891234 0.584798
O O13 0.205086 0.918631 0.211021
O O14 0.829504 0.582439 0.679807
O O15 0.000000 0.500000 0.000000
O O16 0.609348 0.250000 0.170857
O O17 0.276773 0.250000 0.470112
#
# Coordination Sequence:
#
# PCOD8072302 Si02
#       7
#     4   4   4   4   4   4   4
#     4  10  20  37  61  86 117 150 185 238 297 357
#     4  11  20  34  58  89 118 158 190 230 292 365
#     4   8  16  31  52  82 115 144 179 228 285 346
#     4  10  19  35  58  83 116 154 191 238 296 353
#     4  11  24  40  56  82 109 153 206 249 284 335
#     4  10  20  33  53  87 129 158 184 231 295 363
#     4  10  20  35  58  87 118 148 190 243 289 342
#
# _framework density 18.846957
#
# number of rings (size 3 to 8) (size 9 to 14) (size 15 to 20)
#    0.000    2.000    2.857    2.571    0.000    5.714 
#    0.000    2.857    0.000    0.000    0.000    0.000 
#    0.000    0.000    0.000    0.000    0.000    0.000 
#
# Total GULP energy -347199.830685 kJ/mol
# GULP energy per Si atom -12399.993953 kJ/mol
# Density = 1.880406 g / cm^3
# Si number density = 18.846957 Si / 1000 Ang^3
#
#
#
# Elastic Constant Matrix: (Units=GPa)
#
#
# Indices 1 2 3 4 5 6 
#
# 1 126.1194 49.7606 64.5873 0.0000 6.8257 0.0000
# 2 49.7606 84.7205 35.7205 0.0000 0.7967 0.0000
# 3 64.5873 35.7205 72.3280 0.0000 3.1442 0.0000
# 4 0.0000 0.0000 0.0000 24.3820 0.0000 -6.5284
# 5 6.8257 0.7967 3.1442 0.0000 36.5080 0.0000
# 6 0.0000 0.0000 0.0000 -6.5284 0.0000 25.0509
#
#
#
# Elastic Compliance Matrix: (Units=1/GPa)
#
#
# Indices 1 2 3 4 5 6 
#
# 1 0.015823 -0.004234 -0.011959 0.000000 -0.001836 0.000000
# 2 -0.004234 0.016044 -0.004177 0.000000 0.000801 0.000000
# 3 -0.011959 -0.004177 0.026566 0.000000 0.000039 0.000000
# 4 0.000000 0.000000 0.000000 0.044090 0.000000 0.011490
# 5 -0.001836 0.000801 0.000039 0.000000 0.027714 0.000000
# 6 0.000000 0.000000 0.000000 0.011490 0.000000 0.042913
#
#
# Mechanical properties :
#
#
# Convention : Reuss Voigt Hill
#
# Bulk Modulus (GPa) = 56.52056 64.81165 60.66611
# Shear Modulus (GPa) = 22.74901 26.06149 24.40525
#
# Velocity S-wave (km/s) = 3.47802 3.72263 3.60240
# Velocity P-wave (km/s) = 6.79582 7.27601 7.04001
#
# Compressibility (1/GPa) = 0.01769268
#
# Stress axis : x y z
#
# Youngs Moduli (GPa) = 63.19789 62.32712 37.64170
#
# Poissons Ratio (x) = 0.26392 0.45015
# Poissons Ratio (y) = 0.26760 0.15725
# Poissons Ratio (z) = 0.75577 0.26037
#
# Static dielectric constant tensor:
#      x y z
#    x 3.295520 0.000000 -0.202640 
#    y 0.000000 3.645470 0.000000 
#    z -0.202640 0.000000 3.199120 
# 
# 
# High freq. dielectric constant tensor:
#      x y z
#    x 1.708740 0.000000 -0.025080 
#    y 0.000000 1.755870 0.000000 
#    z -0.025080 0.000000 1.703850 
# 
# From -- ./inp_files/22103.got.cif
#   From: 2010.06.25/outbox.cif.g09.slc.cpg/sg11_12_cif.got.tgz:22103.got - 2010.06.27 23:14:04.
