data_PCOD8072117
_publ_section_title
;
Structure prediction by ZEFSAII (Michael W. Deem and Ramdas Pophale) SiO2 
 PCOD8072117
Probable space group: P 21/M
;
_chemical_formula_sum "Si O2"
_cell_formula_units_Z 32
_cell_length_a 11.981126
_cell_length_b 8.662174
_cell_length_c 15.571678
_cell_angle_alpha 90.000000
_cell_angle_beta 91.345401
_cell_angle_gamma 90.000000
_cell_volume 1615.623679
_symmetry_space_group_name_H-M "P 21/M"
_symmetry_group_IT_number 11
_symmetry_cell_setting 'monoclinic'
loop_
_space_group_symop_operation_xyz
x,y,z
-x,1/2+y,-z
-x,-y,-z
x,1/2-y,z
loop_
_atom_site_type_symbol
_atom_site_label
_atom_site_fract_x
_atom_site_fract_y
_atom_site_fract_z
Si Si1 0.993413 0.567853 0.406342
Si Si2 0.244982 0.066825 0.663750
Si Si3 0.997938 0.566870 0.094436
Si Si4 0.773364 0.432962 0.157175
Si Si5 0.622058 0.433788 0.491404
Si Si6 0.229359 0.566735 0.348970
Si Si7 0.377860 0.932943 0.004750
Si Si8 0.237742 0.566923 0.161098
O O1 0.992787 0.750000 0.414460
O O2 0.881370 0.510970 0.357373
O O3 0.000000 0.500000 0.500000
O O4 0.101598 0.509522 0.356193
O O5 0.257425 0.250000 0.662166
O O6 0.279809 0.002531 0.757297
O O7 0.327763 0.994528 0.596133
O O8 0.987064 0.750000 0.090552
O O9 0.896841 0.499366 0.147444
O O10 0.111465 0.512783 0.142109
O O11 0.000000 0.500000 0.000000
O O12 0.779203 0.250000 0.163222
O O13 0.695623 0.487814 0.077299
O O14 0.500000 0.500000 0.500000
O O15 0.619495 0.250000 0.490265
O O16 0.694991 0.499048 0.572605
O O17 0.232772 0.750000 0.352474
O O18 0.274074 0.508525 0.256842
O O19 0.384732 0.750000 0.007923
O O20 0.320908 0.000659 0.090415
O O21 0.500000 0.000000 0.000000
O O22 0.242210 0.750000 0.156025
#
# Coordination Sequence:
#
# PCOD8072117 Si02
#       8
#     4   4   4   4   4   4   4   4
#     4  10  19  34  58  88 119 150 191 239 294 358
#     4  11  23  39  62  91 120 157 201 247 300 359
#     4  11  20  35  61  90 123 157 195 243 297 359
#     4  11  23  40  60  89 125 159 198 246 300 357
#     4  11  23  40  61  86 119 158 202 252 299 353
#     4   9  18  34  59  86 113 151 192 234 294 352
#     4  10  22  40  60  84 115 155 200 248 296 347
#     4   9  18  36  59  84 116 151 190 239 292 349
#
# _framework density 19.806591000000001
#
# number of rings (size 3 to 8) (size 9 to 14) (size 15 to 20)
#    0.000    1.750    2.500    2.250    0.000    4.500 
#    0.000    1.250    0.000    3.750    0.000    0.000 
#    0.000    0.000    0.000    0.000    0.000    0.000 
#
# Total GULP energy -396814.299806 kJ/mol
# GULP energy per Si atom -12400.446869 kJ/mol
# Density = 1.976151 g / cm^3
# Si number density = 19.806591 Si / 1000 Ang^3
#
#
#
# Elastic Constant Matrix: (Units=GPa)
#
#
# Indices 1 2 3 4 5 6 
#
# 1 150.7608 29.2566 73.2587 0.0000 -23.0572 0.0000
# 2 29.2566 45.0303 27.6243 0.0000 -5.9510 0.0000
# 3 73.2587 27.6243 181.8859 0.0000 -25.7433 0.0000
# 4 0.0000 0.0000 0.0000 27.5922 0.0000 -4.3178
# 5 -23.0572 -5.9510 -25.7433 0.0000 21.2792 0.0000
# 6 0.0000 0.0000 0.0000 -4.3178 0.0000 31.4629
#
#
#
# Elastic Compliance Matrix: (Units=1/GPa)
#
#
# Indices 1 2 3 4 5 6 
#
# 1 0.009498 -0.003898 -0.002330 0.000000 0.006382 0.000000
# 2 -0.003898 0.026231 -0.002381 0.000000 0.000232 0.000000
# 3 -0.002330 -0.002381 0.007658 0.000000 0.006073 0.000000
# 4 0.000000 0.000000 0.000000 0.037038 0.000000 0.005083
# 5 0.006382 0.000232 0.006073 0.000000 0.061322 0.000000
# 6 0.000000 0.000000 0.000000 0.005083 0.000000 0.032481
#
#
# Mechanical properties :
#
#
# Convention : Reuss Voigt Hill
#
# Bulk Modulus (GPa) = 38.21419 70.88400 54.54910
# Shear Modulus (GPa) = 24.97892 32.56934 28.77413
#
# Velocity S-wave (km/s) = 3.55511 4.05948 3.81564
# Velocity P-wave (km/s) = 6.01559 7.60515 6.85659
#
# Compressibility (1/GPa) = 0.02616829
#
# Stress axis : x y z
#
# Youngs Moduli (GPa) = 105.28717 38.12264 130.58721
#
# Poissons Ratio (x) = 0.14860 0.30429
# Poissons Ratio (y) = 0.41040 0.31095
# Poissons Ratio (z) = 0.24533 0.09078
#
# Static dielectric constant tensor:
#      x y z
#    x 3.790620 0.000000 -0.011970 
#    y 0.000000 3.381510 0.000000 
#    z -0.011970 0.000000 3.987740 
# 
# 
# High freq. dielectric constant tensor:
#      x y z
#    x 1.773650 0.000000 -0.003880 
#    y 0.000000 1.749080 0.000000 
#    z -0.003880 0.000000 1.792650 
# 
# From -- ./inp_files/49309.got.cif
#   From: 2010.06.25/outbox.cif.g09.slc.cpg/sg11_25_cif.got.tgz:49309.got - 2010.06.27 23:14:04.
