data_PCOD8073512
_publ_section_title
;
Structure prediction by ZEFSAII (Michael W. Deem and Ramdas Pophale) SiO2 
 PCOD8073512
Probable space group: P 21/M
;
_chemical_formula_sum "Si O2"
_cell_formula_units_Z 28
_cell_length_a 9.154547
_cell_length_b 9.244492
_cell_length_c 26.120957
_cell_angle_alpha 90.000000
_cell_angle_beta 42.873321
_cell_angle_gamma 90.000000
_cell_volume 1504.043299
_symmetry_space_group_name_H-M "P 21/M"
_symmetry_group_IT_number 11
_symmetry_cell_setting 'monoclinic'
loop_
_space_group_symop_operation_xyz
x,y,z
-x,1/2+y,-z
-x,-y,-z
x,1/2-y,z
loop_
_atom_site_type_symbol
_atom_site_label
_atom_site_fract_x
_atom_site_fract_y
_atom_site_fract_z
Si Si1 0.303490 0.419735 0.769782
Si Si2 0.170204 0.580421 0.085634
Si Si3 0.971634 0.420142 0.339282
Si Si4 0.685507 0.582055 0.481746
Si Si5 0.597841 0.417677 0.789326
Si Si6 0.399946 0.913934 0.645445
Si Si7 0.552958 0.916220 0.060580
O O1 0.294533 0.250000 0.763541
O O2 0.447803 0.462319 0.780940
O O3 0.409893 0.485900 0.692158
O O4 0.063960 0.481463 0.839974
O O5 0.157868 0.750000 0.078562
O O6 0.328593 0.539376 0.091425
O O7 0.251313 0.508663 0.012245
O O8 0.984057 0.250000 0.347320
O O9 0.197683 0.479150 0.262214
O O10 0.907470 0.503112 0.408751
O O11 0.798171 0.457656 0.340219
O O12 0.500000 0.500000 0.500000
O O13 0.692824 0.750000 0.463328
O O14 0.627372 0.568600 0.556920
O O15 0.670544 0.250000 0.767900
O O16 0.462866 0.447351 0.875257
O O17 0.369637 0.750000 0.671757
O O18 0.604169 0.750000 0.035829
#
# Coordination Sequence:
#
# PCOD8073512 Si02
#       7
#     4   4   4   4   4   4   4
#     4  10  21  35  52  75 104 139 176 211 253 307
#     4   9  18  33  52  75 101 130 168 212 255 302
#     4  10  20  34  54  80 105 134 174 216 260 309
#     4   9  17  31  52  79 107 134 169 215 262 306
#     4  10  21  36  52  74 105 139 175 213 255 306
#     4   9  19  34  53  78 105 132 168 213 257 304
#     4   9  18  33  53  75 100 132 169 210 257 305
#
# _framework density 18.616485000000001
#
# number of rings (size 3 to 8) (size 9 to 14) (size 15 to 20)
#    0.000    2.571    0.000    2.571    0.000    6.857 
#    0.000    3.571    0.000    0.000    0.000    0.000 
#    0.000    0.000    0.000    0.000    0.000    0.000 
#
# Total GULP energy -347182.007868 kJ/mol
# GULP energy per Si atom -12399.357424 kJ/mol
# Density = 1.857411 g / cm^3
# Si number density = 18.616485 Si / 1000 Ang^3
#
#
#
# Elastic Constant Matrix: (Units=GPa)
#
#
# Indices 1 2 3 4 5 6 
#
# 1 68.9322 30.2714 33.7051 0.0000 23.1870 0.0000
# 2 30.2714 65.4593 39.4185 0.0000 13.6650 0.0000
# 3 33.7051 39.4185 87.7630 0.0000 26.8224 0.0000
# 4 0.0000 0.0000 0.0000 40.0359 0.0000 3.9764
# 5 23.1870 13.6650 26.8224 0.0000 20.1235 0.0000
# 6 0.0000 0.0000 0.0000 3.9764 0.0000 22.3006
#
#
#
# Elastic Compliance Matrix: (Units=1/GPa)
#
#
# Indices 1 2 3 4 5 6 
#
# 1 0.026113 -0.007353 0.001592 0.000000 -0.027217 0.000000
# 2 -0.007353 0.023107 -0.009025 0.000000 0.004810 0.000000
# 3 0.001592 -0.009025 0.022820 0.000000 -0.026123 0.000000
# 4 0.000000 0.000000 0.000000 0.025428 0.000000 -0.004534
# 5 -0.027217 0.004810 -0.026123 0.000000 0.112606 0.000000
# 6 0.000000 0.000000 0.000000 -0.004534 0.000000 0.045650
#
#
# Mechanical properties :
#
#
# Convention : Reuss Voigt Hill
#
# Bulk Modulus (GPa) = 23.54651 47.66052 35.60351
# Shear Modulus (GPa) = 16.69720 24.40930 20.55325
#
# Velocity S-wave (km/s) = 2.99808 3.62493 3.32631
# Velocity P-wave (km/s) = 4.96592 6.57092 5.82397
#
# Compressibility (1/GPa) = 0.04246914
#
# Stress axis : x y z
#
# Youngs Moduli (GPa) = 38.29578 43.27614 43.82101
#
# Poissons Ratio (x) = 0.31820 -0.06977
# Poissons Ratio (y) = 0.28158 0.39548
# Poissons Ratio (z) = -0.06097 0.39056
#
# Static dielectric constant tensor:
#      x y z
#    x 3.193650 0.000000 0.035330 
#    y 0.000000 3.437200 0.000000 
#    z 0.035330 0.000000 3.798230 
# 
# 
# High freq. dielectric constant tensor:
#      x y z
#    x 1.694590 0.000000 0.007180 
#    y 0.000000 1.721830 0.000000 
#    z 0.007180 0.000000 1.735520 
# 
# From -- ./inp_files/28328.got.cif
#   From: 2010.06.25/outbox.cif.g09.slc.cpg/sg11_15_cif.got.tgz:28328.got - 2010.06.27 23:14:04.
