data_PCOD8073813
_publ_section_title
;
Structure prediction by ZEFSAII (Michael W. Deem and Ramdas Pophale) SiO2 
 PCOD8073813
Probable space group: P 21/M
;
_chemical_formula_sum "Si O2"
_cell_formula_units_Z 28
_cell_length_a 18.798757
_cell_length_b 9.265862
_cell_length_c 13.408136
_cell_angle_alpha 90.000000
_cell_angle_beta 143.214374
_cell_angle_gamma 90.000000
_cell_volume 1398.561670
_symmetry_space_group_name_H-M "P 21/M"
_symmetry_group_IT_number 11
_symmetry_cell_setting 'monoclinic'
loop_
_space_group_symop_operation_xyz
x,y,z
-x,1/2+y,-z
-x,-y,-z
x,1/2-y,z
loop_
_atom_site_type_symbol
_atom_site_label
_atom_site_fract_x
_atom_site_fract_y
_atom_site_fract_z
Si Si1 0.062079 0.498086 0.223920
Si Si2 0.817686 0.086091 0.304339
Si Si3 0.388342 0.580569 0.422533
Si Si4 0.986860 0.906978 0.620858
Si Si5 0.615836 0.921897 0.167379
Si Si6 0.314771 0.589913 0.559643
Si Si7 0.163215 0.095000 0.135543
O O1 0.173455 0.597225 0.380892
O O2 0.103805 0.402708 0.178013
O O3 0.022401 0.398487 0.271032
O O4 0.943835 0.586081 0.063583
O O5 0.775279 0.250000 0.279917
O O6 0.876001 0.074126 0.260200
O O7 0.711447 0.972335 0.192847
O O8 0.913785 0.041125 0.495702
O O9 0.500000 0.500000 0.500000
O O10 0.398291 0.750000 0.411745
O O11 0.384790 0.547462 0.537035
O O12 0.264345 0.526174 0.234431
O O13 0.941233 0.750000 0.528988
O O14 0.601739 0.750000 0.152314
O O15 0.653050 0.973610 0.319763
O O16 0.500000 0.000000 0.000000
O O17 0.354053 0.750000 0.638647
O O18 0.225862 0.250000 0.190831
#
# Coordination Sequence:
#
# PCOD8073813 Si02
#       7
#     4   4   4   4   4   4   4
#     4  10  20  34  61  91 123 159 197 245 295 353
#     4  10  21  37  58  86 119 153 194 244 297 352
#     4  10  22  41  64  89 122 161 201 248 300 356
#     4  10  20  35  58  87 119 156 195 239 294 354
#     4  12  25  42  64  88 117 156 203 253 302 358
#     4  10  21  39  64  91 118 154 200 249 302 359
#     4  10  21  36  58  91 125 160 202 246 295 352
#
# _framework density 20.020568999999998
#
# number of rings (size 3 to 8) (size 9 to 14) (size 15 to 20)
#    0.000    1.714    1.429    3.000    0.000    8.000 
#    2.571    0.000    0.000    0.000    0.000    0.000 
#    0.000    0.000    0.000    0.000    0.000    0.000 
#
# Total GULP energy -347003.678204 kJ/mol
# GULP energy per Si atom -12392.988507 kJ/mol
# Density = 1.997500 g / cm^3
# Si number density = 20.020569 Si / 1000 Ang^3
#
#
#
# Elastic Constant Matrix: (Units=GPa)
#
#
# Indices 1 2 3 4 5 6 
#
# 1 129.0511 48.3476 48.3472 0.0000 17.0323 0.0000
# 2 48.3476 151.1491 49.5251 0.0000 13.3385 0.0000
# 3 48.3472 49.5251 105.3424 0.0000 13.3565 0.0000
# 4 0.0000 0.0000 0.0000 25.1520 0.0000 6.0912
# 5 17.0323 13.3385 13.3565 0.0000 24.5408 0.0000
# 6 0.0000 0.0000 0.0000 6.0912 0.0000 26.0037
#
#
#
# Elastic Compliance Matrix: (Units=1/GPa)
#
#
# Indices 1 2 3 4 5 6 
#
# 1 0.010233 -0.001812 -0.003297 0.000000 -0.004323 0.000000
# 2 -0.001812 0.008277 -0.002845 0.000000 -0.001693 0.000000
# 3 -0.003297 -0.002845 0.012736 0.000000 -0.003097 0.000000
# 4 0.000000 0.000000 0.000000 0.042149 0.000000 -0.009873
# 5 -0.004323 -0.001693 -0.003097 0.000000 0.046355 0.000000
# 6 0.000000 0.000000 0.000000 -0.009873 0.000000 0.040769
#
#
# Mechanical properties :
#
#
# Convention : Reuss Voigt Hill
#
# Bulk Modulus (GPa) = 65.19126 75.33139 70.26132
# Shear Modulus (GPa) = 27.54213 31.09413 29.31813
#
# Velocity S-wave (km/s) = 3.71306 3.94523 3.83090
# Velocity P-wave (km/s) = 7.14249 7.64603 7.39855
#
# Compressibility (1/GPa) = 0.01533948
#
# Stress axis : x y z
#
# Youngs Moduli (GPa) = 97.72083 120.81494 78.51588
#
# Poissons Ratio (x) = 0.21886 0.25885
# Poissons Ratio (y) = 0.17703 0.22340
# Poissons Ratio (z) = 0.32216 0.34375
#
# Static dielectric constant tensor:
#      x y z
#    x 3.127500 0.000000 -0.004590 
#    y 0.000000 3.650680 0.000000 
#    z -0.004590 0.000000 3.486180 
# 
# 
# High freq. dielectric constant tensor:
#      x y z
#    x 1.787620 0.000000 0.006940 
#    y 0.000000 1.789200 0.000000 
#    z 0.006940 0.000000 1.757960 
# 
# From -- ./inp_files/54589.got.cif
#   From: 2010.06.25/outbox.cif.g09.slc.cpg/sg11_28_cif.got.tgz:54589.got - 2010.06.27 23:14:04.
