data_PCOD8073664
_publ_section_title
;
Structure prediction by ZEFSAII (Michael W. Deem and Ramdas Pophale) SiO2 
 PCOD8073664
Probable space group: P 21/M
;
_chemical_formula_sum "Si O2"
_cell_formula_units_Z 24
_cell_length_a 20.643233
_cell_length_b 8.525925
_cell_length_c 9.165170
_cell_angle_alpha 90.000000
_cell_angle_beta 47.797763
_cell_angle_gamma 90.000000
_cell_volume 1194.945340
_symmetry_space_group_name_H-M "P 21/M"
_symmetry_group_IT_number 11
_symmetry_cell_setting 'monoclinic'
loop_
_space_group_symop_operation_xyz
x,y,z
-x,1/2+y,-z
-x,-y,-z
x,1/2-y,z
loop_
_atom_site_type_symbol
_atom_site_label
_atom_site_fract_x
_atom_site_fract_y
_atom_site_fract_z
Si Si1 0.603374 0.569372 0.183536
Si Si2 0.081928 0.935435 0.962062
Si Si3 0.404882 0.933167 0.492448
Si Si4 0.079982 0.433655 0.287702
Si Si5 0.240118 0.566677 0.217251
Si Si6 0.752356 0.435678 0.465534
O O1 0.626898 0.750000 0.119415
O O2 0.619221 0.532235 0.328781
O O3 0.503343 0.531606 0.291281
O O4 0.663674 0.459971 0.992974
O O5 0.080283 0.750000 0.958422
O O6 0.169093 0.002127 0.752496
O O7 0.080213 0.988195 0.130302
O O8 0.000000 0.000000 0.000000
O O9 0.392712 0.750000 0.548987
O O10 0.340079 0.989610 0.462595
O O11 0.067488 0.250000 0.287170
O O12 0.170587 0.469333 0.230145
O O13 0.000000 0.500000 0.500000
O O14 0.216393 0.750000 0.246199
O O15 0.238534 0.499789 0.384265
O O16 0.756263 0.250000 0.464991
#
# Coordination Sequence:
#
# PCOD8073664 Si02
#       6
#     4   4   4   4   4   4
#     4  10  20  34  55  85 116 148 191 241 292 348
#     4  11  22  39  63  90 120 155 196 243 294 346
#     4   9  18  36  59  81 110 150 195 242 292 346
#     4  12  25  42  63  89 119 152 194 242 295 353
#     4  11  22  38  59  84 116 154 194 236 288 349
#     4   9  20  37  58  82 110 149 195 239 285 342
#
# _framework density 20.084602
#
# number of rings (size 3 to 8) (size 9 to 14) (size 15 to 20)
#    0.000    1.667    0.000    5.000    0.000    4.000 
#    0.000    5.000    0.000    0.000    0.000    0.000 
#    0.000    0.000    0.000    0.000    0.000    0.000 
#
# Total GULP energy -297701.380455 kJ/mol
# GULP energy per Si atom -12404.224186 kJ/mol
# Density = 2.003889 g / cm^3
# Si number density = 20.084602 Si / 1000 Ang^3
#
#
#
# Elastic Constant Matrix: (Units=GPa)
#
#
# Indices 1 2 3 4 5 6 
#
# 1 168.7587 17.8398 71.2714 0.0000 5.6319 0.0000
# 2 17.8398 49.1142 18.3692 0.0000 -3.8332 0.0000
# 3 71.2714 18.3692 144.4679 0.0000 -0.7577 0.0000
# 4 0.0000 0.0000 0.0000 31.0975 0.0000 -1.3792
# 5 5.6319 -3.8332 -0.7577 0.0000 32.9512 0.0000
# 6 0.0000 0.0000 0.0000 -1.3792 0.0000 30.8763
#
#
#
# Elastic Compliance Matrix: (Units=1/GPa)
#
#
# Indices 1 2 3 4 5 6 
#
# 1 0.007659 -0.001563 -0.003588 0.000000 -0.001573 0.000000
# 2 -0.001563 0.021892 -0.001998 0.000000 0.002768 0.000000
# 3 -0.003588 -0.001998 0.008949 0.000000 0.000587 0.000000
# 4 0.000000 0.000000 0.000000 0.032221 0.000000 0.001439
# 5 -0.001573 0.002768 0.000587 0.000000 0.030952 0.000000
# 6 0.000000 0.000000 0.000000 0.001439 0.000000 0.032452
#
#
# Mechanical properties :
#
#
# Convention : Reuss Voigt Hill
#
# Bulk Modulus (GPa) = 41.31876 64.14462 52.73169
# Shear Modulus (GPa) = 31.95125 35.97570 33.96347
#
# Velocity S-wave (km/s) = 3.99285 4.23686 4.11666
# Velocity P-wave (km/s) = 6.47103 7.47938 6.99340
#
# Compressibility (1/GPa) = 0.02420208
#
# Stress axis : x y z
#
# Youngs Moduli (GPa) = 130.57306 45.67953 111.74339
#
# Poissons Ratio (x) = 0.07139 0.40091
# Poissons Ratio (y) = 0.20405 0.22327
# Poissons Ratio (z) = 0.46847 0.09127
#
# Static dielectric constant tensor:
#      x y z
#    x 3.881520 0.000000 -0.025420 
#    y 0.000000 3.569130 0.000000 
#    z -0.025420 0.000000 3.875410 
# 
# 
# High freq. dielectric constant tensor:
#      x y z
#    x 1.797730 0.000000 -0.005060 
#    y 0.000000 1.774720 0.000000 
#    z -0.005060 0.000000 1.794120 
# 
# From -- ./inp_files/25755.got.cif
#   From: 2010.06.25/outbox.cif.g09.slc.cpg/sg11_13_cif.got.tgz:25755.got - 2010.06.27 23:14:04.
