data_PCOD8073617
_publ_section_title
;
Structure prediction by ZEFSAII (Michael W. Deem and Ramdas Pophale) SiO2 
 PCOD8073617
Probable space group: P 21/M
;
_chemical_formula_sum "Si O2"
_cell_formula_units_Z 32
_cell_length_a 26.554646
_cell_length_b 9.270376
_cell_length_c 20.881229
_cell_angle_alpha 90.000000
_cell_angle_beta 160.747428
_cell_angle_gamma 90.000000
_cell_volume 1694.947959
_symmetry_space_group_name_H-M "P 21/M"
_symmetry_group_IT_number 11
_symmetry_cell_setting 'monoclinic'
loop_
_space_group_symop_operation_xyz
x,y,z
-x,1/2+y,-z
-x,-y,-z
x,1/2-y,z
loop_
_atom_site_type_symbol
_atom_site_label
_atom_site_fract_x
_atom_site_fract_y
_atom_site_fract_z
Si Si1 0.037317 0.415750 0.859915
Si Si2 0.844909 0.090886 0.354288
Si Si3 0.818937 0.579854 0.208579
Si Si4 0.605109 0.092376 0.169531
Si Si5 0.402651 0.418970 0.583097
Si Si6 0.060601 0.080149 0.134558
Si Si7 0.297006 0.079083 0.070369
Si Si8 0.696230 0.416626 0.415117
O O1 0.062106 0.250000 0.911517
O O2 0.170972 0.465259 0.971999
O O3 0.031877 0.516805 0.915890
O O4 0.878180 0.433577 0.631981
O O5 0.865268 0.250000 0.348520
O O6 0.765929 0.102131 0.327706
O O7 0.007989 0.025554 0.571640
O O8 0.743774 0.996405 0.181259
O O9 0.797504 0.750000 0.187163
O O10 0.756117 0.526283 0.064351
O O11 0.531471 0.250000 0.089324
O O12 0.632602 0.024668 0.271935
O O13 0.500000 0.000000 0.000000
O O14 0.437653 0.250000 0.627803
O O15 0.242439 0.450789 0.355235
O O16 0.389095 0.482184 0.637574
O O17 0.545103 0.499593 0.720234
O O18 0.026931 0.250000 0.090465
O O19 0.000000 0.000000 0.000000
O O20 0.323206 0.250000 0.102469
O O21 0.651561 0.250000 0.375032
#
# Coordination Sequence:
#
# PCOD8073617 Si02
#       8
#     4   4   4   4   4   4   4   4
#     4   9  18  35  60  86 110 142 184 225 267 319
#     4   9  18  33  48  67  95 130 174 223 277 325
#     4   9  18  32  51  71  96 132 175 221 266 321
#     4  10  21  33  47  68  97 133 176 225 275 323
#     4  10  22  37  55  83 116 145 178 223 272 322
#     4  10  21  39  63  89 116 147 181 217 260 316
#     4  10  20  34  55  82 111 144 183 225 271 324
#     4   9  18  35  56  75 101 142 187 229 276 331
#
# _framework density 18.879635
#
# number of rings (size 3 to 8) (size 9 to 14) (size 15 to 20)
#    0.000    2.500    0.000    1.500    1.750    6.500 
#    0.000    0.625    0.000    7.500    0.000    0.000 
#    0.000    0.000    0.000    0.000    0.000    0.000 
#
# Total GULP energy -396579.007135 kJ/mol
# GULP energy per Si atom -12393.093973 kJ/mol
# Density = 1.883666 g / cm^3
# Si number density = 18.879635 Si / 1000 Ang^3
#
#
#
# Elastic Constant Matrix: (Units=GPa)
#
#
# Indices 1 2 3 4 5 6 
#
# 1 92.9940 49.8267 63.5606 0.0000 -11.3228 0.0000
# 2 49.8267 75.6148 50.5760 0.0000 -8.4170 0.0000
# 3 63.5606 50.5760 94.3701 0.0000 -6.2548 0.0000
# 4 0.0000 0.0000 0.0000 31.1117 0.0000 -1.0249
# 5 -11.3228 -8.4170 -6.2548 0.0000 36.7406 0.0000
# 6 0.0000 0.0000 0.0000 -1.0249 0.0000 30.8980
#
#
#
# Elastic Compliance Matrix: (Units=1/GPa)
#
#
# Indices 1 2 3 4 5 6 
#
# 1 0.022610 -0.006986 -0.011255 0.000000 0.003451 0.000000
# 2 -0.006986 0.023078 -0.007540 0.000000 0.001850 0.000000
# 3 -0.011255 -0.007540 0.022123 0.000000 -0.001430 0.000000
# 4 0.000000 0.000000 0.000000 0.032177 0.000000 0.001067
# 5 0.003451 0.001850 -0.001430 0.000000 0.028462 0.000000
# 6 0.000000 0.000000 0.000000 0.001067 0.000000 0.032400
#
#
# Mechanical properties :
#
#
# Convention : Reuss Voigt Hill
#
# Bulk Modulus (GPa) = 61.54706 65.65615 63.60161
# Shear Modulus (GPa) = 22.95368 26.35109 24.65239
#
# Velocity S-wave (km/s) = 3.49060 3.74002 3.61746
# Velocity P-wave (km/s) = 6.99401 7.31450 7.15605
#
# Compressibility (1/GPa) = 0.01624773
#
# Stress axis : x y z
#
# Youngs Moduli (GPa) = 44.22845 43.33161 45.20086
#
# Poissons Ratio (x) = 0.30273 0.50875
# Poissons Ratio (y) = 0.30900 0.34081
# Poissons Ratio (z) = 0.49781 0.32672
#
# Static dielectric constant tensor:
#      x y z
#    x 3.997970 0.000000 0.186800 
#    y 0.000000 3.445400 0.000000 
#    z 0.186800 0.000000 3.535680 
# 
# 
# High freq. dielectric constant tensor:
#      x y z
#    x 1.731480 0.000000 0.006600 
#    y 0.000000 1.727040 0.000000 
#    z 0.006600 0.000000 1.730070 
# 
# From -- ./inp_files/67232.got.cif
#   From: 2010.06.25/outbox.cif.g09.slc.cpg/sg11_34_cif.got.tgz:67232.got - 2010.06.27 23:14:04.
