data_PCOD8073257
_publ_section_title
;
Structure prediction by ZEFSAII (Michael W. Deem and Ramdas Pophale) SiO2 
 PCOD8073257
Probable space group: P 21/M
;
_chemical_formula_sum "Si O2"
_cell_formula_units_Z 28
_cell_length_a 15.945853
_cell_length_b 16.164865
_cell_length_c 9.793498
_cell_angle_alpha 90.000000
_cell_angle_beta 34.853560
_cell_angle_gamma 90.000000
_cell_volume 1442.644810
_symmetry_space_group_name_H-M "P 21/M"
_symmetry_group_IT_number 11
_symmetry_cell_setting 'monoclinic'
loop_
_space_group_symop_operation_xyz
x,y,z
-x,1/2+y,-z
-x,-y,-z
x,1/2-y,z
loop_
_atom_site_type_symbol
_atom_site_label
_atom_site_fract_x
_atom_site_fract_y
_atom_site_fract_z
Si Si1 0.280460 0.159533 0.358929
Si Si2 0.982622 0.622538 0.472186
Si Si3 0.776394 0.481626 0.436820
Si Si4 0.571539 0.412204 0.921353
Si Si5 0.942909 0.540425 0.789917
Si Si6 0.665728 0.030682 0.283361
Si Si7 0.703525 0.340454 0.010440
O O1 0.271242 0.250000 0.447432
O O2 0.162129 0.163037 0.396974
O O3 0.257923 0.079610 0.488314
O O4 0.442162 0.154616 0.072663
O O5 0.959108 0.619242 0.668223
O O6 0.005414 0.534177 0.373559
O O7 0.125204 0.676171 0.247059
O O8 0.700780 0.413611 0.637758
O O9 0.721119 0.457894 0.362262
O O10 0.949527 0.460622 0.221736
O O11 0.638242 0.401233 0.983166
O O12 0.500000 0.500000 0.000000
O O13 0.774354 0.534065 0.063266
O O14 0.500000 0.000000 0.500000
O O15 0.676075 0.119022 0.194641
O O16 0.626921 0.250000 0.110457
#
# Coordination Sequence:
#
# PCOD8073257 Si02
#       7
#     4   4   4   4   4   4   4
#     4  10  20  33  56  87 118 149 192 250 303 343
#     4   9  18  33  60  87 112 146 197 246 290 339
#     4  10  20  37  57  85 116 155 201 239 286 354
#     4  10  20  34  58  85 113 149 198 242 285 347
#     4   9  18  34  58  84 114 151 196 243 281 342
#     4  11  23  35  59  90 119 159 200 238 288 359
#     4  11  22  40  62  86 117 155 197 247 301 350
#
# _framework density 19.408795999999999
#
# number of rings (size 3 to 8) (size 9 to 14) (size 15 to 20)
#    0.000    2.000    1.429    3.000    8.000    0.000 
#    0.000    1.429    0.000    1.714    0.000    0.000 
#    0.000    0.000    0.000    0.000    0.000    0.000 
#
# Total GULP energy -346884.285864 kJ/mol
# GULP energy per Si atom -12388.724495 kJ/mol
# Density = 1.936462 g / cm^3
# Si number density = 19.408796 Si / 1000 Ang^3
#
#
#
# Elastic Constant Matrix: (Units=GPa)
#
#
# Indices 1 2 3 4 5 6 
#
# 1 153.0290 46.0010 56.8490 0.0000 2.5277 0.0000
# 2 46.0010 85.1187 34.0707 0.0000 12.4431 0.0000
# 3 56.8490 34.0707 97.3105 0.0000 -10.8516 0.0000
# 4 0.0000 0.0000 0.0000 6.0816 0.0000 4.6698
# 5 2.5277 12.4431 -10.8516 0.0000 44.1388 0.0000
# 6 0.0000 0.0000 0.0000 4.6698 0.0000 2.3836
#
#
#
# Elastic Compliance Matrix: (Units=1/GPa)
#
#
# Indices 1 2 3 4 5 6 
#
# 1 0.009068 -0.003076 -0.004300 0.000000 -0.000709 0.000000
# 2 -0.003076 0.015959 -0.004393 0.000000 -0.005403 0.000000
# 3 -0.004300 -0.004393 0.014901 0.000000 0.005148 0.000000
# 4 0.000000 0.000000 0.000000 -0.326009 0.000000 0.638710
# 5 -0.000709 -0.005403 0.005148 0.000000 0.025485 0.000000
# 6 0.000000 0.000000 0.000000 0.638710 0.000000 -0.831806
#
#
# Mechanical properties :
#
#
# Convention : Reuss Voigt Hill
#
# Bulk Modulus (GPa) = 61.01305 67.69995 64.35650
# Shear Modulus (GPa) = -4.70190 23.75663 9.52737
#
# Velocity S-wave (km/s) = -1.55815 3.50239 2.21798
# Velocity P-wave (km/s) = 5.31666 7.16327 6.30790
#
# Compressibility (1/GPa) = 0.01638994
#
# Stress axis : x y z
#
# Youngs Moduli (GPa) = 110.27190 62.66079 67.11142
#
# Poissons Ratio (x) = 0.19275 0.28857
# Poissons Ratio (y) = 0.33921 0.29482
# Poissons Ratio (z) = 0.47416 0.27527
#
# Static dielectric constant tensor:
#      x y z
#    x 3.752250 0.000000 -0.311980 
#    y 0.000000 3.184310 0.000000 
#    z -0.311980 0.000000 3.951530 
# 
# 
# High freq. dielectric constant tensor:
#      x y z
#    x 1.768670 0.000000 -0.023450 
#    y 0.000000 1.728900 0.000000 
#    z -0.023450 0.000000 1.746720 
# 
# From -- ./inp_files/22689.got.cif
#   From: 2010.06.25/outbox.cif.g09.slc.cpg/sg11_12_cif.got.tgz:22689.got - 2010.06.27 23:14:04.
