data_PCOD8073029
_publ_section_title
;
Structure prediction by ZEFSAII (Michael W. Deem and Ramdas Pophale) SiO2 
 PCOD8073029
Probable space group: P 21/M
;
_chemical_formula_sum "Si O2"
_cell_formula_units_Z 32
_cell_length_a 21.802337
_cell_length_b 8.827136
_cell_length_c 11.530373
_cell_angle_alpha 90.000000
_cell_angle_beta 54.318297
_cell_angle_gamma 90.000000
_cell_volume 1802.463787
_symmetry_space_group_name_H-M "P 21/M"
_symmetry_group_IT_number 11
_symmetry_cell_setting 'monoclinic'
loop_
_space_group_symop_operation_xyz
x,y,z
-x,1/2+y,-z
-x,-y,-z
x,1/2-y,z
loop_
_atom_site_type_symbol
_atom_site_label
_atom_site_fract_x
_atom_site_fract_y
_atom_site_fract_z
Si Si1 0.412665 0.417366 0.212944
Si Si2 0.995392 0.075937 0.629147
Si Si3 0.877565 0.072355 0.360365
Si Si4 0.444137 0.417285 0.907228
Si Si5 0.277902 0.429893 0.063827
Si Si6 0.082568 0.429070 0.913662
Si Si7 0.850136 0.423594 0.936777
Si Si8 0.264680 0.926639 0.324538
O O1 0.392686 0.250000 0.281312
O O2 0.484912 0.478038 0.205889
O O3 0.340452 0.525403 0.309442
O O4 0.434996 0.410824 0.054846
O O5 0.021723 0.250000 0.592036
O O6 0.909667 0.063677 0.766724
O O7 0.000000 0.000000 0.500000
O O8 0.047333 0.987162 0.661345
O O9 0.886580 0.250000 0.329118
O O10 0.805315 0.033352 0.516937
O O11 0.867949 0.989069 0.248319
O O12 0.461463 0.250000 0.839975
O O13 0.364959 0.477387 0.942190
O O14 0.267062 0.250000 0.068426
O O15 0.229255 0.513570 0.020651
O O16 0.253377 0.480903 0.219061
O O17 0.074412 0.250000 0.915395
O O18 0.124808 0.474769 0.983703
O O19 0.000000 0.500000 0.000000
O O20 0.841150 0.250000 0.987125
O O21 0.268761 0.750000 0.289374
#
# Coordination Sequence:
#
# PCOD8073029 Si02
#       8
#     4   4   4   4   4   4   4   4
#     4   9  16  26  44  70 100 137 176 212 253 304
#     4  11  23  36  53  76 105 139 173 211 259 313
#     4  11  23  38  56  77 103 136 176 218 263 312
#     4   8  15  27  43  67 101 138 174 210 252 304
#     4  10  20  33  51  77 108 142 177 216 261 309
#     4  12  24  40  61  80 100 131 173 222 268 310
#     4  11  23  38  55  77 104 137 175 215 263 311
#     4  10  20  33  50  75 108 143 175 213 262 313
#
# _framework density 17.753478000000001
#
# number of rings (size 3 to 8) (size 9 to 14) (size 15 to 20)
#    0.000    1.750    1.250    4.875    0.000   10.000 
#    0.000    0.000    0.000    0.000    0.000    0.875 
#    0.000    0.000    0.000    0.000    0.000    0.000 
#
# Total GULP energy -396842.161491 kJ/mol
# GULP energy per Si atom -12401.317547 kJ/mol
# Density = 1.771307 g / cm^3
# Si number density = 17.753478 Si / 1000 Ang^3
#
#
#
# Elastic Constant Matrix: (Units=GPa)
#
#
# Indices 1 2 3 4 5 6 
#
# 1 115.0434 40.3587 33.3175 0.0000 -12.7184 0.0000
# 2 40.3587 98.3181 22.7512 0.0000 -3.1782 0.0000
# 3 33.3175 22.7512 28.7986 0.0000 3.1281 0.0000
# 4 0.0000 0.0000 0.0000 26.0070 0.0000 -0.9331
# 5 -12.7184 -3.1782 3.1281 0.0000 28.0477 0.0000
# 6 0.0000 0.0000 0.0000 -0.9331 0.0000 33.2416
#
#
#
# Elastic Compliance Matrix: (Units=1/GPa)
#
#
# Indices 1 2 3 4 5 6 
#
# 1 0.015286 -0.002067 -0.016986 0.000000 0.008592 0.000000
# 2 -0.002067 0.012907 -0.007959 0.000000 0.001413 0.000000
# 3 -0.016986 -0.007959 0.062352 0.000000 -0.015558 0.000000
# 4 0.000000 0.000000 0.000000 0.038490 0.000000 0.001080
# 5 0.008592 0.001413 -0.015558 0.000000 0.041445 0.000000
# 6 0.000000 0.000000 0.000000 0.001080 0.000000 0.030113
#
#
# Mechanical properties :
#
#
# Convention : Reuss Voigt Hill
#
# Bulk Modulus (GPa) = 27.38001 48.33497 37.85749
# Shear Modulus (GPa) = 18.74128 27.17479 22.95804
#
# Velocity S-wave (km/s) = 3.25259 3.91663 3.59995
# Velocity P-wave (km/s) = 5.43706 6.90927 6.21690
#
# Compressibility (1/GPa) = 0.03652300
#
# Stress axis : x y z
#
# Youngs Moduli (GPa) = 65.41751 77.47828 16.03786
#
# Poissons Ratio (x) = 0.16012 0.27241
# Poissons Ratio (y) = 0.13520 0.12765
# Poissons Ratio (z) = 1.11116 0.61665
#
# Static dielectric constant tensor:
#      x y z
#    x 3.455630 0.000000 -0.204550 
#    y 0.000000 3.523790 0.000000 
#    z -0.204550 0.000000 3.116920 
# 
# 
# High freq. dielectric constant tensor:
#      x y z
#    x 1.685220 0.000000 -0.020360 
#    y 0.000000 1.705800 0.000000 
#    z -0.020360 0.000000 1.654070 
# 
# From -- ./inp_files/42756.got.cif
#   From: 2010.06.25/outbox.cif.g09.slc.cpg/sg11_22_cif.got.tgz:42756.got - 2010.06.27 23:14:04.
