data_PCOD8073756
_publ_section_title
;
Structure prediction by ZEFSAII (Michael W. Deem and Ramdas Pophale) SiO2 
 PCOD8073756
Probable space group: P 21/M
;
_chemical_formula_sum "Si O2"
_cell_formula_units_Z 32
_cell_length_a 11.277582
_cell_length_b 9.148850
_cell_length_c 29.382732
_cell_angle_alpha 90.000000
_cell_angle_beta 146.138232
_cell_angle_gamma 90.000000
_cell_volume 1689.191455
_symmetry_space_group_name_H-M "P 21/M"
_symmetry_group_IT_number 11
_symmetry_cell_setting 'monoclinic'
loop_
_space_group_symop_operation_xyz
x,y,z
-x,1/2+y,-z
-x,-y,-z
x,1/2-y,z
loop_
_atom_site_type_symbol
_atom_site_label
_atom_site_fract_x
_atom_site_fract_y
_atom_site_fract_z
Si Si1 0.439152 0.417951 0.755489
Si Si2 0.805256 0.913832 0.492430
Si Si3 0.926227 0.082624 0.932366
Si Si4 0.287672 0.919393 0.446738
Si Si5 0.705838 0.086558 0.377121
Si Si6 0.774692 0.579282 0.052424
Si Si7 0.293146 0.921001 0.878474
Si Si8 0.135878 0.418310 0.740056
O O1 0.387746 0.250000 0.726622
O O2 0.676495 0.439241 0.848440
O O3 0.415175 0.514812 0.703347
O O4 0.280436 0.473592 0.744168
O O5 0.716580 0.750000 0.473304
O O6 0.044932 0.905836 0.552180
O O7 0.802249 0.010509 0.536310
O O8 0.660346 0.990472 0.407654
O O9 0.990752 0.250000 0.959494
O O10 0.048568 0.022967 0.926831
O O11 0.000000 0.000000 0.000000
O O12 0.336442 0.750000 0.471342
O O13 0.111658 0.938320 0.351320
O O14 0.500000 0.000000 0.500000
O O15 0.615673 0.250000 0.355807
O O16 0.798436 0.750000 0.071139
O O17 0.814449 0.492358 0.111593
O O18 0.544009 0.543331 0.957722
O O19 0.247886 0.750000 0.865480
O O20 0.183981 0.985056 0.799046
O O21 0.190416 0.250000 0.768368
#
# Coordination Sequence:
#
# PCOD8073756 Si02
#       8
#     4   4   4   4   4   4   4   4
#     4  10  20  36  57  83 113 148 189 232 283 341
#     4  10  20  36  59  84 112 146 186 231 284 342
#     4  10  21  36  57  84 116 152 184 227 281 334
#     4  11  23  40  60  83 113 149 189 235 288 341
#     4  10  20  34  57  86 113 146 186 234 284 333
#     4   9  19  37  56  80 115 150 187 228 278 332
#     4  10  20  34  58  85 109 146 192 235 275 323
#     4  10  21  37  58  82 111 145 184 229 281 339
#
# _framework density 18.943974000000001
#
# number of rings (size 3 to 8) (size 9 to 14) (size 15 to 20)
#    0.000    2.000    1.250    2.250    0.000    4.000 
#    2.250    0.000    0.000    0.000    0.000    0.000 
#    0.000    0.000    0.000    0.000    0.000    0.000 
#
# Total GULP energy -396908.128982 kJ/mol
# GULP energy per Si atom -12403.379031 kJ/mol
# Density = 1.890086 g / cm^3
# Si number density = 18.943974 Si / 1000 Ang^3
#
#
#
# Elastic Constant Matrix: (Units=GPa)
#
#
# Indices 1 2 3 4 5 6 
#
# 1 74.6628 43.4397 37.8626 0.0000 -8.3448 0.0000
# 2 43.4397 117.5729 55.9971 0.0000 -20.3210 0.0000
# 3 37.8626 55.9971 82.2941 0.0000 -19.1844 0.0000
# 4 0.0000 0.0000 0.0000 34.6299 0.0000 -7.7957
# 5 -8.3448 -20.3210 -19.1844 0.0000 36.9291 0.0000
# 6 0.0000 0.0000 0.0000 -7.7957 0.0000 33.7568
#
#
#
# Elastic Compliance Matrix: (Units=1/GPa)
#
#
# Indices 1 2 3 4 5 6 
#
# 1 0.018807 -0.004297 -0.006018 0.000000 -0.001241 0.000000
# 2 -0.004297 0.013828 -0.006696 0.000000 0.003160 0.000000
# 3 -0.006018 -0.006696 0.020822 0.000000 0.005773 0.000000
# 4 0.000000 0.000000 0.000000 0.030460 0.000000 0.007034
# 5 -0.001241 0.003160 0.005773 0.000000 0.031536 0.000000
# 6 0.000000 0.000000 0.000000 0.007034 0.000000 0.031248
#
#
# Mechanical properties :
#
#
# Convention : Reuss Voigt Hill
#
# Bulk Modulus (GPa) = 51.45256 61.01429 56.23342
# Shear Modulus (GPa) = 26.70910 30.21183 28.46046
#
# Velocity S-wave (km/s) = 3.75894 3.99783 3.88022
# Velocity P-wave (km/s) = 6.78666 7.32037 7.05856
#
# Compressibility (1/GPa) = 0.01943538
#
# Stress axis : x y z
#
# Youngs Moduli (GPa) = 53.17260 72.31679 48.02498
#
# Poissons Ratio (x) = 0.31071 0.28904
# Poissons Ratio (y) = 0.22846 0.32157
# Poissons Ratio (z) = 0.32002 0.48423
#
# Static dielectric constant tensor:
#      x y z
#    x 7.381880 0.000000 2.328680 
#    y 0.000000 3.615960 0.000000 
#    z 2.328680 0.000000 4.886480 
# 
# 
# High freq. dielectric constant tensor:
#      x y z
#    x 1.734600 0.000000 -0.010660 
#    y 0.000000 1.742840 0.000000 
#    z -0.010660 0.000000 1.732220 
# 
# From -- ./inp_files/73166.got.cif
#   From: 2010.06.25/outbox.cif.g09.slc.cpg/sg11_37_cif.got.tgz:73166.got - 2010.06.27 23:14:04.
