data_PCOD8073416
_publ_section_title
;
Structure prediction by ZEFSAII (Michael W. Deem and Ramdas Pophale) SiO2 
 PCOD8073416
Probable space group: P 21/M
;
_chemical_formula_sum "Si O2"
_cell_formula_units_Z 32
_cell_length_a 16.027360
_cell_length_b 9.006834
_cell_length_c 25.964577
_cell_angle_alpha 90.000000
_cell_angle_beta 151.928285
_cell_angle_gamma 90.000000
_cell_volume 1763.784399
_symmetry_space_group_name_H-M "P 21/M"
_symmetry_group_IT_number 11
_symmetry_cell_setting 'monoclinic'
loop_
_space_group_symop_operation_xyz
x,y,z
-x,1/2+y,-z
-x,-y,-z
x,1/2-y,z
loop_
_atom_site_type_symbol
_atom_site_label
_atom_site_fract_x
_atom_site_fract_y
_atom_site_fract_z
Si Si1 0.260530 0.078484 0.912851
Si Si2 0.234104 0.424251 0.587942
Si Si3 0.925315 0.077160 0.909006
Si Si4 0.586559 0.923458 0.595884
Si Si5 0.163821 0.924010 0.651102
Si Si6 0.987890 0.576011 0.838830
Si Si7 0.668214 0.421669 0.151222
Si Si8 0.523316 0.422281 0.664654
O O1 0.203103 0.250000 0.883395
O O2 0.132144 0.981811 0.877751
O O3 0.246401 0.020858 0.846885
O O4 0.458432 0.054758 0.041465
O O5 0.250810 0.250000 0.605063
O O6 0.269802 0.499108 0.662425
O O7 0.380296 0.482074 0.627537
O O8 0.042041 0.470701 0.461717
O O9 0.973469 0.250000 0.936376
O O10 0.715472 0.049414 0.793526
O O11 0.016603 0.005934 0.908684
O O12 0.000000 0.000000 0.000000
O O13 0.549133 0.750000 0.572389
O O14 0.795190 0.960239 0.710515
O O15 0.500000 0.000000 0.500000
O O16 0.494238 0.986079 0.596782
O O17 0.189010 0.750000 0.658055
O O18 0.246175 0.979284 0.749374
O O19 0.013571 0.750000 0.862076
O O20 0.714735 0.250000 0.165489
O O21 0.493095 0.250000 0.635030
#
# Coordination Sequence:
#
# PCOD8073416 Si02
#       8
#     4   4   4   4   4   4   4   4
#     4  10  20  34  53  77 104 135 172 214 257 302
#     4   9  18  33  52  74 100 130 165 205 250 297
#     4  10  20  35  54  76 104 136 172 215 260 308
#     4  10  21  36  55  78 104 135 170 211 258 309
#     4   9  18  33  52  73 100 133 167 204 246 297
#     4  10  21  37  55  76 104 138 174 212 258 310
#     4   9  19  35  52  74 105 138 171 208 255 308
#     4   9  19  35  53  75 104 136 171 212 255 303
#
# _framework density 18.142807999999999
#
# number of rings (size 3 to 8) (size 9 to 14) (size 15 to 20)
#    0.000    2.500    0.000    1.500    0.000    5.500 
#    0.000    5.000    0.000    0.000    0.000    0.000 
#    0.000    0.000    0.000    0.000    0.000    0.000 
#
# Total GULP energy -396919.609929 kJ/mol
# GULP energy per Si atom -12403.737810 kJ/mol
# Density = 1.810151 g / cm^3
# Si number density = 18.142808 Si / 1000 Ang^3
#
#
#
# Elastic Constant Matrix: (Units=GPa)
#
#
# Indices 1 2 3 4 5 6 
#
# 1 155.6245 62.1379 75.3097 0.0000 -9.1216 0.0000
# 2 62.1379 81.6777 49.7878 0.0000 -12.8107 0.0000
# 3 75.3097 49.7878 93.9930 0.0000 -29.9411 0.0000
# 4 0.0000 0.0000 0.0000 29.0009 0.0000 -4.8439
# 5 -9.1216 -12.8107 -29.9411 0.0000 34.1519 0.0000
# 6 0.0000 0.0000 0.0000 -4.8439 0.0000 39.6192
#
#
#
# Elastic Compliance Matrix: (Units=1/GPa)
#
#
# Indices 1 2 3 4 5 6 
#
# 1 0.012703 -0.004719 -0.009936 0.000000 -0.007088 0.000000
# 2 -0.004719 0.019959 -0.006671 0.000000 0.000378 0.000000
# 3 -0.009936 -0.006671 0.028431 0.000000 0.019770 0.000000
# 4 0.000000 0.000000 0.000000 0.035200 0.000000 0.004304
# 5 -0.007088 0.000378 0.019770 0.000000 0.044862 0.000000
# 6 0.000000 0.000000 0.000000 0.004304 0.000000 0.025766
#
#
# Mechanical properties :
#
#
# Convention : Reuss Voigt Hill
#
# Bulk Modulus (GPa) = 54.22669 78.41845 66.32257
# Shear Modulus (GPa) = 23.17819 30.15839 26.66829
#
# Velocity S-wave (km/s) = 3.57815 4.08153 3.83810
# Velocity P-wave (km/s) = 6.85745 8.09497 7.50177
#
# Compressibility (1/GPa) = 0.01844110
#
# Stress axis : x y z
#
# Youngs Moduli (GPa) = 78.72337 50.10320 35.17258
#
# Poissons Ratio (x) = 0.23643 0.34948
# Poissons Ratio (y) = 0.37149 0.23463
# Poissons Ratio (z) = 0.78221 0.33423
#
# Static dielectric constant tensor:
#      x y z
#    x 3.446150 0.000000 -0.031770 
#    y 0.000000 3.117000 0.000000 
#    z -0.031770 0.000000 3.361990 
# 
# 
# High freq. dielectric constant tensor:
#      x y z
#    x 1.710360 0.000000 -0.004740 
#    y 0.000000 1.707810 0.000000 
#    z -0.004740 0.000000 1.699320 
# 
# From -- ./inp_files/69009.got.cif
#   From: 2010.06.25/outbox.cif.g09.slc.cpg/sg11_35_cif.got.tgz:69009.got - 2010.06.27 23:14:04.
