data_PCOD8073322
_publ_section_title
;
Structure prediction by ZEFSAII (Michael W. Deem and Ramdas Pophale) SiO2 
 PCOD8073322
Probable space group: P 21/M
;
_chemical_formula_sum "Si O2"
_cell_formula_units_Z 32
_cell_length_a 15.387189
_cell_length_b 8.999837
_cell_length_c 22.895963
_cell_angle_alpha 90.000000
_cell_angle_beta 30.758917
_cell_angle_gamma 90.000000
_cell_volume 1621.572440
_symmetry_space_group_name_H-M "P 21/M"
_symmetry_group_IT_number 11
_symmetry_cell_setting 'monoclinic'
loop_
_space_group_symop_operation_xyz
x,y,z
-x,1/2+y,-z
-x,-y,-z
x,1/2-y,z
loop_
_atom_site_type_symbol
_atom_site_label
_atom_site_fract_x
_atom_site_fract_y
_atom_site_fract_z
Si Si1 0.683390 0.923991 0.565011
Si Si2 0.032841 0.573382 0.418416
Si Si3 0.401038 0.083010 0.791771
Si Si4 0.475688 0.575116 0.575357
Si Si5 0.144154 0.081007 0.034927
Si Si6 0.333276 0.420133 0.038042
Si Si7 0.680033 0.923589 0.822687
Si Si8 0.185104 0.420268 0.805618
O O1 0.662711 0.750000 0.577091
O O2 0.616545 0.984804 0.540832
O O3 0.876840 0.971214 0.465626
O O4 0.563341 0.980810 0.686553
O O5 0.046974 0.750000 0.418380
O O6 0.203519 0.512964 0.290046
O O7 0.000000 0.500000 0.500000
O O8 0.469762 0.250000 0.746708
O O9 0.325376 0.049947 0.899188
O O10 0.246213 0.055313 0.836343
O O11 0.500000 0.500000 0.500000
O O12 0.487259 0.750000 0.560979
O O13 0.289244 0.529378 0.703729
O O14 0.084721 0.250000 0.055914
O O15 0.174208 0.056307 0.086519
O O16 0.010456 0.964727 0.087056
O O17 0.399284 0.250000 0.998029
O O18 0.264745 0.459180 0.142352
O O19 0.485169 0.526223 0.929424
O O20 0.695367 0.750000 0.798979
O O21 0.208891 0.250000 0.771942
#
# Coordination Sequence:
#
# PCOD8073322 Si02
#       8
#     4   4   4   4   4   4   4   4
#     4   9  21  39  57  81 113 148 188 231 283 340
#     4  11  24  41  61  87 117 151 193 242 294 349
#     4   9  19  34  54  79 112 149 185 226 276 330
#     4  10  20  37  59  82 111 148 186 231 280 334
#     4  10  20  34  54  82 111 144 187 230 277 329
#     4   9  20  38  59  84 114 150 191 236 289 342
#     4  10  21  39  60  83 114 150 189 235 289 346
#     4  10  20  34  51  78 112 147 186 226 272 328
#
# _framework density 19.733931999999999
#
# number of rings (size 3 to 8) (size 9 to 14) (size 15 to 20)
#    0.000    2.250    0.000    1.875    1.750    4.500 
#    0.000    2.500    0.000    0.000    0.000    0.000 
#    0.000    0.000    0.000    0.000    0.000    0.000 
#
# Total GULP energy -396795.460873 kJ/mol
# GULP energy per Si atom -12399.858152 kJ/mol
# Density = 1.968902 g / cm^3
# Si number density = 19.733932 Si / 1000 Ang^3
#
#
#
# Elastic Constant Matrix: (Units=GPa)
#
#
# Indices 1 2 3 4 5 6 
#
# 1 66.6527 35.5257 30.6823 0.0000 11.6392 0.0000
# 2 35.5257 62.6954 32.0167 0.0000 1.2378 0.0000
# 3 30.6823 32.0167 80.5116 0.0000 10.1792 0.0000
# 4 0.0000 0.0000 0.0000 37.7621 0.0000 1.2721
# 5 11.6392 1.2378 10.1792 0.0000 29.8506 0.0000
# 6 0.0000 0.0000 0.0000 1.2721 0.0000 26.6663
#
#
#
# Elastic Compliance Matrix: (Units=1/GPa)
#
#
# Indices 1 2 3 4 5 6 
#
# 1 0.024287 -0.011774 -0.003593 0.000000 -0.007757 0.000000
# 2 -0.011774 0.025834 -0.006512 0.000000 0.005740 0.000000
# 3 -0.003593 -0.006512 0.016897 0.000000 -0.004091 0.000000
# 4 0.000000 0.000000 0.000000 0.026524 0.000000 -0.001265
# 5 -0.007757 0.005740 -0.004091 0.000000 0.037682 0.000000
# 6 0.000000 0.000000 0.000000 -0.001265 0.000000 0.037561
#
#
# Mechanical properties :
#
#
# Convention : Reuss Voigt Hill
#
# Bulk Modulus (GPa) = 42.99269 45.14547 44.06908
# Shear Modulus (GPa) = 22.69678 26.29812 24.49745
#
# Velocity S-wave (km/s) = 3.39505 3.65449 3.52715
# Velocity P-wave (km/s) = 6.09934 6.38230 6.24242
#
# Compressibility (1/GPa) = 0.02325977
#
# Stress axis : x y z
#
# Youngs Moduli (GPa) = 41.17412 38.70864 59.18361
#
# Poissons Ratio (x) = 0.45576 0.21263
# Poissons Ratio (y) = 0.48479 0.38541
# Poissons Ratio (z) = 0.14793 0.25207
#
# Static dielectric constant tensor:
#      x y z
#    x 3.827880 0.000000 0.010820 
#    y 0.000000 2.951400 0.000000 
#    z 0.010820 0.000000 4.401250 
# 
# 
# High freq. dielectric constant tensor:
#      x y z
#    x 1.775540 0.000000 0.005270 
#    y 0.000000 1.770390 0.000000 
#    z 0.005270 0.000000 1.758490 
# 
# From -- ./inp_files/69003.got.cif
#   From: 2010.06.25/outbox.cif.g09.slc.cpg/sg11_35_cif.got.tgz:69003.got - 2010.06.27 23:14:04.
