data_PCOD8073063
_publ_section_title
;
Structure prediction by ZEFSAII (Michael W. Deem and Ramdas Pophale) SiO2 
 PCOD8073063
Probable space group: P 21/M
;
_chemical_formula_sum "Si O2"
_cell_formula_units_Z 32
_cell_length_a 21.210371
_cell_length_b 9.111726
_cell_length_c 21.231193
_cell_angle_alpha 90.000000
_cell_angle_beta 26.311648
_cell_angle_gamma 90.000000
_cell_volume 1818.760122
_symmetry_space_group_name_H-M "P 21/M"
_symmetry_group_IT_number 11
_symmetry_cell_setting 'monoclinic'
loop_
_space_group_symop_operation_xyz
x,y,z
-x,1/2+y,-z
-x,-y,-z
x,1/2-y,z
loop_
_atom_site_type_symbol
_atom_site_label
_atom_site_fract_x
_atom_site_fract_y
_atom_site_fract_z
Si Si1 0.213024 0.418243 0.456729
Si Si2 0.690063 0.421345 0.880312
Si Si3 0.056756 0.422449 0.887639
Si Si4 0.005004 0.581441 0.814131
Si Si5 0.724385 0.915851 0.464361
Si Si6 0.381032 0.083958 0.568993
Si Si7 0.925488 0.921365 0.749267
Si Si8 0.635119 0.920891 0.805546
O O1 0.165668 0.250000 0.489716
O O2 0.318182 0.431552 0.423946
O O3 0.300627 0.474605 0.318280
O O4 0.071843 0.512975 0.591655
O O5 0.724629 0.250000 0.846970
O O6 0.793683 0.499407 0.835806
O O7 0.712647 0.487138 0.790534
O O8 0.531890 0.454807 0.046273
O O9 0.033624 0.250000 0.914230
O O10 0.964580 0.481552 0.910530
O O11 0.221911 0.466486 0.730260
O O12 0.000000 0.500000 0.000000
O O13 0.000700 0.750000 0.839418
O O14 0.161783 0.540938 0.650661
O O15 0.905112 0.553415 0.842781
O O16 0.787611 0.750000 0.395945
O O17 0.598321 0.938226 0.525690
O O18 0.403122 0.250000 0.569377
O O19 0.500000 0.000000 0.500000
O O20 0.924890 0.750000 0.733171
O O21 0.663975 0.750000 0.792348
#
# Coordination Sequence:
#
# PCOD8073063 Si02
#       8
#     4   4   4   4   4   4   4   4
#     4   9  17  32  54  75  96 123 159 205 250 291
#     4  10  20  34  52  72  98 134 169 199 240 296
#     4  10  20  34  52  74 100 131 167 206 246 291
#     4   9  17  30  49  72  98 129 163 200 244 291
#     4   8  15  29  48  70  96 126 160 199 244 292
#     4   9  18  31  48  71  99 129 162 199 240 290
#     4  10  20  33  51  76 103 128 160 203 245 289
#     4   9  19  35  53  73  97 127 164 205 248 294
#
# _framework density 17.594404000000001
#
# number of rings (size 3 to 8) (size 9 to 14) (size 15 to 20)
#    0.000    2.750    0.000    2.250    0.000    5.500 
#    0.000    1.250    0.000    1.500    0.000    0.000 
#    0.000    0.000    0.000    0.000    0.000    0.000 
#
# Total GULP energy -396560.619406 kJ/mol
# GULP energy per Si atom -12392.519356 kJ/mol
# Density = 1.755436 g / cm^3
# Si number density = 17.594404 Si / 1000 Ang^3
#
#
#
# Elastic Constant Matrix: (Units=GPa)
#
#
# Indices 1 2 3 4 5 6 
#
# 1 165.1750 76.9475 61.4863 0.0000 10.2682 0.0000
# 2 76.9475 92.0021 43.1757 0.0000 5.6763 0.0000
# 3 61.4863 43.1757 61.6642 0.0000 16.3267 0.0000
# 4 0.0000 0.0000 0.0000 24.8004 0.0000 0.4058
# 5 10.2682 5.6763 16.3267 0.0000 30.4601 0.0000
# 6 0.0000 0.0000 0.0000 0.4058 0.0000 33.4028
#
#
#
# Elastic Compliance Matrix: (Units=1/GPa)
#
#
# Indices 1 2 3 4 5 6 
#
# 1 0.011772 -0.006337 -0.007648 0.000000 0.001312 0.000000
# 2 -0.006337 0.019940 -0.008419 0.000000 0.002933 0.000000
# 3 -0.007648 -0.008419 0.033376 0.000000 -0.013743 0.000000
# 4 0.000000 0.000000 0.000000 0.040330 0.000000 -0.000490
# 5 0.001312 0.002933 -0.013743 0.000000 0.039207 0.000000
# 6 0.000000 0.000000 0.000000 -0.000490 0.000000 0.029944
#
#
# Mechanical properties :
#
#
# Convention : Reuss Voigt Hill
#
# Bulk Modulus (GPa) = 49.31135 75.78448 62.54791
# Shear Modulus (GPa) = 22.11060 26.88144 24.49602
#
# Velocity S-wave (km/s) = 3.54882 3.91300 3.73535
# Velocity P-wave (km/s) = 6.69923 7.97383 7.36416
#
# Compressibility (1/GPa) = 0.02027931
#
# Stress axis : x y z
#
# Youngs Moduli (GPa) = 84.94795 50.15156 29.96174
#
# Poissons Ratio (x) = 0.31783 0.22915
# Poissons Ratio (y) = 0.53835 0.25224
# Poissons Ratio (z) = 0.64968 0.42221
#
# Static dielectric constant tensor:
#      x y z
#    x 3.608150 0.000000 0.225850 
#    y 0.000000 3.373580 0.000000 
#    z 0.225850 0.000000 2.987850 
# 
# 
# High freq. dielectric constant tensor:
#      x y z
#    x 1.697390 0.000000 0.017770 
#    y 0.000000 1.688910 0.000000 
#    z 0.017770 0.000000 1.640070 
# 
# From -- ./inp_files/66407.got.cif
#   From: 2010.06.25/outbox.cif.g09.slc.cpg/sg11_34_cif.got.tgz:66407.got - 2010.06.27 23:14:04.
