data_PCOD8073932
_publ_section_title
;
Structure prediction by ZEFSAII (Michael W. Deem and Ramdas Pophale) SiO2 
 PCOD8073932
Probable space group: P 21/M
;
_chemical_formula_sum "Si O2"
_cell_formula_units_Z 28
_cell_length_a 12.574756
_cell_length_b 8.560210
_cell_length_c 16.089869
_cell_angle_alpha 90.000000
_cell_angle_beta 124.496308
_cell_angle_gamma 90.000000
_cell_volume 1427.412321
_symmetry_space_group_name_H-M "P 21/M"
_symmetry_group_IT_number 11
_symmetry_cell_setting 'monoclinic'
loop_
_space_group_symop_operation_xyz
x,y,z
-x,1/2+y,-z
-x,-y,-z
x,1/2-y,z
loop_
_atom_site_type_symbol
_atom_site_label
_atom_site_fract_x
_atom_site_fract_y
_atom_site_fract_z
Si Si1 0.223344 0.569261 0.793373
Si Si2 0.325036 0.432179 0.002233
Si Si3 0.294666 0.432013 0.402096
Si Si4 0.551511 0.069165 0.223309
Si Si5 0.507811 0.068582 0.627831
Si Si6 0.026287 0.568590 0.255094
Si Si7 0.927419 0.433208 0.045923
O O1 0.186075 0.750000 0.784004
O O2 0.313750 0.527421 0.911786
O O3 0.303242 0.535761 0.744474
O O4 0.090972 0.470292 0.733491
O O5 0.318323 0.250000 0.977954
O O6 0.208487 0.478295 0.011340
O O7 0.456316 0.478535 0.106544
O O8 0.262707 0.250000 0.388312
O O9 0.365571 0.475745 0.346969
O O10 0.384905 0.482920 0.518777
O O11 0.162580 0.526542 0.356454
O O12 0.532442 0.250000 0.238745
O O13 0.522159 0.965270 0.289983
O O14 0.537359 0.250000 0.628733
O O15 0.021143 0.750000 0.229940
O O16 0.010367 0.466891 0.164993
O O17 0.904364 0.250000 0.026181
O O18 0.000000 0.500000 0.000000
#
# Coordination Sequence:
#
# PCOD8073932 Si02
#       7
#     4   4   4   4   4   4   4
#     4  10  20  37  57  82 114 152 192 232 279 334
#     4  10  20  35  54  80 113 151 190 231 279 331
#     4  10  21  40  62  84 114 148 183 231 287 341
#     4  10  22  37  57  83 116 152 189 233 283 333
#     4  10  22  38  60  88 114 144 187 234 281 337
#     4  11  22  37  59  84 110 147 189 231 283 340
#     4  11  22  36  53  78 113 150 187 233 277 332
#
# _framework density 19.615915000000001
#
# number of rings (size 3 to 8) (size 9 to 14) (size 15 to 20)
#    0.000    1.714    0.000    6.429    2.000    4.000 
#    0.000    0.714    0.000    0.000    0.000    0.000 
#    0.000    0.000    0.000    0.000    0.000    0.000 
#
# Total GULP energy -347303.849691 kJ/mol
# GULP energy per Si atom -12403.708918 kJ/mol
# Density = 1.957127 g / cm^3
# Si number density = 19.615915 Si / 1000 Ang^3
#
#
#
# Elastic Constant Matrix: (Units=GPa)
#
#
# Indices 1 2 3 4 5 6 
#
# 1 99.1446 22.3350 40.4452 0.0000 6.2066 0.0000
# 2 22.3350 50.4906 21.6327 0.0000 5.0349 0.0000
# 3 40.4452 21.6327 49.3011 0.0000 12.6759 0.0000
# 4 0.0000 0.0000 0.0000 30.5198 0.0000 1.6026
# 5 6.2066 5.0349 12.6759 0.0000 31.0695 0.0000
# 6 0.0000 0.0000 0.0000 1.6026 0.0000 30.8179
#
#
#
# Elastic Compliance Matrix: (Units=1/GPa)
#
#
# Indices 1 2 3 4 5 6 
#
# 1 0.015423 -0.001697 -0.012498 0.000000 0.002293 0.000000
# 2 -0.001697 0.024584 -0.009449 0.000000 0.000210 0.000000
# 3 -0.012498 -0.009449 0.037590 0.000000 -0.011308 0.000000
# 4 0.000000 0.000000 0.000000 0.032855 0.000000 -0.001709
# 5 0.002293 0.000210 -0.011308 0.000000 0.036307 0.000000
# 6 0.000000 0.000000 0.000000 -0.001709 0.000000 0.032538
#
#
# Mechanical properties :
#
#
# Convention : Reuss Voigt Hill
#
# Bulk Modulus (GPa) = 32.99273 40.86245 36.92759
# Shear Modulus (GPa) = 21.12481 26.11632 23.62056
#
# Velocity S-wave (km/s) = 3.28521 3.65277 3.47386
# Velocity P-wave (km/s) = 5.58981 6.21827 5.91240
#
# Compressibility (1/GPa) = 0.03030971
#
# Stress axis : x y z
#
# Youngs Moduli (GPa) = 64.83654 40.67734 26.60267
#
# Poissons Ratio (x) = 0.06901 0.33248
# Poissons Ratio (y) = 0.11000 0.25138
# Poissons Ratio (z) = 0.81033 0.38437
#
# Static dielectric constant tensor:
#      x y z
#    x 3.673000 0.000000 0.105990 
#    y 0.000000 3.600960 0.000000 
#    z 0.105990 0.000000 3.380550 
# 
# 
# High freq. dielectric constant tensor:
#      x y z
#    x 1.775180 0.000000 0.006630 
#    y 0.000000 1.775440 0.000000 
#    z 0.006630 0.000000 1.742100 
# 
# From -- ./inp_files/49488.got.cif
#   From: 2010.06.25/outbox.cif.g09.slc.cpg/sg11_25_cif.got.tgz:49488.got - 2010.06.27 23:14:04.
