data_PCOD8073892
_publ_section_title
;
Structure prediction by ZEFSAII (Michael W. Deem and Ramdas Pophale) SiO2 
 PCOD8073892
Probable space group: P 21/M
;
_chemical_formula_sum "Si O2"
_cell_formula_units_Z 28
_cell_length_a 15.603558
_cell_length_b 8.957470
_cell_length_c 11.883445
_cell_angle_alpha 90.000000
_cell_angle_beta 116.823765
_cell_angle_gamma 90.000000
_cell_volume 1482.211931
_symmetry_space_group_name_H-M "P 21/M"
_symmetry_group_IT_number 11
_symmetry_cell_setting 'monoclinic'
loop_
_space_group_symop_operation_xyz
x,y,z
-x,1/2+y,-z
-x,-y,-z
x,1/2-y,z
loop_
_atom_site_type_symbol
_atom_site_label
_atom_site_fract_x
_atom_site_fract_y
_atom_site_fract_z
Si Si1 0.254069 0.923196 0.556207
Si Si2 0.170215 0.426744 0.297448
Si Si3 0.414303 0.921950 0.818316
Si Si4 0.372025 0.073781 0.017023
Si Si5 0.093675 0.079730 0.599846
Si Si6 0.030231 0.080301 0.808199
Si Si7 0.801535 0.572525 0.937063
O O1 0.228325 0.750000 0.525238
O O2 0.361809 0.947046 0.667466
O O3 0.244313 0.003811 0.430544
O O4 0.184614 0.992105 0.608003
O O5 0.175503 0.250000 0.309136
O O6 0.201441 0.484835 0.192884
O O7 0.062155 0.476582 0.261030
O O8 0.410238 0.750000 0.852287
O O9 0.524611 0.974943 0.871076
O O10 0.360022 0.012363 0.883923
O O11 0.361142 0.250000 0.003990
O O12 0.289732 0.006095 0.049620
O O13 0.096159 0.250000 0.557248
O O14 0.095575 0.074159 0.735669
O O15 0.000000 0.000000 0.500000
O O16 0.995733 0.250000 0.810447
O O17 0.097910 0.018769 0.948439
O O18 0.798252 0.750000 0.939886
#
# Coordination Sequence:
#
# PCOD8073892 Si02
#       7
#     4   4   4   4   4   4   4
#     4  11  22  36  52  75 110 145 177 214 261 315
#     4  11  22  35  52  74 103 140 183 222 257 308
#     4   9  19  34  56  84 109 135 169 214 267 317
#     4   9  17  35  60  82 106 134 169 217 269 319
#     4  11  21  33  53  79 107 137 172 214 261 313
#     4  10  20  35  54  76 104 137 172 214 267 319
#     4   9  19  35  55  78 102 135 178 219 262 315
#
# _framework density 18.890687
#
# number of rings (size 3 to 8) (size 9 to 14) (size 15 to 20)
#    0.000    2.000    1.429    2.571    0.000    2.857 
#    0.000    3.571    0.000    0.000    0.000    0.000 
#    0.000    0.000    0.000    0.000    0.000    0.000 
#
# Total GULP energy -347227.123467 kJ/mol
# GULP energy per Si atom -12400.968695 kJ/mol
# Density = 1.884769 g / cm^3
# Si number density = 18.890687 Si / 1000 Ang^3
#
#
#
# Elastic Constant Matrix: (Units=GPa)
#
#
# Indices 1 2 3 4 5 6 
#
# 1 59.8386 16.7834 39.8051 0.0000 -3.4592 0.0000
# 2 16.7834 66.7933 39.2889 0.0000 0.0909 0.0000
# 3 39.8051 39.2889 141.3774 0.0000 -1.3760 0.0000
# 4 0.0000 0.0000 0.0000 24.7089 0.0000 -1.3080
# 5 -3.4592 0.0909 -1.3760 0.0000 27.5529 0.0000
# 6 0.0000 0.0000 0.0000 -1.3080 0.0000 20.7265
#
#
#
# Elastic Compliance Matrix: (Units=1/GPa)
#
#
# Indices 1 2 3 4 5 6 
#
# 1 0.020968 -0.002167 -0.005278 0.000000 0.002376 0.000000
# 2 -0.002167 0.018124 -0.004432 0.000000 -0.000553 0.000000
# 3 -0.005278 -0.004432 0.009789 0.000000 -0.000159 0.000000
# 4 0.000000 0.000000 0.000000 0.040607 0.000000 0.002563
# 5 0.002376 -0.000553 -0.000159 0.000000 0.036586 0.000000
# 6 0.000000 0.000000 0.000000 0.002563 0.000000 0.048409
#
#
# Mechanical properties :
#
#
# Convention : Reuss Voigt Hill
#
# Bulk Modulus (GPa) = 39.79832 51.08491 45.44162
# Shear Modulus (GPa) = 24.19983 26.07312 25.13647
#
# Velocity S-wave (km/s) = 3.58305 3.71915 3.65173
# Velocity P-wave (km/s) = 6.18313 6.74862 6.47205
#
# Compressibility (1/GPa) = 0.02512669
#
# Stress axis : x y z
#
# Youngs Moduli (GPa) = 47.69188 55.17627 102.15124
#
# Poissons Ratio (x) = 0.11958 0.53917
# Poissons Ratio (y) = 0.10336 0.45271
# Poissons Ratio (z) = 0.25173 0.24453
#
# Static dielectric constant tensor:
#      x y z
#    x 3.482600 0.000000 -0.066210 
#    y 0.000000 3.391630 0.000000 
#    z -0.066210 0.000000 3.627250 
# 
# 
# High freq. dielectric constant tensor:
#      x y z
#    x 1.720910 0.000000 0.003170 
#    y 0.000000 1.722980 0.000000 
#    z 0.003170 0.000000 1.744600 
# 
# From -- ./inp_files/37394.got.cif
#   From: 2010.06.25/outbox.cif.g09.slc.cpg/sg11_19_cif.got.tgz:37394.got - 2010.06.27 23:14:04.
