data_PCOD8073420
_publ_section_title
;
Structure prediction by ZEFSAII (Michael W. Deem and Ramdas Pophale) SiO2 
 PCOD8073420
Probable space group: P 21/M
;
_chemical_formula_sum "Si O2"
_cell_formula_units_Z 28
_cell_length_a 18.499840
_cell_length_b 12.685726
_cell_length_c 7.087589
_cell_angle_alpha 90.000000
_cell_angle_beta 63.910039
_cell_angle_gamma 90.000000
_cell_volume 1493.856108
_symmetry_space_group_name_H-M "P 21/M"
_symmetry_group_IT_number 11
_symmetry_cell_setting 'monoclinic'
loop_
_space_group_symop_operation_xyz
x,y,z
-x,1/2+y,-z
-x,-y,-z
x,1/2-y,z
loop_
_atom_site_type_symbol
_atom_site_label
_atom_site_fract_x
_atom_site_fract_y
_atom_site_fract_z
Si Si1 0.720573 0.128267 0.643749
Si Si2 0.884209 0.013171 0.501870
Si Si3 0.043479 0.368673 0.273054
Si Si4 0.317472 0.023443 0.640366
Si Si5 0.568427 0.872687 0.775448
Si Si6 0.602612 0.028355 0.055193
Si Si7 0.846708 0.630870 0.203430
O O1 0.738402 0.250000 0.588669
O O2 0.800046 0.071089 0.628659
O O3 0.691294 0.080806 0.478095
O O4 0.653160 0.115227 0.881993
O O5 0.949976 0.100304 0.370276
O O6 0.906814 0.953872 0.666729
O O7 0.878924 0.923527 0.352645
O O8 0.050708 0.250000 0.348415
O O9 0.079297 0.372432 0.024025
O O10 0.368391 0.109609 0.465650
O O11 0.230848 0.071374 0.790954
O O12 0.359924 0.993777 0.785288
O O13 0.555014 0.750000 0.824825
O O14 0.486192 0.928097 0.807946
O O15 0.601021 0.920946 0.934545
O O16 0.821779 0.750000 0.280696
#
# Coordination Sequence:
#
# PCOD8073420 Si02
#       7
#     4   4   4   4   4   4   4
#     4  10  21  36  55  79 107 140 177 218 265 315
#     4  10  20  35  53  76 107 136 172 218 259 308
#     4  10  20  34  54  77 102 138 176 212 260 310
#     4  10  21  37  55  79 108 139 177 219 262 315
#     4  10  21  36  56  81 108 140 177 218 264 313
#     4  10  21  38  56  79 110 140 176 220 264 314
#     4  10  20  34  53  77 105 136 171 213 260 309
#
# _framework density 18.743438999999999
#
# number of rings (size 3 to 8) (size 9 to 14) (size 15 to 20)
#    0.000    2.000    0.000    3.429    0.000    2.286 
#    0.000    3.571    0.000    9.429    0.000    0.000 
#    0.000    0.000    0.000    0.000    0.000    0.000 
#
# Total GULP energy -347296.367939 kJ/mol
# GULP energy per Si atom -12403.441712 kJ/mol
# Density = 1.870078 g / cm^3
# Si number density = 18.743439 Si / 1000 Ang^3
#
#
#
# Elastic Constant Matrix: (Units=GPa)
#
#
# Indices 1 2 3 4 5 6 
#
# 1 70.6070 2.5216 21.2089 0.0000 11.1000 0.0000
# 2 2.5216 89.1885 18.3056 0.0000 6.3784 0.0000
# 3 21.2089 18.3056 59.1431 0.0000 2.3914 0.0000
# 4 0.0000 0.0000 0.0000 19.9527 0.0000 -2.5177
# 5 11.1000 6.3784 2.3914 0.0000 32.3351 0.0000
# 6 0.0000 0.0000 0.0000 -2.5177 0.0000 19.0467
#
#
#
# Elastic Compliance Matrix: (Units=1/GPa)
#
#
# Indices 1 2 3 4 5 6 
#
# 1 0.016853 0.001191 -0.006188 0.000000 -0.005563 0.000000
# 2 0.001191 0.012200 -0.004102 0.000000 -0.002512 0.000000
# 3 -0.006188 -0.004102 0.020339 0.000000 0.001429 0.000000
# 4 0.000000 0.000000 0.000000 0.050969 0.000000 0.006737
# 5 -0.005563 -0.002512 0.001429 0.000000 0.033226 0.000000
# 6 0.000000 0.000000 0.000000 0.006737 0.000000 0.053393
#
#
# Mechanical properties :
#
#
# Convention : Reuss Voigt Hill
#
# Bulk Modulus (GPa) = 32.05493 33.66787 32.86140
# Shear Modulus (GPa) = 23.19386 26.06040 24.62713
#
# Velocity S-wave (km/s) = 3.52154 3.73282 3.62872
# Velocity P-wave (km/s) = 5.80294 6.04814 5.92681
#
# Compressibility (1/GPa) = 0.03119645
#
# Stress axis : x y z
#
# Youngs Moduli (GPa) = 59.33492 81.96693 49.16724
#
# Poissons Ratio (x) = -0.09765 0.30422
# Poissons Ratio (y) = -0.07069 0.20167
# Poissons Ratio (z) = 0.36714 0.33620
#
# Static dielectric constant tensor:
#      x y z
#    x 3.542740 0.000000 -0.149770 
#    y 0.000000 3.458070 0.000000 
#    z -0.149770 0.000000 3.365980 
# 
# 
# High freq. dielectric constant tensor:
#      x y z
#    x 1.739490 0.000000 -0.009410 
#    y 0.000000 1.731190 0.000000 
#    z -0.009410 0.000000 1.729420 
# 
# From -- ./inp_files/8743.got.cif
#   From: 2010.06.25/outbox.cif.g09.slc.cpg/sg11_5_cif.got.tgz:8743.got - 2010.06.27 23:14:04.
