data_PCOD8073089
_publ_section_title
;
Structure prediction by ZEFSAII (Michael W. Deem and Ramdas Pophale) SiO2 
 PCOD8073089
Probable space group: P 21/M
;
_chemical_formula_sum "Si O2"
_cell_formula_units_Z 32
_cell_length_a 21.687359
_cell_length_b 8.767202
_cell_length_c 11.326363
_cell_angle_alpha 90.000000
_cell_angle_beta 53.703799
_cell_angle_gamma 90.000000
_cell_volume 1735.704165
_symmetry_space_group_name_H-M "P 21/M"
_symmetry_group_IT_number 11
_symmetry_cell_setting 'monoclinic'
loop_
_space_group_symop_operation_xyz
x,y,z
-x,1/2+y,-z
-x,-y,-z
x,1/2-y,z
loop_
_atom_site_type_symbol
_atom_site_label
_atom_site_fract_x
_atom_site_fract_y
_atom_site_fract_z
Si Si1 0.155506 0.070274 0.054805
Si Si2 0.254339 0.572305 0.335770
Si Si3 0.083878 0.929899 0.906286
Si Si4 0.971845 0.074921 0.651053
Si Si5 0.707758 0.427804 0.976682
Si Si6 0.444705 0.078274 0.900305
Si Si7 0.406217 0.078361 0.218517
Si Si8 0.122165 0.424258 0.627185
O O1 0.148491 0.250000 0.046193
O O2 0.102194 0.015911 0.222452
O O3 0.241892 0.023454 0.988274
O O4 0.132314 0.988097 0.961199
O O5 0.245342 0.750000 0.370529
O O6 0.263773 0.535432 0.187431
O O7 0.327388 0.512636 0.326282
O O8 0.178686 0.486613 0.463579
O O9 0.075512 0.750000 0.923850
O O10 0.129814 0.976614 0.736757
O O11 0.000000 0.000000 0.000000
O O12 0.948957 0.250000 0.652993
O O13 0.035926 0.062413 0.678567
O O14 0.000000 0.000000 0.500000
O O15 0.714167 0.250000 0.998675
O O16 0.620225 0.480602 0.092138
O O17 0.444700 0.250000 0.850493
O O18 0.527102 0.002594 0.781369
O O19 0.429214 0.078341 0.056446
O O20 0.395519 0.250000 0.277595
O O21 0.143060 0.250000 0.632155
#
# Coordination Sequence:
#
# PCOD8073089 Si02
#       8
#     4   4   4   4   4   4   4   4
#     4  12  24  38  57  79 106 139 178 222 271 319
#     4  10  20  33  51  77 110 145 180 221 268 318
#     4  12  24  41  62  81 102 133 177 226 273 319
#     4  11  23  37  55  78 108 141 177 216 263 321
#     4  10  20  34  52  77 111 145 181 221 267 320
#     4   9  16  27  45  71 104 141 180 217 261 315
#     4   9  16  27  45  70 103 142 180 217 261 314
#     4  11  23  38  56  78 105 139 178 221 269 318
#
# _framework density 18.436319999999998
#
# number of rings (size 3 to 8) (size 9 to 14) (size 15 to 20)
#    0.000    1.500    1.250    5.250    0.000    8.000 
#    0.000    0.000    0.000    0.000    0.000    0.875 
#    0.000    0.000    0.000    0.000    0.000    0.000 
#
# Total GULP energy -396949.667898 kJ/mol
# GULP energy per Si atom -12404.677122 kJ/mol
# Density = 1.839436 g / cm^3
# Si number density = 18.436320 Si / 1000 Ang^3
#
#
#
# Elastic Constant Matrix: (Units=GPa)
#
#
# Indices 1 2 3 4 5 6 
#
# 1 97.8462 48.9089 20.4776 0.0000 -9.4742 0.0000
# 2 48.9089 146.4754 21.8023 0.0000 0.2008 0.0000
# 3 20.4776 21.8023 19.3701 0.0000 3.7166 0.0000
# 4 0.0000 0.0000 0.0000 28.9699 0.0000 -5.5097
# 5 -9.4742 0.2008 3.7166 0.0000 29.4431 0.0000
# 6 0.0000 0.0000 0.0000 -5.5097 0.0000 35.3676
#
#
#
# Elastic Compliance Matrix: (Units=1/GPa)
#
#
# Indices 1 2 3 4 5 6 
#
# 1 0.015338 -0.003033 -0.014093 0.000000 0.006735 0.000000
# 2 -0.003033 0.008838 -0.006705 0.000000 -0.000190 0.000000
# 3 -0.014093 -0.006705 0.076793 0.000000 -0.014183 0.000000
# 4 0.000000 0.000000 0.000000 0.035573 0.000000 0.005542
# 5 0.006735 -0.000190 -0.014183 0.000000 0.037923 0.000000
# 6 0.000000 0.000000 0.000000 0.005542 0.000000 0.029138
#
#
# Mechanical properties :
#
#
# Convention : Reuss Voigt Hill
#
# Bulk Modulus (GPa) = 18.75939 49.56324 34.16132
# Shear Modulus (GPa) = 18.58505 30.25632 24.42068
#
# Velocity S-wave (km/s) = 3.17845 4.05548 3.64345
# Velocity P-wave (km/s) = 4.86491 6.99078 6.02239
#
# Compressibility (1/GPa) = 0.05330664
#
# Stress axis : x y z
#
# Youngs Moduli (GPa) = 65.19871 113.14696 13.02195
#
# Poissons Ratio (x) = 0.34316 0.18352
# Poissons Ratio (y) = 0.19774 0.08731
# Poissons Ratio (z) = 0.91886 0.75867
#
# Static dielectric constant tensor:
#      x y z
#    x 3.496980 0.000000 -0.168260 
#    y 0.000000 3.732200 0.000000 
#    z -0.168260 0.000000 3.126070 
# 
# 
# High freq. dielectric constant tensor:
#      x y z
#    x 1.715400 0.000000 -0.020390 
#    y 0.000000 1.736360 0.000000 
#    z -0.020390 0.000000 1.677160 
# 
# From -- ./inp_files/42505.got.cif
#   From: 2010.06.25/outbox.cif.g09.slc.cpg/sg11_22_cif.got.tgz:42505.got - 2010.06.27 23:14:04.
