data_PCOD8073152
_publ_section_title
;
Structure prediction by ZEFSAII (Michael W. Deem and Ramdas Pophale) SiO2 
 PCOD8073152
Probable space group: P 21/M
;
_chemical_formula_sum "Si O2"
_cell_formula_units_Z 24
_cell_length_a 16.447746
_cell_length_b 8.599233
_cell_length_c 9.134828
_cell_angle_alpha 90.000000
_cell_angle_beta 73.643643
_cell_angle_gamma 90.000000
_cell_volume 1239.722484
_symmetry_space_group_name_H-M "P 21/M"
_symmetry_group_IT_number 11
_symmetry_cell_setting 'monoclinic'
loop_
_space_group_symop_operation_xyz
x,y,z
-x,1/2+y,-z
-x,-y,-z
x,1/2-y,z
loop_
_atom_site_type_symbol
_atom_site_label
_atom_site_fract_x
_atom_site_fract_y
_atom_site_fract_z
Si Si1 0.413114 0.931561 0.688284
Si Si2 0.244102 0.067259 0.793172
Si Si3 0.237365 0.569869 0.477694
Si Si4 0.404987 0.072404 0.378594
Si Si5 0.078793 0.433581 0.046569
Si Si6 0.076949 0.566711 0.369437
O O1 0.409196 0.750000 0.644757
O O2 0.500531 0.963351 0.735561
O O3 0.327637 0.980443 0.817772
O O4 0.412974 0.042253 0.547325
O O5 0.256363 0.250000 0.804514
O O6 0.228346 0.026918 0.631298
O O7 0.164609 0.006435 0.926609
O O8 0.231453 0.750000 0.521002
O O9 0.328518 0.533036 0.353865
O O10 0.164009 0.519376 0.404547
O O11 0.379638 0.250000 0.362801
O O12 0.073070 0.250000 0.045069
O O13 0.076746 0.490283 0.212294
O O14 0.000000 0.500000 0.000000
O O15 0.066862 0.750000 0.358898
O O16 0.000000 0.500000 0.500000
#
# Coordination Sequence:
#
# PCOD8073152 Si02
#       6
#     4   4   4   4   4   4
#     4   9  16  26  44  72 104 138 175 215 259 306
#     4  10  20  33  52  79 108 140 177 217 263 313
#     4  10  20  33  52  79 108 140 177 217 263 313
#     4   9  16  26  44  72 104 138 175 215 259 306
#     4  11  24  40  59  82 108 140 178 220 268 321
#     4  11  24  40  59  82 108 140 178 220 268 321
#
# _framework density 19.359172000000001
#
# number of rings (size 3 to 8) (size 9 to 14) (size 15 to 20)
#    0.000    2.000    0.000    6.000    0.000   10.000 
#    0.000    0.000    0.000    1.000    0.000    0.000 
#    0.000    0.000    0.000    0.000    0.000    0.000 
#
# Total GULP energy -297464.980233 kJ/mol
# GULP energy per Si atom -12394.374176 kJ/mol
# Density = 1.931511 g / cm^3
# Si number density = 19.359172 Si / 1000 Ang^3
#
#
#
# Elastic Constant Matrix: (Units=GPa)
#
#
# Indices 1 2 3 4 5 6 
#
# 1 195.9524 42.4669 68.9885 0.0000 -27.6467 0.0000
# 2 42.4669 53.7728 20.9219 0.0000 -11.2530 0.0000
# 3 68.9885 20.9219 86.8096 0.0000 -15.9231 0.0000
# 4 0.0000 0.0000 0.0000 25.4535 0.0000 -2.6564
# 5 -27.6467 -11.2530 -15.9231 0.0000 29.3583 0.0000
# 6 0.0000 0.0000 0.0000 -2.6564 0.0000 35.4325
#
#
#
# Elastic Compliance Matrix: (Units=1/GPa)
#
#
# Indices 1 2 3 4 5 6 
#
# 1 0.008157 -0.003783 -0.004917 0.000000 0.003565 0.000000
# 2 -0.003783 0.023190 -0.001783 0.000000 0.004359 0.000000
# 3 -0.004917 -0.001783 0.016526 0.000000 0.003650 0.000000
# 4 0.000000 0.000000 0.000000 0.039597 0.000000 0.002969
# 5 0.003565 0.004359 0.003650 0.000000 0.041069 0.000000
# 6 0.000000 0.000000 0.000000 0.002969 0.000000 0.028445
#
#
# Mechanical properties :
#
#
# Convention : Reuss Voigt Hill
#
# Bulk Modulus (GPa) = 37.16419 66.80993 51.98706
# Shear Modulus (GPa) = 26.74929 31.65936 29.20433
#
# Velocity S-wave (km/s) = 3.72121 4.04836 3.88822
# Velocity P-wave (km/s) = 6.14020 7.51252 6.86076
#
# Compressibility (1/GPa) = 0.02690762
#
# Stress axis : x y z
#
# Youngs Moduli (GPa) = 122.59100 43.12128 60.50990
#
# Poissons Ratio (x) = 0.16313 0.29753
# Poissons Ratio (y) = 0.46376 0.10789
# Poissons Ratio (z) = 0.60278 0.07689
#
# Static dielectric constant tensor:
#      x y z
#    x 4.416210 0.000000 -0.460060 
#    y 0.000000 3.601800 0.000000 
#    z -0.460060 0.000000 3.269180 
# 
# 
# High freq. dielectric constant tensor:
#      x y z
#    x 1.782260 0.000000 -0.026390 
#    y 0.000000 1.766150 0.000000 
#    z -0.026390 0.000000 1.703130 
# 
# From -- ./inp_files/23710.got.cif
#   From: 2010.06.25/outbox.cif.g09.slc.cpg/sg11_12_cif.got.tgz:23710.got - 2010.06.27 23:14:04.
