data_PCOD8073050
_publ_section_title
;
Structure prediction by ZEFSAII (Michael W. Deem and Ramdas Pophale) SiO2 
 PCOD8073050
Probable space group: P 21/M
;
_chemical_formula_sum "Si O2"
_cell_formula_units_Z 20
_cell_length_a 22.662158
_cell_length_b 9.300994
_cell_length_c 15.410615
_cell_angle_alpha 90.000000
_cell_angle_beta 20.370866
_cell_angle_gamma 90.000000
_cell_volume 1130.703909
_symmetry_space_group_name_H-M "P 21/M"
_symmetry_group_IT_number 11
_symmetry_cell_setting 'monoclinic'
loop_
_space_group_symop_operation_xyz
x,y,z
-x,1/2+y,-z
-x,-y,-z
x,1/2-y,z
loop_
_atom_site_type_symbol
_atom_site_label
_atom_site_fract_x
_atom_site_fract_y
_atom_site_fract_z
Si Si1 0.260209 0.416327 0.371503
Si Si2 0.607730 0.413222 0.151404
Si Si3 0.362425 0.415833 0.635013
Si Si4 0.125181 0.582803 0.068374
Si Si5 0.542957 0.917546 0.072599
O O1 0.287674 0.250000 0.357066
O O2 0.364054 0.507992 0.298284
O O3 0.065005 0.461669 0.645888
O O4 0.322877 0.450424 0.188195
O O5 0.634188 0.250000 0.082629
O O6 0.421635 0.428307 0.453099
O O7 0.621853 0.519398 0.051320
O O8 0.756628 0.456101 0.012805
O O9 0.500000 0.500000 0.500000
O O10 0.356472 0.250000 0.672355
O O11 0.182341 0.491434 0.904409
O O12 0.141499 0.750000 0.022072
O O13 0.509925 0.750000 0.130610
#
# Coordination Sequence:
#
# PCOD8073050 Si02
#       5
#     4   4   4   4   4
#     4   9  19  36  53  70  98 132 163 202 251 293
#     4   9  18  32  50  73 101 130 159 197 245 292
#     4   9  17  30  49  73 101 131 162 198 243 291
#     4   9  18  33  53  75  99 129 164 202 246 292
#     4  10  20  33  51  74  98 129 168 203 240 293
#
# _framework density 17.688095000000001
#
# number of rings (size 3 to 8) (size 9 to 14) (size 15 to 20)
#    0.000    2.800    0.000    2.400    0.000    6.400 
#    0.000    1.000    0.000    0.000    0.000    0.000 
#    0.000    0.000    0.000    0.000    0.000    0.000 
#
# Total GULP energy -247955.729358 kJ/mol
# GULP energy per Si atom -12397.786468 kJ/mol
# Density = 1.764784 g / cm^3
# Si number density = 17.688095 Si / 1000 Ang^3
#
#
#
# Elastic Constant Matrix: (Units=GPa)
#
#
# Indices 1 2 3 4 5 6 
#
# 1 28.4177 16.2210 25.0881 0.0000 -9.6173 0.0000
# 2 16.2210 71.1458 42.4363 0.0000 -5.3026 0.0000
# 3 25.0881 42.4363 119.1038 0.0000 -18.4157 0.0000
# 4 0.0000 0.0000 0.0000 31.5483 0.0000 4.4256
# 5 -9.6173 -5.3026 -18.4157 0.0000 16.8768 0.0000
# 6 0.0000 0.0000 0.0000 4.4256 0.0000 32.9030
#
#
#
# Elastic Compliance Matrix: (Units=1/GPa)
#
#
# Indices 1 2 3 4 5 6 
#
# 1 0.050764 -0.007079 -0.004862 0.000000 0.021398 0.000000
# 2 -0.007079 0.018872 -0.005942 0.000000 -0.004589 0.000000
# 3 -0.004862 -0.005942 0.013017 0.000000 0.009566 0.000000
# 4 0.000000 0.000000 0.000000 0.032307 0.000000 -0.004345
# 5 0.021398 -0.004589 0.009566 0.000000 0.080443 0.000000
# 6 0.000000 0.000000 0.000000 -0.004345 0.000000 0.030977
#
#
# Mechanical properties :
#
#
# Convention : Reuss Voigt Hill
#
# Bulk Modulus (GPa) = 21.32857 42.90646 32.11751
# Shear Modulus (GPa) = 18.00013 25.26041 21.63027
#
# Velocity S-wave (km/s) = 3.19351 3.78312 3.50075
# Velocity P-wave (km/s) = 5.06777 6.58731 5.87686
#
# Compressibility (1/GPa) = 0.04688548
#
# Stress axis : x y z
#
# Youngs Moduli (GPa) = 19.69887 52.98813 76.82550
#
# Poissons Ratio (x) = 0.37511 0.37354
# Poissons Ratio (y) = 0.13945 0.45653
# Poissons Ratio (z) = 0.09578 0.31488
#
# Static dielectric constant tensor:
#      x y z
#    x 3.028010 0.000000 0.134700 
#    y 0.000000 3.401690 0.000000 
#    z 0.134700 0.000000 3.711370 
# 
# 
# High freq. dielectric constant tensor:
#      x y z
#    x 1.656490 0.000000 0.008470 
#    y 0.000000 1.691040 0.000000 
#    z 0.008470 0.000000 1.688840 
# 
# From -- ./inp_files/20174.got.cif
#   From: 2010.06.25/outbox.cif.g09.slc.cpg/sg11_11_cif.got.tgz:20174.got - 2010.06.27 23:14:04.
