data_PCOD8073477
_publ_section_title
;
Structure prediction by ZEFSAII (Michael W. Deem and Ramdas Pophale) SiO2 
 PCOD8073477
Probable space group: P 21/M
;
_chemical_formula_sum "Si O2"
_cell_formula_units_Z 32
_cell_length_a 22.719293
_cell_length_b 9.216241
_cell_length_c 16.457566
_cell_angle_alpha 90.000000
_cell_angle_beta 31.539250
_cell_angle_gamma 90.000000
_cell_volume 1802.538135
_symmetry_space_group_name_H-M "P 21/M"
_symmetry_group_IT_number 11
_symmetry_cell_setting 'monoclinic'
loop_
_space_group_symop_operation_xyz
x,y,z
-x,1/2+y,-z
-x,-y,-z
x,1/2-y,z
loop_
_atom_site_type_symbol
_atom_site_label
_atom_site_fract_x
_atom_site_fract_y
_atom_site_fract_z
Si Si1 0.238486 0.919844 0.551045
Si Si2 0.115242 0.082860 0.375457
Si Si3 0.892911 0.915711 0.156904
Si Si4 0.136052 0.415624 0.171578
Si Si5 0.434632 0.417742 0.392226
Si Si6 0.122736 0.917745 0.518245
Si Si7 0.675380 0.587319 0.311861
Si Si8 0.679884 0.082236 0.144209
O O1 0.236300 0.750000 0.575360
O O2 0.199649 0.948414 0.505140
O O3 0.153854 0.004878 0.708686
O O4 0.365070 0.981968 0.411669
O O5 0.092446 0.250000 0.422882
O O6 0.180042 0.067661 0.213108
O O7 0.177819 0.008267 0.378452
O O8 0.000000 0.000000 0.500000
O O9 0.923455 0.750000 0.143874
O O10 0.804270 0.919629 0.188298
O O11 0.000000 0.000000 0.000000
O O12 0.146990 0.250000 0.129655
O O13 0.006456 0.467001 0.313927
O O14 0.213282 0.510099 0.022877
O O15 0.399492 0.250000 0.419560
O O16 0.404193 0.462220 0.520328
O O17 0.567559 0.442492 0.222188
O O18 0.123109 0.750000 0.492489
O O19 0.644405 0.750000 0.319948
O O20 0.656421 0.478644 0.260833
O O21 0.707339 0.250000 0.121451
#
# Coordination Sequence:
#
# PCOD8073477 Si02
#       8
#     4   4   4   4   4   4   4   4
#     4  10  20  34  54  78 101 133 175 212 253 308
#     4   9  17  31  52  76 103 136 168 203 250 305
#     4  10  21  35  50  71 103 140 172 210 258 302
#     4   9  19  34  50  74 108 138 162 198 257 310
#     4   9  20  38  53  71 101 135 173 219 263 298
#     4   9  19  34  53  78 107 135 166 207 252 307
#     4   9  19  35  52  69  96 135 172 211 261 304
#     4  11  22  33  51  78 103 130 173 220 256 302
#
# _framework density 17.752745000000001
#
# number of rings (size 3 to 8) (size 9 to 14) (size 15 to 20)
#    0.000    2.500    0.000    3.375    1.750    7.000 
#    0.000    0.000    0.000    0.750    0.000    0.000 
#    0.000    0.000    0.000    0.000    0.000    0.000 
#
# Total GULP energy -396735.361853 kJ/mol
# GULP energy per Si atom -12397.980058 kJ/mol
# Density = 1.771234 g / cm^3
# Si number density = 17.752745 Si / 1000 Ang^3
#
#
#
# Elastic Constant Matrix: (Units=GPa)
#
#
# Indices 1 2 3 4 5 6 
#
# 1 95.3946 53.8003 23.8318 0.0000 5.2112 0.0000
# 2 53.8003 99.7284 24.0380 0.0000 3.4867 0.0000
# 3 23.8318 24.0380 39.9515 0.0000 -5.2576 0.0000
# 4 0.0000 0.0000 0.0000 27.2366 0.0000 2.2652
# 5 5.2112 3.4867 -5.2576 0.0000 15.2804 0.0000
# 6 0.0000 0.0000 0.0000 2.2652 0.0000 34.4605
#
#
#
# Elastic Compliance Matrix: (Units=1/GPa)
#
#
# Indices 1 2 3 4 5 6 
#
# 1 0.016409 -0.007115 -0.006316 0.000000 -0.006146 0.000000
# 2 -0.007115 0.015245 -0.005307 0.000000 -0.002878 0.000000
# 3 -0.006316 -0.005307 0.033973 0.000000 0.015054 0.000000
# 4 0.000000 0.000000 0.000000 0.036917 0.000000 -0.002427
# 5 -0.006146 -0.002878 0.015054 0.000000 0.073376 0.000000
# 6 0.000000 0.000000 0.000000 -0.002427 0.000000 0.029178
#
#
# Mechanical properties :
#
#
# Convention : Reuss Voigt Hill
#
# Bulk Modulus (GPa) = 35.52413 48.71275 42.11844
# Shear Modulus (GPa) = 19.84453 24.28913 22.06683
#
# Velocity S-wave (km/s) = 3.34702 3.70292 3.52946
# Velocity P-wave (km/s) = 5.91529 6.76619 6.35500
#
# Compressibility (1/GPa) = 0.02814988
#
# Stress axis : x y z
#
# Youngs Moduli (GPa) = 60.94189 65.59358 29.43551
#
# Poissons Ratio (x) = 0.46669 0.18592
# Poissons Ratio (y) = 0.43359 0.15623
# Poissons Ratio (z) = 0.38492 0.34814
#
# Static dielectric constant tensor:
#      x y z
#    x 3.549290 0.000000 0.086410 
#    y 0.000000 3.465430 0.000000 
#    z 0.086410 0.000000 3.174060 
# 
# 
# High freq. dielectric constant tensor:
#      x y z
#    x 1.681910 0.000000 0.001580 
#    y 0.000000 1.698230 0.000000 
#    z 0.001580 0.000000 1.662910 
# 
# From -- ./inp_files/61733.got.cif
#   From: 2010.06.25/outbox.cif.g09.slc.cpg/sg11_31_cif.got.tgz:61733.got - 2010.06.27 23:14:04.
