data_PCOD8073561
_publ_section_title
;
Structure prediction by ZEFSAII (Michael W. Deem and Ramdas Pophale) SiO2 
 PCOD8073561
Probable space group: P 21/M
;
_chemical_formula_sum "Si O2"
_cell_formula_units_Z 32
_cell_length_a 12.329650
_cell_length_b 9.111652
_cell_length_c 14.221418
_cell_angle_alpha 90.000000
_cell_angle_beta 98.880378
_cell_angle_gamma 90.000000
_cell_volume 1578.531823
_symmetry_space_group_name_H-M "P 21/M"
_symmetry_group_IT_number 11
_symmetry_cell_setting 'monoclinic'
loop_
_space_group_symop_operation_xyz
x,y,z
-x,1/2+y,-z
-x,-y,-z
x,1/2-y,z
loop_
_atom_site_type_symbol
_atom_site_label
_atom_site_fract_x
_atom_site_fract_y
_atom_site_fract_z
Si Si1 0.762627 0.086551 0.646176
Si Si2 0.615857 0.576665 0.993272
Si Si3 0.903420 0.914144 0.534683
Si Si4 0.198075 0.076622 0.838464
Si Si5 0.744440 0.924319 0.822310
Si Si6 0.276105 0.086892 0.650260
Si Si7 0.589927 0.090417 0.460633
Si Si8 0.973108 0.074526 0.899321
O O1 0.795552 0.250000 0.687560
O O2 0.690374 0.104843 0.544543
O O3 0.870155 0.997434 0.626454
O O4 0.698886 0.992794 0.718364
O O5 0.598330 0.750000 0.001801
O O6 0.709431 0.516083 0.077018
O O7 0.500000 0.500000 0.000000
O O8 0.659330 0.537482 0.894273
O O9 0.940869 0.750000 0.567113
O O10 0.807034 0.906497 0.446523
O O11 0.000000 0.000000 0.500000
O O12 0.203337 0.250000 0.844250
O O13 0.222941 0.017983 0.736973
O O14 0.074675 0.027264 0.846299
O O15 0.762352 0.750000 0.818102
O O16 0.860858 0.005950 0.847038
O O17 0.320983 0.250000 0.678280
O O18 0.377722 0.985972 0.633118
O O19 0.542981 0.250000 0.428279
O O20 0.500000 0.000000 0.500000
O O21 0.962944 0.250000 0.908281
O O22 0.000000 0.000000 0.000000
#
# Coordination Sequence:
#
# PCOD8073561 Si02
#       8
#     4   4   4   4   4   4   4   4
#     4  10  22  39  58  83 114 153 199 242 289 351
#     4  10  22  41  61  83 117 154 194 243 297 355
#     4  10  20  34  54  82 117 153 190 234 286 343
#     4   9  19  38  60  84 117 155 193 239 294 352
#     4  11  23  40  60  89 124 157 198 250 304 357
#     4   9  19  36  58  82 110 149 192 235 286 342
#     4  10  21  38  60  84 114 150 194 245 295 349
#     4  11  21  37  62  88 120 160 202 247 296 356
#
# _framework density 20.272003000000002
#
# number of rings (size 3 to 8) (size 9 to 14) (size 15 to 20)
#    0.000    2.000    1.250    1.875    1.750    4.000 
#    0.000    5.625    0.000    0.000    0.000    0.000 
#    0.000    0.000    0.000    0.000    0.000    0.000 
#
# Total GULP energy -396646.434514 kJ/mol
# GULP energy per Si atom -12395.201079 kJ/mol
# Density = 2.022586 g / cm^3
# Si number density = 20.272003 Si / 1000 Ang^3
#
#
#
# Elastic Constant Matrix: (Units=GPa)
#
#
# Indices 1 2 3 4 5 6 
#
# 1 109.5628 57.1084 30.9568 0.0000 -41.9255 0.0000
# 2 57.1084 137.8244 45.2985 0.0000 -33.4229 0.0000
# 3 30.9568 45.2985 105.3259 0.0000 -43.8752 0.0000
# 4 0.0000 0.0000 0.0000 30.9940 0.0000 -5.4340
# 5 -41.9255 -33.4229 -43.8752 0.0000 42.2859 0.0000
# 6 0.0000 0.0000 0.0000 -5.4340 0.0000 36.6469
#
#
#
# Elastic Compliance Matrix: (Units=1/GPa)
#
#
# Indices 1 2 3 4 5 6 
#
# 1 0.016921 -0.004048 0.004268 0.000000 0.018007 0.000000
# 2 -0.004048 0.010099 -0.002642 0.000000 0.001227 0.000000
# 3 0.004268 -0.002642 0.018087 0.000000 0.020910 0.000000
# 4 0.000000 0.000000 0.000000 0.033126 0.000000 0.004912
# 5 0.018007 0.001227 0.020910 0.000000 0.064168 0.000000
# 6 0.000000 0.000000 0.000000 0.004912 0.000000 0.028016
#
#
# Mechanical properties :
#
#
# Convention : Reuss Voigt Hill
#
# Bulk Modulus (GPa) = 24.83644 68.82672 46.83158
# Shear Modulus (GPa) = 26.49985 36.60865 31.55425
#
# Velocity S-wave (km/s) = 3.61946 4.25417 3.94959
# Velocity P-wave (km/s) = 5.45395 7.62600 6.62953
#
# Compressibility (1/GPa) = 0.04026341
#
# Stress axis : x y z
#
# Youngs Moduli (GPa) = 59.09655 99.02083 55.28974
#
# Poissons Ratio (x) = 0.40081 -0.23600
# Poissons Ratio (y) = 0.23920 0.14610
# Poissons Ratio (z) = -0.25224 0.26165
#
# Static dielectric constant tensor:
#      x y z
#    x 4.329270 0.000000 -0.835250 
#    y 0.000000 3.943660 0.000000 
#    z -0.835250 0.000000 3.617740 
# 
# 
# High freq. dielectric constant tensor:
#      x y z
#    x 1.784100 0.000000 -0.016780 
#    y 0.000000 1.790940 0.000000 
#    z -0.016780 0.000000 1.798280 
# 
# From -- ./inp_files/49369.got.cif
#   From: 2010.06.25/outbox.cif.g09.slc.cpg/sg11_25_cif.got.tgz:49369.got - 2010.06.27 23:14:04.
