data_PCOD8073776
_publ_section_title
;
Structure prediction by ZEFSAII (Michael W. Deem and Ramdas Pophale) SiO2 
 PCOD8073776
Probable space group: P 21/M
;
_chemical_formula_sum "Si O2"
_cell_formula_units_Z 28
_cell_length_a 11.694650
_cell_length_b 8.748137
_cell_length_c 15.475743
_cell_angle_alpha 90.000000
_cell_angle_beta 123.117553
_cell_angle_gamma 90.000000
_cell_volume 1326.067921
_symmetry_space_group_name_H-M "P 21/M"
_symmetry_group_IT_number 11
_symmetry_cell_setting 'monoclinic'
loop_
_space_group_symop_operation_xyz
x,y,z
-x,1/2+y,-z
-x,-y,-z
x,1/2-y,z
loop_
_atom_site_type_symbol
_atom_site_label
_atom_site_fract_x
_atom_site_fract_y
_atom_site_fract_z
Si Si1 0.851901 0.927344 0.173123
Si Si2 0.860473 0.571012 0.974896
Si Si3 0.855886 0.426717 0.456516
Si Si4 0.588148 0.930135 0.612929
Si Si5 0.589106 0.069201 0.793582
Si Si6 0.658235 0.069598 0.226470
Si Si7 0.847373 0.427705 0.649281
O O1 0.829525 0.750000 0.185583
O O2 0.998241 0.982306 0.269961
O O3 0.732361 0.023910 0.168477
O O4 0.843680 0.961529 0.068937
O O5 0.857728 0.750000 0.952876
O O6 0.740642 0.488625 0.874169
O O7 0.000000 0.500000 0.000000
O O8 0.875631 0.250000 0.446404
O O9 0.746539 0.493035 0.343966
O O10 0.805701 0.457842 0.532941
O O11 0.000000 0.500000 0.500000
O O12 0.566733 0.750000 0.605622
O O13 0.500000 0.000000 0.500000
O O14 0.535840 0.998326 0.681625
O O15 0.747282 0.972529 0.666955
O O16 0.588673 0.250000 0.787558
O O17 0.488684 0.012082 0.828320
O O18 0.635143 0.250000 0.219233
O O19 0.830776 0.250000 0.667894
#
# Coordination Sequence:
#
# PCOD8073776 Si02
#       7
#     4   4   4   4   4   4   4
#     4  10  22  40  64  93 126 167 211 260 318 381
#     4  11  24  44  70  99 129 165 215 270 324 385
#     4  10  20  34  57  88 126 167 207 254 308 370
#     4  12  25  42  65  94 128 167 213 263 318 384
#     4  12  26  45  68  93 127 172 215 265 327 384
#     4  11  23  39  62  95 131 169 214 265 320 385
#     4  10  20  37  61  91 128 168 212 264 318 377
#
# _framework density 21.115058000000001
#
# number of rings (size 3 to 8) (size 9 to 14) (size 15 to 20)
#    0.000    1.143    1.429    5.143    0.000    5.714 
#    0.000    0.000    0.000    0.000    0.000    0.000 
#    0.000    0.000    0.000    0.000    0.000    0.000 
#
# Total GULP energy -347392.276921 kJ/mol
# GULP energy per Si atom -12406.867033 kJ/mol
# Density = 2.106700 g / cm^3
# Si number density = 21.115058 Si / 1000 Ang^3
#
#
#
# Elastic Constant Matrix: (Units=GPa)
#
#
# Indices 1 2 3 4 5 6 
#
# 1 140.4076 64.7826 35.6838 0.0000 4.9115 0.0000
# 2 64.7826 133.5867 49.0598 0.0000 -3.8509 0.0000
# 3 35.6838 49.0598 93.5701 0.0000 0.4887 0.0000
# 4 0.0000 0.0000 0.0000 31.6489 0.0000 1.5164
# 5 4.9115 -3.8509 0.4887 0.0000 32.4823 0.0000
# 6 0.0000 0.0000 0.0000 1.5164 0.0000 43.5356
#
#
#
# Elastic Compliance Matrix: (Units=1/GPa)
#
#
# Indices 1 2 3 4 5 6 
#
# 1 0.009450 -0.004109 -0.001440 0.000000 -0.001894 0.000000
# 2 -0.004109 0.011102 -0.004265 0.000000 0.002002 0.000000
# 3 -0.001440 -0.004265 0.013475 0.000000 -0.000491 0.000000
# 4 0.000000 0.000000 0.000000 0.031650 0.000000 -0.001102
# 5 -0.001894 0.002002 -0.000491 0.000000 0.031317 0.000000
# 6 0.000000 0.000000 0.000000 -0.001102 0.000000 0.023008
#
#
# Mechanical properties :
#
#
# Convention : Reuss Voigt Hill
#
# Bulk Modulus (GPa) = 69.43962 74.06853 71.75407
# Shear Modulus (GPa) = 34.61942 36.06924 35.34433
#
# Velocity S-wave (km/s) = 4.05354 4.13755 4.09576
# Velocity P-wave (km/s) = 7.40716 7.61449 7.51154
#
# Compressibility (1/GPa) = 0.01440100
#
# Stress axis : x y z
#
# Youngs Moduli (GPa) = 105.82058 90.07312 74.21289
#
# Poissons Ratio (x) = 0.37007 0.10685
# Poissons Ratio (y) = 0.43477 0.31648
# Poissons Ratio (z) = 0.15236 0.38412
#
# Static dielectric constant tensor:
#      x y z
#    x 3.889220 0.000000 -0.004130 
#    y 0.000000 3.739090 0.000000 
#    z -0.004130 0.000000 3.947100 
# 
# 
# High freq. dielectric constant tensor:
#      x y z
#    x 1.842620 0.000000 -0.000940 
#    y 0.000000 1.825480 0.000000 
#    z -0.000940 0.000000 1.831600 
# 
# From -- ./inp_files/49506.got.cif
#   From: 2010.06.25/outbox.cif.g09.slc.cpg/sg11_25_cif.got.tgz:49506.got - 2010.06.27 23:14:04.
