data_PCOD8073326
_publ_section_title
;
Structure prediction by ZEFSAII (Michael W. Deem and Ramdas Pophale) SiO2 
 PCOD8073326
Probable space group: P 21/M
;
_chemical_formula_sum "Si O2"
_cell_formula_units_Z 24
_cell_length_a 10.554048
_cell_length_b 14.074611
_cell_length_c 16.410092
_cell_angle_alpha 90.000000
_cell_angle_beta 34.455692
_cell_angle_gamma 90.000000
_cell_volume 1379.130744
_symmetry_space_group_name_H-M "P 21/M"
_symmetry_group_IT_number 11
_symmetry_cell_setting 'monoclinic'
loop_
_space_group_symop_operation_xyz
x,y,z
-x,1/2+y,-z
-x,-y,-z
x,1/2-y,z
loop_
_atom_site_type_symbol
_atom_site_label
_atom_site_fract_x
_atom_site_fract_y
_atom_site_fract_z
Si Si1 0.821432 0.750000 0.758212
Si Si2 0.837317 0.750000 0.570088
Si Si3 0.552297 0.450422 0.843436
Si Si4 0.182509 0.448434 0.163938
Si Si5 0.678779 0.052938 0.458812
Si Si6 0.351167 0.750000 0.465374
Si Si7 0.362590 0.750000 0.277497
Si Si8 0.231340 0.039673 0.416333
O O1 0.720610 0.750000 0.720805
O O2 0.739990 0.843536 0.848512
O O3 0.084203 0.750000 0.603338
O O4 0.765089 0.651987 0.564645
O O5 0.101654 0.750000 0.431412
O O6 0.751792 0.474844 0.801545
O O7 0.562457 0.340615 0.813659
O O8 0.574753 0.516190 0.751733
O O9 0.312286 0.472429 0.011709
O O10 0.918023 0.451160 0.286356
O O11 0.576214 0.158055 0.521956
O O12 0.500000 0.000000 0.500000
O O13 0.712092 0.013692 0.531407
O O14 0.464867 0.750000 0.315037
O O15 0.000000 0.000000 0.500000
#
# Coordination Sequence:
#
# PCOD8073326 Si02
#       8
#     2   2   4   4   4   2   2   4
#     4   9  15  30  52  79 109 141 177 225 271 314
#     4  11  18  27  54  82 112 136 185 228 266 326
#     4  11  20  31  55  83 114 140 184 228 276 318
#     4  10  20  34  51  86 115 141 178 231 277 326
#     4  11  22  38  59  81 110 145 184 229 276 323
#     4   9  18  33  58  76 104 141 192 227 257 326
#     4  11  17  30  54  83 103 148 186 228 264 322
#     4  12  19  36  56  82 109 146 184 224 272 324
#
# _framework density 17.402266000000001
#
# number of rings (size 3 to 8) (size 9 to 14) (size 15 to 20)
#    0.000    1.333    6.667    1.500    0.000    0.667 
#    0.000    1.667    0.000    0.000    0.000    0.000 
#    0.000    0.000    0.000    0.000    0.000    0.000 
#
# Total GULP energy -297497.998203 kJ/mol
# GULP energy per Si atom -12395.749925 kJ/mol
# Density = 1.736266 g / cm^3
# Si number density = 17.402266 Si / 1000 Ang^3
#
#
#
# Elastic Constant Matrix: (Units=GPa)
#
#
# Indices 1 2 3 4 5 6 
#
# 1 85.8272 43.9471 42.7000 0.0000 1.6096 0.0000
# 2 43.9471 139.4041 32.9506 0.0000 -0.2543 0.0000
# 3 42.7000 32.9506 95.7057 0.0000 12.6126 0.0000
# 4 0.0000 0.0000 0.0000 22.6675 0.0000 1.5420
# 5 1.6096 -0.2543 12.6126 0.0000 18.5946 0.0000
# 6 0.0000 0.0000 0.0000 1.5420 0.0000 22.4897
#
#
#
# Elastic Compliance Matrix: (Units=1/GPa)
#
#
# Indices 1 2 3 4 5 6 
#
# 1 0.016786 -0.003727 -0.006598 0.000000 0.002971 0.000000
# 2 -0.003727 0.008713 -0.001532 0.000000 0.001481 0.000000
# 3 -0.006598 -0.001532 0.015207 0.000000 -0.009764 0.000000
# 4 0.000000 0.000000 0.000000 0.044323 0.000000 -0.003039
# 5 0.002971 0.001481 -0.009764 0.000000 0.060165 0.000000
# 6 0.000000 0.000000 0.000000 -0.003039 0.000000 0.044673
#
#
# Mechanical properties :
#
#
# Convention : Reuss Voigt Hill
#
# Bulk Modulus (GPa) = 58.85027 62.23695 60.54361
# Shear Modulus (GPa) = 22.80547 26.17299 24.48923
#
# Velocity S-wave (km/s) = 3.62399 3.88235 3.75539
# Velocity P-wave (km/s) = 7.16953 7.47918 7.32599
#
# Compressibility (1/GPa) = 0.01699228
#
# Stress axis : x y z
#
# Youngs Moduli (GPa) = 59.57174 114.76847 65.76036
#
# Poissons Ratio (x) = 0.42774 0.43388
# Poissons Ratio (y) = 0.22202 0.10076
# Poissons Ratio (z) = 0.39304 0.17585
#
# Static dielectric constant tensor:
#      x y z
#    x 2.356430 0.000000 0.334330 
#    y 0.000000 4.076910 0.000000 
#    z 0.334330 0.000000 3.315290 
# 
# 
# High freq. dielectric constant tensor:
#      x y z
#    x 1.624070 0.000000 0.029340 
#    y 0.000000 1.691270 0.000000 
#    z 0.029340 0.000000 1.671330 
# 
# From -- ./inp_files/12650.got.cif
#   From: 2010.06.25/outbox.cif.g09.slc.cpg/sg11_7_cif.got.tgz:12650.got - 2010.06.27 23:14:04.
