data_PCOD8073816
_publ_section_title
;
Structure prediction by ZEFSAII (Michael W. Deem and Ramdas Pophale) SiO2 
 PCOD8073816
Probable space group: P 21/M
;
_chemical_formula_sum "Si O2"
_cell_formula_units_Z 24
_cell_length_a 14.338027
_cell_length_b 10.975288
_cell_length_c 18.586145
_cell_angle_alpha 90.000000
_cell_angle_beta 22.624279
_cell_angle_gamma 90.000000
_cell_volume 1125.127093
_symmetry_space_group_name_H-M "P 21/M"
_symmetry_group_IT_number 11
_symmetry_cell_setting 'monoclinic'
loop_
_space_group_symop_operation_xyz
x,y,z
-x,1/2+y,-z
-x,-y,-z
x,1/2-y,z
loop_
_atom_site_type_symbol
_atom_site_label
_atom_site_fract_x
_atom_site_fract_y
_atom_site_fract_z
Si Si1 0.904530 0.250000 0.157467
Si Si2 0.826965 0.388431 0.765318
Si Si3 0.262444 0.509165 0.781141
Si Si4 0.675209 0.750000 0.262589
Si Si5 0.794617 0.250000 0.491105
Si Si6 0.808142 0.750000 0.904713
Si Si7 0.479553 0.493698 0.900652
Si Si8 0.336003 0.009633 0.381301
O O1 0.731443 0.130473 0.271889
O O2 0.989726 0.250000 0.178078
O O3 0.134873 0.250000 0.939777
O O4 0.764479 0.250000 0.790402
O O5 0.710999 0.475869 0.787576
O O6 0.114849 0.406314 0.563979
O O7 0.715733 0.418828 0.922551
O O8 0.295824 0.378669 0.714477
O O9 0.457587 0.519249 0.705728
O O10 0.000000 0.500000 0.000000
O O11 0.400976 0.750000 0.432285
O O12 0.760005 0.371409 0.563058
O O13 0.062434 0.250000 0.265264
O O14 0.642619 0.866715 0.032047
O O15 0.563337 0.557144 0.766815
#
# Coordination Sequence:
#
# PCOD8073816 Si02
#       8
#     2   4   4   2   2   2   4   4
#     4  10  20  34  63  89 121 164 219 268 334 380
#     4  11  25  42  62  99 136 163 219 273 324 389
#     4   9  18  35  60  91 121 168 215 268 317 388
#     4   8  16  34  54  79 120 156 210 259 309 383
#     4  10  20  36  64  95 116 165 221 262 308 391
#     4  12  20  40  67  91 127 169 218 271 317 394
#     4  11  23  43  67  94 127 178 213 265 324 397
#     4  11  22  41  68  92 132 170 217 263 329 385
#
# _framework density 21.330924
#
# number of rings (size 3 to 8) (size 9 to 14) (size 15 to 20)
#    0.000    1.667    2.500    4.000    1.167    0.667 
#    0.000    3.333    5.500    0.000    0.000    0.000 
#    0.000    0.000    0.000    0.000    0.000    0.000 
#
# Total GULP energy -297481.607704 kJ/mol
# GULP energy per Si atom -12395.066988 kJ/mol
# Density = 2.128237 g / cm^3
# Si number density = 21.330924 Si / 1000 Ang^3
#
#
#
# Elastic Constant Matrix: (Units=GPa)
#
#
# Indices 1 2 3 4 5 6 
#
# 1 85.5968 19.6006 42.6819 0.0000 -5.9184 0.0000
# 2 19.6006 118.5616 20.7607 0.0000 -9.9501 0.0000
# 3 42.6819 20.7607 120.7960 0.0000 1.3633 0.0000
# 4 0.0000 0.0000 0.0000 8.2356 0.0000 -16.0182
# 5 -5.9184 -9.9501 1.3633 0.0000 25.7062 0.0000
# 6 0.0000 0.0000 0.0000 -16.0182 0.0000 18.3675
#
#
#
# Elastic Compliance Matrix: (Units=1/GPa)
#
#
# Indices 1 2 3 4 5 6 
#
# 1 0.014691 -0.001288 -0.005005 0.000000 0.003149 0.000000
# 2 -0.001288 0.009125 -0.001150 0.000000 0.003297 0.000000
# 3 -0.005005 -0.001150 0.010269 0.000000 -0.002142 0.000000
# 4 0.000000 0.000000 0.000000 -0.174405 0.000000 -0.152097
# 5 0.003149 0.003297 -0.002142 0.000000 0.041016 0.000000
# 6 0.000000 0.000000 0.000000 -0.152097 0.000000 -0.078200
#
#
# Mechanical properties :
#
#
# Convention : Reuss Voigt Hill
#
# Bulk Modulus (GPa) = 52.08808 54.56008 53.32408
# Shear Modulus (GPa) = -32.00687 26.58929 -2.70879
#
# Velocity S-wave (km/s) = -3.87782 3.53443 -1.12812
# Velocity P-wave (km/s) = 2.10287 6.50305 4.83279
#
# Compressibility (1/GPa) = 0.01919825
#
# Stress axis : x y z
#
# Youngs Moduli (GPa) = 68.06838 109.58313 97.38222
#
# Poissons Ratio (x) = 0.14114 0.48741
# Poissons Ratio (y) = 0.08767 0.11203
# Poissons Ratio (z) = 0.34069 0.12607
#
# Static dielectric constant tensor:
#      x y z
#    x 3.346210 0.000000 -0.119930 
#    y 0.000000 4.484660 0.000000 
#    z -0.119930 0.000000 3.880690 
# 
# 
# High freq. dielectric constant tensor:
#      x y z
#    x 1.804090 0.000000 -0.010350 
#    y 0.000000 1.842510 0.000000 
#    z -0.010350 0.000000 1.847330 
# 
# From -- ./inp_files/27693.got.cif
#   From: 2010.06.25/outbox.cif.g09.slc.cpg/sg11_14_cif.got.tgz:27693.got - 2010.06.27 23:14:04.
