data_PCOD8073350
_publ_section_title
;
Structure prediction by ZEFSAII (Michael W. Deem and Ramdas Pophale) SiO2 
 PCOD8073350
Probable space group: P 21/M
;
_chemical_formula_sum "Si O2"
_cell_formula_units_Z 24
_cell_length_a 14.867117
_cell_length_b 9.655543
_cell_length_c 14.661203
_cell_angle_alpha 90.000000
_cell_angle_beta 139.838766
_cell_angle_gamma 90.000000
_cell_volume 1357.353270
_symmetry_space_group_name_H-M "P 21/M"
_symmetry_group_IT_number 11
_symmetry_cell_setting 'monoclinic'
loop_
_space_group_symop_operation_xyz
x,y,z
-x,1/2+y,-z
-x,-y,-z
x,1/2-y,z
loop_
_atom_site_type_symbol
_atom_site_label
_atom_site_fract_x
_atom_site_fract_y
_atom_site_fract_z
Si Si1 0.554750 0.589832 0.874853
Si Si2 0.280718 0.089995 0.680169
Si Si3 0.553627 0.591961 0.669833
Si Si4 0.816545 0.590183 0.195177
Si Si5 0.921338 0.590290 0.639848
Si Si6 0.686294 0.908369 0.589639
O O1 0.515590 0.750000 0.860791
O O2 0.418843 0.500740 0.789067
O O3 0.611940 0.565367 0.816310
O O4 0.674688 0.540909 0.036598
O O5 0.325234 0.250000 0.704579
O O6 0.195361 0.064487 0.706533
O O7 0.181122 0.042894 0.520822
O O8 0.504713 0.750000 0.620294
O O9 0.418303 0.499192 0.550796
O O10 0.673033 0.555917 0.687247
O O11 0.846627 0.750000 0.195615
O O12 0.941709 0.501392 0.251812
O O13 0.964512 0.750000 0.660319
O O14 0.843055 0.565036 0.675823
O O15 0.644334 0.750000 0.537655
#
# Coordination Sequence:
#
# PCOD8073350 Si02
#       6
#     4   4   4   4   4   4
#     4  10  20  34  52  77 104 132 167 206 251 300
#     4  10  20  35  54  75  99 132 173 212 249 292
#     4   9  17  30  51  76 100 128 162 203 250 296
#     4  10  22  36  50  72 105 138 168 206 250 298
#     4  10  20  34  52  75 101 131 169 210 251 295
#     4   9  17  31  51  75 101 127 162 207 248 292
#
# _framework density 17.681469
#
# number of rings (size 3 to 8) (size 9 to 14) (size 15 to 20)
#    0.000    2.333    1.667    1.000    0.000    2.667 
#    0.000    0.833    0.000    0.000    0.000    0.000 
#    0.000    0.000    0.000    0.000    0.000    0.000 
#
# Total GULP energy -297600.115496 kJ/mol
# GULP energy per Si atom -12400.004812 kJ/mol
# Density = 1.764123 g / cm^3
# Si number density = 17.681469 Si / 1000 Ang^3
#
#
#
# Elastic Constant Matrix: (Units=GPa)
#
#
# Indices 1 2 3 4 5 6 
#
# 1 82.5196 35.4755 19.3517 0.0000 12.0290 0.0000
# 2 35.4755 57.3243 29.8552 0.0000 16.6712 0.0000
# 3 19.3517 29.8552 48.5517 0.0000 15.9248 0.0000
# 4 0.0000 0.0000 0.0000 28.2318 0.0000 9.4221
# 5 12.0290 16.6712 15.9248 0.0000 27.5566 0.0000
# 6 0.0000 0.0000 0.0000 9.4221 0.0000 29.9743
#
#
#
# Elastic Compliance Matrix: (Units=1/GPa)
#
#
# Indices 1 2 3 4 5 6 
#
# 1 0.016547 -0.009802 -0.000178 0.000000 -0.001191 0.000000
# 2 -0.009802 0.032945 -0.013841 0.000000 -0.007654 0.000000
# 3 -0.000178 -0.013841 0.032583 0.000000 -0.010378 0.000000
# 4 0.000000 0.000000 0.000000 0.039572 0.000000 -0.012439
# 5 -0.001191 -0.007654 -0.010378 0.000000 0.047436 0.000000
# 6 0.000000 0.000000 0.000000 -0.012439 0.000000 0.037272
#
#
# Mechanical properties :
#
#
# Convention : Reuss Voigt Hill
#
# Bulk Modulus (GPa) = 29.04125 39.75116 34.39620
# Shear Modulus (GPa) = 18.83417 24.06675 21.45046
#
# Velocity S-wave (km/s) = 3.26727 3.69335 3.48682
# Velocity P-wave (km/s) = 5.54019 6.38110 5.97546
#
# Compressibility (1/GPa) = 0.03443378
#
# Stress axis : x y z
#
# Youngs Moduli (GPa) = 60.43272 30.35373 30.69121
#
# Poissons Ratio (x) = 0.29751 0.00546
# Poissons Ratio (y) = 0.59233 0.42480
# Poissons Ratio (z) = 0.01074 0.42013
#
# Static dielectric constant tensor:
#      x y z
#    x 3.500590 0.000000 -0.252050 
#    y 0.000000 3.288110 0.000000 
#    z -0.252050 0.000000 3.130940 
# 
# 
# High freq. dielectric constant tensor:
#      x y z
#    x 1.697060 0.000000 -0.014700 
#    y 0.000000 1.684310 0.000000 
#    z -0.014700 0.000000 1.661130 
# 
# From -- ./inp_files/20361.got.cif
#   From: 2010.06.25/outbox.cif.g09.slc.cpg/sg11_11_cif.got.tgz:20361.got - 2010.06.27 23:14:04.
