data_PCOD8073625
_publ_section_title
;
Structure prediction by ZEFSAII (Michael W. Deem and Ramdas Pophale) SiO2 
 PCOD8073625
Probable space group: P 21/M
;
_chemical_formula_sum "Si O2"
_cell_formula_units_Z 28
_cell_length_a 13.452703
_cell_length_b 9.218689
_cell_length_c 18.514419
_cell_angle_alpha 90.000000
_cell_angle_beta 143.134850
_cell_angle_gamma 90.000000
_cell_volume 1377.501468
_symmetry_space_group_name_H-M "P 21/M"
_symmetry_group_IT_number 11
_symmetry_cell_setting 'monoclinic'
loop_
_space_group_symop_operation_xyz
x,y,z
-x,1/2+y,-z
-x,-y,-z
x,1/2-y,z
loop_
_atom_site_type_symbol
_atom_site_label
_atom_site_fract_x
_atom_site_fract_y
_atom_site_fract_z
Si Si1 0.729193 0.413932 0.486280
Si Si2 0.652008 0.086245 0.057539
Si Si3 0.172642 0.921648 0.121463
Si Si4 0.583526 0.086107 0.858933
Si Si5 0.254991 0.911401 0.670340
Si Si6 0.554636 0.077372 0.607312
Si Si7 0.038815 0.580805 0.674284
O O1 0.699159 0.250000 0.497832
O O2 0.788205 0.414841 0.438370
O O3 0.567183 0.512161 0.402848
O O4 0.883788 0.489730 0.614835
O O5 0.618221 0.250000 0.061481
O O6 0.817432 0.027749 0.189743
O O7 0.685707 0.073145 0.992074
O O8 0.500000 0.000000 0.000000
O O9 0.141800 0.750000 0.095072
O O10 0.305346 0.981432 0.140168
O O11 0.258019 0.953597 0.251015
O O12 0.000000 0.000000 0.000000
O O13 0.540718 0.250000 0.812547
O O14 0.411738 0.010069 0.775547
O O15 0.305342 0.750000 0.724777
O O16 0.096389 0.959751 0.625837
O O17 0.529518 0.250000 0.583968
O O18 0.500000 0.000000 0.500000
O O19 0.993382 0.750000 0.654614
#
# Coordination Sequence:
#
# PCOD8073625 Si02
#       7
#     4   4   4   4   4   4   4
#     4  11  23  38  59  89 120 157 206 252 301 360
#     4  10  20  34  55  82 116 156 198 242 293 353
#     4  10  23  42  65  94 125 158 203 257 314 377
#     4  10  20  36  59  86 115 152 195 240 296 357
#     4  10  20  35  57  85 118 156 200 243 288 347
#     4  11  24  44  68  94 125 163 207 260 320 379
#     4  10  21  36  54  84 125 165 203 245 297 355
#
# _framework density 20.326656
#
# number of rings (size 3 to 8) (size 9 to 14) (size 15 to 20)
#    0.000    1.714    2.857    1.286    0.000    4.571 
#    0.000    1.429    0.000    0.000    0.000    0.000 
#    0.000    0.000    0.000    0.000    0.000    0.000 
#
# Total GULP energy -346912.609201 kJ/mol
# GULP energy per Si atom -12389.736043 kJ/mol
# Density = 2.028039 g / cm^3
# Si number density = 20.326656 Si / 1000 Ang^3
#
#
#
# Elastic Constant Matrix: (Units=GPa)
#
#
# Indices 1 2 3 4 5 6 
#
# 1 53.5405 28.4560 27.6258 0.0000 1.0673 0.0000
# 2 28.4560 87.5690 58.3063 0.0000 8.9347 0.0000
# 3 27.6258 58.3063 135.6625 0.0000 6.4835 0.0000
# 4 0.0000 0.0000 0.0000 35.4529 0.0000 5.2380
# 5 1.0673 8.9347 6.4835 0.0000 33.6848 0.0000
# 6 0.0000 0.0000 0.0000 5.2380 0.0000 31.4559
#
#
#
# Elastic Compliance Matrix: (Units=1/GPa)
#
#
# Indices 1 2 3 4 5 6 
#
# 1 0.023038 -0.006242 -0.002072 0.000000 0.001324 0.000000
# 2 -0.006242 0.017984 -0.006298 0.000000 -0.003360 0.000000
# 3 -0.002072 -0.006298 0.010514 0.000000 -0.000288 0.000000
# 4 0.000000 0.000000 0.000000 0.028918 0.000000 -0.004815
# 5 0.001324 -0.003360 -0.000288 0.000000 0.030592 0.000000
# 6 0.000000 0.000000 0.000000 -0.004815 0.000000 0.032592
#
#
# Mechanical properties :
#
#
# Convention : Reuss Voigt Hill
#
# Bulk Modulus (GPa) = 44.81828 56.17203 50.49516
# Shear Modulus (GPa) = 27.73201 30.94430 29.33815
#
# Velocity S-wave (km/s) = 3.69767 3.90596 3.80325
# Velocity P-wave (km/s) = 6.35038 6.93085 6.64695
#
# Compressibility (1/GPa) = 0.02231232
#
# Stress axis : x y z
#
# Youngs Moduli (GPa) = 43.40740 55.60532 95.11527
#
# Poissons Ratio (x) = 0.34707 0.19707
# Poissons Ratio (y) = 0.27094 0.59900
# Poissons Ratio (z) = 0.08994 0.35018
#
# Static dielectric constant tensor:
#      x y z
#    x 3.722880 0.000000 -0.205730 
#    y 0.000000 3.690410 0.000000 
#    z -0.205730 0.000000 3.853910 
# 
# 
# High freq. dielectric constant tensor:
#      x y z
#    x 1.788410 0.000000 -0.008830 
#    y 0.000000 1.789090 0.000000 
#    z -0.008830 0.000000 1.802700 
# 
# From -- ./inp_files/54460.got.cif
#   From: 2010.06.25/outbox.cif.g09.slc.cpg/sg11_28_cif.got.tgz:54460.got - 2010.06.27 23:14:04.
