data_PCOD8073658
_publ_section_title
;
Structure prediction by ZEFSAII (Michael W. Deem and Ramdas Pophale) SiO2 
 PCOD8073658
Probable space group: P 21/M
;
_chemical_formula_sum "Si O2"
_cell_formula_units_Z 20
_cell_length_a 10.998401
_cell_length_b 17.416371
_cell_length_c 13.610949
_cell_angle_alpha 90.000000
_cell_angle_beta 159.500913
_cell_angle_gamma 90.000000
_cell_volume 913.024454
_symmetry_space_group_name_H-M "P 21/M"
_symmetry_group_IT_number 11
_symmetry_cell_setting 'monoclinic'
loop_
_space_group_symop_operation_xyz
x,y,z
-x,1/2+y,-z
-x,-y,-z
x,1/2-y,z
loop_
_atom_site_type_symbol
_atom_site_label
_atom_site_fract_x
_atom_site_fract_y
_atom_site_fract_z
Si Si1 0.475301 0.835520 0.535515
Si Si2 0.758682 0.665420 0.374447
Si Si3 0.724752 0.066792 0.124559
Si Si4 0.253910 0.869309 0.151904
Si Si5 0.361966 0.992902 0.505916
O O1 0.412527 0.750000 0.531442
O O2 0.272449 0.842870 0.279229
O O3 0.346106 0.900827 0.516007
O O4 0.881764 0.850935 0.824265
O O5 0.886618 0.750000 0.437282
O O6 0.538462 0.677960 0.307145
O O7 0.081271 0.609172 0.638984
O O8 0.519704 0.629155 0.110170
O O9 0.988542 0.031160 0.243453
O O10 0.500000 0.000000 0.000000
O O11 0.349308 0.960634 0.211783
O O12 0.500000 0.000000 0.500000
#
# Coordination Sequence:
#
# PCOD8073658 Si02
#       5
#     4   4   4   4   4
#     4  11  20  32  51  82 118 151 186 237 291 344
#     4  11  21  38  63  90 114 151 201 250 290 338
#     4  11  24  41  61  87 122 158 193 239 295 355
#     4  10  20  34  55  84 117 148 189 241 291 337
#     4   9  20  37  59  83 112 152 193 231 284 348
#
# _framework density 21.905218999999999
#
# number of rings (size 3 to 8) (size 9 to 14) (size 15 to 20)
#    0.000    1.600    0.000    7.200    0.000    4.800 
#    0.000    2.000    0.000    0.000    0.000    0.000 
#    0.000    0.000    0.000    0.000    0.000    0.000 
#
# Total GULP energy -247848.273215 kJ/mol
# GULP energy per Si atom -12392.413661 kJ/mol
# Density = 2.185536 g / cm^3
# Si number density = 21.905219 Si / 1000 Ang^3
#
#
#
# Elastic Constant Matrix: (Units=GPa)
#
#
# Indices 1 2 3 4 5 6 
#
# 1 40.9360 23.1459 17.3136 0.0000 8.8257 0.0000
# 2 23.1459 195.1541 36.3158 0.0000 5.7748 0.0000
# 3 17.3136 36.3158 103.3601 0.0000 0.2300 0.0000
# 4 0.0000 0.0000 0.0000 28.2615 0.0000 -3.4746
# 5 8.8257 5.7748 0.2300 0.0000 20.3381 0.0000
# 6 0.0000 0.0000 0.0000 -3.4746 0.0000 20.1609
#
#
#
# Elastic Compliance Matrix: (Units=1/GPa)
#
#
# Indices 1 2 3 4 5 6 
#
# 1 0.030248 -0.002443 -0.004181 0.000000 -0.012385 0.000000
# 2 -0.002443 0.005728 -0.001602 0.000000 -0.000548 0.000000
# 3 -0.004181 -0.001602 0.010933 0.000000 0.002146 0.000000
# 4 0.000000 0.000000 0.000000 0.036150 0.000000 0.006230
# 5 -0.012385 -0.000548 0.002146 0.000000 0.054675 0.000000
# 6 0.000000 0.000000 0.000000 0.006230 0.000000 0.050675
#
#
# Mechanical properties :
#
#
# Convention : Reuss Voigt Hill
#
# Bulk Modulus (GPa) = 32.83245 54.77787 43.80516
# Shear Modulus (GPa) = 23.25428 31.26376 27.25902
#
# Velocity S-wave (km/s) = 3.26173 3.78197 3.53144
# Velocity P-wave (km/s) = 5.40427 6.64320 6.05550
#
# Compressibility (1/GPa) = 0.03045767
#
# Stress axis : x y z
#
# Youngs Moduli (GPa) = 33.05980 174.57259 91.46282
#
# Poissons Ratio (x) = 0.42649 0.38240
# Poissons Ratio (y) = 0.08077 0.14654
# Poissons Ratio (z) = 0.13822 0.27970
#
# Static dielectric constant tensor:
#      x y z
#    x 3.572330 0.000000 -0.082180 
#    y 0.000000 4.933810 0.000000 
#    z -0.082180 0.000000 3.948770 
# 
# 
# High freq. dielectric constant tensor:
#      x y z
#    x 1.804900 0.000000 -0.013480 
#    y 0.000000 1.886270 0.000000 
#    z -0.013480 0.000000 1.864560 
# 
# From -- ./inp_files/39877.got.cif
#   From: 2010.06.25/outbox.cif.g09.slc.cpg/sg11_20_cif.got.tgz:39877.got - 2010.06.27 23:14:04.
