data_PCOD8073486
_publ_section_title
;
Structure prediction by ZEFSAII (Michael W. Deem and Ramdas Pophale) SiO2 
 PCOD8073486
Probable space group: P 21/M
;
_chemical_formula_sum "Si O2"
_cell_formula_units_Z 28
_cell_length_a 16.051512
_cell_length_b 8.840328
_cell_length_c 21.462701
_cell_angle_alpha 90.000000
_cell_angle_beta 151.744947
_cell_angle_gamma 90.000000
_cell_volume 1441.765160
_symmetry_space_group_name_H-M "P 21/M"
_symmetry_group_IT_number 11
_symmetry_cell_setting 'monoclinic'
loop_
_space_group_symop_operation_xyz
x,y,z
-x,1/2+y,-z
-x,-y,-z
x,1/2-y,z
loop_
_atom_site_type_symbol
_atom_site_label
_atom_site_fract_x
_atom_site_fract_y
_atom_site_fract_z
Si Si1 0.078562 0.075769 0.489713
Si Si2 0.420999 0.429577 0.643823
Si Si3 0.558217 0.429725 0.603947
Si Si4 0.419364 0.928619 0.036676
Si Si5 0.718844 0.075540 0.928353
Si Si6 0.263369 0.923682 0.806807
Si Si7 0.083072 0.074390 0.115259
O O1 0.108418 0.250000 0.526798
O O2 0.257932 0.004830 0.577991
O O3 0.940268 0.055018 0.342625
O O4 0.000000 0.000000 0.500000
O O5 0.405137 0.250000 0.634217
O O6 0.426979 0.479577 0.574512
O O7 0.604355 0.490811 0.795049
O O8 0.500000 0.500000 0.500000
O O9 0.561047 0.250000 0.598557
O O10 0.752614 0.484761 0.749468
O O11 0.411731 0.750000 0.035299
O O12 0.303326 0.987434 0.902120
O O13 0.339704 0.003743 0.046174
O O14 0.621169 0.981224 0.165880
O O15 0.665584 0.250000 0.895179
O O16 0.927417 0.056068 0.062643
O O17 0.322295 0.750000 0.840324
O O18 0.130972 0.250000 0.134928
O O19 0.000000 0.000000 0.000000
#
# Coordination Sequence:
#
# PCOD8073486 Si02
#       7
#     4   4   4   4   4   4   4
#     4  10  20  34  54  78 108 144 184 229 279 334
#     4   9  18  34  56  80 109 147 187 231 282 347
#     4  11  23  41  62  87 120 157 200 247 300 359
#     4   9  17  31  53  75 100 139 182 220 264 328
#     4   9  17  31  55  83 105 135 185 229 268 334
#     4   9  18  31  47  74 108 135 169 224 279 321
#     4  11  21  37  61  87 116 151 192 240 294 349
#
# _framework density 19.420638
#
# number of rings (size 3 to 8) (size 9 to 14) (size 15 to 20)
#    0.000    2.286    1.429    1.714    0.000    2.857 
#    0.000    7.143    0.000    3.429    0.000    0.000 
#    0.000    0.000    0.000    0.000    0.000    0.000 
#
# Total GULP energy -346947.274078 kJ/mol
# GULP energy per Si atom -12390.974074 kJ/mol
# Density = 1.937644 g / cm^3
# Si number density = 19.420638 Si / 1000 Ang^3
#
#
#
# Elastic Constant Matrix: (Units=GPa)
#
#
# Indices 1 2 3 4 5 6 
#
# 1 160.2119 33.5198 57.4709 0.0000 -5.9265 0.0000
# 2 33.5198 44.3438 27.5509 0.0000 -3.8515 0.0000
# 3 57.4709 27.5509 109.8315 0.0000 -1.1760 0.0000
# 4 0.0000 0.0000 0.0000 29.9528 0.0000 -0.6960
# 5 -5.9265 -3.8515 -1.1760 0.0000 28.1901 0.0000
# 6 0.0000 0.0000 0.0000 -0.6960 0.0000 25.2799
#
#
#
# Elastic Compliance Matrix: (Units=1/GPa)
#
#
# Indices 1 2 3 4 5 6 
#
# 1 0.008337 -0.004155 -0.003309 0.000000 0.001047 0.000000
# 2 -0.004155 0.029110 -0.005097 0.000000 0.002891 0.000000
# 3 -0.003309 -0.005097 0.012105 0.000000 -0.000887 0.000000
# 4 0.000000 0.000000 0.000000 0.033407 0.000000 0.000920
# 5 0.001047 0.002891 -0.000887 0.000000 0.036052 0.000000
# 6 0.000000 0.000000 0.000000 0.000920 0.000000 0.039582
#
#
# Mechanical properties :
#
#
# Convention : Reuss Voigt Hill
#
# Bulk Modulus (GPa) = 40.93307 61.27448 51.10377
# Shear Modulus (GPa) = 26.06093 29.74093 27.90093
#
# Velocity S-wave (km/s) = 3.66720 3.91757 3.79445
# Velocity P-wave (km/s) = 6.24932 7.21684 6.75044
#
# Compressibility (1/GPa) = 0.02443013
#
# Stress axis : x y z
#
# Youngs Moduli (GPa) = 119.95114 34.35273 82.60853
#
# Poissons Ratio (x) = 0.14274 0.27334
# Poissons Ratio (y) = 0.49841 0.42105
# Poissons Ratio (z) = 0.39690 0.17509
#
# Static dielectric constant tensor:
#      x y z
#    x 4.066490 0.000000 0.074020 
#    y 0.000000 3.280230 0.000000 
#    z 0.074020 0.000000 3.730680 
# 
# 
# High freq. dielectric constant tensor:
#      x y z
#    x 1.769570 0.000000 -0.001740 
#    y 0.000000 1.721170 0.000000 
#    z -0.001740 0.000000 1.759630 
# 
# From -- ./inp_files/65474.got.cif
#   From: 2010.06.25/outbox.cif.g09.slc.cpg/sg11_33_cif.got.tgz:65474.got - 2010.06.27 23:14:04.
