data_PCOD8073564
_publ_section_title
;
Structure prediction by ZEFSAII (Michael W. Deem and Ramdas Pophale) SiO2 
 PCOD8073564
Probable space group: P 21/M
;
_chemical_formula_sum "Si O2"
_cell_formula_units_Z 28
_cell_length_a 15.078330
_cell_length_b 9.388929
_cell_length_c 11.012028
_cell_angle_alpha 90.000000
_cell_angle_beta 120.913151
_cell_angle_gamma 90.000000
_cell_volume 1337.510103
_symmetry_space_group_name_H-M "P 21/M"
_symmetry_group_IT_number 11
_symmetry_cell_setting 'monoclinic'
loop_
_space_group_symop_operation_xyz
x,y,z
-x,1/2+y,-z
-x,-y,-z
x,1/2-y,z
loop_
_atom_site_type_symbol
_atom_site_label
_atom_site_fract_x
_atom_site_fract_y
_atom_site_fract_z
Si Si1 0.919023 0.412491 0.595400
Si Si2 0.858727 0.908050 0.342928
Si Si3 0.439847 0.081722 0.565501
Si Si4 0.734180 0.912834 0.031892
Si Si5 0.789045 0.907143 0.659188
Si Si6 0.531908 0.419944 0.895469
Si Si7 0.902877 0.591468 0.973130
O O1 0.890258 0.250000 0.585754
O O2 0.846816 0.477500 0.439513
O O3 0.884020 0.490504 0.691893
O O4 0.039163 0.443709 0.662830
O O5 0.871053 0.750000 0.407640
O O6 0.754929 0.916254 0.190843
O O7 0.456361 0.250000 0.555709
O O8 0.321570 0.034466 0.460809
O O9 0.467200 0.042866 0.726238
O O10 0.500000 0.000000 0.500000
O O11 0.704987 0.750000 0.972200
O O12 0.844293 0.963035 0.052467
O O13 0.645602 0.025462 0.939223
O O14 0.804815 0.750000 0.613780
O O15 0.803744 0.903524 0.813652
O O16 0.530437 0.250000 0.918958
O O17 0.500000 0.500000 0.000000
O O18 0.947739 0.750000 0.026531
O O19 0.000000 0.500000 0.000000
#
# Coordination Sequence:
#
# PCOD8073564 Si02
#       7
#     4   4   4   4   4   4   4
#     4  10  20  34  54  83 113 146 192 239 283 343
#     4   9  19  35  55  79 114 153 187 232 291 350
#     4  10  23  43  66  90 120 160 208 260 316 373
#     4  10  21  39  62  85 117 161 203 247 305 367
#     4  10  21  37  58  83 115 154 193 235 293 359
#     4  11  25  43  64  94 128 165 212 268 325 383
#     4  10  21  37  60  90 124 161 200 245 303 367
#
# _framework density 20.934422000000001
#
# number of rings (size 3 to 8) (size 9 to 14) (size 15 to 20)
#    0.000    2.000    0.000    2.571    2.000    6.286 
#    0.000    0.000    0.000    0.000    0.000    0.000 
#    0.000    0.000    0.000    0.000    0.000    0.000 
#
# Total GULP energy -346870.625862 kJ/mol
# GULP energy per Si atom -12388.236638 kJ/mol
# Density = 2.088677 g / cm^3
# Si number density = 20.934422 Si / 1000 Ang^3
#
#
#
# Elastic Constant Matrix: (Units=GPa)
#
#
# Indices 1 2 3 4 5 6 
#
# 1 66.4419 33.9941 22.9275 0.0000 -6.3471 0.0000
# 2 33.9941 79.1142 29.3142 0.0000 -2.9165 0.0000
# 3 22.9275 29.3142 112.7067 0.0000 0.1281 0.0000
# 4 0.0000 0.0000 0.0000 28.6963 0.0000 -2.2748
# 5 -6.3471 -2.9165 0.1281 0.0000 32.0061 0.0000
# 6 0.0000 0.0000 0.0000 -2.2748 0.0000 40.3797
#
#
#
# Elastic Compliance Matrix: (Units=1/GPa)
#
#
# Indices 1 2 3 4 5 6 
#
# 1 0.020027 -0.007717 -0.002070 0.000000 0.003277 0.000000
# 2 -0.007717 0.017015 -0.002856 0.000000 0.000032 0.000000
# 3 -0.002070 -0.002856 0.010037 0.000000 -0.000711 0.000000
# 4 0.000000 0.000000 0.000000 0.035004 0.000000 0.001972
# 5 0.003277 0.000032 -0.000711 0.000000 0.031899 0.000000
# 6 0.000000 0.000000 0.000000 0.001972 0.000000 0.024876
#
#
# Mechanical properties :
#
#
# Convention : Reuss Voigt Hill
#
# Bulk Modulus (GPa) = 45.88746 47.85940 46.87343
# Shear Modulus (GPa) = 29.16995 31.68490 30.42743
#
# Velocity S-wave (km/s) = 3.73687 3.89463 3.81657
# Velocity P-wave (km/s) = 6.37073 6.56776 6.46999
#
# Compressibility (1/GPa) = 0.02179245
#
# Stress axis : x y z
#
# Youngs Moduli (GPa) = 49.93367 58.77116 99.62805
#
# Poissons Ratio (x) = 0.45354 0.20628
# Poissons Ratio (y) = 0.38534 0.28451
# Poissons Ratio (z) = 0.10339 0.16783
#
# Static dielectric constant tensor:
#      x y z
#    x 3.676240 0.000000 -0.132160 
#    y 0.000000 3.763370 0.000000 
#    z -0.132160 0.000000 4.132360 
# 
# 
# High freq. dielectric constant tensor:
#      x y z
#    x 1.813920 0.000000 -0.006660 
#    y 0.000000 1.809580 0.000000 
#    z -0.006660 0.000000 1.838080 
# 
# From -- ./inp_files/38484.got.cif
#   From: 2010.06.25/outbox.cif.g09.slc.cpg/sg11_20_cif.got.tgz:38484.got - 2010.06.27 23:14:04.
