data_PCOD8073926
_publ_section_title
;
Structure prediction by ZEFSAII (Michael W. Deem and Ramdas Pophale) SiO2 
 PCOD8073926
Probable space group: P 21/M
;
_chemical_formula_sum "Si O2"
_cell_formula_units_Z 32
_cell_length_a 11.820146
_cell_length_b 8.803993
_cell_length_c 28.911205
_cell_angle_alpha 90.000000
_cell_angle_beta 148.553524
_cell_angle_gamma 90.000000
_cell_volume 1569.607551
_symmetry_space_group_name_H-M "P 21/M"
_symmetry_group_IT_number 11
_symmetry_cell_setting 'monoclinic'
loop_
_space_group_symop_operation_xyz
x,y,z
-x,1/2+y,-z
-x,-y,-z
x,1/2-y,z
loop_
_atom_site_type_symbol
_atom_site_label
_atom_site_fract_x
_atom_site_fract_y
_atom_site_fract_z
Si Si1 0.404659 0.427854 0.326544
Si Si2 0.887962 0.924177 0.917051
Si Si3 0.105572 0.070744 0.663692
Si Si4 0.311006 0.076128 0.826478
Si Si5 0.383883 0.569347 0.504149
Si Si6 0.955154 0.577277 0.177448
Si Si7 0.479244 0.071594 0.727251
Si Si8 0.731556 0.424737 0.021351
O O1 0.439631 0.250000 0.332655
O O2 0.497366 0.486358 0.407761
O O3 0.525864 0.507501 0.326296
O O4 0.152113 0.465192 0.236283
O O5 0.839943 0.750000 0.912394
O O6 0.663317 0.002933 0.824734
O O7 0.046644 0.939272 0.929154
O O8 0.000000 0.000000 0.000000
O O9 0.088648 0.250000 0.665104
O O10 0.230619 0.996770 0.751304
O O11 0.242683 0.031018 0.665747
O O12 0.861572 0.006085 0.576725
O O13 0.368948 0.250000 0.835957
O O14 0.114972 0.061872 0.794133
O O15 0.533107 0.001950 0.922937
O O16 0.500000 0.500000 0.500000
O O17 0.392453 0.750000 0.502543
O O18 0.021541 0.750000 0.188728
O O19 0.754538 0.524347 0.075690
O O20 0.520179 0.250000 0.739998
O O21 0.679732 0.250000 0.016493
#
# Coordination Sequence:
#
# PCOD8073926 Si02
#       8
#     4   4   4   4   4   4   4   4
#     4  11  23  39  59  86 122 160 195 245 306 359
#     4  11  22  36  57  83 118 162 204 248 297 351
#     4   9  19  38  61  86 117 153 194 244 301 357
#     4   9  18  33  55  83 114 150 192 240 296 352
#     4  10  22  41  66  93 122 156 197 243 301 362
#     4  11  21  34  57  85 113 152 201 245 286 350
#     4  11  22  38  62  88 116 155 204 249 296 356
#     4  10  20  35  54  79 115 155 191 237 299 352
#
# _framework density 20.387263000000001
#
# number of rings (size 3 to 8) (size 9 to 14) (size 15 to 20)
#    0.000    1.750    1.250    3.375    0.000    5.000 
#    0.000    1.875    0.000    5.250    0.000    0.000 
#    0.000    0.000    0.000    0.000    0.000    0.000 
#
# Total GULP energy -396827.682963 kJ/mol
# GULP energy per Si atom -12400.865093 kJ/mol
# Density = 2.034086 g / cm^3
# Si number density = 20.387263 Si / 1000 Ang^3
#
#
#
# Elastic Constant Matrix: (Units=GPa)
#
#
# Indices 1 2 3 4 5 6 
#
# 1 118.0924 42.1082 68.6534 0.0000 -7.4219 0.0000
# 2 42.1082 70.1619 30.5175 0.0000 -6.7451 0.0000
# 3 68.6534 30.5175 140.1829 0.0000 -7.1964 0.0000
# 4 0.0000 0.0000 0.0000 19.3947 0.0000 -4.1956
# 5 -7.4219 -6.7451 -7.1964 0.0000 42.5431 0.0000
# 6 0.0000 0.0000 0.0000 -4.1956 0.0000 24.2610
#
#
#
# Elastic Compliance Matrix: (Units=1/GPa)
#
#
# Indices 1 2 3 4 5 6 
#
# 1 0.013739 -0.005830 -0.005431 0.000000 0.000554 0.000000
# 2 -0.005830 0.018377 -0.001057 0.000000 0.001718 0.000000
# 3 -0.005431 -0.001057 0.010053 0.000000 0.000586 0.000000
# 4 0.000000 0.000000 0.000000 0.053565 0.000000 0.009263
# 5 0.000554 0.001718 0.000586 0.000000 0.023974 0.000000
# 6 0.000000 0.000000 0.000000 0.009263 0.000000 0.042820
#
#
# Mechanical properties :
#
#
# Convention : Reuss Voigt Hill
#
# Bulk Modulus (GPa) = 57.03591 67.88838 62.46215
# Shear Modulus (GPa) = 25.90570 29.71696 27.81133
#
# Velocity S-wave (km/s) = 3.56853 3.82203 3.69745
# Velocity P-wave (km/s) = 6.70941 7.26972 6.99518
#
# Compressibility (1/GPa) = 0.01753281
#
# Stress axis : x y z
#
# Youngs Moduli (GPa) = 72.78658 54.41698 99.46833
#
# Poissons Ratio (x) = 0.31725 0.54020
# Poissons Ratio (y) = 0.42435 0.10516
# Poissons Ratio (z) = 0.39529 0.05753
#
# Static dielectric constant tensor:
#      x y z
#    x 3.773880 0.000000 -0.080230 
#    y 0.000000 3.456410 0.000000 
#    z -0.080230 0.000000 3.913220 
# 
# 
# High freq. dielectric constant tensor:
#      x y z
#    x 1.808330 0.000000 -0.003030 
#    y 0.000000 1.769840 0.000000 
#    z -0.003030 0.000000 1.805920 
# 
# From -- ./inp_files/73151.got.cif
#   From: 2010.06.25/outbox.cif.g09.slc.cpg/sg11_37_cif.got.tgz:73151.got - 2010.06.27 23:14:04.
