data_PCOD8073368
_publ_section_title
;
Structure prediction by ZEFSAII (Michael W. Deem and Ramdas Pophale) SiO2 
 PCOD8073368
Probable space group: P 21/M
;
_chemical_formula_sum "Si O2"
_cell_formula_units_Z 28
_cell_length_a 12.543125
_cell_length_b 9.008074
_cell_length_c 14.827571
_cell_angle_alpha 90.000000
_cell_angle_beta 105.563461
_cell_angle_gamma 90.000000
_cell_volume 1613.929415
_symmetry_space_group_name_H-M "P 21/M"
_symmetry_group_IT_number 11
_symmetry_cell_setting 'monoclinic'
loop_
_space_group_symop_operation_xyz
x,y,z
-x,1/2+y,-z
-x,-y,-z
x,1/2-y,z
loop_
_atom_site_type_symbol
_atom_site_label
_atom_site_fract_x
_atom_site_fract_y
_atom_site_fract_z
Si Si1 0.889544 0.923669 0.280254
Si Si2 0.851598 0.077037 0.897935
Si Si3 0.289303 0.423889 0.269873
Si Si4 0.243502 0.922713 0.596893
Si Si5 0.860117 0.078324 0.617531
Si Si6 0.516205 0.422793 0.409085
Si Si7 0.072633 0.923419 0.889442
O O1 0.874211 0.750000 0.260876
O O2 0.011942 0.963883 0.342393
O O3 0.801475 0.978365 0.332616
O O4 0.863444 0.007886 0.180853
O O5 0.856567 0.250000 0.876611
O O6 0.741192 0.006184 0.830513
O O7 0.853139 0.046419 0.005105
O O8 0.955066 0.002936 0.871568
O O9 0.271297 0.250000 0.252935
O O10 0.212418 0.477725 0.333702
O O11 0.416419 0.463763 0.319312
O O12 0.235037 0.750000 0.621092
O O13 0.172623 0.957941 0.492006
O O14 0.369850 0.973638 0.610911
O O15 0.837099 0.250000 0.636003
O O16 0.500000 0.500000 0.500000
O O17 0.519950 0.250000 0.431669
O O18 0.051283 0.750000 0.870194
#
# Coordination Sequence:
#
# PCOD8073368 Si02
#       7
#     4   4   4   4   4   4   4
#     4  11  22  34  52  80 111 142 179 219 264 319
#     4  10  20  34  53  79 109 140 175 216 266 320
#     4  11  21  32  53  82 110 140 178 221 267 314
#     4  10  21  37  54  73 106 148 184 218 264 314
#     4  10  20  34  52  76 108 145 177 214 263 316
#     4  10  21  36  55  79 105 140 183 227 265 308
#     4  10  20  34  54  79 107 140 176 216 265 319
#
# _framework density 17.348962
#
# number of rings (size 3 to 8) (size 9 to 14) (size 15 to 20)
#    0.000    1.714    2.857    2.143    0.000    4.000 
#    0.000    0.000    0.000    0.857    0.000    0.000 
#    0.000    0.000    0.000    0.000    0.000    0.000 
#
# Total GULP energy -347310.338018 kJ/mol
# GULP energy per Si atom -12403.940644 kJ/mol
# Density = 1.730948 g / cm^3
# Si number density = 17.348962 Si / 1000 Ang^3
#
#
#
# Elastic Constant Matrix: (Units=GPa)
#
#
# Indices 1 2 3 4 5 6 
#
# 1 110.5230 50.5980 63.8731 0.0000 -1.8067 0.0000
# 2 50.5980 87.1960 61.1989 0.0000 -0.6700 0.0000
# 3 63.8731 61.1989 126.8736 0.0000 -5.6087 0.0000
# 4 0.0000 0.0000 0.0000 32.9356 0.0000 -3.6251
# 5 -1.8067 -0.6700 -5.6087 0.0000 15.1657 0.0000
# 6 0.0000 0.0000 0.0000 -3.6251 0.0000 23.2627
#
#
#
# Elastic Compliance Matrix: (Units=1/GPa)
#
#
# Indices 1 2 3 4 5 6 
#
# 1 0.013972 -0.004783 -0.004740 0.000000 -0.000300 0.000000
# 2 -0.004783 0.019060 -0.006886 0.000000 -0.002275 0.000000
# 3 -0.004740 -0.006886 0.013777 0.000000 0.004226 0.000000
# 4 0.000000 0.000000 0.000000 0.030892 0.000000 0.004814
# 5 -0.000300 -0.002275 0.004226 0.000000 0.067365 0.000000
# 6 0.000000 0.000000 0.000000 0.004814 0.000000 0.043737
#
#
# Mechanical properties :
#
#
# Convention : Reuss Voigt Hill
#
# Bulk Modulus (GPa) = 71.48217 75.10362 73.29289
# Shear Modulus (GPa) = 22.09604 24.20098 23.14851
#
# Velocity S-wave (km/s) = 3.57266 3.73896 3.65675
# Velocity P-wave (km/s) = 7.63613 7.87551 7.75675
#
# Compressibility (1/GPa) = 0.01398950
#
# Stress axis : x y z
#
# Youngs Moduli (GPa) = 71.57086 52.46713 72.58647
#
# Poissons Ratio (x) = 0.25096 0.34407
# Poissons Ratio (y) = 0.34233 0.49984
# Poissons Ratio (z) = 0.33926 0.36130
#
# Static dielectric constant tensor:
#      x y z
#    x 2.948610 0.000000 0.162470 
#    y 0.000000 3.303620 0.000000 
#    z 0.162470 0.000000 3.425220 
# 
# 
# High freq. dielectric constant tensor:
#      x y z
#    x 1.648210 0.000000 0.004810 
#    y 0.000000 1.680480 0.000000 
#    z 0.004810 0.000000 1.677350 
# 
# From -- ./inp_files/37035.got.cif
#   From: 2010.06.25/outbox.cif.g09.slc.cpg/sg11_19_cif.got.tgz:37035.got - 2010.06.27 23:14:04.
