data_PCOD8073226
_publ_section_title
;
Structure prediction by ZEFSAII (Michael W. Deem and Ramdas Pophale) SiO2 
 PCOD8073226
Probable space group: P 21/M
;
_chemical_formula_sum "Si O2"
_cell_formula_units_Z 28
_cell_length_a 15.222428
_cell_length_b 8.998646
_cell_length_c 12.733466
_cell_angle_alpha 90.000000
_cell_angle_beta 65.363270
_cell_angle_gamma 90.000000
_cell_volume 1585.465625
_symmetry_space_group_name_H-M "P 21/M"
_symmetry_group_IT_number 11
_symmetry_cell_setting 'monoclinic'
loop_
_space_group_symop_operation_xyz
x,y,z
-x,1/2+y,-z
-x,-y,-z
x,1/2-y,z
loop_
_atom_site_type_symbol
_atom_site_label
_atom_site_fract_x
_atom_site_fract_y
_atom_site_fract_z
Si Si1 0.459779 0.575412 0.281637
Si Si2 0.001960 0.425039 0.111147
Si Si3 0.802087 0.425673 0.311060
Si Si4 0.292537 0.418218 0.456818
Si Si5 0.317577 0.074849 0.808678
Si Si6 0.677719 0.918913 0.786318
Si Si7 0.209727 0.073976 0.070371
O O1 0.443563 0.750000 0.296788
O O2 0.399044 0.496177 0.406033
O O3 0.570900 0.531403 0.236210
O O4 0.419129 0.515406 0.189175
O O5 0.003009 0.250000 0.091618
O O6 0.909465 0.475518 0.224174
O O7 0.098152 0.477842 0.124752
O O8 0.000000 0.500000 0.000000
O O9 0.791683 0.250000 0.319604
O O10 0.783500 0.491769 0.435466
O O11 0.723380 0.490729 0.271191
O O12 0.302225 0.250000 0.494469
O O13 0.256270 0.420763 0.353044
O O14 0.302370 0.250000 0.801056
O O15 0.262691 0.015733 0.939419
O O16 0.646186 0.750000 0.828605
O O17 0.737627 0.991482 0.852437
O O18 0.216215 0.250000 0.072356
#
# Coordination Sequence:
#
# PCOD8073226 Si02
#       7
#     4   4   4   4   4   4   4
#     4   9  18  33  52  79 109 136 174 220 264 307
#     4  10  20  35  56  80 108 140 171 214 264 311
#     4  11  22  34  53  81 110 137 174 224 267 303
#     4   9  19  36  56  75 102 144 182 213 258 316
#     4  10  20  33  54  80 106 144 178 209 264 323
#     4   8  17  34  55  76 102 141 181 211 254 313
#     4   9  17  34  57  78 106 141 176 212 256 319
#
# _framework density 17.660426999999999
#
# number of rings (size 3 to 8) (size 9 to 14) (size 15 to 20)
#    0.857    1.714    1.429    0.857    0.000    2.857 
#    0.000    2.143    0.000    0.000    0.000    0.000 
#    0.000    0.000    0.000    0.000    0.000    0.000 
#
# Total GULP energy -347018.534111 kJ/mol
# GULP energy per Si atom -12393.519075 kJ/mol
# Density = 1.762023 g / cm^3
# Si number density = 17.660427 Si / 1000 Ang^3
#
#
#
# Elastic Constant Matrix: (Units=GPa)
#
#
# Indices 1 2 3 4 5 6 
#
# 1 61.7152 21.9410 25.4319 0.0000 -14.5449 0.0000
# 2 21.9410 49.2349 21.6880 0.0000 -7.3713 0.0000
# 3 25.4319 21.6880 77.1934 0.0000 -9.4673 0.0000
# 4 0.0000 0.0000 0.0000 25.0766 0.0000 1.9365
# 5 -14.5449 -7.3713 -9.4673 0.0000 29.9717 0.0000
# 6 0.0000 0.0000 0.0000 1.9365 0.0000 13.3190
#
#
#
# Elastic Compliance Matrix: (Units=1/GPa)
#
#
# Indices 1 2 3 4 5 6 
#
# 1 0.022291 -0.006801 -0.004485 0.000000 0.007728 0.000000
# 2 -0.006801 0.025676 -0.004789 0.000000 0.001502 0.000000
# 3 -0.004485 -0.004789 0.015986 0.000000 0.001695 0.000000
# 4 0.000000 0.000000 0.000000 0.040331 0.000000 -0.005864
# 5 0.007728 0.001502 0.001695 0.000000 0.038020 0.000000
# 6 0.000000 0.000000 0.000000 -0.005864 0.000000 0.075933
#
#
# Mechanical properties :
#
#
# Convention : Reuss Voigt Hill
#
# Bulk Modulus (GPa) = 31.44466 36.25171 33.84819
# Shear Modulus (GPa) = 19.15801 21.61230 20.38515
#
# Velocity S-wave (km/s) = 3.29720 3.50204 3.40116
# Velocity P-wave (km/s) = 5.68676 6.07651 5.88486
#
# Compressibility (1/GPa) = 0.03180190
#
# Stress axis : x y z
#
# Youngs Moduli (GPa) = 44.86110 38.94694 62.55625
#
# Poissons Ratio (x) = 0.26487 0.28059
# Poissons Ratio (y) = 0.30510 0.29959
# Poissons Ratio (z) = 0.20122 0.18652
#
# Static dielectric constant tensor:
#      x y z
#    x 3.365910 0.000000 -0.010140 
#    y 0.000000 3.152430 0.000000 
#    z -0.010140 0.000000 3.322630 
# 
# 
# High freq. dielectric constant tensor:
#      x y z
#    x 1.674350 0.000000 -0.001260 
#    y 0.000000 1.673470 0.000000 
#    z -0.001260 0.000000 1.679300 
# 
# From -- ./inp_files/51091.got.cif
#   From: 2010.06.25/outbox.cif.g09.slc.cpg/sg11_26_cif.got.tgz:51091.got - 2010.06.27 23:14:04.
