data_PCOD8073136
_publ_section_title
;
Structure prediction by ZEFSAII (Michael W. Deem and Ramdas Pophale) SiO2 
 PCOD8073136
Probable space group: P 21/M
;
_chemical_formula_sum "Si O2"
_cell_formula_units_Z 32
_cell_length_a 22.132831
_cell_length_b 9.173627
_cell_length_c 27.370739
_cell_angle_alpha 90.000000
_cell_angle_beta 161.852759
_cell_angle_gamma 90.000000
_cell_volume 1730.879748
_symmetry_space_group_name_H-M "P 21/M"
_symmetry_group_IT_number 11
_symmetry_cell_setting 'monoclinic'
loop_
_space_group_symop_operation_xyz
x,y,z
-x,1/2+y,-z
-x,-y,-z
x,1/2-y,z
loop_
_atom_site_type_symbol
_atom_site_label
_atom_site_fract_x
_atom_site_fract_y
_atom_site_fract_z
Si Si1 0.164045 0.418927 0.402396
Si Si2 0.546972 0.585578 0.678006
Si Si3 0.181723 0.584771 0.934881
Si Si4 0.881589 0.918491 0.867859
Si Si5 0.864293 0.918480 0.358083
Si Si6 0.573943 0.080298 0.970410
Si Si7 0.866103 0.581536 0.005542
Si Si8 0.090731 0.080340 0.719014
O O1 0.170765 0.250000 0.422115
O O2 0.375040 0.470860 0.548422
O O3 0.022060 0.446302 0.247991
O O4 0.090733 0.506940 0.393210
O O5 0.465532 0.750000 0.620152
O O6 0.654789 0.566618 0.708293
O O7 0.695810 0.553389 0.836109
O O8 0.189887 0.750000 0.960813
O O9 0.208349 0.474383 0.999721
O O10 0.355729 0.554872 0.030907
O O11 0.943941 0.750000 0.914293
O O12 0.937889 0.994120 0.859669
O O13 0.000000 0.000000 0.000000
O O14 0.866563 0.750000 0.374257
O O15 0.644719 0.977937 0.193391
O O16 0.943536 0.944641 0.364614
O O17 0.000000 0.000000 0.500000
O O18 0.592155 0.250000 0.998951
O O19 0.705531 0.990539 0.109089
O O20 0.921704 0.750000 0.052036
O O21 0.098290 0.250000 0.738335
#
# Coordination Sequence:
#
# PCOD8073136 Si02
#       8
#     4   4   4   4   4   4   4   4
#     4  10  21  36  55  78 104 138 177 214 257 310
#     4   9  19  34  52  77 106 134 170 217 261 305
#     4   9  19  35  53  75 103 134 172 217 259 304
#     4   9  17  31  51  75 104 136 172 214 258 307
#     4  10  22  37  54  80 111 139 171 215 262 307
#     4   9  19  37  57  77 103 137 178 217 255 308
#     4  10  20  33  52  78 105 136 174 214 259 311
#     4  10  20  35  56  80 105 136 174 214 258 310
#
# _framework density 18.487708999999999
#
# number of rings (size 3 to 8) (size 9 to 14) (size 15 to 20)
#    0.000    2.500    0.000    3.375    0.000    8.000 
#    0.000    3.125    0.000    0.000    0.000    0.000 
#    0.000    0.000    0.000    0.000    0.000    0.000 
#
# Total GULP energy -396803.726927 kJ/mol
# GULP energy per Si atom -12400.116466 kJ/mol
# Density = 1.844563 g / cm^3
# Si number density = 18.487709 Si / 1000 Ang^3
#
#
#
# Elastic Constant Matrix: (Units=GPa)
#
#
# Indices 1 2 3 4 5 6 
#
# 1 48.9654 25.2029 7.3612 0.0000 5.3208 0.0000
# 2 25.2029 88.2527 25.3884 0.0000 4.8659 0.0000
# 3 7.3612 25.3884 55.1386 0.0000 15.7203 0.0000
# 4 0.0000 0.0000 0.0000 33.5924 0.0000 0.4568
# 5 5.3208 4.8659 15.7203 0.0000 23.4892 0.0000
# 6 0.0000 0.0000 0.0000 0.4568 0.0000 35.0793
#
#
#
# Elastic Compliance Matrix: (Units=1/GPa)
#
#
# Indices 1 2 3 4 5 6 
#
# 1 0.024411 -0.007111 0.001448 0.000000 -0.005026 0.000000
# 2 -0.007111 0.015183 -0.006926 0.000000 0.003101 0.000000
# 3 0.001448 -0.006926 0.025725 0.000000 -0.016110 0.000000
# 4 0.000000 0.000000 0.000000 0.029774 0.000000 -0.000388
# 5 -0.005026 0.003101 -0.016110 0.000000 0.053850 0.000000
# 6 0.000000 0.000000 0.000000 -0.000388 0.000000 0.028512
#
#
# Mechanical properties :
#
#
# Convention : Reuss Voigt Hill
#
# Bulk Modulus (GPa) = 24.91156 34.25129 29.58142
# Shear Modulus (GPa) = 23.14682 27.39247 25.26964
#
# Velocity S-wave (km/s) = 3.54222 3.85341 3.70108
# Velocity P-wave (km/s) = 5.49851 6.19395 5.85656
#
# Compressibility (1/GPa) = 0.04014201
#
# Stress axis : x y z
#
# Youngs Moduli (GPa) = 40.96534 65.86246 38.87312
#
# Poissons Ratio (x) = 0.46832 -0.05629
# Poissons Ratio (y) = 0.29129 0.26922
# Poissons Ratio (z) = -0.05932 0.45615
#
# Static dielectric constant tensor:
#      x y z
#    x 3.616550 0.000000 0.278700 
#    y 0.000000 3.520190 0.000000 
#    z 0.278700 0.000000 3.256660 
# 
# 
# High freq. dielectric constant tensor:
#      x y z
#    x 1.722460 0.000000 0.017410 
#    y 0.000000 1.725690 0.000000 
#    z 0.017410 0.000000 1.698050 
# 
# From -- ./inp_files/72141.got.cif
#   From: 2010.06.25/outbox.cif.g09.slc.cpg/sg11_37_cif.got.tgz:72141.got - 2010.06.27 23:14:04.
