data_PCOD8073693
_publ_section_title
;
Structure prediction by ZEFSAII (Michael W. Deem and Ramdas Pophale) SiO2 
 PCOD8073693
Probable space group: P 21/M
;
_chemical_formula_sum "Si O2"
_cell_formula_units_Z 28
_cell_length_a 15.697534
_cell_length_b 8.786861
_cell_length_c 21.172163
_cell_angle_alpha 90.000000
_cell_angle_beta 151.296521
_cell_angle_gamma 90.000000
_cell_volume 1402.561737
_symmetry_space_group_name_H-M "P 21/M"
_symmetry_group_IT_number 11
_symmetry_cell_setting 'monoclinic'
loop_
_space_group_symop_operation_xyz
x,y,z
-x,1/2+y,-z
-x,-y,-z
x,1/2-y,z
loop_
_atom_site_type_symbol
_atom_site_label
_atom_site_fract_x
_atom_site_fract_y
_atom_site_fract_z
Si Si1 0.046386 0.068329 0.598112
Si Si2 0.912919 0.568456 0.634908
Si Si3 0.794342 0.073522 0.081649
Si Si4 0.760381 0.921029 0.809056
Si Si5 0.921427 0.578966 0.043099
Si Si6 0.569219 0.928692 0.108801
Si Si7 0.418640 0.573199 0.510388
O O1 0.034781 0.250000 0.587215
O O2 0.244049 0.007987 0.744347
O O3 0.000000 0.000000 0.500000
O O4 0.910385 0.006764 0.563328
O O5 0.900298 0.750000 0.619469
O O6 0.754461 0.513240 0.577389
O O7 0.093714 0.507292 0.786175
O O8 0.811435 0.250000 0.102637
O O9 0.883213 0.033683 0.074212
O O10 0.587865 0.024930 0.944714
O O11 0.826150 0.750000 0.834809
O O12 0.558920 0.945290 0.658112
O O13 0.774959 0.946746 0.893573
O O14 0.881967 0.044097 0.853564
O O15 0.917505 0.750000 0.066444
O O16 0.586199 0.750000 0.109916
O O17 0.500000 0.000000 0.000000
O O18 0.500000 0.500000 0.500000
O O19 0.374684 0.750000 0.468550
#
# Coordination Sequence:
#
# PCOD8073693 Si02
#       7
#     4   4   4   4   4   4   4
#     4  11  24  42  65  93 127 165 208 256 313 374
#     4  11  23  40  62  87 120 160 202 251 308 365
#     4  10  21  37  58  85 117 150 189 240 299 353
#     4   9  20  38  55  76 113 153 188 236 296 348
#     4  10  20  34  56  84 110 145 193 239 287 348
#     4  10  21  39  63  89 117 154 198 246 299 357
#     4  11  23  39  59  85 120 158 201 247 300 364
#
# _framework density 19.963470999999998
#
# number of rings (size 3 to 8) (size 9 to 14) (size 15 to 20)
#    0.000    1.714    1.429    2.571    0.000    8.571 
#    0.000    2.857    0.000    0.000    0.000    0.000 
#    0.000    0.000    0.000    0.000    0.000    0.000 
#
# Total GULP energy -347108.455478 kJ/mol
# GULP energy per Si atom -12396.730553 kJ/mol
# Density = 1.991803 g / cm^3
# Si number density = 19.963471 Si / 1000 Ang^3
#
#
#
# Elastic Constant Matrix: (Units=GPa)
#
#
# Indices 1 2 3 4 5 6 
#
# 1 123.7663 37.2347 50.3655 0.0000 -6.7059 0.0000
# 2 37.2347 48.4795 42.1733 0.0000 4.7180 0.0000
# 3 50.3655 42.1733 114.0115 0.0000 -4.2399 0.0000
# 4 0.0000 0.0000 0.0000 27.3774 0.0000 -1.4088
# 5 -6.7059 4.7180 -4.2399 0.0000 24.9445 0.0000
# 6 0.0000 0.0000 0.0000 -1.4088 0.0000 36.5525
#
#
#
# Elastic Compliance Matrix: (Units=1/GPa)
#
#
# Indices 1 2 3 4 5 6 
#
# 1 0.011363 -0.007202 -0.002205 0.000000 0.004042 0.000000
# 2 -0.007202 0.036529 -0.010727 0.000000 -0.010669 0.000000
# 3 -0.002205 -0.010727 0.013854 0.000000 0.003791 0.000000
# 4 0.000000 0.000000 0.000000 0.036599 0.000000 0.001411
# 5 0.004042 -0.010669 0.003791 0.000000 0.043838 0.000000
# 6 0.000000 0.000000 0.000000 0.001411 0.000000 0.027412
#
#
# Mechanical properties :
#
#
# Convention : Reuss Voigt Hill
#
# Bulk Modulus (GPa) = 46.56216 60.64492 53.60354
# Shear Modulus (GPa) = 23.03889 28.20713 25.62301
#
# Velocity S-wave (km/s) = 3.40082 3.76298 3.58648
# Velocity P-wave (km/s) = 6.22857 7.02310 6.63773
#
# Compressibility (1/GPa) = 0.02147667
#
# Stress axis : x y z
#
# Youngs Moduli (GPa) = 88.00546 27.37537 72.17994
#
# Poissons Ratio (x) = 0.19717 0.15917
# Poissons Ratio (y) = 0.63385 0.77430
# Poissons Ratio (z) = 0.19407 0.29367
#
# Static dielectric constant tensor:
#      x y z
#    x 3.558840 0.000000 -0.020440 
#    y 0.000000 3.625320 0.000000 
#    z -0.020440 0.000000 3.791260 
# 
# 
# High freq. dielectric constant tensor:
#      x y z
#    x 1.779930 0.000000 -0.002040 
#    y 0.000000 1.780390 0.000000 
#    z -0.002040 0.000000 1.784900 
# 
# From -- ./inp_files/65376.got.cif
#   From: 2010.06.25/outbox.cif.g09.slc.cpg/sg11_33_cif.got.tgz:65376.got - 2010.06.27 23:14:04.
