data_PCOD8073141
_publ_section_title
;
Structure prediction by ZEFSAII (Michael W. Deem and Ramdas Pophale) SiO2 
 PCOD8073141
Probable space group: P 21/M
;
_chemical_formula_sum "Si O2"
_cell_formula_units_Z 24
_cell_length_a 20.899593
_cell_length_b 9.076803
_cell_length_c 9.128293
_cell_angle_alpha 90.000000
_cell_angle_beta 132.602995
_cell_angle_gamma 90.000000
_cell_volume 1274.601816
_symmetry_space_group_name_H-M "P 21/M"
_symmetry_group_IT_number 11
_symmetry_cell_setting 'monoclinic'
loop_
_space_group_symop_operation_xyz
x,y,z
-x,1/2+y,-z
-x,-y,-z
x,1/2-y,z
loop_
_atom_site_type_symbol
_atom_site_label
_atom_site_fract_x
_atom_site_fract_y
_atom_site_fract_z
Si Si1 0.425848 0.087102 0.066919
Si Si2 0.759190 0.418809 0.531868
Si Si3 0.411327 0.413267 0.697206
Si Si4 0.764190 0.578251 0.240991
Si Si5 0.926128 0.923364 0.291760
Si Si6 0.071643 0.579304 0.014466
O O1 0.442294 0.250000 0.156452
O O2 0.503098 0.983690 0.246150
O O3 0.426235 0.092117 0.892634
O O4 0.330502 0.027612 0.967313
O O5 0.736658 0.250000 0.463666
O O6 0.674410 0.493329 0.471868
O O7 0.789660 0.492277 0.427544
O O8 0.835590 0.435835 0.766034
O O9 0.399155 0.250000 0.613147
O O10 0.759932 0.750000 0.277506
O O11 0.833968 0.545544 0.224733
O O12 0.945714 0.750000 0.308392
O O13 0.000000 0.000000 0.500000
O O14 0.923322 0.996745 0.130429
O O15 0.045842 0.750000 0.951398
O O16 0.000000 0.500000 0.000000
#
# Coordination Sequence:
#
# PCOD8073141 Si02
#       6
#     4   4   4   4   4   4
#     4   8  14  26  44  69 102 136 171 213 259 306
#     4  10  20  33  52  78 107 140 177 218 263 311
#     4   9  16  26  44  72 104 137 173 214 260 308
#     4   9  19  34  53  78 107 140 177 217 263 314
#     4  11  23  39  59  82 109 141 177 219 268 321
#     4  11  24  40  58  81 108 140 179 221 268 320
#
# _framework density 18.829411
#
# number of rings (size 3 to 8) (size 9 to 14) (size 15 to 20)
#    0.000    2.333    0.000    4.000    0.000   10.667 
#    0.000    0.000    0.000    1.000    0.000    0.000 
#    0.000    0.000    0.000    0.000    0.000    0.000 
#
# Total GULP energy -297579.871453 kJ/mol
# GULP energy per Si atom -12399.161311 kJ/mol
# Density = 1.878655 g / cm^3
# Si number density = 18.829411 Si / 1000 Ang^3
#
#
#
# Elastic Constant Matrix: (Units=GPa)
#
#
# Indices 1 2 3 4 5 6 
#
# 1 138.2362 81.2454 66.2245 0.0000 17.0725 0.0000
# 2 81.2454 144.6639 66.9996 0.0000 10.0740 0.0000
# 3 66.2245 66.9996 79.4418 0.0000 7.4387 0.0000
# 4 0.0000 0.0000 0.0000 30.5731 0.0000 4.4209
# 5 17.0725 10.0740 7.4387 0.0000 28.1343 0.0000
# 6 0.0000 0.0000 0.0000 4.4209 0.0000 31.8689
#
#
#
# Elastic Compliance Matrix: (Units=1/GPa)
#
#
# Indices 1 2 3 4 5 6 
#
# 1 0.013848 -0.003775 -0.007896 0.000000 -0.004964 0.000000
# 2 -0.003775 0.012440 -0.007324 0.000000 -0.000227 0.000000
# 3 -0.007896 -0.007324 0.025278 0.000000 0.000730 0.000000
# 4 0.000000 0.000000 0.000000 0.033378 0.000000 -0.004630
# 5 -0.004964 -0.000227 0.000730 0.000000 0.038444 0.000000
# 6 0.000000 0.000000 0.000000 -0.004630 0.000000 0.032021
#
#
# Mechanical properties :
#
#
# Convention : Reuss Voigt Hill
#
# Bulk Modulus (GPa) = 73.64841 87.92008 80.78425
# Shear Modulus (GPa) = 25.26203 27.97343 26.61773
#
# Velocity S-wave (km/s) = 3.66680 3.85856 3.76390
# Velocity P-wave (km/s) = 7.55815 8.16368 7.86674
#
# Compressibility (1/GPa) = 0.01357803
#
# Stress axis : x y z
#
# Youngs Moduli (GPa) = 72.21105 80.38318 39.55954
#
# Poissons Ratio (x) = 0.30344 0.31235
# Poissons Ratio (y) = 0.27259 0.28973
# Poissons Ratio (z) = 0.57016 0.58872
#
# Static dielectric constant tensor:
#      x y z
#    x 3.628110 0.000000 0.430920 
#    y 0.000000 3.763600 0.000000 
#    z 0.430920 0.000000 3.256390 
# 
# 
# High freq. dielectric constant tensor:
#      x y z
#    x 1.729740 0.000000 0.031890 
#    y 0.000000 1.744460 0.000000 
#    z 0.031890 0.000000 1.709710 
# 
# From -- ./inp_files/25939.got.cif
#   From: 2010.06.25/outbox.cif.g09.slc.cpg/sg11_13_cif.got.tgz:25939.got - 2010.06.27 23:14:04.
