data_PCOD8073268
_publ_section_title
;
Structure prediction by ZEFSAII (Michael W. Deem and Ramdas Pophale) SiO2 
 PCOD8073268
Probable space group: P 21/M
;
_chemical_formula_sum "Si O2"
_cell_formula_units_Z 28
_cell_length_a 11.514703
_cell_length_b 17.757564
_cell_length_c 20.428437
_cell_angle_alpha 90.000000
_cell_angle_beta 21.763228
_cell_angle_gamma 90.000000
_cell_volume 1548.738302
_symmetry_space_group_name_H-M "P 21/M"
_symmetry_group_IT_number 11
_symmetry_cell_setting 'monoclinic'
loop_
_space_group_symop_operation_xyz
x,y,z
-x,1/2+y,-z
-x,-y,-z
x,1/2-y,z
loop_
_atom_site_type_symbol
_atom_site_label
_atom_site_fract_x
_atom_site_fract_y
_atom_site_fract_z
Si Si1 0.133021 0.442869 0.877558
Si Si2 0.080261 0.936693 0.728245
Si Si3 0.348453 0.837228 0.364086
Si Si4 0.872520 0.662135 0.730514
Si Si5 0.610668 0.463934 0.053859
Si Si6 0.903985 0.058274 0.605973
Si Si7 0.601627 0.966177 0.549145
O O1 0.293740 0.368569 0.823175
O O2 0.428329 0.476779 0.686523
O O3 0.000000 0.500000 0.000000
O O4 0.855818 0.422501 0.973354
O O5 0.338175 0.916586 0.649159
O O6 0.993903 0.856646 0.740424
O O7 0.204607 0.989820 0.606021
O O8 0.788143 0.984640 0.907947
O O9 0.391678 0.750000 0.335637
O O10 0.174986 0.864252 0.389108
O O11 0.138234 0.857741 0.537892
O O12 0.772982 0.750000 0.778807
O O13 0.578270 0.606308 0.876398
O O14 0.399308 0.523602 0.201833
O O15 0.165144 0.078879 0.524345
O O16 0.000000 0.000000 0.500000
#
# Coordination Sequence:
#
# PCOD8073268 Si02
#       7
#     4   4   4   4   4   4   4
#     4  11  19  34  59  88 110 148 191 241 284 343
#     4  10  20  37  56  87 112 146 195 240 275 340
#     4  11  23  38  58  86 121 153 187 242 303 345
#     4  11  22  39  59  85 118 154 187 239 300 339
#     4  11  21  32  63  88 108 147 203 239 277 338
#     4  12  18  36  60  87 113 148 196 240 284 343
#     4  10  20  33  60  85 109 144 197 233 277 331
#
# _framework density 18.079232999999999
#
# number of rings (size 3 to 8) (size 9 to 14) (size 15 to 20)
#    0.000    1.143    7.143    0.429    0.000    0.571 
#    0.000    1.429    0.000    0.000    0.000    0.000 
#    0.000    0.000    0.000    0.000    0.000    0.000 
#
# Total GULP energy -346940.146542 kJ/mol
# GULP energy per Si atom -12390.719519 kJ/mol
# Density = 1.803808 g / cm^3
# Si number density = 18.079233 Si / 1000 Ang^3
#
#
#
# Elastic Constant Matrix: (Units=GPa)
#
#
# Indices 1 2 3 4 5 6 
#
# 1 124.7254 61.8187 50.1510 0.0000 -14.0368 0.0000
# 2 61.8187 87.3355 56.7146 0.0000 -4.9700 0.0000
# 3 50.1510 56.7146 118.2322 0.0000 3.5943 0.0000
# 4 0.0000 0.0000 0.0000 22.9250 0.0000 0.8525
# 5 -14.0368 -4.9700 3.5943 0.0000 35.0869 0.0000
# 6 0.0000 0.0000 0.0000 0.8525 0.0000 26.9222
#
#
#
# Elastic Compliance Matrix: (Units=1/GPa)
#
#
# Indices 1 2 3 4 5 6 
#
# 1 0.013163 -0.007780 -0.001984 0.000000 0.004367 0.000000
# 2 -0.007780 0.021591 -0.007077 0.000000 0.000671 0.000000
# 3 -0.001984 -0.007077 0.012789 0.000000 -0.003106 0.000000
# 4 0.000000 0.000000 0.000000 0.043672 0.000000 -0.001383
# 5 0.004367 0.000671 -0.003106 0.000000 0.030661 0.000000
# 6 0.000000 0.000000 0.000000 -0.001383 0.000000 0.037188
#
#
# Mechanical properties :
#
#
# Convention : Reuss Voigt Hill
#
# Bulk Modulus (GPa) = 72.15046 74.18462 73.16754
# Shear Modulus (GPa) = 25.33346 27.76072 26.54709
#
# Velocity S-wave (km/s) = 3.74738 3.92280 3.83610
# Velocity P-wave (km/s) = 7.66279 7.85111 7.75752
#
# Compressibility (1/GPa) = 0.01385993
#
# Stress axis : x y z
#
# Youngs Moduli (GPa) = 75.96997 46.31502 78.19308
#
# Poissons Ratio (x) = 0.36034 0.15514
# Poissons Ratio (y) = 0.59107 0.55339
# Poissons Ratio (z) = 0.15073 0.32778
#
# Static dielectric constant tensor:
#      x y z
#    x 3.928040 0.000000 -0.219630 
#    y 0.000000 3.066660 0.000000 
#    z -0.219630 0.000000 3.601690 
# 
# 
# High freq. dielectric constant tensor:
#      x y z
#    x 1.720300 0.000000 -0.003340 
#    y 0.000000 1.659850 0.000000 
#    z -0.003340 0.000000 1.714770 
# 
# From -- ./inp_files/64885.got.cif
#   From: 2010.06.25/outbox.cif.g09.slc.cpg/sg11_33_cif.got.tgz:64885.got - 2010.06.27 23:14:04.
