data_PCOD8073109
_publ_section_title
;
Structure prediction by ZEFSAII (Michael W. Deem and Ramdas Pophale) SiO2 
 PCOD8073109
Probable space group: P 21/M
;
_chemical_formula_sum "Si O2"
_cell_formula_units_Z 28
_cell_length_a 9.142619
_cell_length_b 9.011303
_cell_length_c 22.841246
_cell_angle_alpha 90.000000
_cell_angle_beta 126.702278
_cell_angle_gamma 90.000000
_cell_volume 1508.752471
_symmetry_space_group_name_H-M "P 21/M"
_symmetry_group_IT_number 11
_symmetry_cell_setting 'monoclinic'
loop_
_space_group_symop_operation_xyz
x,y,z
-x,1/2+y,-z
-x,-y,-z
x,1/2-y,z
loop_
_atom_site_type_symbol
_atom_site_label
_atom_site_fract_x
_atom_site_fract_y
_atom_site_fract_z
Si Si1 0.483009 0.574756 0.933608
Si Si2 0.818783 0.925707 0.933166
Si Si3 0.773185 0.926390 0.790389
Si Si4 0.835803 0.923581 0.494179
Si Si5 0.605727 0.073737 0.352910
Si Si6 0.927316 0.077081 0.346272
Si Si7 0.898942 0.426834 0.210029
O O1 0.480188 0.750000 0.941745
O O2 0.650155 0.524171 0.932950
O O3 0.297500 0.518559 0.859001
O O4 0.500000 0.500000 0.000000
O O5 0.844925 0.750000 0.940206
O O6 0.781036 0.984821 0.858670
O O7 0.000000 0.000000 0.000000
O O8 0.772721 0.750000 0.790396
O O9 0.589953 0.984206 0.715367
O O10 0.946382 0.990042 0.796413
O O11 0.831247 0.750000 0.478638
O O12 0.879551 0.950462 0.573779
O O13 0.648971 0.000207 0.426965
O O14 0.000000 0.000000 0.500000
O O15 0.611876 0.250000 0.361913
O O16 0.755633 0.014755 0.342153
O O17 0.889825 0.250000 0.329536
O O18 0.934231 0.005417 0.283302
O O19 0.909151 0.250000 0.213489
#
# Coordination Sequence:
#
# PCOD8073109 Si02
#       7
#     4   4   4   4   4   4   4
#     4  10  20  33  52  75 100 128 161 201 244 289
#     4  10  20  34  52  76 102 130 164 204 247 293
#     4   9  17  29  47  69  94 124 162 201 237 282
#     4   9  16  27  45  69  94 121 153 193 236 282
#     4   9  16  28  46  68  92 120 154 195 237 282
#     4   8  14  25  43  65  89 116 151 191 231 273
#     4   9  16  28  47  70  92 121 161 201 235 277
#
# _framework density 18.55838
#
# number of rings (size 3 to 8) (size 9 to 14) (size 15 to 20)
#    0.000    2.857    0.000    3.000    0.000    5.143 
#    0.000    1.429    0.000    8.571    0.000    0.000 
#    0.000    0.000    0.000    0.000    0.000    0.000 
#
# Total GULP energy -347045.904551 kJ/mol
# GULP energy per Si atom -12394.496591 kJ/mol
# Density = 1.851614 g / cm^3
# Si number density = 18.558380 Si / 1000 Ang^3
#
#
#
# Elastic Constant Matrix: (Units=GPa)
#
#
# Indices 1 2 3 4 5 6 
#
# 1 140.4882 22.0205 96.1489 0.0000 3.0124 0.0000
# 2 22.0205 27.2314 36.8370 0.0000 0.8598 0.0000
# 3 96.1489 36.8370 208.3707 0.0000 5.0124 0.0000
# 4 0.0000 0.0000 0.0000 29.9362 0.0000 2.0699
# 5 3.0124 0.8598 5.0124 0.0000 34.3833 0.0000
# 6 0.0000 0.0000 0.0000 2.0699 0.0000 15.8496
#
#
#
# Elastic Compliance Matrix: (Units=1/GPa)
#
#
# Indices 1 2 3 4 5 6 
#
# 1 0.010539 -0.002555 -0.004406 0.000000 -0.000217 0.000000
# 2 -0.002555 0.048884 -0.007465 0.000000 0.000090 0.000000
# 3 -0.004406 -0.007465 0.008167 0.000000 -0.000618 0.000000
# 4 0.000000 0.000000 0.000000 0.033709 0.000000 -0.004402
# 5 -0.000217 0.000090 -0.000618 0.000000 0.029191 0.000000
# 6 0.000000 0.000000 0.000000 -0.004402 0.000000 0.063668
#
#
# Mechanical properties :
#
#
# Convention : Reuss Voigt Hill
#
# Bulk Modulus (GPa) = 25.81505 76.23367 51.02436
# Shear Modulus (GPa) = 21.19349 30.77275 25.98312
#
# Velocity S-wave (km/s) = 3.38300 4.07647 3.74582
# Velocity P-wave (km/s) = 5.40370 7.95762 6.80161
#
# Compressibility (1/GPa) = 0.03873710
#
# Stress axis : x y z
#
# Youngs Moduli (GPa) = 94.88992 20.45657 122.44748
#
# Poissons Ratio (x) = 0.05227 0.53949
# Poissons Ratio (y) = 0.24245 0.91409
# Poissons Ratio (z) = 0.41808 0.15271
#
# Static dielectric constant tensor:
#      x y z
#    x 3.410980 0.000000 -0.119390 
#    y 0.000000 3.123320 0.000000 
#    z -0.119390 0.000000 3.859200 
# 
# 
# High freq. dielectric constant tensor:
#      x y z
#    x 1.706680 0.000000 0.000550 
#    y 0.000000 1.668520 0.000000 
#    z 0.000550 0.000000 1.745530 
# 
# From -- ./inp_files/26446.got.cif
#   From: 2010.06.25/outbox.cif.g09.slc.cpg/sg11_14_cif.got.tgz:26446.got - 2010.06.27 23:14:04.
