data_PCOD8073047
_publ_section_title
;
Structure prediction by ZEFSAII (Michael W. Deem and Ramdas Pophale) SiO2 
 PCOD8073047
Probable space group: P 21/M
;
_chemical_formula_sum "Si O2"
_cell_formula_units_Z 28
_cell_length_a 18.843410
_cell_length_b 8.997736
_cell_length_c 14.207175
_cell_angle_alpha 90.000000
_cell_angle_beta 42.102913
_cell_angle_gamma 90.000000
_cell_volume 1615.013508
_symmetry_space_group_name_H-M "P 21/M"
_symmetry_group_IT_number 11
_symmetry_cell_setting 'monoclinic'
loop_
_space_group_symop_operation_xyz
x,y,z
-x,1/2+y,-z
-x,-y,-z
x,1/2-y,z
loop_
_atom_site_type_symbol
_atom_site_label
_atom_site_fract_x
_atom_site_fract_y
_atom_site_fract_z
Si Si1 0.610080 0.922721 0.788146
Si Si2 0.391586 0.077342 0.002775
Si Si3 0.904524 0.076959 0.215301
Si Si4 0.712906 0.925030 0.497050
Si Si5 0.117817 0.922286 0.979741
Si Si6 0.522439 0.422796 0.576090
Si Si7 0.304955 0.419884 0.895489
O O1 0.585395 0.750000 0.811584
O O2 0.695880 0.963071 0.624204
O O3 0.500567 0.998958 0.870123
O O4 0.651363 0.972286 0.851624
O O5 0.418453 0.250000 0.974565
O O6 0.305417 0.041376 0.006741
O O7 0.900501 0.250000 0.244157
O O8 0.869283 0.044611 0.143284
O O9 0.827648 0.987891 0.359668
O O10 0.022741 0.018049 0.116796
O O11 0.708769 0.750000 0.480970
O O12 0.624853 0.003021 0.520613
O O13 0.094215 0.750000 0.021487
O O14 0.226134 0.968101 0.922633
O O15 0.500000 0.500000 0.500000
O O16 0.547138 0.250000 0.534916
O O17 0.422677 0.446412 0.741734
O O18 0.268928 0.250000 0.912545
#
# Coordination Sequence:
#
# PCOD8073047 Si02
#       7
#     4   4   4   4   4   4   4
#     4   9  18  31  50  75 103 135 171 212 257 302
#     4   9  17  32  51  73 102 136 173 212 254 304
#     4  10  21  37  56  76 100 135 175 213 255 306
#     4  11  21  33  51  77 107 137 170 212 258 306
#     4  10  21  36  55  77 101 131 171 217 258 302
#     4  11  22  34  48  72 105 141 174 208 254 307
#     4  10  20  33  51  74 103 137 171 209 254 306
#
# _framework density 17.337316000000001
#
# number of rings (size 3 to 8) (size 9 to 14) (size 15 to 20)
#    0.000    2.000    1.429    2.571    0.000    6.286 
#    0.000    0.000    0.000    0.857    0.000    0.000 
#    0.000    0.000    0.000    0.000    0.000    0.000 
#
# Total GULP energy -347212.095247 kJ/mol
# GULP energy per Si atom -12400.431973 kJ/mol
# Density = 1.729786 g / cm^3
# Si number density = 17.337316 Si / 1000 Ang^3
#
#
#
# Elastic Constant Matrix: (Units=GPa)
#
#
# Indices 1 2 3 4 5 6 
#
# 1 40.8367 19.9636 25.2859 0.0000 12.7716 0.0000
# 2 19.9636 70.2027 44.9673 0.0000 8.2131 0.0000
# 3 25.2859 44.9673 94.0676 0.0000 7.4854 0.0000
# 4 0.0000 0.0000 0.0000 29.7337 0.0000 -5.3607
# 5 12.7716 8.2131 7.4854 0.0000 22.8681 0.0000
# 6 0.0000 0.0000 0.0000 -5.3607 0.0000 27.2750
#
#
#
# Elastic Compliance Matrix: (Units=1/GPa)
#
#
# Indices 1 2 3 4 5 6 
#
# 1 0.035491 -0.004191 -0.006242 0.000000 -0.016273 0.000000
# 2 -0.004191 0.021441 -0.008929 0.000000 -0.002437 0.000000
# 3 -0.006242 -0.008929 0.016473 0.000000 0.001301 0.000000
# 4 0.000000 0.000000 0.000000 0.034867 0.000000 0.006853
# 5 -0.016273 -0.002437 0.001301 0.000000 0.053267 0.000000
# 6 0.000000 0.000000 0.000000 0.006853 0.000000 0.038011
#
#
# Mechanical properties :
#
#
# Convention : Reuss Voigt Hill
#
# Bulk Modulus (GPa) = 28.83352 42.83784 35.83568
# Shear Modulus (GPa) = 20.01338 23.63470 21.82404
#
# Velocity S-wave (km/s) = 3.40126 3.69620 3.55179
# Velocity P-wave (km/s) = 5.66496 6.55575 6.12657
#
# Compressibility (1/GPa) = 0.03468185
#
# Stress axis : x y z
#
# Youngs Moduli (GPa) = 28.17635 46.64060 60.70420
#
# Poissons Ratio (x) = 0.19545 0.37891
# Poissons Ratio (y) = 0.11807 0.54202
# Poissons Ratio (z) = 0.17588 0.41645
#
# Static dielectric constant tensor:
#      x y z
#    x 2.929630 0.000000 0.372940 
#    y 0.000000 3.328210 0.000000 
#    z 0.372940 0.000000 3.372100 
# 
# 
# High freq. dielectric constant tensor:
#      x y z
#    x 1.660260 0.000000 0.013320 
#    y 0.000000 1.680540 0.000000 
#    z 0.013320 0.000000 1.661870 
# 
# From -- ./inp_files/37154.got.cif
#   From: 2010.06.25/outbox.cif.g09.slc.cpg/sg11_19_cif.got.tgz:37154.got - 2010.06.27 23:14:04.
