data_PCOD8073181
_publ_section_title
;
Structure prediction by ZEFSAII (Michael W. Deem and Ramdas Pophale) SiO2 
 PCOD8073181
Probable space group: P 21/M
;
_chemical_formula_sum "Si O2"
_cell_formula_units_Z 28
_cell_length_a 32.032769
_cell_length_b 9.200749
_cell_length_c 5.226935
_cell_angle_alpha 90.000000
_cell_angle_beta 120.971559
_cell_angle_gamma 90.000000
_cell_volume 1320.869219
_symmetry_space_group_name_H-M "P 21/M"
_symmetry_group_IT_number 11
_symmetry_cell_setting 'monoclinic'
loop_
_space_group_symop_operation_xyz
x,y,z
-x,1/2+y,-z
-x,-y,-z
x,1/2-y,z
loop_
_atom_site_type_symbol
_atom_site_label
_atom_site_fract_x
_atom_site_fract_y
_atom_site_fract_z
Si Si1 0.473884 0.404515 0.120231
Si Si2 0.662051 0.420510 0.650279
Si Si3 0.815199 0.915795 0.640713
Si Si4 0.976770 0.073553 0.676901
Si Si5 0.715701 0.422693 0.323877
Si Si6 0.877139 0.582452 0.337030
Si Si7 0.426290 0.594194 0.319005
O O1 0.457241 0.250000 0.951479
O O2 0.425197 0.477231 0.086526
O O3 0.516710 0.377735 0.459770
O O4 0.500000 0.500000 0.000000
O O5 0.668881 0.250000 0.653672
O O6 0.680830 0.485669 0.441401
O O7 0.605016 0.460427 0.533498
O O8 0.693913 0.481186 0.988128
O O9 0.797177 0.750000 0.594262
O O10 0.839550 0.950568 0.445621
O O11 0.769497 0.018937 0.535616
O O12 0.852862 0.947156 0.986903
O O13 0.983821 0.250000 0.698931
O O14 0.920143 0.033275 0.500607
O O15 0.000000 0.000000 0.500000
O O16 0.000000 0.000000 0.000000
O O17 0.718461 0.250000 0.337987
O O18 0.895857 0.750000 0.413911
O O19 0.403080 0.750000 0.154121
#
# Coordination Sequence:
#
# PCOD8073181 Si02
#       7
#     4   4   4   4   4   4   4
#     4  10  20  33  53  78 105 138 177 223 274 330
#     4   9  19  34  56  81 106 140 184 227 280 339
#     4  10  21  37  58  83 115 153 194 242 299 357
#     4  12  25  42  65  95 132 172 214 263 314 370
#     4  10  20  35  56  82 109 141 184 236 284 341
#     4  10  21  38  60  86 117 159 205 248 298 359
#     4   9  19  35  54  75 102 140 181 225 273 334
#
# _framework density 21.198163000000001
#
# number of rings (size 3 to 8) (size 9 to 14) (size 15 to 20)
#    0.000    2.000    0.000    3.429    2.000    2.857 
#    0.000    1.429    0.000    0.000    0.000    0.000 
#    0.000    0.000    0.000    0.000    0.000    0.000 
#
# Total GULP energy -346936.243655 kJ/mol
# GULP energy per Si atom -12390.580131 kJ/mol
# Density = 2.114991 g / cm^3
# Si number density = 21.198163 Si / 1000 Ang^3
#
#
#
# Elastic Constant Matrix: (Units=GPa)
#
#
# Indices 1 2 3 4 5 6 
#
# 1 104.1957 35.1052 8.2100 0.0000 -12.6533 0.0000
# 2 35.1052 98.7898 5.1128 0.0000 -11.7599 0.0000
# 3 8.2100 5.1128 49.1978 0.0000 -19.2945 0.0000
# 4 0.0000 0.0000 0.0000 15.6924 0.0000 -1.7032
# 5 -12.6533 -11.7599 -19.2945 0.0000 39.0539 0.0000
# 6 0.0000 0.0000 0.0000 -1.7032 0.0000 33.3678
#
#
#
# Elastic Compliance Matrix: (Units=1/GPa)
#
#
# Indices 1 2 3 4 5 6 
#
# 1 0.011149 -0.003668 -0.000615 0.000000 0.002204 0.000000
# 2 -0.003668 0.011707 0.000387 0.000000 0.002528 0.000000
# 3 -0.000615 0.000387 0.025248 0.000000 0.012391 0.000000
# 4 0.000000 0.000000 0.000000 0.064080 0.000000 0.003271
# 5 0.002204 0.002528 0.012391 0.000000 0.033203 0.000000
# 6 0.000000 0.000000 0.000000 0.003271 0.000000 0.030136
#
#
# Mechanical properties :
#
#
# Convention : Reuss Voigt Hill
#
# Bulk Modulus (GPa) = 24.80629 38.78213 31.79421
# Shear Modulus (GPa) = 25.41269 31.20648 28.30959
#
# Velocity S-wave (km/s) = 3.46615 3.84100 3.65838
# Velocity P-wave (km/s) = 5.26749 6.16488 5.73377
#
# Compressibility (1/GPa) = 0.04031235
#
# Stress axis : x y z
#
# Youngs Moduli (GPa) = 89.69306 85.42098 39.60691
#
# Poissons Ratio (x) = 0.31330 0.02436
# Poissons Ratio (y) = 0.32896 -0.01532
# Poissons Ratio (z) = 0.05516 -0.03305
#
# Static dielectric constant tensor:
#      x y z
#    x 2.775120 0.000000 -1.937550 
#    y 0.000000 4.183950 0.000000 
#    z -1.937550 0.000000 1.475320 
# 
# 
# High freq. dielectric constant tensor:
#      x y z
#    x 1.843110 0.000000 -0.012540 
#    y 0.000000 1.813990 0.000000 
#    z -0.012540 0.000000 1.830340 
# 
# From -- ./inp_files/9644.got.cif
#   From: 2010.06.25/outbox.cif.g09.slc.cpg/sg11_5_cif.got.tgz:9644.got - 2010.06.27 23:14:04.
