data_PCOD8073468
_publ_section_title
;
Structure prediction by ZEFSAII (Michael W. Deem and Ramdas Pophale) SiO2 
 PCOD8073468
Probable space group: P 21/M
;
_chemical_formula_sum "Si O2"
_cell_formula_units_Z 32
_cell_length_a 24.761851
_cell_length_b 9.036496
_cell_length_c 19.882278
_cell_angle_alpha 90.000000
_cell_angle_beta 156.473985
_cell_angle_gamma 90.000000
_cell_volume 1775.833383
_symmetry_space_group_name_H-M "P 21/M"
_symmetry_group_IT_number 11
_symmetry_cell_setting 'monoclinic'
loop_
_space_group_symop_operation_xyz
x,y,z
-x,1/2+y,-z
-x,-y,-z
x,1/2-y,z
loop_
_atom_site_type_symbol
_atom_site_label
_atom_site_fract_x
_atom_site_fract_y
_atom_site_fract_z
Si Si1 0.359195 0.422845 0.060542
Si Si2 0.868030 0.578119 0.089604
Si Si3 0.856320 0.576327 0.564530
Si Si4 0.405197 0.420697 0.479645
Si Si5 0.675138 0.577310 0.754919
Si Si6 0.674268 0.076979 0.256757
Si Si7 0.601285 0.422590 0.024596
Si Si8 0.368420 0.078805 0.585538
O O1 0.371091 0.250000 0.060063
O O2 0.503670 0.480804 0.249666
O O3 0.246103 0.459157 0.986130
O O4 0.315577 0.503770 0.941363
O O5 0.911006 0.750000 0.142130
O O6 0.994181 0.474053 0.246768
O O7 0.810583 0.534265 0.950167
O O8 0.855282 0.750000 0.548653
O O9 0.809000 0.490523 0.443424
O O10 0.759486 0.532500 0.515899
O O11 0.441863 0.250000 0.513266
O O12 0.546872 0.503899 0.643483
O O13 0.313528 0.471021 0.310840
O O14 0.327237 0.451210 0.460537
O O15 0.650319 0.750000 0.734930
O O16 0.662139 0.250000 0.258957
O O17 0.681701 0.047435 0.185387
O O18 0.546741 0.994751 0.143336
O O19 0.581073 0.250000 0.987988
O O20 0.407062 0.250000 0.641161
#
# Coordination Sequence:
#
# PCOD8073468 Si02
#       8
#     4   4   4   4   4   4   4   4
#     4  11  21  34  56  83 109 142 183 228 272 320
#     4  10  22  38  54  77 111 147 185 226 272 329
#     4  11  23  37  55  79 110 147 185 226 273 327
#     4   9  17  30  53  80 107 139 175 224 277 320
#     4   9  17  32  52  77 108 141 179 221 270 325
#     4  10  20  35  56  81 111 145 179 220 270 321
#     4  10  20  34  55  84 113 140 177 224 270 320
#     4  10  20  34  53  81 111 139 179 229 274 322
#
# _framework density 18.019708000000001
#
# number of rings (size 3 to 8) (size 9 to 14) (size 15 to 20)
#    0.000    2.000    2.500    1.500    0.000    3.500 
#    0.000    1.250    0.000    0.000    0.000    0.000 
#    0.000    0.000    0.000    0.000    0.000    0.000 
#
# Total GULP energy -396791.757315 kJ/mol
# GULP energy per Si atom -12399.742416 kJ/mol
# Density = 1.797869 g / cm^3
# Si number density = 18.019708 Si / 1000 Ang^3
#
#
#
# Elastic Constant Matrix: (Units=GPa)
#
#
# Indices 1 2 3 4 5 6 
#
# 1 104.8407 48.4919 56.8868 0.0000 -16.3102 0.0000
# 2 48.4919 80.9139 52.3799 0.0000 -4.4300 0.0000
# 3 56.8868 52.3799 110.7521 0.0000 -11.4961 0.0000
# 4 0.0000 0.0000 0.0000 31.0207 0.0000 -0.1141
# 5 -16.3102 -4.4300 -11.4961 0.0000 27.4921 0.0000
# 6 0.0000 0.0000 0.0000 -0.1141 0.0000 25.6328
#
#
#
# Elastic Compliance Matrix: (Units=1/GPa)
#
#
# Indices 1 2 3 4 5 6 
#
# 1 0.015901 -0.006231 -0.004543 0.000000 0.006530 0.000000
# 2 -0.006231 0.020267 -0.006721 0.000000 -0.003242 0.000000
# 3 -0.004543 -0.006721 0.014791 0.000000 0.002407 0.000000
# 4 0.000000 0.000000 0.000000 0.032237 0.000000 0.000144
# 5 0.006530 -0.003242 0.002407 0.000000 0.040732 0.000000
# 6 0.000000 0.000000 0.000000 0.000144 0.000000 0.039013
#
#
# Mechanical properties :
#
#
# Convention : Reuss Voigt Hill
#
# Bulk Modulus (GPa) = 62.62107 68.00265 65.31186
# Shear Modulus (GPa) = 24.59982 26.07901 25.33941
#
# Velocity S-wave (km/s) = 3.69882 3.80840 3.75401
# Velocity P-wave (km/s) = 7.28482 7.56032 7.42385
#
# Compressibility (1/GPa) = 0.01596907
#
# Stress axis : x y z
#
# Youngs Moduli (GPa) = 62.88843 49.34231 67.60949
#
# Poissons Ratio (x) = 0.30748 0.30712
# Poissons Ratio (y) = 0.39189 0.45439
# Poissons Ratio (z) = 0.28567 0.33162
#
# Static dielectric constant tensor:
#      x y z
#    x 3.674680 0.000000 -0.368750 
#    y 0.000000 3.385070 0.000000 
#    z -0.368750 0.000000 3.238250 
# 
# 
# High freq. dielectric constant tensor:
#      x y z
#    x 1.701970 0.000000 -0.028060 
#    y 0.000000 1.705050 0.000000 
#    z -0.028060 0.000000 1.678730 
# 
# From -- ./inp_files/67234.got.cif
#   From: 2010.06.25/outbox.cif.g09.slc.cpg/sg11_34_cif.got.tgz:67234.got - 2010.06.27 23:14:04.
