data_PCOD8073200
_publ_section_title
;
Structure prediction by ZEFSAII (Michael W. Deem and Ramdas Pophale) SiO2 
 PCOD8073200
Probable space group: P 21/M
;
_chemical_formula_sum "Si O2"
_cell_formula_units_Z 28
_cell_length_a 23.401075
_cell_length_b 8.985110
_cell_length_c 8.699275
_cell_angle_alpha 90.000000
_cell_angle_beta 48.294310
_cell_angle_gamma 90.000000
_cell_volume 1365.570202
_symmetry_space_group_name_H-M "P 21/M"
_symmetry_group_IT_number 11
_symmetry_cell_setting 'monoclinic'
loop_
_space_group_symop_operation_xyz
x,y,z
-x,1/2+y,-z
-x,-y,-z
x,1/2-y,z
loop_
_atom_site_type_symbol
_atom_site_label
_atom_site_fract_x
_atom_site_fract_y
_atom_site_fract_z
Si Si1 0.799810 0.076010 0.645843
Si Si2 0.374954 0.420153 0.550357
Si Si3 0.948760 0.918123 0.306037
Si Si4 0.759027 0.422701 0.369750
Si Si5 0.661739 0.925407 0.037944
Si Si6 0.094041 0.082405 0.973402
Si Si7 0.527389 0.077506 0.104638
O O1 0.801224 0.250000 0.680890
O O2 0.768012 0.042514 0.533075
O O3 0.885212 0.011585 0.511921
O O4 0.746255 0.991307 0.862811
O O5 0.349371 0.250000 0.569898
O O6 0.324384 0.523198 0.530868
O O7 0.364895 0.468270 0.744039
O O8 0.463465 0.443484 0.350094
O O9 0.950804 0.750000 0.365494
O O10 0.929698 0.920168 0.160953
O O11 0.031393 0.993349 0.185537
O O12 0.768666 0.250000 0.317534
O O13 0.823251 0.506933 0.154499
O O14 0.662130 0.750000 0.008206
O O15 0.605178 0.000925 0.018328
O O16 0.098616 0.250000 0.028409
O O17 0.544357 0.250000 0.041000
O O18 0.500000 0.000000 0.000000
#
# Coordination Sequence:
#
# PCOD8073200 Si02
#       7
#     4   4   4   4   4   4   4
#     4  10  20  34  53  80 111 144 184 228 274 324
#     4  10  23  40  57  79 110 146 182 221 269 324
#     4   9  16  27  46  74 107 142 181 226 274 322
#     4  10  20  33  53  80 109 142 183 228 272 322
#     4  11  23  39  58  81 110 145 183 223 269 322
#     4   9  16  27  46  73 107 143 179 224 275 323
#     4  11  23  40  62  87 113 142 178 222 270 321
#
# _framework density 20.504256000000002
#
# number of rings (size 3 to 8) (size 9 to 14) (size 15 to 20)
#    0.000    2.000    0.000    3.857    0.000    9.714 
#    0.000    0.000    0.000    0.857    0.000    0.000 
#    0.000    0.000    0.000    0.000    0.000    0.000 
#
# Total GULP energy -347339.070935 kJ/mol
# GULP energy per Si atom -12404.966819 kJ/mol
# Density = 2.045759 g / cm^3
# Si number density = 20.504256 Si / 1000 Ang^3
#
#
#
# Elastic Constant Matrix: (Units=GPa)
#
#
# Indices 1 2 3 4 5 6 
#
# 1 15.0201 14.6039 9.3605 0.0000 -6.2804 0.0000
# 2 14.6039 123.3815 47.7422 0.0000 -4.1453 0.0000
# 3 9.3605 47.7422 111.6849 0.0000 -13.0253 0.0000
# 4 0.0000 0.0000 0.0000 36.6637 0.0000 -11.6989
# 5 -6.2804 -4.1453 -13.0253 0.0000 29.1463 0.0000
# 6 0.0000 0.0000 0.0000 -11.6989 0.0000 31.6978
#
#
#
# Elastic Compliance Matrix: (Units=1/GPa)
#
#
# Indices 1 2 3 4 5 6 
#
# 1 0.082557 -0.008721 -0.001331 0.000000 0.015954 0.000000
# 2 -0.008721 0.010639 -0.004072 0.000000 -0.002186 0.000000
# 3 -0.001331 -0.004072 0.011294 0.000000 0.004181 0.000000
# 4 0.000000 0.000000 0.000000 0.030916 0.000000 0.011410
# 5 0.015954 -0.002186 0.004181 0.000000 0.039305 0.000000
# 6 0.000000 0.000000 0.000000 0.011410 0.000000 0.035759
#
#
# Mechanical properties :
#
#
# Convention : Reuss Voigt Hill
#
# Bulk Modulus (GPa) = 13.11603 43.72217 28.41910
# Shear Modulus (GPa) = 18.93002 31.39356 25.16179
#
# Velocity S-wave (km/s) = 3.04176 3.91714 3.50687
# Velocity P-wave (km/s) = 4.32978 6.46749 5.50343
#
# Compressibility (1/GPa) = 0.07624261
#
# Stress axis : x y z
#
# Youngs Moduli (GPa) = 12.11291 93.99025 88.54563
#
# Poissons Ratio (x) = 0.81967 0.11782
# Poissons Ratio (y) = 0.10563 0.36056
# Poissons Ratio (z) = 0.01612 0.38273
#
# Static dielectric constant tensor:
#      x y z
#    x 3.304070 0.000000 -0.238220 
#    y 0.000000 3.831500 0.000000 
#    z -0.238220 0.000000 3.796540 
# 
# 
# High freq. dielectric constant tensor:
#      x y z
#    x 1.776260 0.000000 -0.024370 
#    y 0.000000 1.814430 0.000000 
#    z -0.024370 0.000000 1.805570 
# 
# From -- ./inp_files/28287.got.cif
#   From: 2010.06.25/outbox.cif.g09.slc.cpg/sg11_15_cif.got.tgz:28287.got - 2010.06.27 23:14:04.
