data_PCOD8073537
_publ_section_title
;
Structure prediction by ZEFSAII (Michael W. Deem and Ramdas Pophale) SiO2 
 PCOD8073537
Probable space group: P 21/M
;
_chemical_formula_sum "Si O2"
_cell_formula_units_Z 28
_cell_length_a 12.435615
_cell_length_b 8.759342
_cell_length_c 14.983112
_cell_angle_alpha 90.000000
_cell_angle_beta 105.342175
_cell_angle_gamma 90.000000
_cell_volume 1573.915026
_symmetry_space_group_name_H-M "P 21/M"
_symmetry_group_IT_number 11
_symmetry_cell_setting 'monoclinic'
loop_
_space_group_symop_operation_xyz
x,y,z
-x,1/2+y,-z
-x,-y,-z
x,1/2-y,z
loop_
_atom_site_type_symbol
_atom_site_label
_atom_site_fract_x
_atom_site_fract_y
_atom_site_fract_z
Si Si1 0.391212 0.069976 0.279561
Si Si2 0.366577 0.931010 0.609079
Si Si3 0.741498 0.072308 0.596209
Si Si4 0.342208 0.429144 0.904355
Si Si5 0.798884 0.068999 0.275075
Si Si6 0.992018 0.072482 0.595128
Si Si7 0.589422 0.070669 0.903351
O O1 0.393566 0.250000 0.263931
O O2 0.508921 0.009941 0.344609
O O3 0.294044 0.025324 0.326198
O O4 0.365685 0.987044 0.181187
O O5 0.360298 0.750000 0.609316
O O6 0.327172 0.990861 0.504077
O O7 0.283540 0.995633 0.666350
O O8 0.715629 0.250000 0.607278
O O9 0.871152 0.042933 0.609466
O O10 0.321308 0.250000 0.897746
O O11 0.243640 0.512397 0.829904
O O12 0.459723 0.474636 0.884939
O O13 0.338602 0.487245 0.004986
O O14 0.803995 0.250000 0.277378
O O15 0.921499 0.003724 0.318144
O O16 0.018143 0.250000 0.591225
O O17 0.000000 0.000000 0.500000
O O18 0.607453 0.250000 0.917024
#
# Coordination Sequence:
#
# PCOD8073537 Si02
#       7
#     4   4   4   4   4   4   4
#     4  11  21  34  54  81 112 146 184 227 271 327
#     4   9  18  33  52  77 110 146 179 219 272 320
#     4  10  21  38  54  74 109 150 187 226 272 324
#     4  10  20  34  54  83 112 142 182 226 272 327
#     4  11  20  35  57  81 113 146 181 228 278 326
#     4  11  22  37  57  80 108 145 189 234 275 320
#     4  10  20  34  54  80 111 147 181 221 274 329
#
# _framework density 17.790033000000001
#
# number of rings (size 3 to 8) (size 9 to 14) (size 15 to 20)
#    0.000    1.714    2.857    2.571    0.000    2.286 
#    0.000    0.714    0.000    0.857    0.000    0.000 
#    0.000    0.000    0.000    0.000    0.000    0.000 
#
# Total GULP energy -347341.435965 kJ/mol
# GULP energy per Si atom -12405.051284 kJ/mol
# Density = 1.774954 g / cm^3
# Si number density = 17.790033 Si / 1000 Ang^3
#
#
#
# Elastic Constant Matrix: (Units=GPa)
#
#
# Indices 1 2 3 4 5 6 
#
# 1 74.5978 37.0898 54.2814 0.0000 3.0008 0.0000
# 2 37.0898 67.0133 35.8053 0.0000 3.7095 0.0000
# 3 54.2814 35.8053 133.9435 0.0000 3.5185 0.0000
# 4 0.0000 0.0000 0.0000 33.2605 0.0000 0.4123
# 5 3.0008 3.7095 3.5185 0.0000 27.7205 0.0000
# 6 0.0000 0.0000 0.0000 0.4123 0.0000 26.4512
#
#
#
# Elastic Compliance Matrix: (Units=1/GPa)
#
#
# Indices 1 2 3 4 5 6 
#
# 1 0.022875 -0.008972 -0.006861 0.000000 -0.000405 0.000000
# 2 -0.008972 0.021013 -0.001939 0.000000 -0.001594 0.000000
# 3 -0.006861 -0.001939 0.010774 0.000000 -0.000365 0.000000
# 4 0.000000 0.000000 0.000000 0.030071 0.000000 -0.000469
# 5 -0.000405 -0.001594 -0.000365 0.000000 0.036378 0.000000
# 6 0.000000 0.000000 0.000000 -0.000469 0.000000 0.037813
#
#
# Mechanical properties :
#
#
# Convention : Reuss Voigt Hill
#
# Bulk Modulus (GPa) = 52.30973 58.87863 55.59418
# Shear Modulus (GPa) = 24.89523 27.37831 26.13677
#
# Velocity S-wave (km/s) = 3.74490 3.92723 3.83715
# Velocity P-wave (km/s) = 6.94023 7.33024 7.13790
#
# Compressibility (1/GPa) = 0.01911690
#
# Stress axis : x y z
#
# Youngs Moduli (GPa) = 43.71570 47.59045 92.81347
#
# Poissons Ratio (x) = 0.42700 0.63681
# Poissons Ratio (y) = 0.39223 0.17997
# Poissons Ratio (z) = 0.29994 0.09228
#
# Static dielectric constant tensor:
#      x y z
#    x 3.196760 0.000000 0.070660 
#    y 0.000000 3.233670 0.000000 
#    z 0.070660 0.000000 3.342530 
# 
# 
# High freq. dielectric constant tensor:
#      x y z
#    x 1.666960 0.000000 0.002870 
#    y 0.000000 1.689300 0.000000 
#    z 0.002870 0.000000 1.694740 
# 
# From -- ./inp_files/37389.got.cif
#   From: 2010.06.25/outbox.cif.g09.slc.cpg/sg11_19_cif.got.tgz:37389.got - 2010.06.27 23:14:04.
