data_PCOD8073194
_publ_section_title
;
Structure prediction by ZEFSAII (Michael W. Deem and Ramdas Pophale) SiO2 
 PCOD8073194
Probable space group: P 21/M
;
_chemical_formula_sum "Si O2"
_cell_formula_units_Z 32
_cell_length_a 12.632810
_cell_length_b 18.362784
_cell_length_c 7.695148
_cell_angle_alpha 90.000000
_cell_angle_beta 72.267702
_cell_angle_gamma 90.000000
_cell_volume 1700.262070
_symmetry_space_group_name_H-M "P 21/M"
_symmetry_group_IT_number 11
_symmetry_cell_setting 'monoclinic'
loop_
_space_group_symop_operation_xyz
x,y,z
-x,1/2+y,-z
-x,-y,-z
x,1/2-y,z
loop_
_atom_site_type_symbol
_atom_site_label
_atom_site_fract_x
_atom_site_fract_y
_atom_site_fract_z
Si Si1 0.219526 0.833208 0.583577
Si Si2 0.377964 0.163737 0.311020
Si Si3 0.374610 0.836531 0.812693
Si Si4 0.780474 0.166792 0.803108
Si Si5 0.007426 0.916623 0.793357
Si Si6 0.783148 0.835256 0.306736
Si Si7 0.992574 0.083377 0.800786
Si Si8 0.783148 0.664744 0.910113
O O1 0.189530 0.750000 0.647354
O O2 0.309964 0.864380 0.673692
O O3 0.271156 0.838236 0.364419
O O4 0.107486 0.879485 0.641494
O O5 0.386205 0.250000 0.306899
O O6 0.501572 0.129417 0.249215
O O7 0.314658 0.137749 0.516938
O O8 0.314658 0.137749 0.168407
O O9 0.383253 0.750000 0.808375
O O10 0.309962 0.864381 0.016338
O O11 0.810468 0.250000 0.836890
O O12 0.892515 0.120516 0.748983
O O13 0.893638 0.877302 0.798797
O O14 0.032421 0.908776 0.983788
O O15 1.000000 0.000000 0.738232
O O16 0.807223 0.750000 0.317897
O O17 0.893638 0.877302 0.307560
O O18 0.748483 0.853619 0.125757
O O19 0.807224 0.750000 0.874874
#
# Coordination Sequence:
#
# PCOD8073194 Si02
#       8
#     4   4   4   4   4   4   4   4
#     4  10  20  33  53  80 106 137 173 213 261 312
#     4   9  18  32  53  78 102 134 173 212 258 309
#     4   9  18  34  53  76 106 134 169 218 260 301
#     4  10  20  33  53  80 106 137 173 213 261 312
#     4  10  20  34  53  79 108 143 172 213 264 314
#     4   9  18  32  51  77 106 135 168 213 260 306
#     4  10  20  34  53  79 108 143 172 213 264 314
#     4   9  18  32  51  77 106 135 168 213 260 306
#
# _framework density 18.820629
#
# number of rings (size 3 to 8) (size 9 to 14) (size 15 to 20)
#    0.000    2.500    1.250    0.750    1.750    2.500 
#    0.000    5.000    0.000    1.500    0.000    0.000 
#    0.000    0.000    0.000    0.000    0.000    0.000 
#
# Total GULP energy -396818.656870 kJ/mol
# GULP energy per Si atom -12400.583027 kJ/mol
# Density = 1.877779 g / cm^3
# Si number density = 18.820629 Si / 1000 Ang^3
#
#
#
# Elastic Constant Matrix: (Units=GPa)
#
#
# Indices 1 2 3 4 5 6 
#
# 1 153.5833 40.8200 88.1862 0.0000 -9.7328 0.0000
# 2 40.8200 54.3459 32.0527 0.0000 -5.8143 0.0000
# 3 88.1862 32.0527 131.7145 0.0000 -4.7661 0.0000
# 4 0.0000 0.0000 0.0000 10.3306 0.0000 5.6842
# 5 -9.7328 -5.8143 -4.7661 0.0000 28.6519 0.0000
# 6 0.0000 0.0000 0.0000 5.6842 0.0000 1.7571
#
#
#
# Elastic Compliance Matrix: (Units=1/GPa)
#
#
# Indices 1 2 3 4 5 6 
#
# 1 0.011664 -0.004660 -0.006606 0.000000 0.001918 0.000000
# 2 -0.004660 0.023703 -0.002547 0.000000 0.002803 0.000000
# 3 -0.006606 -0.002547 0.012611 0.000000 -0.000663 0.000000
# 4 0.000000 0.000000 0.000000 -0.124096 0.000000 0.401460
# 5 0.001918 0.002803 -0.000663 0.000000 0.036012 0.000000
# 6 0.000000 0.000000 0.000000 0.401460 0.000000 -0.729620
#
#
# Mechanical properties :
#
#
# Convention : Reuss Voigt Hill
#
# Bulk Modulus (GPa) = 49.13414 73.52905 61.33160
# Shear Modulus (GPa) = -6.79979 20.05357 6.62689
#
# Velocity S-wave (km/s) = -1.90284 3.26776 1.87849
# Velocity P-wave (km/s) = 4.61904 7.30690 6.11254
#
# Compressibility (1/GPa) = 0.02035245
#
# Stress axis : x y z
#
# Youngs Moduli (GPa) = 85.73076 42.18935 79.29586
#
# Poissons Ratio (x) = 0.19659 0.52385
# Poissons Ratio (y) = 0.39949 0.20195
# Poissons Ratio (z) = 0.56636 0.10745
#
# Static dielectric constant tensor:
#      x y z
#    x 3.535750 0.000000 0.018540 
#    y 0.000000 3.085390 0.000000 
#    z 0.018540 0.000000 3.563720 
# 
# 
# High freq. dielectric constant tensor:
#      x y z
#    x 1.727460 0.000000 0.008180 
#    y 0.000000 1.694400 0.000000 
#    z 0.008180 0.000000 1.739790 
# 
# From -- ./inp_files/19160.got.cif
#   From: 2010.06.25/outbox.cif.g09.slc.cpg/sg11_10_cif.got.tgz:19160.got - 2010.06.27 23:14:04.
