data_PCOD8073893
_publ_section_title
;
Structure prediction by ZEFSAII (Michael W. Deem and Ramdas Pophale) SiO2 
 PCOD8073893
Probable space group: P 21/M
;
_chemical_formula_sum "Si O2"
_cell_formula_units_Z 32
_cell_length_a 17.817577
_cell_length_b 10.250507
_cell_length_c 25.425516
_cell_angle_alpha 90.000000
_cell_angle_beta 21.882249
_cell_angle_gamma 90.000000
_cell_volume 1730.706874
_symmetry_space_group_name_H-M "P 21/M"
_symmetry_group_IT_number 11
_symmetry_cell_setting 'monoclinic'
loop_
_space_group_symop_operation_xyz
x,y,z
-x,1/2+y,-z
-x,-y,-z
x,1/2-y,z
loop_
_atom_site_type_symbol
_atom_site_label
_atom_site_fract_x
_atom_site_fract_y
_atom_site_fract_z
Si Si1 0.773970 0.600538 0.500328
Si Si2 0.233878 0.395850 0.993075
Si Si3 0.207233 0.522701 0.731411
Si Si4 0.360175 0.395575 0.526853
Si Si5 0.228228 0.604032 0.191361
Si Si6 0.487101 0.100464 0.731290
Si Si7 0.633865 0.598523 0.981978
Si Si8 0.137960 0.394526 0.881665
O O1 0.696127 0.750000 0.558824
O O2 0.724936 0.551608 0.473025
O O3 0.671483 0.500271 0.607493
O O4 0.010038 0.591615 0.359373
O O5 0.313633 0.250000 0.944244
O O6 0.344187 0.456722 0.870677
O O7 0.308324 0.461946 0.998779
O O8 0.993175 0.391924 0.143402
O O9 0.262393 0.475395 0.637597
O O10 0.396361 0.603386 0.630755
O O11 0.155029 0.410078 0.807576
O O12 0.282794 0.250000 0.584899
O O13 0.253293 0.750000 0.150036
O O14 0.394423 0.584265 0.128841
O O15 0.246888 0.491254 0.136298
O O16 0.561592 0.250000 0.692550
O O17 0.362322 0.094416 0.758486
O O18 0.703239 0.750000 0.930351
O O19 0.049212 0.250000 0.951031
O O20 0.000000 0.500000 0.000000
#
# Coordination Sequence:
#
# PCOD8073893 Si02
#       8
#     4   4   4   4   4   4   4   4
#     4  10  20  36  54  76 105 140 175 212 267 317
#     4  10  20  35  54  76 104 139 179 220 263 309
#     4  11  20  34  51  74 104 137 176 216 262 309
#     4  10  21  33  48  72 103 136 170 212 260 312
#     4   9  18  34  57  82 110 138 169 216 267 317
#     4  10  21  37  53  75 105 139 180 222 259 306
#     4   9  18  34  57  83 107 137 176 214 261 319
#     4  11  22  36  55  77 104 141 183 225 263 307
#
# _framework density 18.489553999999998
#
# number of rings (size 3 to 8) (size 9 to 14) (size 15 to 20)
#    0.000    2.000    2.500    1.500    0.000    1.500 
#    0.000    2.500    0.000    0.000    0.000    0.000 
#    0.000    0.000    0.000    0.000    0.000    0.000 
#
# Total GULP energy -396621.749599 kJ/mol
# GULP energy per Si atom -12394.429675 kJ/mol
# Density = 1.844747 g / cm^3
# Si number density = 18.489554 Si / 1000 Ang^3
#
#
#
# Elastic Constant Matrix: (Units=GPa)
#
#
# Indices 1 2 3 4 5 6 
#
# 1 74.2585 17.6507 32.5567 0.0000 -1.9512 0.0000
# 2 17.6507 84.1374 44.0364 0.0000 2.9053 0.0000
# 3 32.5567 44.0364 107.2777 0.0000 -2.0851 0.0000
# 4 0.0000 0.0000 0.0000 26.8309 0.0000 -2.2248
# 5 -1.9512 2.9053 -2.0851 0.0000 23.8312 0.0000
# 6 0.0000 0.0000 0.0000 -2.2248 0.0000 18.9445
#
#
#
# Elastic Compliance Matrix: (Units=1/GPa)
#
#
# Indices 1 2 3 4 5 6 
#
# 1 0.015626 -0.001073 -0.004282 0.000000 0.001036 0.000000
# 2 -0.001073 0.015349 -0.006023 0.000000 -0.002486 0.000000
# 3 -0.004282 -0.006023 0.013123 0.000000 0.001532 0.000000
# 4 0.000000 0.000000 0.000000 0.037637 0.000000 0.004420
# 5 0.001036 -0.002486 0.001532 0.000000 0.042484 0.000000
# 6 0.000000 0.000000 0.000000 0.004420 0.000000 0.053305
#
#
# Mechanical properties :
#
#
# Convention : Reuss Voigt Hill
#
# Bulk Modulus (GPa) = 46.85511 50.46237 48.65874
# Shear Modulus (GPa) = 24.10886 25.34999 24.72943
#
# Velocity S-wave (km/s) = 3.61490 3.70678 3.66113
# Velocity P-wave (km/s) = 6.54368 6.75810 6.65175
#
# Compressibility (1/GPa) = 0.02134239
#
# Stress axis : x y z
#
# Youngs Moduli (GPa) = 63.99645 65.15210 76.20075
#
# Poissons Ratio (x) = 0.06990 0.32626
# Poissons Ratio (y) = 0.06866 0.45897
# Poissons Ratio (z) = 0.27401 0.39242
#
# Static dielectric constant tensor:
#      x y z
#    x 3.497070 0.000000 -0.017060 
#    y 0.000000 3.371050 0.000000 
#    z -0.017060 0.000000 3.303620 
# 
# 
# High freq. dielectric constant tensor:
#      x y z
#    x 1.712460 0.000000 -0.004160 
#    y 0.000000 1.709190 0.000000 
#    z -0.004160 0.000000 1.709870 
# 
# From -- ./inp_files/45329.got.cif
#   From: 2010.06.25/outbox.cif.g09.slc.cpg/sg11_23_cif.got.tgz:45329.got - 2010.06.27 23:14:04.
