data_PCOD8073689
_publ_section_title
;
Structure prediction by ZEFSAII (Michael W. Deem and Ramdas Pophale) SiO2 
 PCOD8073689
Probable space group: P 21/M
;
_chemical_formula_sum "Si O2"
_cell_formula_units_Z 24
_cell_length_a 17.168734
_cell_length_b 14.027647
_cell_length_c 9.383041
_cell_angle_alpha 90.000000
_cell_angle_beta 145.680017
_cell_angle_gamma 90.000000
_cell_volume 1274.097525
_symmetry_space_group_name_H-M "P 21/M"
_symmetry_group_IT_number 11
_symmetry_cell_setting 'monoclinic'
loop_
_space_group_symop_operation_xyz
x,y,z
-x,1/2+y,-z
-x,-y,-z
x,1/2-y,z
loop_
_atom_site_type_symbol
_atom_site_label
_atom_site_fract_x
_atom_site_fract_y
_atom_site_fract_z
Si Si1 0.659063 0.429692 0.604385
Si Si2 0.136073 0.963948 0.623542
Si Si3 0.812964 0.750000 0.026838
Si Si4 0.880834 0.455211 0.722172
Si Si5 0.651108 0.564884 0.860763
Si Si6 0.017233 0.750000 0.099033
Si Si7 0.909137 0.250000 0.386435
Si Si8 0.159457 0.750000 0.039378
O O1 0.736473 0.474460 0.584462
O O2 0.652522 0.500632 0.724615
O O3 0.502753 0.407620 0.319823
O O4 0.743155 0.339341 0.786308
O O5 0.121463 0.001202 0.438556
O O6 0.160568 0.849114 0.666654
O O7 0.000000 0.000000 0.500000
O O8 0.270848 0.013680 0.891886
O O9 0.935841 0.750000 0.324898
O O10 0.722901 0.659331 0.918174
O O11 0.865421 0.750000 0.940857
O O12 0.000000 0.500000 0.000000
O O13 0.902262 0.343078 0.725327
O O14 0.023554 0.750000 0.936561
O O15 0.908298 0.250000 0.215893
#
# Coordination Sequence:
#
# PCOD8073689 Si02
#       8
#     4   4   2   4   4   2   2   2
#     4  10  22  40  58  88 117 160 201 241 295 357
#     4  12  22  38  60  88 120 156 197 250 296 350
#     4  12  21  38  57  88 117 154 194 246 304 343
#     4  11  22  37  61  87 118 154 198 249 296 348
#     4  11  23  38  60  83 122 160 201 243 296 356
#     4  10  20  34  56  83 115 144 184 249 292 341
#     4  12  22  36  61  90 115 151 194 243 301 349
#     4  10  21  36  62  87 115 151 200 244 297 357
#
# _framework density 18.836863000000001
#
# number of rings (size 3 to 8) (size 9 to 14) (size 15 to 20)
#    0.000    1.000    5.000    2.500    2.333    0.667 
#    0.000    0.000    0.000    0.000    0.000    0.000 
#    0.000    0.000    0.000    0.000    0.000    0.000 
#
# Total GULP energy -297482.842252 kJ/mol
# GULP energy per Si atom -12395.118427 kJ/mol
# Density = 1.879399 g / cm^3
# Si number density = 18.836863 Si / 1000 Ang^3
#
#
#
# Elastic Constant Matrix: (Units=GPa)
#
#
# Indices 1 2 3 4 5 6 
#
# 1 162.3359 36.0281 77.7861 0.0000 -0.2021 0.0000
# 2 36.0281 87.2978 37.8912 0.0000 6.2004 0.0000
# 3 77.7861 37.8912 122.4963 0.0000 0.4472 0.0000
# 4 0.0000 0.0000 0.0000 27.5559 0.0000 0.3456
# 5 -0.2021 6.2004 0.4472 0.0000 40.5784 0.0000
# 6 0.0000 0.0000 0.0000 0.3456 0.0000 24.2181
#
#
#
# Elastic Compliance Matrix: (Units=1/GPa)
#
#
# Indices 1 2 3 4 5 6 
#
# 1 0.009009 -0.001453 -0.005273 0.000000 0.000325 0.000000
# 2 -0.001453 0.013626 -0.003285 0.000000 -0.002053 0.000000
# 3 -0.005273 -0.003285 0.012527 0.000000 0.000338 0.000000
# 4 0.000000 0.000000 0.000000 0.036296 0.000000 -0.000518
# 5 0.000325 -0.002053 0.000338 0.000000 0.024955 0.000000
# 6 0.000000 0.000000 0.000000 -0.000518 0.000000 0.041299
#
#
# Mechanical properties :
#
#
# Convention : Reuss Voigt Hill
#
# Bulk Modulus (GPa) = 66.04446 75.06010 70.55228
# Shear Modulus (GPa) = 30.71607 33.16544 31.94076
#
# Velocity S-wave (km/s) = 4.04249 4.20058 4.12230
# Velocity P-wave (km/s) = 7.54496 7.96621 7.75844
#
# Compressibility (1/GPa) = 0.01514132
#
# Stress axis : x y z
#
# Youngs Moduli (GPa) = 110.99410 73.38797 79.82899
#
# Poissons Ratio (x) = 0.10661 0.42093
# Poissons Ratio (y) = 0.16123 0.26224
# Poissons Ratio (z) = 0.58527 0.24108
#
# Static dielectric constant tensor:
#      x y z
#    x 3.807570 0.000000 -0.008930 
#    y 0.000000 3.503730 0.000000 
#    z -0.008930 0.000000 3.556260 
# 
# 
# High freq. dielectric constant tensor:
#      x y z
#    x 1.739700 0.000000 -0.008510 
#    y 0.000000 1.744690 0.000000 
#    z -0.008510 0.000000 1.720730 
# 
# From -- ./inp_files/22369.got.cif
#   From: 2010.06.25/outbox.cif.g09.slc.cpg/sg11_12_cif.got.tgz:22369.got - 2010.06.27 23:14:04.
