data_PCOD8073964
_publ_section_title
;
Structure prediction by ZEFSAII (Michael W. Deem and Ramdas Pophale) SiO2 
 PCOD8073964
Probable space group: P 21/M
;
_chemical_formula_sum "Si O2"
_cell_formula_units_Z 28
_cell_length_a 9.928906
_cell_length_b 8.739647
_cell_length_c 18.658833
_cell_angle_alpha 90.000000
_cell_angle_beta 105.270232
_cell_angle_gamma 90.000000
_cell_volume 1561.958599
_symmetry_space_group_name_H-M "P 21/M"
_symmetry_group_IT_number 11
_symmetry_cell_setting 'monoclinic'
loop_
_space_group_symop_operation_xyz
x,y,z
-x,1/2+y,-z
-x,-y,-z
x,1/2-y,z
loop_
_atom_site_type_symbol
_atom_site_label
_atom_site_fract_x
_atom_site_fract_y
_atom_site_fract_z
Si Si1 0.148255 0.428487 0.505253
Si Si2 0.231778 0.930942 0.652774
Si Si3 0.135189 0.430508 0.054914
Si Si4 0.212809 0.429307 0.222695
Si Si5 0.427521 0.568403 0.058854
Si Si6 0.929682 0.570287 0.657199
Si Si7 0.510568 0.067997 0.215583
O O1 0.144145 0.250000 0.520211
O O2 0.258259 0.504811 0.575688
O O3 0.176096 0.461798 0.424587
O O4 0.000000 0.500000 0.500000
O O5 0.230553 0.750000 0.646905
O O6 0.356160 0.987862 0.720948
O O7 0.085318 0.995694 0.663987
O O8 0.143405 0.250000 0.042769
O O9 0.128175 0.468912 0.138622
O O10 0.269968 0.507365 0.038906
O O11 0.000000 0.500000 0.000000
O O12 0.217557 0.250000 0.236575
O O13 0.136221 0.506594 0.280545
O O14 0.371883 0.488152 0.238078
O O15 0.426102 0.750000 0.054846
O O16 0.516384 0.512923 0.139592
O O17 0.500000 0.500000 0.000000
O O18 0.948094 0.750000 0.671288
O O19 0.508156 0.250000 0.202983
#
# Coordination Sequence:
#
# PCOD8073964 Si02
#       7
#     4   4   4   4   4   4   4
#     4   9  16  27  45  67  93 123 158 201 246 290
#     4   9  17  29  47  70  96 126 160 198 243 296
#     4  10  20  35  55  79 105 136 172 212 260 313
#     4   8  15  29  48  68  93 126 162 198 242 295
#     4  11  22  37  56  77 104 137 172 214 259 307
#     4   8  14  26  45  68  90 119 160 200 238 286
#     4   9  18  33  51  71  97 129 163 201 247 301
#
# _framework density 17.926212
#
# number of rings (size 3 to 8) (size 9 to 14) (size 15 to 20)
#    0.000    2.857    0.000    3.857    0.000    1.714 
#    0.000    3.571    0.000   21.429    0.000    0.000 
#    0.000    0.000    0.000    0.000    0.000    0.000 
#
# Total GULP energy -347009.775677 kJ/mol
# GULP energy per Si atom -12393.206274 kJ/mol
# Density = 1.788541 g / cm^3
# Si number density = 17.926212 Si / 1000 Ang^3
#
#
#
# Elastic Constant Matrix: (Units=GPa)
#
#
# Indices 1 2 3 4 5 6 
#
# 1 91.5078 33.4523 96.4382 0.0000 6.9060 0.0000
# 2 33.4523 62.8570 51.4316 0.0000 4.6675 0.0000
# 3 96.4382 51.4316 176.6088 0.0000 5.9084 0.0000
# 4 0.0000 0.0000 0.0000 29.7990 0.0000 3.5105
# 5 6.9060 4.6675 5.9084 0.0000 35.5248 0.0000
# 6 0.0000 0.0000 0.0000 3.5105 0.0000 19.5700
#
#
#
# Elastic Compliance Matrix: (Units=1/GPa)
#
#
# Indices 1 2 3 4 5 6 
#
# 1 0.026367 -0.002801 -0.013498 0.000000 -0.002513 0.000000
# 2 -0.002801 0.021291 -0.004621 0.000000 -0.001484 0.000000
# 3 -0.013498 -0.004621 0.014350 0.000000 0.000844 0.000000
# 4 0.000000 0.000000 0.000000 0.034283 0.000000 -0.006150
# 5 -0.002513 -0.001484 0.000844 0.000000 0.028692 0.000000
# 6 0.000000 0.000000 0.000000 -0.006150 0.000000 0.052202
#
#
# Mechanical properties :
#
#
# Convention : Reuss Voigt Hill
#
# Bulk Modulus (GPa) = 49.58384 77.06865 63.32625
# Shear Modulus (GPa) = 22.14850 26.95551 24.55200
#
# Velocity S-wave (km/s) = 3.51883 3.88195 3.70485
# Velocity P-wave (km/s) = 6.65053 7.94847 7.32830
#
# Compressibility (1/GPa) = 0.02016786
#
# Stress axis : x y z
#
# Youngs Moduli (GPa) = 37.92623 46.96750 69.68479
#
# Poissons Ratio (x) = 0.13158 0.94060
# Poissons Ratio (y) = 0.10625 0.32201
# Poissons Ratio (z) = 0.51193 0.21704
#
# Static dielectric constant tensor:
#      x y z
#    x 3.429720 0.000000 -0.055880 
#    y 0.000000 3.200880 0.000000 
#    z -0.055880 0.000000 3.821170 
# 
# 
# High freq. dielectric constant tensor:
#      x y z
#    x 1.674990 0.000000 0.000600 
#    y 0.000000 1.671790 0.000000 
#    z 0.000600 0.000000 1.709950 
# 
# From -- ./inp_files/49018.got.cif
#   From: 2010.06.25/outbox.cif.g09.slc.cpg/sg11_25_cif.got.tgz:49018.got - 2010.06.27 23:14:04.
