data_PCOD8073403
_publ_section_title
;
Structure prediction by ZEFSAII (Michael W. Deem and Ramdas Pophale) SiO2 
 PCOD8073403
Probable space group: P 21/M
;
_chemical_formula_sum "Si O2"
_cell_formula_units_Z 32
_cell_length_a 16.516492
_cell_length_b 9.298077
_cell_length_c 11.189253
_cell_angle_alpha 90.000000
_cell_angle_beta 85.260797
_cell_angle_gamma 90.000000
_cell_volume 1712.476756
_symmetry_space_group_name_H-M "P 21/M"
_symmetry_group_IT_number 11
_symmetry_cell_setting 'monoclinic'
loop_
_space_group_symop_operation_xyz
x,y,z
-x,1/2+y,-z
-x,-y,-z
x,1/2-y,z
loop_
_atom_site_type_symbol
_atom_site_label
_atom_site_fract_x
_atom_site_fract_y
_atom_site_fract_z
Si Si1 0.278112 0.083622 0.654868
Si Si2 0.674146 0.412874 0.725760
Si Si3 0.418633 0.585982 0.021768
Si Si4 0.413495 0.578079 0.506462
Si Si5 0.187827 0.083334 0.169849
Si Si6 0.279479 0.414293 0.926705
Si Si7 0.109267 0.417066 0.572884
Si Si8 0.036409 0.416437 0.327363
O O1 0.301037 0.250000 0.626692
O O2 0.249750 0.063172 0.795529
O O3 0.201532 0.031865 0.585010
O O4 0.356087 0.984349 0.618328
O O5 0.704269 0.250000 0.708035
O O6 0.609310 0.428426 0.838919
O O7 0.629639 0.465829 0.611893
O O8 0.753105 0.505992 0.743817
O O9 0.432703 0.750000 0.982160
O O10 0.500000 0.500000 0.000000
O O11 0.354543 0.518798 0.938555
O O12 0.500000 0.500000 0.500000
O O13 0.424410 0.750000 0.519065
O O14 0.200126 0.250000 0.196439
O O15 0.094442 0.040426 0.208898
O O16 0.207599 0.045383 0.029291
O O17 0.307621 0.250000 0.945366
O O18 0.101531 0.250000 0.602800
O O19 0.086747 0.456309 0.440420
O O20 0.047042 0.495731 0.670496
O O21 0.012640 0.250000 0.328858
#
# Coordination Sequence:
#
# PCOD8073403 Si02
#       8
#     4   4   4   4   4   4   4   4
#     4  10  21  38  57  76 107 144 178 219 265 317
#     4   9  20  36  52  73 103 133 167 214 263 310
#     4  10  20  34  53  76 101 131 171 217 264 312
#     4  11  24  39  55  78 105 138 176 216 265 318
#     4   9  17  32  55  80 104 135 176 218 262 312
#     4   9  19  35  54  76 103 139 177 217 267 315
#     4   9  18  32  51  77 105 140 177 212 263 318
#     4   9  17  30  51  78 107 134 172 222 263 308
#
# _framework density 18.686385000000001
#
# number of rings (size 3 to 8) (size 9 to 14) (size 15 to 20)
#    0.000    2.500    0.000    1.500    1.750    4.000 
#    0.000    3.125    0.000    0.000    0.000    0.000 
#    0.000    0.000    0.000    0.000    0.000    0.000 
#
# Total GULP energy -396791.400687 kJ/mol
# GULP energy per Si atom -12399.731271 kJ/mol
# Density = 1.864385 g / cm^3
# Si number density = 18.686385 Si / 1000 Ang^3
#
#
#
# Elastic Constant Matrix: (Units=GPa)
#
#
# Indices 1 2 3 4 5 6 
#
# 1 113.2200 48.8502 32.2200 0.0000 -21.3063 0.0000
# 2 48.8502 70.9988 25.9345 0.0000 -9.1475 0.0000
# 3 32.2200 25.9345 68.8710 0.0000 -2.9003 0.0000
# 4 0.0000 0.0000 0.0000 24.8446 0.0000 -3.0735
# 5 -21.3063 -9.1475 -2.9003 0.0000 22.4456 0.0000
# 6 0.0000 0.0000 0.0000 -3.0735 0.0000 34.8905
#
#
#
# Elastic Compliance Matrix: (Units=1/GPa)
#
#
# Indices 1 2 3 4 5 6 
#
# 1 0.015295 -0.007741 -0.003783 0.000000 0.010875 0.000000
# 2 -0.007741 0.021063 -0.004281 0.000000 0.000683 0.000000
# 3 -0.003783 -0.004281 0.017774 0.000000 -0.003039 0.000000
# 4 0.000000 0.000000 0.000000 0.040694 0.000000 0.003585
# 5 0.010875 0.000683 -0.003039 0.000000 0.054761 0.000000
# 6 0.000000 0.000000 0.000000 0.003585 0.000000 0.028977
#
#
# Mechanical properties :
#
#
# Convention : Reuss Voigt Hill
#
# Bulk Modulus (GPa) = 44.40107 51.89993 48.15050
# Shear Modulus (GPa) = 22.96944 26.17515 24.57230
#
# Velocity S-wave (km/s) = 3.50981 3.74673 3.63020
# Velocity P-wave (km/s) = 6.34333 6.82289 6.58747
#
# Compressibility (1/GPa) = 0.02252198
#
# Stress axis : x y z
#
# Youngs Moduli (GPa) = 65.37940 47.47736 56.26268
#
# Poissons Ratio (x) = 0.36752 0.21282
# Poissons Ratio (y) = 0.50610 0.24088
# Poissons Ratio (z) = 0.24731 0.20327
#
# Static dielectric constant tensor:
#      x y z
#    x 2.689570 0.000000 -0.352730 
#    y 0.000000 3.475000 0.000000 
#    z -0.352730 0.000000 3.552400 
# 
# 
# High freq. dielectric constant tensor:
#      x y z
#    x 1.720230 0.000000 -0.014060 
#    y 0.000000 1.724670 0.000000 
#    z -0.014060 0.000000 1.721080 
# 
# From -- ./inp_files/38162.got.cif
#   From: 2010.06.25/outbox.cif.g09.slc.cpg/sg11_20_cif.got.tgz:38162.got - 2010.06.27 23:14:04.
