data_PCOD8073378
_publ_section_title
;
Structure prediction by ZEFSAII (Michael W. Deem and Ramdas Pophale) SiO2 
 PCOD8073378
Probable space group: P 21/M
;
_chemical_formula_sum "Si O2"
_cell_formula_units_Z 28
_cell_length_a 14.236590
_cell_length_b 8.799061
_cell_length_c 19.037898
_cell_angle_alpha 90.000000
_cell_angle_beta 138.284068
_cell_angle_gamma 90.000000
_cell_volume 1586.970534
_symmetry_space_group_name_H-M "P 21/M"
_symmetry_group_IT_number 11
_symmetry_cell_setting 'monoclinic'
loop_
_space_group_symop_operation_xyz
x,y,z
-x,1/2+y,-z
-x,-y,-z
x,1/2-y,z
loop_
_atom_site_type_symbol
_atom_site_label
_atom_site_fract_x
_atom_site_fract_y
_atom_site_fract_z
Si Si1 0.896941 0.071146 0.999150
Si Si2 0.707581 0.424363 0.618549
Si Si3 0.028436 0.426130 0.812248
Si Si4 0.424828 0.571746 0.202110
Si Si5 0.277039 0.926016 0.883844
Si Si6 0.517196 0.574491 0.621743
Si Si7 0.497344 0.573067 0.892112
O O1 0.911428 0.250000 0.001828
O O2 0.939839 0.019470 0.100237
O O3 0.737787 0.018939 0.893267
O O4 0.000000 0.000000 0.000000
O O5 0.682527 0.250000 0.627513
O O6 0.651955 0.530388 0.649936
O O7 0.626131 0.459845 0.500909
O O8 0.871245 0.459689 0.697420
O O9 0.051805 0.250000 0.841998
O O10 0.132147 0.479675 0.807723
O O11 0.441451 0.750000 0.198705
O O12 0.488568 0.528046 0.312593
O O13 0.517159 0.482262 0.195779
O O14 0.242417 0.750000 0.875198
O O15 0.349459 0.958488 0.849158
O O16 0.379032 0.976034 0.003693
O O17 0.530749 0.750000 0.650643
O O18 0.537507 0.750000 0.918987
#
# Coordination Sequence:
#
# PCOD8073378 Si02
#       7
#     4   4   4   4   4   4   4
#     4  11  23  35  48  72 107 141 172 211 259 312
#     4   9  20  37  54  77 106 137 178 223 261 305
#     4  11  21  34  54  77 105 140 175 213 261 314
#     4  11  22  35  52  76 108 139 173 218 262 308
#     4  10  20  34  52  78 108 136 172 217 259 309
#     4  10  20  35  56  78 103 138 180 221 262 310
#     4  10  20  34  54  77 104 139 176 212 258 314
#
# _framework density 17.64368
#
# number of rings (size 3 to 8) (size 9 to 14) (size 15 to 20)
#    0.000    1.714    1.429    3.429    0.000    8.571 
#    0.000    0.000    0.000    0.857    0.000    0.000 
#    0.000    0.000    0.000    0.000    0.000    0.000 
#
# Total GULP energy -347327.942057 kJ/mol
# GULP energy per Si atom -12404.569359 kJ/mol
# Density = 1.760352 g / cm^3
# Si number density = 17.643680 Si / 1000 Ang^3
#
#
#
# Elastic Constant Matrix: (Units=GPa)
#
#
# Indices 1 2 3 4 5 6 
#
# 1 121.3828 38.1199 53.9446 0.0000 0.4185 0.0000
# 2 38.1199 50.6636 27.4730 0.0000 0.8347 0.0000
# 3 53.9446 27.4730 84.0275 0.0000 -0.9742 0.0000
# 4 0.0000 0.0000 0.0000 25.6380 0.0000 -2.5754
# 5 0.4185 0.8347 -0.9742 0.0000 24.6162 0.0000
# 6 0.0000 0.0000 0.0000 -2.5754 0.0000 34.0043
#
#
#
# Elastic Compliance Matrix: (Units=1/GPa)
#
#
# Indices 1 2 3 4 5 6 
#
# 1 0.013042 -0.006402 -0.006283 0.000000 -0.000253 0.000000
# 2 -0.006402 0.027165 -0.004783 0.000000 -0.001002 0.000000
# 3 -0.006283 -0.004783 0.017509 0.000000 0.000962 0.000000
# 4 0.000000 0.000000 0.000000 0.039304 0.000000 0.002977
# 5 -0.000253 -0.001002 0.000962 0.000000 0.040700 0.000000
# 6 0.000000 0.000000 0.000000 0.002977 0.000000 0.029634
#
#
# Mechanical properties :
#
#
# Convention : Reuss Voigt Hill
#
# Bulk Modulus (GPa) = 43.89677 55.01653 49.45665
# Shear Modulus (GPa) = 23.82283 25.95412 24.88847
#
# Velocity S-wave (km/s) = 3.67852 3.83954 3.75989
# Velocity P-wave (km/s) = 6.55558 7.13483 6.85133
#
# Compressibility (1/GPa) = 0.02278072
#
# Stress axis : x y z
#
# Youngs Moduli (GPa) = 76.67641 36.81172 57.11258
#
# Poissons Ratio (x) = 0.23566 0.35881
# Poissons Ratio (y) = 0.49087 0.27319
# Poissons Ratio (z) = 0.48172 0.17609
#
# Static dielectric constant tensor:
#      x y z
#    x 3.576290 0.000000 0.048200 
#    y 0.000000 3.396990 0.000000 
#    z 0.048200 0.000000 3.149120 
# 
# 
# High freq. dielectric constant tensor:
#      x y z
#    x 1.685120 0.000000 -0.000940 
#    y 0.000000 1.698290 0.000000 
#    z -0.000940 0.000000 1.660530 
# 
# From -- ./inp_files/53196.got.cif
#   From: 2010.06.25/outbox.cif.g09.slc.cpg/sg11_27_cif.got.tgz:53196.got - 2010.06.27 23:14:04.
