data_PCOD8073014
_publ_section_title
;
Structure prediction by ZEFSAII (Michael W. Deem and Ramdas Pophale) SiO2 
 PCOD8073014
Probable space group: P 21/M
;
_chemical_formula_sum "Si O2"
_cell_formula_units_Z 32
_cell_length_a 14.363439
_cell_length_b 8.655913
_cell_length_c 15.805988
_cell_angle_alpha 90.000000
_cell_angle_beta 63.143969
_cell_angle_gamma 90.000000
_cell_volume 1753.186635
_symmetry_space_group_name_H-M "P 21/M"
_symmetry_group_IT_number 11
_symmetry_cell_setting 'monoclinic'
loop_
_space_group_symop_operation_xyz
x,y,z
-x,1/2+y,-z
-x,-y,-z
x,1/2-y,z
loop_
_atom_site_type_symbol
_atom_site_label
_atom_site_fract_x
_atom_site_fract_y
_atom_site_fract_z
Si Si1 0.577192 0.430754 0.280353
Si Si2 0.717789 0.929444 0.350439
Si Si3 0.076425 0.430783 0.639757
Si Si4 0.862880 0.931338 0.725177
Si Si5 0.172598 0.571758 0.438875
Si Si6 0.380697 0.571914 0.450039
Si Si7 0.443033 0.567806 0.903124
Si Si8 0.344861 0.067354 0.099916
O O1 0.552288 0.250000 0.296182
O O2 0.686957 0.472039 0.280064
O O3 0.489489 0.526123 0.364882
O O4 0.581308 0.486703 0.181828
O O5 0.707857 0.750000 0.332901
O O6 0.835842 0.975257 0.327244
O O7 0.639455 0.968612 0.459255
O O8 0.080604 0.250000 0.617801
O O9 0.094873 0.523633 0.545664
O O10 0.964004 0.481532 0.721571
O O11 0.876606 0.750000 0.733374
O O12 0.762268 0.996714 0.816372
O O13 0.850020 0.965585 0.631709
O O14 0.151935 0.750000 0.424229
O O15 0.291443 0.541650 0.417442
O O16 0.382490 0.750000 0.477791
O O17 0.435452 0.750000 0.915259
O O18 0.558139 0.508038 0.882757
O O19 0.356116 0.493931 0.999831
O O20 0.342730 0.250000 0.099760
#
# Coordination Sequence:
#
# PCOD8073014 Si02
#       8
#     4   4   4   4   4   4   4   4
#     4  11  21  33  52  76 103 134 168 207 251 301
#     4  10  21  36  52  71  99 135 173 213 253 293
#     4  10  21  36  52  71  99 135 173 213 253 293
#     4  11  21  33  52  76 103 134 168 207 251 301
#     4  10  20  33  50  74 104 137 172 208 247 295
#     4  10  20  33  50  74 104 137 172 208 247 295
#     4   9  19  35  54  77 104 132 161 197 245 298
#     4   9  19  35  54  77 104 132 161 197 245 298
#
# _framework density 18.252478
#
# number of rings (size 3 to 8) (size 9 to 14) (size 15 to 20)
#    0.000    2.000    0.000    3.750    0.000    6.000 
#    0.000    2.500    0.000    0.750    0.000    0.000 
#    0.000    0.000    0.000    0.000    0.000    0.000 
#
# Total GULP energy -396921.018161 kJ/mol
# GULP energy per Si atom -12403.781818 kJ/mol
# Density = 1.821093 g / cm^3
# Si number density = 18.252478 Si / 1000 Ang^3
#
#
#
# Elastic Constant Matrix: (Units=GPa)
#
#
# Indices 1 2 3 4 5 6 
#
# 1 110.2787 23.3099 70.4702 0.0000 -1.2760 0.0000
# 2 23.3099 35.9018 14.9616 0.0000 -0.3485 0.0000
# 3 70.4702 14.9616 90.8978 0.0000 -1.0863 0.0000
# 4 0.0000 0.0000 0.0000 28.5077 0.0000 0.9684
# 5 -1.2760 -0.3485 -1.0863 0.0000 30.5689 0.0000
# 6 0.0000 0.0000 0.0000 0.9684 0.0000 28.8615
#
#
#
# Elastic Compliance Matrix: (Units=1/GPa)
#
#
# Indices 1 2 3 4 5 6 
#
# 1 0.019403 -0.006794 -0.013921 0.000000 0.000238 0.000000
# 2 -0.006794 0.032285 -0.000046 0.000000 0.000083 0.000000
# 3 -0.013921 -0.000046 0.021804 0.000000 0.000193 0.000000
# 4 0.000000 0.000000 0.000000 0.035118 0.000000 -0.001178
# 5 0.000238 0.000083 0.000193 0.000000 0.032731 0.000000
# 6 0.000000 0.000000 0.000000 -0.001178 0.000000 0.034688
#
#
# Mechanical properties :
#
#
# Convention : Reuss Voigt Hill
#
# Bulk Modulus (GPa) = 31.27997 50.50686 40.89342
# Shear Modulus (GPa) = 21.91002 26.14340 24.02671
#
# Velocity S-wave (km/s) = 3.46842 3.78871 3.63209
# Velocity P-wave (km/s) = 5.76320 6.84619 6.32791
#
# Compressibility (1/GPa) = 0.03196934
#
# Stress axis : x y z
#
# Youngs Moduli (GPa) = 51.53954 30.97445 45.86337
#
# Poissons Ratio (x) = 0.21043 0.63847
# Poissons Ratio (y) = 0.35015 0.00211
# Poissons Ratio (z) = 0.71749 0.00143
#
# Static dielectric constant tensor:
#      x y z
#    x 3.619700 0.000000 -0.021260 
#    y 0.000000 3.315210 0.000000 
#    z -0.021260 0.000000 3.252350 
# 
# 
# High freq. dielectric constant tensor:
#      x y z
#    x 1.712130 0.000000 -0.000510 
#    y 0.000000 1.713320 0.000000 
#    z -0.000510 0.000000 1.682450 
# 
# From -- ./inp_files/51606.got.cif
#   From: 2010.06.25/outbox.cif.g09.slc.cpg/sg11_26_cif.got.tgz:51606.got - 2010.06.27 23:14:04.
