data_PCOD8073450
_publ_section_title
;
Structure prediction by ZEFSAII (Michael W. Deem and Ramdas Pophale) SiO2 
 PCOD8073450
Probable space group: P 21/M
;
_chemical_formula_sum "Si O2"
_cell_formula_units_Z 32
_cell_length_a 14.272963
_cell_length_b 9.167627
_cell_length_c 24.419174
_cell_angle_alpha 90.000000
_cell_angle_beta 149.273875
_cell_angle_gamma 90.000000
_cell_volume 1632.554311
_symmetry_space_group_name_H-M "P 21/M"
_symmetry_group_IT_number 11
_symmetry_cell_setting 'monoclinic'
loop_
_space_group_symop_operation_xyz
x,y,z
-x,1/2+y,-z
-x,-y,-z
x,1/2-y,z
loop_
_atom_site_type_symbol
_atom_site_label
_atom_site_fract_x
_atom_site_fract_y
_atom_site_fract_z
Si Si1 0.699697 0.921173 0.246152
Si Si2 0.273349 0.919768 0.037706
Si Si3 0.284930 0.089403 0.147745
Si Si4 0.055122 0.918580 0.714056
Si Si5 0.720749 0.414083 0.363458
Si Si6 0.339140 0.078098 0.294220
Si Si7 0.996392 0.422721 0.189503
Si Si8 0.710898 0.581702 0.465890
O O1 0.736548 0.750000 0.269997
O O2 0.484823 0.956962 0.133116
O O3 0.788883 0.000497 0.343733
O O4 0.792737 0.983644 0.238684
O O5 0.236712 0.750000 0.024151
O O6 0.202846 0.983957 0.060270
O O7 0.156051 0.987123 0.928723
O O8 0.206412 0.250000 0.096483
O O9 0.503423 0.089538 0.254544
O O10 0.236503 0.039003 0.185164
O O11 0.118639 0.750000 0.744781
O O12 0.039485 0.981949 0.767683
O O13 0.857603 0.936063 0.587408
O O14 0.802395 0.250000 0.403913
O O15 0.788761 0.498909 0.451559
O O16 0.388614 0.250000 0.319513
O O17 0.200358 0.032307 0.272636
O O18 0.523981 0.987241 0.394918
O O19 0.981235 0.250000 0.182297
O O20 0.675817 0.750000 0.432791
#
# Coordination Sequence:
#
# PCOD8073450 Si02
#       8
#     4   4   4   4   4   4   4   4
#     4  10  20  34  54  81 110 136 168 217 266 304
#     4   9  18  33  54  78 104 136 171 211 259 306
#     4   8  15  28  48  77 107 131 162 205 255 313
#     4  10  22  38  54  73 101 141 183 217 256 310
#     4   9  17  32  55  80 106 138 172 206 255 319
#     4   9  18  34  56  78 103 139 175 209 258 316
#     4   9  19  37  56  74 101 139 182 218 252 308
#     4  10  20  34  53  79 108 135 169 217 265 306
#
# _framework density 19.601185000000001
#
# number of rings (size 3 to 8) (size 9 to 14) (size 15 to 20)
#    0.000    2.750    0.000    1.875    0.000    6.500 
#    0.000    1.875    0.000    0.000    0.000    0.000 
#    0.000    0.000    0.000    0.000    0.000    0.000 
#
# Total GULP energy -396768.296328 kJ/mol
# GULP energy per Si atom -12399.009260 kJ/mol
# Density = 1.955657 g / cm^3
# Si number density = 19.601185 Si / 1000 Ang^3
#
#
#
# Elastic Constant Matrix: (Units=GPa)
#
#
# Indices 1 2 3 4 5 6 
#
# 1 111.2530 37.1909 13.2682 0.0000 -18.6551 0.0000
# 2 37.1909 82.5806 31.3188 0.0000 -4.9545 0.0000
# 3 13.2682 31.3188 47.4199 0.0000 -14.9303 0.0000
# 4 0.0000 0.0000 0.0000 19.2336 0.0000 -3.8525
# 5 -18.6551 -4.9545 -14.9303 0.0000 25.7432 0.0000
# 6 0.0000 0.0000 0.0000 -3.8525 0.0000 22.3388
#
#
#
# Elastic Compliance Matrix: (Units=1/GPa)
#
#
# Indices 1 2 3 4 5 6 
#
# 1 0.012356 -0.006468 0.003966 0.000000 0.010010 0.000000
# 2 -0.006468 0.019847 -0.014156 0.000000 -0.009078 0.000000
# 3 0.003966 -0.014156 0.035937 0.000000 0.020993 0.000000
# 4 0.000000 0.000000 0.000000 0.053853 0.000000 0.009287
# 5 0.010010 -0.009078 0.020993 0.000000 0.056527 0.000000
# 6 0.000000 0.000000 0.000000 0.009287 0.000000 0.046367
#
#
# Mechanical properties :
#
#
# Convention : Reuss Voigt Hill
#
# Bulk Modulus (GPa) = 28.71597 44.97882 36.84740
# Shear Modulus (GPa) = 18.53148 24.09482 21.31315
#
# Velocity S-wave (km/s) = 3.07811 3.50987 3.30106
# Velocity P-wave (km/s) = 5.22637 6.27873 5.77657
#
# Compressibility (1/GPa) = 0.03482382
#
# Stress axis : x y z
#
# Youngs Moduli (GPa) = 80.93062 50.38637 27.82610
#
# Poissons Ratio (x) = 0.32592 -0.11037
# Poissons Ratio (y) = 0.52350 0.39391
# Poissons Ratio (z) = -0.32100 0.71328
#
# Static dielectric constant tensor:
#      x y z
#    x 3.766410 0.000000 -0.197740 
#    y 0.000000 3.519210 0.000000 
#    z -0.197740 0.000000 3.478250 
# 
# 
# High freq. dielectric constant tensor:
#      x y z
#    x 1.767130 0.000000 -0.002150 
#    y 0.000000 1.748460 0.000000 
#    z -0.002150 0.000000 1.755080 
# 
# From -- ./inp_files/56200.got.cif
#   From: 2010.06.25/outbox.cif.g09.slc.cpg/sg11_29_cif.got.tgz:56200.got - 2010.06.27 23:14:04.
