data_PCOD8073297
_publ_section_title
;
Structure prediction by ZEFSAII (Michael W. Deem and Ramdas Pophale) SiO2 
 PCOD8073297
Probable space group: P 21/M
;
_chemical_formula_sum "Si O2"
_cell_formula_units_Z 32
_cell_length_a 21.286885
_cell_length_b 9.270335
_cell_length_c 11.706393
_cell_angle_alpha 90.000000
_cell_angle_beta 129.437995
_cell_angle_gamma 90.000000
_cell_volume 1784.118516
_symmetry_space_group_name_H-M "P 21/M"
_symmetry_group_IT_number 11
_symmetry_cell_setting 'monoclinic'
loop_
_space_group_symop_operation_xyz
x,y,z
-x,1/2+y,-z
-x,-y,-z
x,1/2-y,z
loop_
_atom_site_type_symbol
_atom_site_label
_atom_site_fract_x
_atom_site_fract_y
_atom_site_fract_z
Si Si1 0.031412 0.081433 0.647702
Si Si2 0.346483 0.088710 0.565400
Si Si3 0.181437 0.090665 0.232702
Si Si4 0.426765 0.915939 0.472041
Si Si5 0.753039 0.921135 0.344553
Si Si6 0.222470 0.416744 0.878766
Si Si7 0.737915 0.414931 0.857405
Si Si8 0.911857 0.920236 0.657145
O O1 0.009864 0.250000 0.612618
O O2 0.126750 0.056878 0.771118
O O3 0.000000 0.000000 0.500000
O O4 0.990813 0.011641 0.713316
O O5 0.384489 0.250000 0.614083
O O6 0.262734 0.093917 0.400493
O O7 0.324082 0.029264 0.666753
O O8 0.410022 0.981968 0.578237
O O9 0.165621 0.250000 0.162939
O O10 0.107842 0.046578 0.232366
O O11 0.190038 0.981003 0.137438
O O12 0.451094 0.750000 0.515778
O O13 0.348599 0.934977 0.302265
O O14 0.500000 0.000000 0.500000
O O15 0.758742 0.750000 0.358206
O O16 0.741957 0.972735 0.201530
O O17 0.838303 0.979213 0.492906
O O18 0.243908 0.250000 0.922568
O O19 0.267606 0.506808 0.027884
O O20 0.760434 0.250000 0.903538
O O21 0.927151 0.750000 0.655721
#
# Coordination Sequence:
#
# PCOD8073297 Si02
#       8
#     4   4   4   4   4   4   4   4
#     4  11  21  32  48  71 100 133 172 217 258 298
#     4   8  14  27  50  76 100 127 161 200 244 291
#     4   8  15  29  51  72  94 130 167 203 250 306
#     4  10  20  34  54  80 107 130 157 198 244 292
#     4   8  14  28  49  72  98 130 167 206 246 293
#     4  10  20  34  51  70  99 138 175 206 245 304
#     4  10  21  35  51  75 105 130 162 209 250 292
#     4   9  16  30  50  72  98 126 167 217 259 299
#
# _framework density 17.936026999999999
#
# number of rings (size 3 to 8) (size 9 to 14) (size 15 to 20)
#    0.000    2.750    1.250    2.625    0.000    3.000 
#    0.000    3.125    0.000    0.750    0.000    0.000 
#    0.000    0.000    0.000    0.000    0.000    0.000 
#
# Total GULP energy -396685.266262 kJ/mol
# GULP energy per Si atom -12396.414571 kJ/mol
# Density = 1.789520 g / cm^3
# Si number density = 17.936027 Si / 1000 Ang^3
#
#
#
# Elastic Constant Matrix: (Units=GPa)
#
#
# Indices 1 2 3 4 5 6 
#
# 1 153.7822 73.7107 33.6408 0.0000 -28.0389 0.0000
# 2 73.7107 105.4218 34.3865 0.0000 -13.2301 0.0000
# 3 33.6408 34.3865 41.9366 0.0000 -22.9518 0.0000
# 4 0.0000 0.0000 0.0000 23.2268 0.0000 -1.7771
# 5 -28.0389 -13.2301 -22.9518 0.0000 26.0371 0.0000
# 6 0.0000 0.0000 0.0000 -1.7771 0.0000 31.0537
#
#
#
# Elastic Compliance Matrix: (Units=1/GPa)
#
#
# Indices 1 2 3 4 5 6 
#
# 1 0.011576 -0.007746 0.003350 0.000000 0.011483 0.000000
# 2 -0.007746 0.018532 -0.016218 0.000000 -0.013221 0.000000
# 3 0.003350 -0.016218 0.061676 0.000000 0.049734 0.000000
# 4 0.000000 0.000000 0.000000 0.043243 0.000000 0.002475
# 5 0.011483 -0.013221 0.049734 0.000000 0.087896 0.000000
# 6 0.000000 0.000000 0.000000 0.002475 0.000000 0.032344
#
#
# Mechanical properties :
#
#
# Convention : Reuss Voigt Hill
#
# Bulk Modulus (GPa) = 19.77993 64.95740 42.36866
# Shear Modulus (GPa) = 15.95674 26.69033 21.32353
#
# Velocity S-wave (km/s) = 2.98593 3.86176 3.45173
# Velocity P-wave (km/s) = 4.78954 7.49526 6.28962
#
# Compressibility (1/GPa) = 0.05055630
#
# Stress axis : x y z
#
# Youngs Moduli (GPa) = 86.38347 53.96002 16.21379
#
# Poissons Ratio (x) = 0.41795 -0.05431
# Poissons Ratio (y) = 0.66909 0.26296
# Poissons Ratio (z) = -0.28934 0.87512
#
# Static dielectric constant tensor:
#      x y z
#    x 3.688970 0.000000 -0.377040 
#    y 0.000000 3.317690 0.000000 
#    z -0.377040 0.000000 3.108010 
# 
# 
# High freq. dielectric constant tensor:
#      x y z
#    x 1.704350 0.000000 -0.023700 
#    y 0.000000 1.684100 0.000000 
#    z -0.023700 0.000000 1.653880 
# 
# From -- ./inp_files/40627.got.cif
#   From: 2010.06.25/outbox.cif.g09.slc.cpg/sg11_21_cif.got.tgz:40627.got - 2010.06.27 23:14:04.
