data_PCOD8073091
_publ_section_title
;
Structure prediction by ZEFSAII (Michael W. Deem and Ramdas Pophale) SiO2 
 PCOD8073091
Probable space group: P 21/M
;
_chemical_formula_sum "Si O2"
_cell_formula_units_Z 28
_cell_length_a 20.202511
_cell_length_b 8.924121
_cell_length_c 14.513777
_cell_angle_alpha 90.000000
_cell_angle_beta 147.246591
_cell_angle_gamma 90.000000
_cell_volume 1415.690080
_symmetry_space_group_name_H-M "P 21/M"
_symmetry_group_IT_number 11
_symmetry_cell_setting 'monoclinic'
loop_
_space_group_symop_operation_xyz
x,y,z
-x,1/2+y,-z
-x,-y,-z
x,1/2-y,z
loop_
_atom_site_type_symbol
_atom_site_label
_atom_site_fract_x
_atom_site_fract_y
_atom_site_fract_z
Si Si1 0.867920 0.926915 0.336537
Si Si2 0.790701 0.425316 0.909720
Si Si3 0.304681 0.574094 0.007618
Si Si4 0.263178 0.928175 0.352806
Si Si5 0.556307 0.425216 0.282887
Si Si6 0.228149 0.579589 0.602745
Si Si7 0.952042 0.077683 0.772834
O O1 0.882564 0.750000 0.346165
O O2 0.804477 0.987700 0.170332
O O3 0.783578 0.968464 0.325049
O O4 0.000000 0.000000 0.500000
O O5 0.804868 0.250000 0.914318
O O6 0.704096 0.466267 0.894100
O O7 0.925197 0.485134 0.083811
O O8 0.730580 0.489278 0.744767
O O9 0.289947 0.750000 0.972165
O O10 0.434721 0.519385 0.122378
O O11 0.263313 0.750000 0.361057
O O12 0.380053 0.984639 0.548148
O O13 0.137202 0.985620 0.251677
O O14 0.523387 0.250000 0.250971
O O15 0.646422 0.456991 0.303283
O O16 0.230282 0.750000 0.641900
O O17 0.112674 0.556296 0.401131
O O18 0.984586 0.250000 0.828830
#
# Coordination Sequence:
#
# PCOD8073091 Si02
#       7
#     4   4   4   4   4   4   4
#     4  12  25  41  62  86 112 144 180 221 274 330
#     4  10  20  33  51  77 111 149 184 224 273 321
#     4  11  24  39  55  80 114 148 185 230 274 322
#     4   8  16  33  55  79 109 144 182 224 272 325
#     4   9  19  38  61  82 108 146 188 228 273 325
#     4   9  19  37  60  84 111 144 183 228 277 328
#     4   9  17  31  54  82 110 141 178 223 274 329
#
# _framework density 19.77834
#
# number of rings (size 3 to 8) (size 9 to 14) (size 15 to 20)
#    0.000    2.286    0.000    4.714    0.000    5.714 
#    0.000    2.857    0.000    0.000    0.000    0.000 
#    0.000    0.000    0.000    0.000    0.000    0.000 
#
# Total GULP energy -347208.233258 kJ/mol
# GULP energy per Si atom -12400.294045 kJ/mol
# Density = 1.973332 g / cm^3
# Si number density = 19.778340 Si / 1000 Ang^3
#
#
#
# Elastic Constant Matrix: (Units=GPa)
#
#
# Indices 1 2 3 4 5 6 
#
# 1 94.0045 48.3751 38.4751 0.0000 -5.6590 0.0000
# 2 48.3751 72.2929 37.2536 0.0000 -3.3101 0.0000
# 3 38.4751 37.2536 83.0044 0.0000 12.8326 0.0000
# 4 0.0000 0.0000 0.0000 31.5917 0.0000 4.8492
# 5 -5.6590 -3.3101 12.8326 0.0000 29.9674 0.0000
# 6 0.0000 0.0000 0.0000 4.8492 0.0000 25.8489
#
#
#
# Elastic Compliance Matrix: (Units=1/GPa)
#
#
# Indices 1 2 3 4 5 6 
#
# 1 0.017498 -0.009091 -0.004697 0.000000 0.004312 0.000000
# 2 -0.009091 0.023722 -0.007039 0.000000 0.003918 0.000000
# 3 -0.004697 -0.007039 0.018892 0.000000 -0.009755 0.000000
# 4 0.000000 0.000000 0.000000 0.032592 0.000000 -0.006114
# 5 0.004312 0.003918 -0.009755 0.000000 0.038794 0.000000
# 6 0.000000 0.000000 0.000000 -0.006114 0.000000 0.039833
#
#
# Mechanical properties :
#
#
# Convention : Reuss Voigt Hill
#
# Bulk Modulus (GPa) = 54.17538 55.27882 54.72710
# Shear Modulus (GPa) = 22.81657 25.82813 24.32235
#
# Velocity S-wave (km/s) = 3.40017 3.61762 3.51058
# Velocity P-wave (km/s) = 6.54719 6.74236 6.64549
#
# Compressibility (1/GPa) = 0.01845857
#
# Stress axis : x y z
#
# Youngs Moduli (GPa) = 57.14883 42.15426 52.93226
#
# Poissons Ratio (x) = 0.38322 0.24864
# Poissons Ratio (y) = 0.51954 0.37258
# Poissons Ratio (z) = 0.26845 0.29671
#
# Static dielectric constant tensor:
#      x y z
#    x 3.775240 0.000000 -0.191370 
#    y 0.000000 3.338360 0.000000 
#    z -0.191370 0.000000 3.617030 
# 
# 
# High freq. dielectric constant tensor:
#      x y z
#    x 1.780100 0.000000 -0.005550 
#    y 0.000000 1.749570 0.000000 
#    z -0.005550 0.000000 1.772660 
# 
# From -- ./inp_files/48750.got.cif
#   From: 2010.06.25/outbox.cif.g09.slc.cpg/sg11_25_cif.got.tgz:48750.got - 2010.06.27 23:14:04.
