data_PCOD8073300
_publ_section_title
;
Structure prediction by ZEFSAII (Michael W. Deem and Ramdas Pophale) SiO2 
 PCOD8073300
Probable space group: P 21/M
;
_chemical_formula_sum "Si O2"
_cell_formula_units_Z 28
_cell_length_a 18.327914
_cell_length_b 9.102234
_cell_length_c 16.292538
_cell_angle_alpha 90.000000
_cell_angle_beta 142.683643
_cell_angle_gamma 90.000000
_cell_volume 1647.694880
_symmetry_space_group_name_H-M "P 21/M"
_symmetry_group_IT_number 11
_symmetry_cell_setting 'monoclinic'
loop_
_space_group_symop_operation_xyz
x,y,z
-x,1/2+y,-z
-x,-y,-z
x,1/2-y,z
loop_
_atom_site_type_symbol
_atom_site_label
_atom_site_fract_x
_atom_site_fract_y
_atom_site_fract_z
Si Si1 0.399376 0.084288 0.804457
Si Si2 0.672196 0.415658 0.108869
Si Si3 0.836462 0.580308 0.787908
Si Si4 0.068674 0.418832 0.948507
Si Si5 0.405784 0.576336 0.474866
Si Si6 0.477038 0.578956 0.721727
Si Si7 0.260683 0.078862 0.985394
O O1 0.352267 0.250000 0.753918
O O2 0.313592 0.000374 0.792188
O O3 0.391934 0.007260 0.709245
O O4 0.534978 0.079110 0.957674
O O5 0.717388 0.250000 0.161782
O O6 0.754358 0.491857 0.113194
O O7 0.812914 0.750000 0.744688
O O8 0.726537 0.481315 0.661455
O O9 0.954203 0.525070 0.845164
O O10 0.852654 0.558547 0.899462
O O11 0.025557 0.250000 0.903862
O O12 0.150295 0.464730 0.944767
O O13 0.500000 0.500000 0.500000
O O14 0.411591 0.750000 0.466090
O O15 0.439446 0.532667 0.597329
O O16 0.456629 0.750000 0.720086
O O17 0.616320 0.535106 0.858331
O O18 0.260816 0.250000 0.964142
#
# Coordination Sequence:
#
# PCOD8073300 Si02
#       7
#     4   4   4   4   4   4   4
#     4   9  16  26  41  62  89 122 157 190 227 274
#     4   9  16  25  39  62  92 122 152 188 231 277
#     4  10  20  34  51  71  95 124 160 199 239 281
#     4   9  18  33  51  70  94 125 159 197 240 282
#     4  11  22  35  51  71  97 128 161 196 236 281
#     4   9  18  31  46  66  94 127 158 191 233 278
#     4   9  16  28  46  67  93 123 156 193 233 277
#
# _framework density 16.993437
#
# number of rings (size 3 to 8) (size 9 to 14) (size 15 to 20)
#    0.000    2.571    0.000    2.571    0.000    8.000 
#    0.000    2.857    0.000    0.000    0.000    1.000 
#    0.000    0.000    0.000    0.000    0.000    0.000 
#
# Total GULP energy -347236.026808 kJ/mol
# GULP energy per Si atom -12401.286672 kJ/mol
# Density = 1.695476 g / cm^3
# Si number density = 16.993437 Si / 1000 Ang^3
#
#
#
# Elastic Constant Matrix: (Units=GPa)
#
#
# Indices 1 2 3 4 5 6 
#
# 1 150.6630 74.1831 49.0769 0.0000 -24.4509 0.0000
# 2 74.1831 99.1105 41.5021 0.0000 -16.9980 0.0000
# 3 49.0769 41.5021 59.6648 0.0000 -10.8159 0.0000
# 4 0.0000 0.0000 0.0000 23.7620 0.0000 -3.1228
# 5 -24.4509 -16.9980 -10.8159 0.0000 22.0223 0.0000
# 6 0.0000 0.0000 0.0000 -3.1228 0.0000 35.0539
#
#
#
# Elastic Compliance Matrix: (Units=1/GPa)
#
#
# Indices 1 2 3 4 5 6 
#
# 1 0.012199 -0.006065 -0.004620 0.000000 0.006593 0.000000
# 2 -0.006065 0.018221 -0.006978 0.000000 0.003903 0.000000
# 3 -0.004620 -0.006978 0.025805 0.000000 0.002159 0.000000
# 4 0.000000 0.000000 0.000000 0.042583 0.000000 0.003794
# 5 0.006593 0.003903 0.002159 0.000000 0.056802 0.000000
# 6 0.000000 0.000000 0.000000 0.003794 0.000000 0.028865
#
#
# Mechanical properties :
#
#
# Convention : Reuss Voigt Hill
#
# Bulk Modulus (GPa) = 47.84887 70.99582 59.42234
# Shear Modulus (GPa) = 22.04918 25.81272 23.93095
#
# Velocity S-wave (km/s) = 3.60601 3.90164 3.75673
# Velocity P-wave (km/s) = 6.74953 7.88455 7.33901
#
# Compressibility (1/GPa) = 0.02089914
#
# Stress axis : x y z
#
# Youngs Moduli (GPa) = 81.97689 54.88268 38.75184
#
# Poissons Ratio (x) = 0.33287 0.17902
# Poissons Ratio (y) = 0.49720 0.27040
# Poissons Ratio (z) = 0.37871 0.38296
#
# Static dielectric constant tensor:
#      x y z
#    x 3.266210 0.000000 -0.160910 
#    y 0.000000 3.287530 0.000000 
#    z -0.160910 0.000000 2.884110 
# 
# 
# High freq. dielectric constant tensor:
#      x y z
#    x 1.661040 0.000000 -0.018630 
#    y 0.000000 1.666080 0.000000 
#    z -0.018630 0.000000 1.611800 
# 
# From -- ./inp_files/42383.got.cif
#   From: 2010.06.25/outbox.cif.g09.slc.cpg/sg11_22_cif.got.tgz:42383.got - 2010.06.27 23:14:04.
