data_PCOD8073421
_publ_section_title
;
Structure prediction by ZEFSAII (Michael W. Deem and Ramdas Pophale) SiO2 
 PCOD8073421
Probable space group: P 21/M
;
_chemical_formula_sum "Si O2"
_cell_formula_units_Z 32
_cell_length_a 27.004784
_cell_length_b 9.233299
_cell_length_c 10.168548
_cell_angle_alpha 90.000000
_cell_angle_beta 40.592285
_cell_angle_gamma 90.000000
_cell_volume 1649.751954
_symmetry_space_group_name_H-M "P 21/M"
_symmetry_group_IT_number 11
_symmetry_cell_setting 'monoclinic'
loop_
_space_group_symop_operation_xyz
x,y,z
-x,1/2+y,-z
-x,-y,-z
x,1/2-y,z
loop_
_atom_site_type_symbol
_atom_site_label
_atom_site_fract_x
_atom_site_fract_y
_atom_site_fract_z
Si Si1 0.825975 0.578871 0.365398
Si Si2 0.921112 0.581196 0.427289
Si Si3 0.345822 0.077905 0.289324
Si Si4 0.314792 0.083565 0.872115
Si Si5 0.839830 0.079340 0.817696
Si Si6 0.586085 0.917803 0.575662
Si Si7 0.904525 0.082059 0.969622
Si Si8 0.432959 0.420232 0.857466
O O1 0.827961 0.750000 0.341419
O O2 0.867028 0.533184 0.416944
O O3 0.740026 0.518163 0.545622
O O4 0.868229 0.510557 0.157508
O O5 0.911274 0.750000 0.480915
O O6 0.900633 0.489483 0.596567
O O7 0.006833 0.543770 0.215165
O O8 0.342919 0.250000 0.294067
O O9 0.386127 0.020723 0.340203
O O10 0.393711 0.019529 0.069192
O O11 0.290347 0.250000 0.944371
O O12 0.344882 0.058398 0.664430
O O13 0.380429 0.038575 0.840851
O O14 0.243205 0.983097 0.044238
O O15 0.838972 0.250000 0.797323
O O16 0.864518 0.037458 0.914607
O O17 0.563446 0.750000 0.629953
O O18 0.513277 0.004258 0.673039
O O19 0.891661 0.250000 0.027047
O O20 0.447178 0.250000 0.837760
#
# Coordination Sequence:
#
# PCOD8073421 Si02
#       8
#     4   4   4   4   4   4   4   4
#     4  10  20  36  60  84 107 145 191 228 270 328
#     4  10  21  38  59  82 112 149 186 226 275 331
#     4   9  18  33  52  76 105 136 174 217 263 320
#     4  10  21  37  56  77 105 142 179 220 272 325
#     4  11  23  37  56  83 113 146 186 231 276 325
#     4  10  20  34  53  77 105 137 174 217 265 320
#     4  10  22  38  55  82 117 147 181 229 280 327
#     4  10  20  35  55  77 104 138 175 218 266 318
#
# _framework density 19.396854999999999
#
# number of rings (size 3 to 8) (size 9 to 14) (size 15 to 20)
#    0.000    2.000    0.000    3.375    0.000    6.000 
#    0.000    1.250    0.000    0.000    0.000    0.000 
#    0.000    0.000    0.000    0.000    0.000    0.000 
#
# Total GULP energy -396965.422215 kJ/mol
# GULP energy per Si atom -12405.169444 kJ/mol
# Density = 1.935271 g / cm^3
# Si number density = 19.396855 Si / 1000 Ang^3
#
#
#
# Elastic Constant Matrix: (Units=GPa)
#
#
# Indices 1 2 3 4 5 6 
#
# 1 76.0680 27.4047 18.1852 0.0000 -7.2047 0.0000
# 2 27.4047 40.5748 23.7071 0.0000 1.6212 0.0000
# 3 18.1852 23.7071 67.8922 0.0000 0.1120 0.0000
# 4 0.0000 0.0000 0.0000 28.4334 0.0000 4.8386
# 5 -7.2047 1.6212 0.1120 0.0000 38.1466 0.0000
# 6 0.0000 0.0000 0.0000 4.8386 0.0000 16.2769
#
#
#
# Elastic Compliance Matrix: (Units=1/GPa)
#
#
# Indices 1 2 3 4 5 6 
#
# 1 0.017961 -0.011900 -0.000662 0.000000 0.003900 0.000000
# 2 -0.011900 0.038911 -0.010393 0.000000 -0.003871 0.000000
# 3 -0.000662 -0.010393 0.018535 0.000000 0.000262 0.000000
# 4 0.000000 0.000000 0.000000 0.037044 0.000000 -0.011012
# 5 0.003900 -0.003871 0.000262 0.000000 0.027115 0.000000
# 6 0.000000 0.000000 0.000000 -0.011012 0.000000 0.064710
#
#
# Mechanical properties :
#
#
# Convention : Reuss Voigt Hill
#
# Bulk Modulus (GPa) = 33.90262 35.90321 34.90291
# Shear Modulus (GPa) = 19.22938 24.25389 21.74164
#
# Velocity S-wave (km/s) = 3.15201 3.53994 3.35159
# Velocity P-wave (km/s) = 5.54646 5.93786 5.74550
#
# Compressibility (1/GPa) = 0.02949624
#
# Stress axis : x y z
#
# Youngs Moduli (GPa) = 55.67620 25.69996 53.95114
#
# Poissons Ratio (x) = 0.30583 0.03571
# Poissons Ratio (y) = 0.66255 0.56072
# Poissons Ratio (z) = 0.03686 0.26710
#
# Static dielectric constant tensor:
#      x y z
#    x 3.799300 0.000000 0.006360 
#    y 0.000000 3.309440 0.000000 
#    z 0.006360 0.000000 3.571540 
# 
# 
# High freq. dielectric constant tensor:
#      x y z
#    x 1.773190 0.000000 0.000670 
#    y 0.000000 1.731910 0.000000 
#    z 0.000670 0.000000 1.768310 
# 
# From -- ./inp_files/45024.got.cif
#   From: 2010.06.25/outbox.cif.g09.slc.cpg/sg11_23_cif.got.tgz:45024.got - 2010.06.27 23:14:04.
