data_PCOD8073413
_publ_section_title
;
Structure prediction by ZEFSAII (Michael W. Deem and Ramdas Pophale) SiO2 
 PCOD8073413
Probable space group: P 21/M
;
_chemical_formula_sum "Si O2"
_cell_formula_units_Z 32
_cell_length_a 14.627606
_cell_length_b 9.135654
_cell_length_c 20.977302
_cell_angle_alpha 90.000000
_cell_angle_beta 142.702007
_cell_angle_gamma 90.000000
_cell_volume 1698.661596
_symmetry_space_group_name_H-M "P 21/M"
_symmetry_group_IT_number 11
_symmetry_cell_setting 'monoclinic'
loop_
_space_group_symop_operation_xyz
x,y,z
-x,1/2+y,-z
-x,-y,-z
x,1/2-y,z
loop_
_atom_site_type_symbol
_atom_site_label
_atom_site_fract_x
_atom_site_fract_y
_atom_site_fract_z
Si Si1 0.574810 0.916489 0.484346
Si Si2 0.123179 0.075298 0.413722
Si Si3 0.737389 0.923675 0.380425
Si Si4 0.618903 0.422286 0.200029
Si Si5 0.810340 0.421491 0.185693
Si Si6 0.696556 0.421465 0.987271
Si Si7 0.564394 0.083290 0.723583
Si Si8 0.142852 0.920417 0.051547
O O1 0.600614 0.750000 0.519703
O O2 0.734983 0.983792 0.549379
O O3 0.450645 0.929382 0.360244
O O4 0.500000 0.000000 0.500000
O O5 0.130260 0.250000 0.416064
O O6 0.137365 0.030153 0.496885
O O7 0.969216 0.010226 0.298493
O O8 0.742154 0.750000 0.370439
O O9 0.580343 0.983359 0.322151
O O10 0.746446 0.010821 0.318691
O O11 0.605475 0.250000 0.204835
O O12 0.677805 0.457069 0.161747
O O13 0.456219 0.496741 0.117897
O O14 0.837352 0.250000 0.193930
O O15 0.761368 0.485653 0.089861
O O16 0.657008 0.250000 0.971200
O O17 0.826105 0.448749 0.006271
O O18 0.572613 0.250000 0.751345
O O19 0.717900 0.008224 0.832024
O O20 0.120491 0.750000 0.053072
O O21 0.000000 0.000000 0.000000
#
# Coordination Sequence:
#
# PCOD8073413 Si02
#       8
#     4   4   4   4   4   4   4   4
#     4   9  17  30  52  76  98 130 170 210 253 306
#     4   8  16  32  53  75 103 139 176 211 255 316
#     4   9  16  32  57  76  96 136 181 209 246 318
#     4  11  21  32  52  81 110 135 171 226 274 301
#     4   9  19  34  52  79 110 139 173 219 265 308
#     4  10  20  37  58  74 101 145 186 213 248 320
#     4   8  15  31  50  69  97 132 167 204 247 300
#     4  10  20  34  53  77 103 132 171 215 259 307
#
# _framework density 18.838362
#
# number of rings (size 3 to 8) (size 9 to 14) (size 15 to 20)
#    0.000    2.750    1.250    2.250    0.000    2.000 
#    0.000    5.000    0.000    3.750    0.000    0.000 
#    0.000    0.000    0.000    0.000    0.000    0.000 
#
# Total GULP energy -396541.642434 kJ/mol
# GULP energy per Si atom -12391.926326 kJ/mol
# Density = 1.879548 g / cm^3
# Si number density = 18.838362 Si / 1000 Ang^3
#
#
#
# Elastic Constant Matrix: (Units=GPa)
#
#
# Indices 1 2 3 4 5 6 
#
# 1 83.0050 31.1737 33.4879 0.0000 -7.8580 0.0000
# 2 31.1737 43.6160 25.6549 0.0000 -5.8984 0.0000
# 3 33.4879 25.6549 108.8766 0.0000 -5.0217 0.0000
# 4 0.0000 0.0000 0.0000 18.2942 0.0000 -3.2898
# 5 -7.8580 -5.8984 -5.0217 0.0000 29.7396 0.0000
# 6 0.0000 0.0000 0.0000 -3.2898 0.0000 26.1201
#
#
#
# Elastic Compliance Matrix: (Units=1/GPa)
#
#
# Indices 1 2 3 4 5 6 
#
# 1 0.017278 -0.010453 -0.002758 0.000000 0.002026 0.000000
# 2 -0.010453 0.033485 -0.004531 0.000000 0.003114 0.000000
# 3 -0.002758 -0.004531 0.011112 0.000000 0.000249 0.000000
# 4 0.000000 0.000000 0.000000 0.055929 0.000000 0.007044
# 5 0.002026 0.003114 0.000249 0.000000 0.034820 0.000000
# 6 0.000000 0.000000 0.000000 0.007044 0.000000 0.039172
#
#
# Mechanical properties :
#
#
# Convention : Reuss Voigt Hill
#
# Bulk Modulus (GPa) = 37.89210 46.23676 42.06443
# Shear Modulus (GPa) = 21.17959 24.50950 22.84455
#
# Velocity S-wave (km/s) = 3.35667 3.61091 3.48611
# Velocity P-wave (km/s) = 5.93135 6.47936 6.21140
#
# Compressibility (1/GPa) = 0.02639072
#
# Stress axis : x y z
#
# Youngs Moduli (GPa) = 57.87857 29.86433 89.99144
#
# Poissons Ratio (x) = 0.31216 0.24817
# Poissons Ratio (y) = 0.60499 0.40780
# Poissons Ratio (z) = 0.15961 0.13533
#
# Static dielectric constant tensor:
#      x y z
#    x 3.430750 0.000000 0.028530 
#    y 0.000000 3.028940 0.000000 
#    z 0.028530 0.000000 4.360380 
# 
# 
# High freq. dielectric constant tensor:
#      x y z
#    x 1.731360 0.000000 -0.008740 
#    y 0.000000 1.683200 0.000000 
#    z -0.008740 0.000000 1.744470 
# 
# From -- ./inp_files/54359.got.cif
#   From: 2010.06.25/outbox.cif.g09.slc.cpg/sg11_28_cif.got.tgz:54359.got - 2010.06.27 23:14:04.
