data_PCOD8073184
_publ_section_title
;
Structure prediction by ZEFSAII (Michael W. Deem and Ramdas Pophale) SiO2 
 PCOD8073184
Probable space group: P 21/M
;
_chemical_formula_sum "Si O2"
_cell_formula_units_Z 28
_cell_length_a 23.334662
_cell_length_b 9.380175
_cell_length_c 24.470476
_cell_angle_alpha 90.000000
_cell_angle_beta 17.078054
_cell_angle_gamma 90.000000
_cell_volume 1572.970857
_symmetry_space_group_name_H-M "P 21/M"
_symmetry_group_IT_number 11
_symmetry_cell_setting 'monoclinic'
loop_
_space_group_symop_operation_xyz
x,y,z
-x,1/2+y,-z
-x,-y,-z
x,1/2-y,z
loop_
_atom_site_type_symbol
_atom_site_label
_atom_site_fract_x
_atom_site_fract_y
_atom_site_fract_z
Si Si1 0.126329 0.583852 0.719218
Si Si2 0.739761 0.414986 0.694442
Si Si3 0.895464 0.088617 0.667680
Si Si4 0.380927 0.588824 0.980845
Si Si5 0.766635 0.082784 0.005365
Si Si6 0.442396 0.416330 0.712313
Si Si7 0.941178 0.912780 0.001228
O O1 0.084912 0.750000 0.744523
O O2 0.346789 0.540550 0.503318
O O3 0.978439 0.489252 0.818587
O O4 0.089354 0.551412 0.816755
O O5 0.736932 0.250000 0.682962
O O6 0.747374 0.444596 0.752633
O O7 0.550170 0.481360 0.840952
O O8 0.926480 0.480912 0.494909
O O9 0.974363 0.250000 0.589667
O O10 0.792486 0.064543 0.818795
O O11 0.461207 0.750000 0.911434
O O12 0.299608 0.554458 0.995598
O O13 0.782186 0.250000 0.005002
O O14 0.604435 0.010593 0.191929
O O15 0.433420 0.250000 0.737075
O O16 0.280394 0.449995 0.814047
O O17 0.958831 0.750000 0.002381
O O18 0.000000 0.000000 0.000000
#
# Coordination Sequence:
#
# PCOD8073184 Si02
#       7
#     4   4   4   4   4   4   4
#     4   9  19  37  57  74 100 140 176 208 252 302
#     4  10  20  33  53  79 102 129 169 213 254 303
#     4   9  19  36  54  73 102 137 168 204 256 312
#     4  10  21  36  53  73 102 138 169 205 258 311
#     4  10  21  35  52  77 104 131 170 217 259 301
#     4   9  19  37  57  75 102 141 176 208 253 303
#     4   9  18  32  51  78 109 137 168 207 250 298
#
# _framework density 17.800712000000001
#
# number of rings (size 3 to 8) (size 9 to 14) (size 15 to 20)
#    0.000    2.571    0.000    2.143    0.000    6.857 
#    0.000    4.286    0.000    0.000    0.000    0.000 
#    0.000    0.000    0.000    0.000    0.000    0.000 
#
# Total GULP energy -347227.943917 kJ/mol
# GULP energy per Si atom -12400.997997 kJ/mol
# Density = 1.776020 g / cm^3
# Si number density = 17.800712 Si / 1000 Ang^3
#
#
#
# Elastic Constant Matrix: (Units=GPa)
#
#
# Indices 1 2 3 4 5 6 
#
# 1 139.1022 85.1837 86.6096 0.0000 -0.6008 0.0000
# 2 85.1837 111.5661 79.2788 0.0000 -5.4381 0.0000
# 3 86.6096 79.2788 151.6168 0.0000 -0.1216 0.0000
# 4 0.0000 0.0000 0.0000 34.6782 0.0000 -1.3812
# 5 -0.6008 -5.4381 -0.1216 0.0000 18.3442 0.0000
# 6 0.0000 0.0000 0.0000 -1.3812 0.0000 34.9995
#
#
#
# Elastic Compliance Matrix: (Units=1/GPa)
#
#
# Indices 1 2 3 4 5 6 
#
# 1 0.015022 -0.008710 -0.004028 0.000000 -0.002117 0.000000
# 2 -0.008710 0.019641 -0.005290 0.000000 0.005502 0.000000
# 3 -0.004028 -0.005290 0.011662 0.000000 -0.001623 0.000000
# 4 0.000000 0.000000 0.000000 0.028882 0.000000 0.001140
# 5 -0.002117 0.005502 -0.001623 0.000000 0.056064 0.000000
# 6 0.000000 0.000000 0.000000 0.001140 0.000000 0.028617
#
#
# Mechanical properties :
#
#
# Convention : Reuss Voigt Hill
#
# Bulk Modulus (GPa) = 97.39689 100.49213 98.94451
# Shear Modulus (GPa) = 25.07927 27.68525 26.38226
#
# Velocity S-wave (km/s) = 3.75759 3.94799 3.85397
# Velocity P-wave (km/s) = 8.58254 8.79538 8.68961
#
# Compressibility (1/GPa) = 0.01026727
#
# Stress axis : x y z
#
# Youngs Moduli (GPa) = 66.56852 50.91327 85.75212
#
# Poissons Ratio (x) = 0.44348 0.34544
# Poissons Ratio (y) = 0.57984 0.45363
# Poissons Ratio (z) = 0.26816 0.26933
#
# Static dielectric constant tensor:
#      x y z
#    x 3.224710 0.000000 0.069300 
#    y 0.000000 3.373900 0.000000 
#    z 0.069300 0.000000 3.464750 
# 
# 
# High freq. dielectric constant tensor:
#      x y z
#    x 1.687090 0.000000 0.002250 
#    y 0.000000 1.694370 0.000000 
#    z 0.002250 0.000000 1.690110 
# 
# From -- ./inp_files/69780.got.cif
#   From: 2010.06.25/outbox.cif.g09.slc.cpg/sg11_35_cif.got.tgz:69780.got - 2010.06.27 23:14:04.
