data_PCOD8073549
_publ_section_title
;
Structure prediction by ZEFSAII (Michael W. Deem and Ramdas Pophale) SiO2 
 PCOD8073549
Probable space group: P 21/M
;
_chemical_formula_sum "Si O2"
_cell_formula_units_Z 32
_cell_length_a 13.070257
_cell_length_b 9.339307
_cell_length_c 31.103278
_cell_angle_alpha 90.000000
_cell_angle_beta 155.619317
_cell_angle_gamma 90.000000
_cell_volume 1567.262948
_symmetry_space_group_name_H-M "P 21/M"
_symmetry_group_IT_number 11
_symmetry_cell_setting 'monoclinic'
loop_
_space_group_symop_operation_xyz
x,y,z
-x,1/2+y,-z
-x,-y,-z
x,1/2-y,z
loop_
_atom_site_type_symbol
_atom_site_label
_atom_site_fract_x
_atom_site_fract_y
_atom_site_fract_z
Si Si1 0.515524 0.915899 0.639782
Si Si2 0.270435 0.592446 0.425776
Si Si3 0.995873 0.084283 0.591784
Si Si4 0.838206 0.583720 0.845333
Si Si5 0.485213 0.917162 0.787658
Si Si6 0.133645 0.589847 0.280223
Si Si7 0.661064 0.415399 0.094440
Si Si8 0.335243 0.415937 0.050755
O O1 0.572936 0.750000 0.651293
O O2 0.215899 0.938580 0.526083
O O3 0.647158 0.963210 0.734513
O O4 0.609921 0.017907 0.637258
O O5 0.500000 0.500000 0.500000
O O6 0.364748 0.750000 0.476307
O O7 0.111717 0.526554 0.403853
O O8 0.102945 0.603593 0.319489
O O9 0.072902 0.250000 0.624618
O O10 0.241728 0.994965 0.676010
O O11 0.904156 0.750000 0.866242
O O12 0.709240 0.549507 0.841196
O O13 0.094076 0.497651 0.940853
O O14 0.421561 0.750000 0.765140
O O15 0.571240 0.974793 0.867310
O O16 0.104705 0.750000 0.248972
O O17 0.928641 0.478689 0.187046
O O18 0.665296 0.250000 0.083562
O O19 0.562280 0.439265 0.104910
O O20 0.500000 0.500000 0.000000
O O21 0.261152 0.250000 0.026164
#
# Coordination Sequence:
#
# PCOD8073549 Si02
#       8
#     4   4   4   4   4   4   4   4
#     4  10  21  38  58  82 117 156 192 233 286 341
#     4  10  20  34  54  81 112 147 187 228 271 325
#     4  10  21  37  57  84 117 153 192 231 279 340
#     4  10  22  39  61  86 111 146 190 238 290 344
#     4  10  22  40  60  85 115 146 188 240 291 339
#     4  11  22  35  55  85 116 150 194 234 276 336
#     4  11  23  38  57  83 116 153 189 230 283 339
#     4  10  22  40  61  85 113 147 188 237 289 342
#
# _framework density 20.417760999999999
#
# number of rings (size 3 to 8) (size 9 to 14) (size 15 to 20)
#    0.000    1.750    1.250    2.625    0.000    6.500 
#    0.000    0.000    0.000    0.000    0.000    0.000 
#    0.000    0.000    0.000    0.000    0.000    0.000 
#
# Total GULP energy -396736.959746 kJ/mol
# GULP energy per Si atom -12398.029992 kJ/mol
# Density = 2.037129 g / cm^3
# Si number density = 20.417761 Si / 1000 Ang^3
#
#
#
# Elastic Constant Matrix: (Units=GPa)
#
#
# Indices 1 2 3 4 5 6 
#
# 1 43.5183 19.2249 5.1784 0.0000 -7.7366 0.0000
# 2 19.2249 85.8516 41.9471 0.0000 9.2655 0.0000
# 3 5.1784 41.9471 104.2346 0.0000 -1.9831 0.0000
# 4 0.0000 0.0000 0.0000 39.3776 0.0000 4.6556
# 5 -7.7366 9.2655 -1.9831 0.0000 35.4928 0.0000
# 6 0.0000 0.0000 0.0000 4.6556 0.0000 26.5768
#
#
#
# Elastic Compliance Matrix: (Units=1/GPa)
#
#
# Indices 1 2 3 4 5 6 
#
# 1 0.027796 -0.008118 0.002044 0.000000 0.008292 0.000000
# 2 -0.008118 0.017496 -0.006765 0.000000 -0.006715 0.000000
# 3 0.002044 -0.006765 0.012270 0.000000 0.002897 0.000000
# 4 0.000000 0.000000 0.000000 0.025932 0.000000 -0.004543
# 5 0.008292 -0.006715 0.002897 0.000000 0.031897 0.000000
# 6 0.000000 0.000000 0.000000 -0.004543 0.000000 0.038423
#
#
# Mechanical properties :
#
#
# Convention : Reuss Voigt Hill
#
# Bulk Modulus (GPa) = 31.36474 40.70058 36.03266
# Shear Modulus (GPa) = 26.29903 31.43970 28.86936
#
# Velocity S-wave (km/s) = 3.59283 3.92831 3.76431
# Velocity P-wave (km/s) = 5.71017 6.36810 6.04809
#
# Compressibility (1/GPa) = 0.03188294
#
# Stress axis : x y z
#
# Youngs Moduli (GPa) = 35.97628 57.15530 81.49996
#
# Poissons Ratio (x) = 0.46398 -0.16657
# Poissons Ratio (y) = 0.29205 0.55138
# Poissons Ratio (z) = -0.07353 0.38668
#
# Static dielectric constant tensor:
#      x y z
#    x 4.180530 0.000000 0.009550 
#    y 0.000000 3.649320 0.000000 
#    z 0.009550 0.000000 3.728380 
# 
# 
# High freq. dielectric constant tensor:
#      x y z
#    x 1.795520 0.000000 -0.007140 
#    y 0.000000 1.793330 0.000000 
#    z -0.007140 0.000000 1.803160 
# 
# From -- ./inp_files/73144.got.cif
#   From: 2010.06.25/outbox.cif.g09.slc.cpg/sg11_37_cif.got.tgz:73144.got - 2010.06.27 23:14:04.
