data_PCOD8073042
_publ_section_title
;
Structure prediction by ZEFSAII (Michael W. Deem and Ramdas Pophale) SiO2 
 PCOD8073042
Probable space group: P 21/M
;
_chemical_formula_sum "Si O2"
_cell_formula_units_Z 28
_cell_length_a 20.146061
_cell_length_b 9.074129
_cell_length_c 17.892913
_cell_angle_alpha 90.000000
_cell_angle_beta 28.092470
_cell_angle_gamma 90.000000
_cell_volume 1540.285030
_symmetry_space_group_name_H-M "P 21/M"
_symmetry_group_IT_number 11
_symmetry_cell_setting 'monoclinic'
loop_
_space_group_symop_operation_xyz
x,y,z
-x,1/2+y,-z
-x,-y,-z
x,1/2-y,z
loop_
_atom_site_type_symbol
_atom_site_label
_atom_site_fract_x
_atom_site_fract_y
_atom_site_fract_z
Si Si1 0.364574 0.421044 0.548756
Si Si2 0.650338 0.922003 0.264612
Si Si3 0.152193 0.424325 0.632965
Si Si4 0.343421 0.923902 0.002819
Si Si5 0.648309 0.922164 0.861771
Si Si6 0.836327 0.075553 0.961956
Si Si7 0.337116 0.421540 0.316181
O O1 0.402699 0.250000 0.499656
O O2 0.321746 0.455926 0.676113
O O3 0.500550 0.512580 0.388211
O O4 0.234391 0.469654 0.626460
O O5 0.650376 0.750000 0.246977
O O6 0.775376 0.999548 0.095998
O O7 0.143464 0.250000 0.633054
O O8 0.232894 0.494049 0.480856
O O9 0.994054 0.486725 0.793900
O O10 0.338437 0.750000 0.021571
O O11 0.503462 0.983744 0.833683
O O12 0.254537 0.971719 0.019415
O O13 0.273405 0.002080 0.145542
O O14 0.627670 0.750000 0.898088
O O15 0.726602 0.947657 0.704073
O O16 0.500000 0.000000 0.000000
O O17 0.833252 0.250000 0.977356
O O18 0.348739 0.250000 0.322719
#
# Coordination Sequence:
#
# PCOD8073042 Si02
#       7
#     4   4   4   4   4   4   4
#     4   9  18  34  55  76  98 128 167 206 245 295
#     4  10  20  33  51  76 103 129 161 205 253 297
#     4   9  17  31  51  73  97 129 169 206 241 290
#     4   9  17  30  48  70  95 126 165 205 244 290
#     4   9  16  27  46  72  98 124 158 203 251 293
#     4  10  20  33  51  73  98 132 170 204 243 296
#     4   8  14  26  46  69  92 120 157 200 240 280
#
# _framework density 18.178455
#
# number of rings (size 3 to 8) (size 9 to 14) (size 15 to 20)
#    0.000    2.857    0.000    2.571    0.000    4.000 
#    0.000    1.429    0.000    5.143    0.000    0.000 
#    0.000    0.000    0.000    0.000    0.000    0.000 
#
# Total GULP energy -347078.865297 kJ/mol
# GULP energy per Si atom -12395.673761 kJ/mol
# Density = 1.813708 g / cm^3
# Si number density = 18.178455 Si / 1000 Ang^3
#
#
#
# Elastic Constant Matrix: (Units=GPa)
#
#
# Indices 1 2 3 4 5 6 
#
# 1 100.3456 32.4504 85.7927 0.0000 14.0457 0.0000
# 2 32.4504 41.4575 34.1923 0.0000 7.4216 0.0000
# 3 85.7927 34.1923 137.4087 0.0000 3.8306 0.0000
# 4 0.0000 0.0000 0.0000 22.0211 0.0000 7.3948
# 5 14.0457 7.4216 3.8306 0.0000 21.9127 0.0000
# 6 0.0000 0.0000 0.0000 7.3948 0.0000 23.2337
#
#
#
# Elastic Compliance Matrix: (Units=1/GPa)
#
#
# Indices 1 2 3 4 5 6 
#
# 1 0.025861 -0.006371 -0.014229 0.000000 -0.011931 0.000000
# 2 -0.006371 0.033796 -0.004247 0.000000 -0.006620 0.000000
# 3 -0.014229 -0.004247 0.017007 0.000000 0.007586 0.000000
# 4 0.000000 0.000000 0.000000 0.050845 0.000000 -0.016183
# 5 -0.011931 -0.006620 0.007586 0.000000 0.054199 0.000000
# 6 0.000000 0.000000 0.000000 -0.016183 0.000000 0.048192
#
#
# Mechanical properties :
#
#
# Convention : Reuss Voigt Hill
#
# Bulk Modulus (GPa) = 37.07865 64.89808 50.98836
# Shear Modulus (GPa) = 17.32594 21.88526 19.60560
#
# Velocity S-wave (km/s) = 3.09059 3.47351 3.28763
# Velocity P-wave (km/s) = 5.75994 7.20174 6.52081
#
# Compressibility (1/GPa) = 0.02696970
#
# Stress axis : x y z
#
# Youngs Moduli (GPa) = 38.66799 29.58913 58.80018
#
# Poissons Ratio (x) = 0.18853 0.83665
# Poissons Ratio (y) = 0.24637 0.24973
# Poissons Ratio (z) = 0.55019 0.12567
#
# Static dielectric constant tensor:
#      x y z
#    x 4.120010 0.000000 0.102790 
#    y 0.000000 3.150370 0.000000 
#    z 0.102790 0.000000 3.540000 
# 
# 
# High freq. dielectric constant tensor:
#      x y z
#    x 1.710470 0.000000 0.020260 
#    y 0.000000 1.674090 0.000000 
#    z 0.020260 0.000000 1.693290 
# 
# From -- ./inp_files/61237.got.cif
#   From: 2010.06.25/outbox.cif.g09.slc.cpg/sg11_31_cif.got.tgz:61237.got - 2010.06.27 23:14:04.
