data_PCOD8073710
_publ_section_title
;
Structure prediction by ZEFSAII (Michael W. Deem and Ramdas Pophale) SiO2 
 PCOD8073710
Probable space group: P 21/M
;
_chemical_formula_sum "Si O2"
_cell_formula_units_Z 32
_cell_length_a 10.775076
_cell_length_b 9.071707
_cell_length_c 30.119267
_cell_angle_alpha 90.000000
_cell_angle_beta 147.927239
_cell_angle_gamma 90.000000
_cell_volume 1563.309015
_symmetry_space_group_name_H-M "P 21/M"
_symmetry_group_IT_number 11
_symmetry_cell_setting 'monoclinic'
loop_
_space_group_symop_operation_xyz
x,y,z
-x,1/2+y,-z
-x,-y,-z
x,1/2-y,z
loop_
_atom_site_type_symbol
_atom_site_label
_atom_site_fract_x
_atom_site_fract_y
_atom_site_fract_z
Si Si1 0.722537 0.920245 0.971979
Si Si2 0.725336 0.921000 0.131344
Si Si3 0.931636 0.588206 0.282438
Si Si4 0.397875 0.585362 0.147668
Si Si5 0.978798 0.424699 0.445687
Si Si6 0.954828 0.081745 0.850376
Si Si7 0.474904 0.076650 0.260337
Si Si8 0.265048 0.076424 0.446355
O O1 0.680551 0.750000 0.947457
O O2 0.497355 0.975812 0.930456
O O3 0.760790 0.012917 0.938655
O O4 0.955976 0.942124 0.072051
O O5 0.645998 0.750000 0.109857
O O6 0.932613 0.950929 0.230431
O O7 0.832579 0.964418 0.116681
O O8 0.045915 0.750000 0.326190
O O9 0.660968 0.593598 0.211304
O O10 0.060716 0.464681 0.350184
O O11 0.302292 0.750000 0.129314
O O12 0.392617 0.484513 0.188694
O O13 0.981224 0.250000 0.453485
O O14 0.182351 0.470173 0.471574
O O15 0.000000 0.500000 0.500000
O O16 0.731529 0.480687 0.351277
O O17 0.883277 0.250000 0.819950
O O18 0.727180 0.984605 0.768432
O O19 0.473680 0.250000 0.259586
O O20 0.303918 0.250000 0.456644
O O21 0.500000 0.000000 0.500000
#
# Coordination Sequence:
#
# PCOD8073710 Si02
#       8
#     4   4   4   4   4   4   4   4
#     4  10  20  34  56  85 117 154 199 249 300 349
#     4   9  19  36  57  82 116 155 200 245 292 355
#     4   9  18  34  58  86 112 146 191 237 289 347
#     4  10  20  36  60  85 112 151 197 240 293 353
#     4  10  24  44  66  93 125 160 200 249 305 367
#     4  10  22  38  55  82 120 161 201 244 296 355
#     4  11  23  40  61  86 116 151 197 247 295 353
#     4  11  23  40  62  91 125 156 196 250 302 361
#
# _framework density 20.469401000000001
#
# number of rings (size 3 to 8) (size 9 to 14) (size 15 to 20)
#    0.000    2.000    1.250    2.625    0.000    7.000 
#    0.000    3.750    0.000    0.000    0.000    0.000 
#    0.000    0.000    0.000    0.000    0.000    0.000 
#
# Total GULP energy -396668.280600 kJ/mol
# GULP energy per Si atom -12395.883769 kJ/mol
# Density = 2.042281 g / cm^3
# Si number density = 20.469401 Si / 1000 Ang^3
#
#
#
# Elastic Constant Matrix: (Units=GPa)
#
#
# Indices 1 2 3 4 5 6 
#
# 1 75.9173 30.1128 53.3209 0.0000 3.7992 0.0000
# 2 30.1128 61.7192 39.3286 0.0000 8.0136 0.0000
# 3 53.3209 39.3286 82.5383 0.0000 3.1662 0.0000
# 4 0.0000 0.0000 0.0000 33.4432 0.0000 0.3144
# 5 3.7992 8.0136 3.1662 0.0000 26.7125 0.0000
# 6 0.0000 0.0000 0.0000 0.3144 0.0000 35.4522
#
#
#
# Elastic Compliance Matrix: (Units=1/GPa)
#
#
# Indices 1 2 3 4 5 6 
#
# 1 0.024442 -0.002526 -0.014548 0.000000 -0.000994 0.000000
# 2 -0.002526 0.024422 -0.009783 0.000000 -0.005808 0.000000
# 3 -0.014548 -0.009783 0.026102 0.000000 0.001910 0.000000
# 4 0.000000 0.000000 0.000000 0.029904 0.000000 -0.000265
# 5 -0.000994 -0.005808 0.001910 0.000000 0.039093 0.000000
# 6 0.000000 0.000000 0.000000 -0.000265 0.000000 0.028209
#
#
# Mechanical properties :
#
#
# Convention : Reuss Voigt Hill
#
# Bulk Modulus (GPa) = 47.05161 51.74439 49.39800
# Shear Modulus (GPa) = 21.46202 25.61574 23.53888
#
# Velocity S-wave (km/s) = 3.24156 3.54137 3.39478
# Velocity P-wave (km/s) = 6.08658 6.48503 6.28896
#
# Compressibility (1/GPa) = 0.02125326
#
# Stress axis : x y z
#
# Youngs Moduli (GPa) = 40.91361 40.94590 38.31135
#
# Poissons Ratio (x) = 0.10342 0.55736
# Poissons Ratio (y) = 0.10334 0.37479
# Poissons Ratio (z) = 0.59522 0.40056
#
# Static dielectric constant tensor:
#      x y z
#    x 4.199950 0.000000 -0.032730 
#    y 0.000000 3.734390 0.000000 
#    z -0.032730 0.000000 3.811980 
# 
# 
# High freq. dielectric constant tensor:
#      x y z
#    x 1.812150 0.000000 0.000720 
#    y 0.000000 1.796920 0.000000 
#    z 0.000720 0.000000 1.794290 
# 
# From -- ./inp_files/73202.got.cif
#   From: 2010.06.25/outbox.cif.g09.slc.cpg/sg11_37_cif.got.tgz:73202.got - 2010.06.27 23:14:04.
