data_PCOD8073588
_publ_section_title
;
Structure prediction by ZEFSAII (Michael W. Deem and Ramdas Pophale) SiO2 
 PCOD8073588
Probable space group: P 21/M
;
_chemical_formula_sum "Si O2"
_cell_formula_units_Z 28
_cell_length_a 14.167103
_cell_length_b 8.614734
_cell_length_c 19.090428
_cell_angle_alpha 90.000000
_cell_angle_beta 41.454554
_cell_angle_gamma 90.000000
_cell_volume 1542.458511
_symmetry_space_group_name_H-M "P 21/M"
_symmetry_group_IT_number 11
_symmetry_cell_setting 'monoclinic'
loop_
_space_group_symop_operation_xyz
x,y,z
-x,1/2+y,-z
-x,-y,-z
x,1/2-y,z
loop_
_atom_site_type_symbol
_atom_site_label
_atom_site_fract_x
_atom_site_fract_y
_atom_site_fract_z
Si Si1 0.513348 0.071539 0.696235
Si Si2 0.929627 0.568810 0.293660
Si Si3 0.005956 0.429900 0.391675
Si Si4 0.771911 0.928475 0.618121
Si Si5 0.010531 0.430012 0.106065
Si Si6 0.620674 0.068274 0.481918
Si Si7 0.212405 0.570126 0.887079
O O1 0.467408 0.250000 0.727659
O O2 0.582413 0.032525 0.583177
O O3 0.629878 0.031623 0.690797
O O4 0.376844 0.964949 0.783064
O O5 0.936078 0.750000 0.305340
O O6 0.018478 0.479562 0.304209
O O7 0.005992 0.531969 0.178263
O O8 0.767100 0.514124 0.381058
O O9 0.961902 0.250000 0.422483
O O10 0.882816 0.530968 0.495428
O O11 0.156834 0.461280 0.345903
O O12 0.728289 0.750000 0.633860
O O13 0.009913 0.250000 0.126915
O O14 0.874196 0.475084 0.134632
O O15 0.155094 0.470192 0.984150
O O16 0.637535 0.250000 0.458255
O O17 0.500000 0.000000 0.500000
O O18 0.190518 0.750000 0.917078
#
# Coordination Sequence:
#
# PCOD8073588 Si02
#       7
#     4   4   4   4   4   4   4
#     4  11  22  35  54  79 111 147 183 224 273 327
#     4  12  23  35  55  81 111 146 184 225 273 328
#     4  10  20  35  54  79 110 143 182 226 273 328
#     4  10  20  34  55  80 108 143 183 226 273 327
#     4  10  21  38  59  81 109 144 185 231 275 321
#     4  11  23  36  51  76 111 148 183 222 271 327
#     4  10  21  37  58  82 109 143 187 230 271 323
#
# _framework density 18.152839
#
# number of rings (size 3 to 8) (size 9 to 14) (size 15 to 20)
#    0.000    1.429    1.429    4.714    0.000    7.429 
#    0.000    0.000    0.000    0.857    0.000    0.000 
#    0.000    0.000    0.000    0.000    0.000    0.000 
#
# Total GULP energy -347364.977068 kJ/mol
# GULP energy per Si atom -12405.892038 kJ/mol
# Density = 1.811152 g / cm^3
# Si number density = 18.152839 Si / 1000 Ang^3
#
#
#
# Elastic Constant Matrix: (Units=GPa)
#
#
# Indices 1 2 3 4 5 6 
#
# 1 90.1826 32.9797 17.3561 0.0000 17.5847 0.0000
# 2 32.9797 55.4653 18.3978 0.0000 3.6026 0.0000
# 3 17.3561 18.3978 50.7151 0.0000 14.9219 0.0000
# 4 0.0000 0.0000 0.0000 31.7770 0.0000 -0.6663
# 5 17.5847 3.6026 14.9219 0.0000 21.0296 0.0000
# 6 0.0000 0.0000 0.0000 -0.6663 0.0000 30.8860
#
#
#
# Elastic Compliance Matrix: (Units=1/GPa)
#
#
# Indices 1 2 3 4 5 6 
#
# 1 0.017035 -0.009830 0.001810 0.000000 -0.013844 0.000000
# 2 -0.009830 0.026251 -0.009168 0.000000 0.010228 0.000000
# 3 0.001810 -0.009168 0.028320 0.000000 -0.020038 0.000000
# 4 0.000000 0.000000 0.000000 0.031484 0.000000 0.000679
# 5 -0.013844 0.010228 -0.020038 0.000000 0.071594 0.000000
# 6 0.000000 0.000000 0.000000 0.000679 0.000000 0.032392
#
#
# Mechanical properties :
#
#
# Convention : Reuss Voigt Hill
#
# Bulk Modulus (GPa) = 26.86096 37.09225 31.97661
# Shear Modulus (GPa) = 19.69572 25.24714 22.47143
#
# Velocity S-wave (km/s) = 3.29750 3.73340 3.52220
# Velocity P-wave (km/s) = 5.41546 6.24996 5.84762
#
# Compressibility (1/GPa) = 0.03722875
#
# Stress axis : x y z
#
# Youngs Moduli (GPa) = 58.70408 38.09395 35.31028
#
# Poissons Ratio (x) = 0.37446 -0.06390
# Poissons Ratio (y) = 0.57705 0.32374
# Poissons Ratio (z) = -0.10623 0.34926
#
# Static dielectric constant tensor:
#      x y z
#    x 3.479380 0.000000 0.078730 
#    y 0.000000 3.445850 0.000000 
#    z 0.078730 0.000000 3.132710 
# 
# 
# High freq. dielectric constant tensor:
#      x y z
#    x 1.705480 0.000000 0.003740 
#    y 0.000000 1.720730 0.000000 
#    z 0.003740 0.000000 1.681650 
# 
# From -- ./inp_files/53301.got.cif
#   From: 2010.06.25/outbox.cif.g09.slc.cpg/sg11_27_cif.got.tgz:53301.got - 2010.06.27 23:14:04.
