data_PCOD8073619
_publ_section_title
;
Structure prediction by ZEFSAII (Michael W. Deem and Ramdas Pophale) SiO2 
 PCOD8073619
Probable space group: P 21/M
;
_chemical_formula_sum "Si O2"
_cell_formula_units_Z 28
_cell_length_a 14.308001
_cell_length_b 9.246337
_cell_length_c 19.631843
_cell_angle_alpha 90.000000
_cell_angle_beta 146.427347
_cell_angle_gamma 90.000000
_cell_volume 1436.250265
_symmetry_space_group_name_H-M "P 21/M"
_symmetry_group_IT_number 11
_symmetry_cell_setting 'monoclinic'
loop_
_space_group_symop_operation_xyz
x,y,z
-x,1/2+y,-z
-x,-y,-z
x,1/2-y,z
loop_
_atom_site_type_symbol
_atom_site_label
_atom_site_fract_x
_atom_site_fract_y
_atom_site_fract_z
Si Si1 0.981271 0.918491 0.702917
Si Si2 0.601974 0.919128 0.503618
Si Si3 0.431923 0.584876 0.792435
Si Si4 0.064694 0.584657 0.604146
Si Si5 0.501678 0.087164 0.705958
Si Si6 0.203303 0.078609 0.940149
Si Si7 0.884503 0.415199 0.981383
O O1 0.031645 0.750000 0.740335
O O2 0.802283 0.950088 0.630485
O O3 0.971071 0.962320 0.616878
O O4 0.127007 0.016661 0.824259
O O5 0.562231 0.750000 0.486586
O O6 0.537623 0.979368 0.391877
O O7 0.500000 0.000000 0.500000
O O8 0.455238 0.750000 0.784648
O O9 0.266126 0.559426 0.737487
O O10 0.405552 0.499070 0.706271
O O11 0.597895 0.536206 0.935517
O O12 0.026004 0.750000 0.564259
O O13 0.000000 0.500000 0.500000
O O14 0.430468 0.250000 0.665481
O O15 0.699822 0.081290 0.837937
O O16 0.173654 0.250000 0.926487
O O17 0.104597 0.999371 0.940964
O O18 0.946837 0.250000 0.029712
O O19 0.000000 0.500000 0.000000
#
# Coordination Sequence:
#
# PCOD8073619 Si02
#       7
#     4   4   4   4   4   4   4
#     4  10  22  39  57  82 116 151 187 235 288 340
#     4  10  22  38  55  78 108 145 186 229 282 336
#     4   9  19  36  58  85 114 146 184 230 281 332
#     4  10  21  38  61  87 117 149 188 234 284 340
#     4   9  19  36  56  79 108 143 184 228 276 336
#     4  10  21  37  56  81 115 151 191 235 280 335
#     4  10  20  34  55  82 111 145 187 234 284 335
#
# _framework density 19.495208999999999
#
# number of rings (size 3 to 8) (size 9 to 14) (size 15 to 20)
#    0.000    2.286    0.000    1.714    2.000    5.143 
#    0.000    0.000    0.000    0.000    0.000    0.000 
#    0.000    0.000    0.000    0.000    0.000    0.000 
#
# Total GULP energy -347218.400738 kJ/mol
# GULP energy per Si atom -12400.657169 kJ/mol
# Density = 1.945084 g / cm^3
# Si number density = 19.495209 Si / 1000 Ang^3
#
#
#
# Elastic Constant Matrix: (Units=GPa)
#
#
# Indices 1 2 3 4 5 6 
#
# 1 114.4235 50.3168 46.6380 0.0000 2.8186 0.0000
# 2 50.3168 85.3299 44.0988 0.0000 -5.0718 0.0000
# 3 46.6380 44.0988 87.3987 0.0000 -17.7643 0.0000
# 4 0.0000 0.0000 0.0000 31.2220 0.0000 -5.1773
# 5 2.8186 -5.0718 -17.7643 0.0000 29.6913 0.0000
# 6 0.0000 0.0000 0.0000 -5.1773 0.0000 33.9285
#
#
#
# Elastic Compliance Matrix: (Units=1/GPa)
#
#
# Indices 1 2 3 4 5 6 
#
# 1 0.013554 -0.005411 -0.005638 0.000000 -0.005584 0.000000
# 2 -0.005411 0.018161 -0.006308 0.000000 -0.000158 0.000000
# 3 -0.005638 -0.006308 0.019949 0.000000 0.011393 0.000000
# 4 0.000000 0.000000 0.000000 0.032860 0.000000 0.005014
# 5 -0.005584 -0.000158 0.011393 0.000000 0.040999 0.000000
# 6 0.000000 0.000000 0.000000 0.005014 0.000000 0.030239
#
#
# Mechanical properties :
#
#
# Convention : Reuss Voigt Hill
#
# Bulk Modulus (GPa) = 58.99609 63.25103 61.12356
# Shear Modulus (GPa) = 25.49390 28.70827 27.10109
#
# Velocity S-wave (km/s) = 3.62014 3.84158 3.73250
# Velocity P-wave (km/s) = 6.91386 7.22439 7.07083
#
# Compressibility (1/GPa) = 0.01695028
#
# Stress axis : x y z
#
# Youngs Moduli (GPa) = 73.77731 55.06453 50.12849
#
# Poissons Ratio (x) = 0.29795 0.28261
# Poissons Ratio (y) = 0.39921 0.31621
# Poissons Ratio (z) = 0.41593 0.34735
#
# Static dielectric constant tensor:
#      x y z
#    x 3.606020 0.000000 0.197740 
#    y 0.000000 3.614190 0.000000 
#    z 0.197740 0.000000 4.016700 
# 
# 
# High freq. dielectric constant tensor:
#      x y z
#    x 1.759000 0.000000 0.004250 
#    y 0.000000 1.754730 0.000000 
#    z 0.004250 0.000000 1.765330 
# 
# From -- ./inp_files/54639.got.cif
#   From: 2010.06.25/outbox.cif.g09.slc.cpg/sg11_28_cif.got.tgz:54639.got - 2010.06.27 23:14:04.
