data_PCOD8073313
_publ_section_title
;
Structure prediction by ZEFSAII (Michael W. Deem and Ramdas Pophale) SiO2 
 PCOD8073313
Probable space group: P 21/M
;
_chemical_formula_sum "Si O2"
_cell_formula_units_Z 32
_cell_length_a 22.784543
_cell_length_b 8.677888
_cell_length_c 28.247626
_cell_angle_alpha 90.000000
_cell_angle_beta 161.903799
_cell_angle_gamma 90.000000
_cell_volume 1734.828354
_symmetry_space_group_name_H-M "P 21/M"
_symmetry_group_IT_number 11
_symmetry_cell_setting 'monoclinic'
loop_
_space_group_symop_operation_xyz
x,y,z
-x,1/2+y,-z
-x,-y,-z
x,1/2-y,z
loop_
_atom_site_type_symbol
_atom_site_label
_atom_site_fract_x
_atom_site_fract_y
_atom_site_fract_z
Si Si1 0.858420 0.430576 0.354574
Si Si2 0.860442 0.931936 0.112108
Si Si3 0.140982 0.932659 0.146619
Si Si4 0.559903 0.067897 0.194629
Si Si5 0.844548 0.931636 0.487763
Si Si6 0.438359 0.430667 0.542503
Si Si7 0.156542 0.068408 0.406121
Si Si8 0.106908 0.067496 0.221587
O O1 0.867930 0.250000 0.367269
O O2 0.648820 0.484805 0.211205
O O3 0.000000 0.500000 0.500000
O O4 0.940922 0.477260 0.365966
O O5 0.866666 0.750000 0.107282
O O6 0.651328 0.995866 0.962912
O O7 0.984051 0.973251 0.252443
O O8 0.932681 0.022191 0.121406
O O9 0.138845 0.750000 0.140486
O O10 0.351950 0.002375 0.299833
O O11 0.074269 0.982569 0.147230
O O12 0.000000 0.000000 0.000000
O O13 0.555471 0.250000 0.194768
O O14 0.683674 0.008331 0.333054
O O15 0.814655 0.750000 0.461877
O O16 0.818959 0.989580 0.521601
O O17 0.455151 0.250000 0.548915
O O18 0.347785 0.471795 0.523968
O O19 0.301786 0.491998 0.395658
O O20 0.111152 0.250000 0.367771
O O21 0.108161 0.250000 0.214818
#
# Coordination Sequence:
#
# PCOD8073313 Si02
#       8
#     4   4   4   4   4   4   4   4
#     4   8  14  27  45  67  95 129 165 204 245 291
#     4  10  20  34  51  74 101 132 166 203 248 301
#     4  11  22  36  53  78 109 137 165 203 247 294
#     4   9  18  31  48  70 100 132 165 205 252 300
#     4   9  17  29  50  75  98 128 170 210 247 291
#     4   8  17  34  55  74  97 130 167 202 242 291
#     4   9  18  34  52  73  99 129 165 206 246 289
#     4  10  20  37  58  77  97 129 169 209 250 295
#
# _framework density 18.445627999999999
#
# number of rings (size 3 to 8) (size 9 to 14) (size 15 to 20)
#    0.000    2.750    0.000    2.250    0.000    2.500 
#    0.000    7.500    0.000    0.000    0.000    0.000 
#    0.000    0.000    0.000    0.000    0.000    0.000 
#
# Total GULP energy -396502.839478 kJ/mol
# GULP energy per Si atom -12390.713734 kJ/mol
# Density = 1.840364 g / cm^3
# Si number density = 18.445628 Si / 1000 Ang^3
#
#
#
# Elastic Constant Matrix: (Units=GPa)
#
#
# Indices 1 2 3 4 5 6 
#
# 1 81.6281 11.2293 40.9299 0.0000 8.6561 0.0000
# 2 11.2293 26.5021 20.5057 0.0000 5.1156 0.0000
# 3 40.9299 20.5057 105.1436 0.0000 20.6486 0.0000
# 4 0.0000 0.0000 0.0000 24.1043 0.0000 -4.5561
# 5 8.6561 5.1156 20.6486 0.0000 25.8551 0.0000
# 6 0.0000 0.0000 0.0000 -4.5561 0.0000 19.4870
#
#
#
# Elastic Compliance Matrix: (Units=1/GPa)
#
#
# Indices 1 2 3 4 5 6 
#
# 1 0.015333 -0.002197 -0.005477 0.000000 -0.000325 0.000000
# 2 -0.002197 0.044861 -0.007466 0.000000 -0.002178 0.000000
# 3 -0.005477 -0.007466 0.014764 0.000000 -0.008480 0.000000
# 4 0.000000 0.000000 0.000000 0.043404 0.000000 0.010148
# 5 -0.000325 -0.002178 -0.008480 0.000000 0.045990 0.000000
# 6 0.000000 0.000000 0.000000 0.010148 0.000000 0.053689
#
#
# Mechanical properties :
#
#
# Convention : Reuss Voigt Hill
#
# Bulk Modulus (GPa) = 22.38165 39.84485 31.11325
# Shear Modulus (GPa) = 18.99597 23.26322 21.12960
#
# Velocity S-wave (km/s) = 3.21259 3.55516 3.38821
# Velocity P-wave (km/s) = 5.09128 6.20486 5.67545
#
# Compressibility (1/GPa) = 0.04467946
#
# Stress axis : x y z
#
# Youngs Moduli (GPa) = 65.21681 22.29110 67.73112
#
# Poissons Ratio (x) = 0.04897 0.37094
# Poissons Ratio (y) = 0.14326 0.50569
# Poissons Ratio (z) = 0.35717 0.16643
#
# Static dielectric constant tensor:
#      x y z
#    x 3.793830 0.000000 0.386200 
#    y 0.000000 3.178110 0.000000 
#    z 0.386200 0.000000 3.586700 
# 
# 
# High freq. dielectric constant tensor:
#      x y z
#    x 1.727030 0.000000 0.020120 
#    y 0.000000 1.702840 0.000000 
#    z 0.020120 0.000000 1.702580 
# 
# From -- ./inp_files/67009.got.cif
#   From: 2010.06.25/outbox.cif.g09.slc.cpg/sg11_34_cif.got.tgz:67009.got - 2010.06.27 23:14:04.
