data_PCOD8073794
_publ_section_title
;
Structure prediction by ZEFSAII (Michael W. Deem and Ramdas Pophale) SiO2 
 PCOD8073794
Probable space group: P 21/M
;
_chemical_formula_sum "Si O2"
_cell_formula_units_Z 32
_cell_length_a 12.231569
_cell_length_b 8.965570
_cell_length_c 29.222603
_cell_angle_alpha 90.000000
_cell_angle_beta 149.141690
_cell_angle_gamma 90.000000
_cell_volume 1643.712536
_symmetry_space_group_name_H-M "P 21/M"
_symmetry_group_IT_number 11
_symmetry_cell_setting 'monoclinic'
loop_
_space_group_symop_operation_xyz
x,y,z
-x,1/2+y,-z
-x,-y,-z
x,1/2-y,z
loop_
_atom_site_type_symbol
_atom_site_label
_atom_site_fract_x
_atom_site_fract_y
_atom_site_fract_z
Si Si1 0.445785 0.579637 0.624396
Si Si2 0.296301 0.924516 0.134258
Si Si3 0.282924 0.574361 0.937581
Si Si4 0.664333 0.076906 0.314107
Si Si5 0.119804 0.079983 0.266314
Si Si6 0.124964 0.076501 0.444086
Si Si7 0.099649 0.924974 0.967742
Si Si8 0.728758 0.073740 0.589692
O O1 0.365787 0.750000 0.589542
O O2 0.396545 0.520544 0.657321
O O3 0.697714 0.567094 0.706590
O O4 0.327301 0.475230 0.545826
O O5 0.289280 0.750000 0.139741
O O6 0.530911 0.985744 0.228863
O O7 0.245887 0.966789 0.063682
O O8 0.128846 0.997274 0.109115
O O9 0.317488 0.750000 0.951384
O O10 0.216949 0.516104 0.964316
O O11 0.100344 0.529714 0.835920
O O12 0.500000 0.500000 0.000000
O O13 0.609745 0.250000 0.288218
O O14 0.912355 0.043247 0.396067
O O15 0.107182 0.250000 0.280033
O O16 0.168111 0.969820 0.325161
O O17 0.151736 0.250000 0.442054
O O18 0.113078 0.984221 0.392837
O O19 0.054794 0.750000 0.948143
O O20 0.702189 0.250000 0.577119
O O21 0.500000 0.000000 0.500000
#
# Coordination Sequence:
#
# PCOD8073794 Si02
#       8
#     4   4   4   4   4   4   4   4
#     4  10  20  37  61  84 113 154 196 239 291 348
#     4  10  20  34  58  89 115 147 194 242 286 345
#     4  10  22  40  61  86 120 158 196 244 298 356
#     4  10  22  38  56  83 121 159 191 232 293 354
#     4  10  21  38  62  89 116 153 199 245 300 355
#     4  11  23  38  58  86 119 154 195 241 291 347
#     4   9  19  38  60  82 114 153 191 237 296 351
#     4  12  24  40  62  86 116 153 198 248 297 351
#
# _framework density 19.468124
#
# number of rings (size 3 to 8) (size 9 to 14) (size 15 to 20)
#    0.000    1.750    1.250    3.000    0.000    6.000 
#    0.000    3.750    0.000    0.000    0.000    0.000 
#    0.000    0.000    0.000    0.000    0.000    0.000 
#
# Total GULP energy -396967.272583 kJ/mol
# GULP energy per Si atom -12405.227268 kJ/mol
# Density = 1.942381 g / cm^3
# Si number density = 19.468124 Si / 1000 Ang^3
#
#
#
# Elastic Constant Matrix: (Units=GPa)
#
#
# Indices 1 2 3 4 5 6 
#
# 1 122.1691 46.7949 54.5526 0.0000 -4.3497 0.0000
# 2 46.7949 80.8296 44.9866 0.0000 -1.7876 0.0000
# 3 54.5526 44.9866 118.5077 0.0000 4.2041 0.0000
# 4 0.0000 0.0000 0.0000 33.8467 0.0000 -0.9264
# 5 -4.3497 -1.7876 4.2041 0.0000 27.9941 0.0000
# 6 0.0000 0.0000 0.0000 -0.9264 0.0000 31.0627
#
#
#
# Elastic Compliance Matrix: (Units=1/GPa)
#
#
# Indices 1 2 3 4 5 6 
#
# 1 0.011694 -0.004675 -0.003682 0.000000 0.002071 0.000000
# 2 -0.004675 0.017656 -0.004589 0.000000 0.001090 0.000000
# 3 -0.003682 -0.004589 0.011970 0.000000 -0.002663 0.000000
# 4 0.000000 0.000000 0.000000 0.029569 0.000000 0.000882
# 5 0.002071 0.001090 -0.002663 0.000000 0.036513 0.000000
# 6 0.000000 0.000000 0.000000 0.000882 0.000000 0.032219
#
#
# Mechanical properties :
#
#
# Convention : Reuss Voigt Hill
#
# Bulk Modulus (GPa) = 64.81732 68.24164 66.52948
# Shear Modulus (GPa) = 29.29865 30.25886 29.77875
#
# Velocity S-wave (km/s) = 3.88358 3.94671 3.91527
# Velocity P-wave (km/s) = 7.31273 7.47648 7.39506
#
# Compressibility (1/GPa) = 0.01542797
#
# Stress axis : x y z
#
# Youngs Moduli (GPa) = 85.51485 56.63642 83.54431
#
# Poissons Ratio (x) = 0.26477 0.30760
# Poissons Ratio (y) = 0.39978 0.38340
# Poissons Ratio (z) = 0.31485 0.25992
#
# Static dielectric constant tensor:
#      x y z
#    x 3.777250 0.000000 -0.050160 
#    y 0.000000 3.489260 0.000000 
#    z -0.050160 0.000000 3.512250 
# 
# 
# High freq. dielectric constant tensor:
#      x y z
#    x 1.766780 0.000000 -0.002990 
#    y 0.000000 1.753510 0.000000 
#    z -0.002990 0.000000 1.759290 
# 
# From -- ./inp_files/38058.got.cif
#   From: 2010.06.25/outbox.cif.g09.slc.cpg/sg11_20_cif.got.tgz:38058.got - 2010.06.27 23:14:04.
