data_PCOD8073562
_publ_section_title
;
Structure prediction by ZEFSAII (Michael W. Deem and Ramdas Pophale) SiO2 
 PCOD8073562
Probable space group: P 21/M
;
_chemical_formula_sum "Si O2"
_cell_formula_units_Z 28
_cell_length_a 24.792957
_cell_length_b 11.344598
_cell_length_c 5.209184
_cell_angle_alpha 90.000000
_cell_angle_beta 75.787689
_cell_angle_gamma 90.000000
_cell_volume 1420.322101
_symmetry_space_group_name_H-M "P 21/M"
_symmetry_group_IT_number 11
_symmetry_cell_setting 'monoclinic'
loop_
_space_group_symop_operation_xyz
x,y,z
-x,1/2+y,-z
-x,-y,-z
x,1/2-y,z
loop_
_atom_site_type_symbol
_atom_site_label
_atom_site_fract_x
_atom_site_fract_y
_atom_site_fract_z
Si Si1 0.045753 0.883378 0.179196
Si Si2 0.627413 0.518889 0.169095
Si Si3 0.251494 0.387314 0.975816
Si Si4 0.512894 0.617861 0.325597
Si Si5 0.072868 0.482412 0.651040
Si Si6 0.806138 0.887809 0.456770
Si Si7 0.602831 0.381374 0.715434
O O1 0.062561 0.750000 0.213487
O O2 0.073435 0.961658 0.367966
O O3 0.069584 0.918252 0.873796
O O4 0.978998 0.894417 0.259040
O O5 0.575814 0.604230 0.149333
O O6 0.620086 0.463438 0.458040
O O7 0.682660 0.595668 0.104113
O O8 0.631879 0.419831 0.945010
O O9 0.237926 0.250000 0.992221
O O10 0.223231 0.445873 0.259879
O O11 0.222622 0.445992 0.760032
O O12 0.500000 0.500000 0.500000
O O13 0.509030 0.750000 0.465839
O O14 0.464631 0.616824 0.164408
O O15 0.128236 0.407629 0.621261
O O16 0.793787 0.750000 0.470526
O O17 0.623850 0.250000 0.628993
#
# Coordination Sequence:
#
# PCOD8073562 Si02
#       7
#     4   4   4   4   4   4   4
#     4  10  20  34  54  83 112 139 174 215 263 314
#     4  11  20  36  57  80 109 142 178 229 276 325
#     4  10  21  35  55  81 106 138 178 225 274 317
#     4   9  19  35  56  85 115 146 182 225 281 343
#     4  10  20  34  56  80 108 144 176 213 262 317
#     4  10  20  36  56  79 108 140 179 222 267 319
#     4  10  21  36  56  80 108 143 181 221 274 333
#
# _framework density 19.713837000000002
#
# number of rings (size 3 to 8) (size 9 to 14) (size 15 to 20)
#    0.000    2.000    0.000    3.857    0.000    0.571 
#    0.000   13.571    0.000   17.143    0.000    0.000 
#    0.000    0.000    0.000    0.000    0.000    0.000 
#
# Total GULP energy -347019.342431 kJ/mol
# GULP energy per Si atom -12393.547944 kJ/mol
# Density = 1.966897 g / cm^3
# Si number density = 19.713837 Si / 1000 Ang^3
#
#
#
# Elastic Constant Matrix: (Units=GPa)
#
#
# Indices 1 2 3 4 5 6 
#
# 1 95.7215 -0.9487 49.3278 0.0000 6.3119 0.0000
# 2 -0.9487 60.2231 11.4922 0.0000 3.6427 0.0000
# 3 49.3278 11.4922 114.0876 0.0000 10.0421 0.0000
# 4 0.0000 0.0000 0.0000 13.9428 0.0000 0.5861
# 5 6.3119 3.6427 10.0421 0.0000 28.9681 0.0000
# 6 0.0000 0.0000 0.0000 0.5861 0.0000 22.8658
#
#
#
# Elastic Compliance Matrix: (Units=1/GPa)
#
#
# Indices 1 2 3 4 5 6 
#
# 1 0.013583 0.001409 -0.005919 0.000000 -0.001085 0.000000
# 2 0.001409 0.017147 -0.002186 0.000000 -0.001705 0.000000
# 3 -0.005919 -0.002186 0.011766 0.000000 -0.002514 0.000000
# 4 0.000000 0.000000 0.000000 0.071799 0.000000 -0.001840
# 5 -0.001085 -0.001705 -0.002514 0.000000 0.035843 0.000000
# 6 0.000000 0.000000 0.000000 -0.001840 0.000000 0.043781
#
#
# Mechanical properties :
#
#
# Convention : Reuss Voigt Hill
#
# Bulk Modulus (GPa) = 34.36046 43.30833 38.83439
# Shear Modulus (GPa) = 23.04008 27.16606 25.10307
#
# Velocity S-wave (km/s) = 3.42237 3.71620 3.57231
# Velocity P-wave (km/s) = 5.75190 6.35843 6.06275
#
# Compressibility (1/GPa) = 0.02910322
#
# Stress axis : x y z
#
# Youngs Moduli (GPa) = 73.62256 58.31755 84.99054
#
# Poissons Ratio (x) = -0.08218 0.50308
# Poissons Ratio (y) = -0.10374 0.18583
# Poissons Ratio (z) = 0.43579 0.12751
#
# Static dielectric constant tensor:
#      x y z
#    x 3.632950 0.000000 0.092980 
#    y 0.000000 3.415890 0.000000 
#    z 0.092980 0.000000 3.709550 
# 
# 
# High freq. dielectric constant tensor:
#      x y z
#    x 1.769780 0.000000 0.007520 
#    y 0.000000 1.749230 0.000000 
#    z 0.007520 0.000000 1.767600 
# 
# From -- ./inp_files/8617.got.cif
#   From: 2010.06.25/outbox.cif.g09.slc.cpg/sg11_5_cif.got.tgz:8617.got - 2010.06.27 23:14:04.
