data_PCOD8073496
_publ_section_title
;
Structure prediction by ZEFSAII (Michael W. Deem and Ramdas Pophale) SiO2 
 PCOD8073496
Probable space group: P 21/M
;
_chemical_formula_sum "Si O2"
_cell_formula_units_Z 32
_cell_length_a 30.831031
_cell_length_b 9.055588
_cell_length_c 11.165727
_cell_angle_alpha 90.000000
_cell_angle_beta 147.184482
_cell_angle_gamma 90.000000
_cell_volume 1689.427618
_symmetry_space_group_name_H-M "P 21/M"
_symmetry_group_IT_number 11
_symmetry_cell_setting 'monoclinic'
loop_
_space_group_symop_operation_xyz
x,y,z
-x,1/2+y,-z
-x,-y,-z
x,1/2-y,z
loop_
_atom_site_type_symbol
_atom_site_label
_atom_site_fract_x
_atom_site_fract_y
_atom_site_fract_z
Si Si1 0.847271 0.577569 0.627741
Si Si2 0.784300 0.423872 0.123800
Si Si3 0.547634 0.080895 0.947515
Si Si4 0.069589 0.423468 0.424439
Si Si5 0.091897 0.421325 0.976535
Si Si6 0.295560 0.921091 0.815542
Si Si7 0.749109 0.921744 0.801808
Si Si8 0.605516 0.420122 0.348552
O O1 0.831539 0.750000 0.601497
O O2 0.906349 0.537040 0.655931
O O3 0.885796 0.518029 0.839756
O O4 0.761073 0.505287 0.408817
O O5 0.796440 0.250000 0.136373
O O6 0.870390 0.498316 0.344169
O O7 0.725257 0.462965 0.096550
O O8 0.742825 0.491408 0.911419
O O9 0.519477 0.250000 0.869200
O O10 0.612133 0.037168 0.995403
O O11 0.589657 0.055103 0.172253
O O12 0.470755 0.977078 0.752466
O O13 0.072336 0.250000 0.456092
O O14 0.981449 0.484440 0.244798
O O15 0.067106 0.250000 0.925216
O O16 0.164627 0.448170 0.055753
O O17 0.280634 0.750000 0.755393
O O18 0.732609 0.750000 0.786168
O O19 0.683036 0.984788 0.559039
O O20 0.620470 0.250000 0.415906
#
# Coordination Sequence:
#
# PCOD8073496 Si02
#       8
#     4   4   4   4   4   4   4   4
#     4   9  18  32  51  78 110 138 167 209 260 312
#     4  10  21  38  57  75 101 137 177 220 261 304
#     4   9  18  34  56  83 113 139 167 206 253 308
#     4  10  20  34  54  79 105 135 172 214 261 310
#     4  10  21  35  52  76 105 138 174 213 260 312
#     4   9  18  33  55  80 104 136 175 213 257 307
#     4  11  23  38  55  75 103 139 178 218 260 305
#     4  10  20  34  55  83 112 140 169 205 254 309
#
# _framework density 18.941327999999999
#
# number of rings (size 3 to 8) (size 9 to 14) (size 15 to 20)
#    0.000    2.250    0.000    2.625    0.000    4.000 
#    0.000    0.625    0.000    0.000    0.000    0.000 
#    0.000    0.000    0.000    0.000    0.000    0.000 
#
# Total GULP energy -396932.550431 kJ/mol
# GULP energy per Si atom -12404.142201 kJ/mol
# Density = 1.889822 g / cm^3
# Si number density = 18.941328 Si / 1000 Ang^3
#
#
#
# Elastic Constant Matrix: (Units=GPa)
#
#
# Indices 1 2 3 4 5 6 
#
# 1 64.1521 35.8076 31.1031 0.0000 10.2185 0.0000
# 2 35.8076 81.8390 38.0713 0.0000 8.3391 0.0000
# 3 31.1031 38.0713 51.4739 0.0000 10.2727 0.0000
# 4 0.0000 0.0000 0.0000 39.0076 0.0000 2.3504
# 5 10.2185 8.3391 10.2727 0.0000 27.0432 0.0000
# 6 0.0000 0.0000 0.0000 2.3504 0.0000 26.3721
#
#
#
# Elastic Compliance Matrix: (Units=1/GPa)
#
#
# Indices 1 2 3 4 5 6 
#
# 1 0.023972 -0.005667 -0.009559 0.000000 -0.003679 0.000000
# 2 -0.005667 0.019976 -0.011414 0.000000 0.000317 0.000000
# 3 -0.009559 -0.011414 0.034865 0.000000 -0.006112 0.000000
# 4 0.000000 0.000000 0.000000 0.025774 0.000000 -0.002297
# 5 -0.003679 0.000317 -0.006112 0.000000 0.040592 0.000000
# 6 0.000000 0.000000 0.000000 -0.002297 0.000000 0.038124
#
#
# Mechanical properties :
#
#
# Convention : Reuss Voigt Hill
#
# Bulk Modulus (GPa) = 39.16477 45.26989 42.21733
# Shear Modulus (GPa) = 20.40034 24.65011 22.52523
#
# Velocity S-wave (km/s) = 3.28537 3.61140 3.45223
# Velocity P-wave (km/s) = 5.92565 6.42974 6.18283
#
# Compressibility (1/GPa) = 0.02553315
#
# Stress axis : x y z
#
# Youngs Moduli (GPa) = 41.71597 50.06047 28.68174
#
# Poissons Ratio (x) = 0.28367 0.27418
# Poissons Ratio (y) = 0.23639 0.32737
# Poissons Ratio (z) = 0.39878 0.57138
#
# Static dielectric constant tensor:
#      x y z
#    x 3.502720 0.000000 0.071680 
#    y 0.000000 3.477500 0.000000 
#    z 0.071680 0.000000 3.368890 
# 
# 
# High freq. dielectric constant tensor:
#      x y z
#    x 1.733810 0.000000 0.007970 
#    y 0.000000 1.740320 0.000000 
#    z 0.007970 0.000000 1.729640 
# 
# From -- ./inp_files/45349.got.cif
#   From: 2010.06.25/outbox.cif.g09.slc.cpg/sg11_23_cif.got.tgz:45349.got - 2010.06.27 23:14:04.
