data_PCOD8073613
_publ_section_title
;
Structure prediction by ZEFSAII (Michael W. Deem and Ramdas Pophale) SiO2 
 PCOD8073613
Probable space group: P 21/M
;
_chemical_formula_sum "Si O2"
_cell_formula_units_Z 20
_cell_length_a 9.152727
_cell_length_b 9.191184
_cell_length_c 12.394815
_cell_angle_alpha 90.000000
_cell_angle_beta 90.732613
_cell_angle_gamma 90.000000
_cell_volume 1042.621112
_symmetry_space_group_name_H-M "P 21/M"
_symmetry_group_IT_number 11
_symmetry_cell_setting 'monoclinic'
loop_
_space_group_symop_operation_xyz
x,y,z
-x,1/2+y,-z
-x,-y,-z
x,1/2-y,z
loop_
_atom_site_type_symbol
_atom_site_label
_atom_site_fract_x
_atom_site_fract_y
_atom_site_fract_z
Si Si1 0.160984 0.080174 0.882598
Si Si2 0.338920 0.582161 0.715964
Si Si3 0.153245 0.580158 0.504050
Si Si4 0.870983 0.583203 0.872314
Si Si5 0.666729 0.581477 0.673532
O O1 0.157564 0.250000 0.859008
O O2 0.295568 0.010655 0.819890
O O3 0.184613 0.043467 0.008679
O O4 0.008592 0.013894 0.839312
O O5 0.341001 0.750000 0.750430
O O6 0.224186 0.551455 0.620523
O O7 0.498717 0.533427 0.678575
O O8 0.128409 0.750000 0.482541
O O9 0.259365 0.518573 0.414411
O O10 0.000000 0.500000 0.500000
O O11 0.923418 0.750000 0.867296
O O12 0.738929 0.552035 0.790216
O O13 0.683474 0.750000 0.639665
#
# Coordination Sequence:
#
# PCOD8073613 Si02
#       5
#     4   4   4   4   4
#     4  10  20  34  55  82 109 140 180 221 260 311
#     4  10  22  38  55  78 110 144 175 216 270 319
#     4  11  23  38  57  81 108 139 178 221 265 315
#     4   9  19  36  56  79 108 141 178 221 266 311
#     4  10  21  38  58  79 107 142 178 218 267 318
#
# _framework density 19.182423
#
# number of rings (size 3 to 8) (size 9 to 14) (size 15 to 20)
#    0.000    2.000    0.000    3.000    0.000    9.600 
#    0.000    0.000    0.000    0.000    0.000    0.000 
#    0.000    0.000    0.000    0.000    0.000    0.000 
#
# Total GULP energy -248110.366927 kJ/mol
# GULP energy per Si atom -12405.518346 kJ/mol
# Density = 1.913876 g / cm^3
# Si number density = 19.182423 Si / 1000 Ang^3
#
#
#
# Elastic Constant Matrix: (Units=GPa)
#
#
# Indices 1 2 3 4 5 6 
#
# 1 106.9609 60.7964 33.9871 0.0000 -28.0971 0.0000
# 2 60.7964 94.7700 54.3651 0.0000 -17.5738 0.0000
# 3 33.9871 54.3651 74.7156 0.0000 -26.3557 0.0000
# 4 0.0000 0.0000 0.0000 34.4350 0.0000 -9.3777
# 5 -28.0971 -17.5738 -26.3557 0.0000 29.0969 0.0000
# 6 0.0000 0.0000 0.0000 -9.3777 0.0000 35.1575
#
#
#
# Elastic Compliance Matrix: (Units=1/GPa)
#
#
# Indices 1 2 3 4 5 6 
#
# 1 0.018853 -0.012791 0.006507 0.000000 0.016374 0.000000
# 2 -0.012791 0.026833 -0.018143 0.000000 -0.012579 0.000000
# 3 0.006507 -0.018143 0.032295 0.000000 0.024578 0.000000
# 4 0.000000 0.000000 0.000000 0.031315 0.000000 0.008353
# 5 0.016374 -0.012579 0.024578 0.000000 0.064845 0.000000
# 6 0.000000 0.000000 0.000000 0.008353 0.000000 0.030671
#
#
# Mechanical properties :
#
#
# Convention : Reuss Voigt Hill
#
# Bulk Modulus (GPa) = 34.33226 63.86038 49.09632
# Shear Modulus (GPa) = 18.98433 28.22441 23.60437
#
# Velocity S-wave (km/s) = 3.14932 3.84000 3.51168
# Velocity P-wave (km/s) = 5.58220 7.28177 6.48788
#
# Compressibility (1/GPa) = 0.02912713
#
# Stress axis : x y z
#
# Youngs Moduli (GPa) = 53.04141 37.26814 30.96422
#
# Poissons Ratio (x) = 0.47670 -0.20148
# Poissons Ratio (y) = 0.67845 0.56178
# Poissons Ratio (z) = -0.34513 0.67615
#
# Static dielectric constant tensor:
#      x y z
#    x 3.570300 0.000000 0.035370 
#    y 0.000000 3.549490 0.000000 
#    z 0.035370 0.000000 3.600090 
# 
# 
# High freq. dielectric constant tensor:
#      x y z
#    x 1.749860 0.000000 -0.002090 
#    y 0.000000 1.748160 0.000000 
#    z -0.002090 0.000000 1.754830 
# 
# From -- ./inp_files/15888.got.cif
#   From: 2010.06.25/outbox.cif.g09.slc.cpg/sg11_8_cif.got.tgz:15888.got - 2010.06.27 23:14:04.
