data_PCOD8073701
_publ_section_title
;
Structure prediction by ZEFSAII (Michael W. Deem and Ramdas Pophale) SiO2 
 PCOD8073701
Probable space group: P 21/M
;
_chemical_formula_sum "Si O2"
_cell_formula_units_Z 28
_cell_length_a 15.078782
_cell_length_b 8.724433
_cell_length_c 11.963009
_cell_angle_alpha 90.000000
_cell_angle_beta 120.094384
_cell_angle_gamma 90.000000
_cell_volume 1361.634988
_symmetry_space_group_name_H-M "P 21/M"
_symmetry_group_IT_number 11
_symmetry_cell_setting 'monoclinic'
loop_
_space_group_symop_operation_xyz
x,y,z
-x,1/2+y,-z
-x,-y,-z
x,1/2-y,z
loop_
_atom_site_type_symbol
_atom_site_label
_atom_site_fract_x
_atom_site_fract_y
_atom_site_fract_z
Si Si1 0.796202 0.919836 0.257984
Si Si2 0.710189 0.572126 0.971157
Si Si3 0.805845 0.571433 0.629981
Si Si4 0.979604 0.076076 0.604455
Si Si5 0.113803 0.068810 0.080955
Si Si6 0.681832 0.427495 0.368128
Si Si7 0.505579 0.070045 0.880049
O O1 0.775348 0.750000 0.294823
O O2 0.907480 0.922790 0.269696
O O3 0.780882 0.039848 0.350465
O O4 0.718548 0.956001 0.109165
O O5 0.695099 0.750000 0.931568
O O6 0.811035 0.510012 0.970383
O O7 0.606791 0.481560 0.874963
O O8 0.780543 0.750000 0.608239
O O9 0.910086 0.535961 0.631292
O O10 0.826194 0.516350 0.769114
O O11 0.710748 0.481489 0.512160
O O12 0.934313 0.250000 0.569928
O O13 0.000000 0.000000 0.500000
O O14 0.098912 0.250000 0.068858
O O15 0.000000 0.000000 0.000000
O O16 0.653667 0.250000 0.351813
O O17 0.588887 0.521900 0.257525
O O18 0.505007 0.250000 0.894720
O O19 0.500000 0.000000 0.000000
#
# Coordination Sequence:
#
# PCOD8073701 Si02
#       7
#     4   4   4   4   4   4   4
#     4  10  20  34  56  84 121 160 198 251 311 368
#     4  10  21  40  64  91 123 163 211 260 313 367
#     4  11  23  40  60  87 126 167 208 258 315 371
#     4  11  21  33  53  84 120 159 202 249 308 372
#     4  10  23  43  68  95 127 168 212 260 309 368
#     4  12  24  38  60  89 122 161 206 255 312 372
#     4  12  24  40  63  94 129 165 206 257 316 378
#
# _framework density 20.563513
#
# number of rings (size 3 to 8) (size 9 to 14) (size 15 to 20)
#    0.000    1.143    2.857    4.286    0.000    3.429 
#    0.000    0.714    0.000    0.000    0.000    0.000 
#    0.000    0.000    0.000    0.000    0.000    0.000 
#
# Total GULP energy -347122.554365 kJ/mol
# GULP energy per Si atom -12397.234084 kJ/mol
# Density = 2.051671 g / cm^3
# Si number density = 20.563513 Si / 1000 Ang^3
#
#
#
# Elastic Constant Matrix: (Units=GPa)
#
#
# Indices 1 2 3 4 5 6 
#
# 1 90.8033 33.3776 32.7591 0.0000 10.0259 0.0000
# 2 33.3776 97.0651 46.9709 0.0000 0.0431 0.0000
# 3 32.7591 46.9709 115.5056 0.0000 7.9857 0.0000
# 4 0.0000 0.0000 0.0000 28.7594 0.0000 6.4456
# 5 10.0259 0.0431 7.9857 0.0000 27.5266 0.0000
# 6 0.0000 0.0000 0.0000 6.4456 0.0000 31.6754
#
#
#
# Elastic Compliance Matrix: (Units=1/GPa)
#
#
# Indices 1 2 3 4 5 6 
#
# 1 0.013586 -0.003673 -0.002059 0.000000 -0.004345 0.000000
# 2 -0.003673 0.013883 -0.004791 0.000000 0.002706 0.000000
# 3 -0.002059 -0.004791 0.011365 0.000000 -0.002540 0.000000
# 4 0.000000 0.000000 0.000000 0.036433 0.000000 -0.007414
# 5 -0.004345 0.002706 -0.002540 0.000000 0.038644 0.000000
# 6 0.000000 0.000000 0.000000 -0.007414 0.000000 0.033079
#
#
# Mechanical properties :
#
#
# Convention : Reuss Voigt Hill
#
# Bulk Modulus (GPa) = 56.21904 58.84324 57.53114
# Shear Modulus (GPa) = 28.74157 30.27670 29.50914
#
# Velocity S-wave (km/s) = 3.74264 3.84128 3.79228
# Velocity P-wave (km/s) = 6.78786 6.95352 6.87119
#
# Compressibility (1/GPa) = 0.01778757
#
# Stress axis : x y z
#
# Youngs Moduli (GPa) = 73.60709 72.03257 87.98747
#
# Poissons Ratio (x) = 0.26461 0.18115
# Poissons Ratio (y) = 0.27039 0.42152
# Poissons Ratio (z) = 0.15155 0.34508
#
# Static dielectric constant tensor:
#      x y z
#    x 3.747310 0.000000 0.295290 
#    y 0.000000 2.963060 0.000000 
#    z 0.295290 0.000000 3.957990 
# 
# 
# High freq. dielectric constant tensor:
#      x y z
#    x 1.794040 0.000000 0.019070 
#    y 0.000000 1.800320 0.000000 
#    z 0.019070 0.000000 1.811640 
# 
# From -- ./inp_files/38490.got.cif
#   From: 2010.06.25/outbox.cif.g09.slc.cpg/sg11_20_cif.got.tgz:38490.got - 2010.06.27 23:14:04.
