data_PCOD8073656
_publ_section_title
;
Structure prediction by ZEFSAII (Michael W. Deem and Ramdas Pophale) SiO2 
 PCOD8073656
Probable space group: P 21/M
;
_chemical_formula_sum "Si O2"
_cell_formula_units_Z 32
_cell_length_a 20.611370
_cell_length_b 8.924424
_cell_length_c 25.319127
_cell_angle_alpha 90.000000
_cell_angle_beta 21.937507
_cell_angle_gamma 90.000000
_cell_volume 1739.950665
_symmetry_space_group_name_H-M "P 21/M"
_symmetry_group_IT_number 11
_symmetry_cell_setting 'monoclinic'
loop_
_space_group_symop_operation_xyz
x,y,z
-x,1/2+y,-z
-x,-y,-z
x,1/2-y,z
loop_
_atom_site_type_symbol
_atom_site_label
_atom_site_fract_x
_atom_site_fract_y
_atom_site_fract_z
Si Si1 0.916849 0.574786 0.906069
Si Si2 0.387725 0.926789 0.930413
Si Si3 0.350325 0.925789 0.079453
Si Si4 0.641458 0.075930 0.667655
Si Si5 0.508246 0.922501 0.664810
Si Si6 0.191126 0.923225 0.612449
Si Si7 0.999267 0.577531 0.651744
Si Si8 0.890658 0.076477 0.037205
O O1 0.878589 0.750000 0.940962
O O2 0.096211 0.546014 0.739304
O O3 0.939606 0.500737 0.945419
O O4 0.758875 0.502142 0.994172
O O5 0.373244 0.750000 0.934556
O O6 0.574961 0.983886 0.768580
O O7 0.368292 0.977731 0.005355
O O8 0.367221 0.750000 0.072857
O O9 0.163910 0.977801 0.242160
O O10 0.500000 0.000000 0.000000
O O11 0.599263 0.250000 0.707210
O O12 0.847293 0.048555 0.506212
O O13 0.539779 0.021182 0.692724
O O14 0.548924 0.750000 0.647408
O O15 0.633203 0.978767 0.523076
O O16 0.310865 0.944520 0.795827
O O17 0.242705 0.750000 0.566178
O O18 0.063146 0.971776 0.661598
O O19 0.941025 0.750000 0.695949
O O20 0.940666 0.250000 0.995255
O O21 0.000000 0.000000 0.000000
#
# Coordination Sequence:
#
# PCOD8073656 Si02
#       8
#     4   4   4   4   4   4   4   4
#     4  11  21  36  60  87 115 150 191 237 285 338
#     4  11  22  36  56  87 117 146 191 240 284 336
#     4  11  24  39  58  83 115 154 192 234 287 343
#     4  10  20  34  57  86 114 149 188 232 285 338
#     4  10  20  34  55  84 116 148 187 236 285 335
#     4   9  19  34  56  86 115 147 188 233 283 339
#     4   9  18  35  56  83 115 146 188 233 279 337
#     4  11  24  40  58  84 117 154 194 237 287 345
#
# _framework density 18.391325999999999
#
# number of rings (size 3 to 8) (size 9 to 14) (size 15 to 20)
#    0.000    1.750    2.500    3.000    0.000    6.500 
#    0.000    1.250    0.000    0.000    0.000    0.000 
#    0.000    0.000    0.000    0.000    0.000    0.000 
#
# Total GULP energy -396907.509063 kJ/mol
# GULP energy per Si atom -12403.359658 kJ/mol
# Density = 1.834947 g / cm^3
# Si number density = 18.391326 Si / 1000 Ang^3
#
#
#
# Elastic Constant Matrix: (Units=GPa)
#
#
# Indices 1 2 3 4 5 6 
#
# 1 78.0659 39.9057 43.7650 0.0000 0.1407 0.0000
# 2 39.9057 84.9603 51.9380 0.0000 3.1731 0.0000
# 3 43.7650 51.9380 114.3133 0.0000 3.8986 0.0000
# 4 0.0000 0.0000 0.0000 38.1459 0.0000 -0.0134
# 5 0.1407 3.1731 3.8986 0.0000 24.1438 0.0000
# 6 0.0000 0.0000 0.0000 -0.0134 0.0000 29.8055
#
#
#
# Elastic Compliance Matrix: (Units=1/GPa)
#
#
# Indices 1 2 3 4 5 6 
#
# 1 0.018301 -0.006003 -0.004326 0.000000 0.001381 0.000000
# 2 -0.006003 0.018287 -0.005963 0.000000 -0.001406 0.000000
# 3 -0.004326 -0.005963 0.013158 0.000000 -0.001316 0.000000
# 4 0.000000 0.000000 0.000000 0.026215 0.000000 0.000012
# 5 0.001381 -0.001406 -0.001316 0.000000 0.041808 0.000000
# 6 0.000000 0.000000 0.000000 0.000012 0.000000 0.033551
#
#
# Mechanical properties :
#
#
# Convention : Reuss Voigt Hill
#
# Bulk Modulus (GPa) = 58.26474 60.95077 59.60776
# Shear Modulus (GPa) = 26.36782 27.86775 27.11778
#
# Velocity S-wave (km/s) = 3.79054 3.89686 3.84407
# Velocity P-wave (km/s) = 7.13491 7.31166 7.22383
#
# Compressibility (1/GPa) = 0.01716304
#
# Stress axis : x y z
#
# Youngs Moduli (GPa) = 54.64145 54.68270 75.99791
#
# Poissons Ratio (x) = 0.32825 0.32879
# Poissons Ratio (y) = 0.32800 0.45315
# Poissons Ratio (z) = 0.23640 0.32606
#
# Static dielectric constant tensor:
#      x y z
#    x 3.246210 0.000000 0.292420 
#    y 0.000000 3.509030 0.000000 
#    z 0.292420 0.000000 3.741710 
# 
# 
# High freq. dielectric constant tensor:
#      x y z
#    x 1.684110 0.000000 0.012020 
#    y 0.000000 1.726640 0.000000 
#    z 0.012020 0.000000 1.726700 
# 
# From -- ./inp_files/67205.got.cif
#   From: 2010.06.25/outbox.cif.g09.slc.cpg/sg11_34_cif.got.tgz:67205.got - 2010.06.27 23:14:04.
