data_PCOD8073845
_publ_section_title
;
Structure prediction by ZEFSAII (Michael W. Deem and Ramdas Pophale) SiO2 
 PCOD8073845
Probable space group: P 21/M
;
_chemical_formula_sum "Si O2"
_cell_formula_units_Z 32
_cell_length_a 11.383916
_cell_length_b 8.974982
_cell_length_c 23.452925
_cell_angle_alpha 90.000000
_cell_angle_beta 126.549657
_cell_angle_gamma 90.000000
_cell_volume 1924.962339
_symmetry_space_group_name_H-M "P 21/M"
_symmetry_group_IT_number 11
_symmetry_cell_setting 'monoclinic'
loop_
_space_group_symop_operation_xyz
x,y,z
-x,1/2+y,-z
-x,-y,-z
x,1/2-y,z
loop_
_atom_site_type_symbol
_atom_site_label
_atom_site_fract_x
_atom_site_fract_y
_atom_site_fract_z
Si Si1 0.525104 0.574213 0.778170
Si Si2 0.934477 0.585412 0.353196
Si Si3 0.303105 0.424817 0.798242
Si Si4 0.665260 0.915272 0.361705
Si Si5 0.821487 0.076730 0.893612
Si Si6 0.120580 0.576868 0.959152
Si Si7 0.107986 0.423570 0.487597
Si Si8 0.652449 0.574762 0.058172
O O1 0.542688 0.750000 0.788079
O O2 0.429985 0.516220 0.803620
O O3 0.451644 0.533053 0.695992
O O4 0.681940 0.497546 0.824562
O O5 0.999319 0.750000 0.363214
O O6 0.857643 0.528729 0.272416
O O7 0.806813 0.585514 0.362765
O O8 0.071505 0.484075 0.413353
O O9 0.332157 0.250000 0.794471
O O10 0.304974 0.463227 0.864933
O O11 0.594158 0.750000 0.341344
O O12 0.724767 0.956668 0.442794
O O13 0.829454 0.250000 0.879714
O O14 0.812922 0.054186 0.958940
O O15 0.961347 0.994591 0.908134
O O16 0.111446 0.750000 0.940293
O O17 0.223626 0.491994 0.945534
O O18 0.075569 0.250000 0.479061
O O19 0.000000 0.500000 0.500000
O O20 0.639517 0.750000 0.043865
O O21 0.500000 0.500000 0.000000
#
# Coordination Sequence:
#
# PCOD8073845 Si02
#       8
#     4   4   4   4   4   4   4   4
#     4  11  20  28  44  69  93 119 155 195 229 264
#     4   8  14  25  39  54  77 112 150 185 220 260
#     4   9  19  33  45  61  90 126 158 187 225 276
#     4   8  15  26  37  53  83 119 149 179 221 272
#     4  10  20  35  53  69  91 122 150 182 229 279
#     4  10  21  36  53  73  93 115 150 192 229 269
#     4   9  15  22  34  53  78 110 146 182 220 263
#     4  11  22  35  51  70  94 124 156 189 228 272
#
# _framework density 16.623702000000002
#
# number of rings (size 3 to 8) (size 9 to 14) (size 15 to 20)
#    0.000    2.500    0.000    4.875    0.000   10.500 
#    0.000    0.000    0.000    0.000    0.000    0.000 
#    0.000    1.000    0.000    3.000    0.000    6.375 
#
# Total GULP energy -396614.291503 kJ/mol
# GULP energy per Si atom -12394.196609 kJ/mol
# Density = 1.658587 g / cm^3
# Si number density = 16.623702 Si / 1000 Ang^3
#
#
#
# Elastic Constant Matrix: (Units=GPa)
#
#
# Indices 1 2 3 4 5 6 
#
# 1 57.7170 36.1943 50.7554 0.0000 5.0740 0.0000
# 2 36.1943 99.0252 66.1719 0.0000 6.3141 0.0000
# 3 50.7554 66.1719 145.2688 0.0000 8.7895 0.0000
# 4 0.0000 0.0000 0.0000 31.4927 0.0000 4.3741
# 5 5.0740 6.3141 8.7895 0.0000 14.6511 0.0000
# 6 0.0000 0.0000 0.0000 4.3741 0.0000 22.9050
#
#
#
# Elastic Compliance Matrix: (Units=1/GPa)
#
#
# Indices 1 2 3 4 5 6 
#
# 1 0.026790 -0.004985 -0.006909 0.000000 -0.002985 0.000000
# 2 -0.004985 0.015525 -0.005219 0.000000 -0.001833 0.000000
# 3 -0.006909 -0.005219 0.011823 0.000000 -0.002451 0.000000
# 4 0.000000 0.000000 0.000000 0.032619 0.000000 -0.006229
# 5 -0.002985 -0.001833 -0.002451 0.000000 0.071549 0.000000
# 6 0.000000 0.000000 0.000000 -0.006229 0.000000 0.044848
#
#
# Mechanical properties :
#
#
# Convention : Reuss Voigt Hill
#
# Bulk Modulus (GPa) = 50.21996 67.58377 58.90187
# Shear Modulus (GPa) = 20.49039 23.73572 22.11306
#
# Velocity S-wave (km/s) = 3.51465 3.78276 3.65116
# Velocity P-wave (km/s) = 6.83709 7.73449 7.29959
#
# Compressibility (1/GPa) = 0.01991240
#
# Stress axis : x y z
#
# Youngs Moduli (GPa) = 37.32762 64.41220 84.57785
#
# Poissons Ratio (x) = 0.32108 0.58433
# Poissons Ratio (y) = 0.18607 0.44144
# Poissons Ratio (z) = 0.25789 0.33619
#
# Static dielectric constant tensor:
#      x y z
#    x 2.638190 0.000000 -0.368560 
#    y 0.000000 3.315010 0.000000 
#    z -0.368560 0.000000 7.320630 
# 
# 
# High freq. dielectric constant tensor:
#      x y z
#    x 1.576850 0.000000 0.012590 
#    y 0.000000 1.651160 0.000000 
#    z 0.012590 0.000000 1.660500 
# 
# From -- ./inp_files/68331.got.cif
#   From: 2010.06.25/outbox.cif.g09.slc.cpg/sg11_35_cif.got.tgz:68331.got - 2010.06.27 23:14:04.
