data_PCOD8073851
_publ_section_title
;
Structure prediction by ZEFSAII (Michael W. Deem and Ramdas Pophale) SiO2 
 PCOD8073851
Probable space group: P 21/M
;
_chemical_formula_sum "Si O2"
_cell_formula_units_Z 32
_cell_length_a 11.532276
_cell_length_b 9.343651
_cell_length_c 22.080841
_cell_angle_alpha 90.000000
_cell_angle_beta 45.942890
_cell_angle_gamma 90.000000
_cell_volume 1709.869187
_symmetry_space_group_name_H-M "P 21/M"
_symmetry_group_IT_number 11
_symmetry_cell_setting 'monoclinic'
loop_
_space_group_symop_operation_xyz
x,y,z
-x,1/2+y,-z
-x,-y,-z
x,1/2-y,z
loop_
_atom_site_type_symbol
_atom_site_label
_atom_site_fract_x
_atom_site_fract_y
_atom_site_fract_z
Si Si1 0.233752 0.585223 0.739846
Si Si2 0.569144 0.579988 0.234514
Si Si3 0.090006 0.916409 0.553803
Si Si4 0.647498 0.914020 0.077082
Si Si5 0.864852 0.918320 0.889571
Si Si6 0.620618 0.415600 0.913561
Si Si7 0.203633 0.915836 0.378833
Si Si8 0.665743 0.082666 0.431728
O O1 0.273682 0.750000 0.738393
O O2 0.353485 0.489318 0.734884
O O3 0.257091 0.548137 0.661213
O O4 0.052642 0.547891 0.825696
O O5 0.584040 0.750000 0.235478
O O6 0.656985 0.520699 0.141407
O O7 0.383206 0.534022 0.297886
O O8 0.052208 0.750000 0.575665
O O9 0.176387 0.951112 0.459187
O O10 0.207050 0.971790 0.564436
O O11 0.919952 0.998466 0.618989
O O12 0.696434 0.750000 0.064446
O O13 0.460098 0.928280 0.123520
O O14 0.776833 0.980062 0.982520
O O15 0.830018 0.750000 0.892602
O O16 0.793036 0.004617 0.857549
O O17 0.637303 0.250000 0.926948
O O18 0.500000 0.500000 0.000000
O O19 0.176104 0.750000 0.374967
O O20 0.629841 0.250000 0.453275
O O21 0.500000 0.000000 0.500000
#
# Coordination Sequence:
#
# PCOD8073851 Si02
#       8
#     4   4   4   4   4   4   4   4
#     4  10  22  37  52  74 104 136 170 213 262 304
#     4  10  20  35  53  73 100 135 175 214 254 303
#     4   9  18  33  52  74 100 130 162 198 247 303
#     4   8  16  31  51  73  99 134 170 208 254 300
#     4   9  18  34  52  72 104 139 170 210 259 308
#     4   9  16  29  50  75 102 132 169 212 259 308
#     4   9  18  32  51  75 101 127 159 204 251 294
#     4  10  21  37  56  78 105 137 172 209 252 305
#
# _framework density 18.714881999999999
#
# number of rings (size 3 to 8) (size 9 to 14) (size 15 to 20)
#    0.000    2.750    0.000    1.875    0.000    4.500 
#    0.000    5.625    0.000    0.000    0.000    0.000 
#    0.000    0.000    0.000    0.000    0.000    0.000 
#
# Total GULP energy -396657.139480 kJ/mol
# GULP energy per Si atom -12395.535609 kJ/mol
# Density = 1.867229 g / cm^3
# Si number density = 18.714882 Si / 1000 Ang^3
#
#
#
# Elastic Constant Matrix: (Units=GPa)
#
#
# Indices 1 2 3 4 5 6 
#
# 1 151.5363 56.1487 66.2402 0.0000 -3.4420 0.0000
# 2 56.1487 55.4858 32.5947 0.0000 -5.6248 0.0000
# 3 66.2402 32.5947 97.4974 0.0000 -7.8912 0.0000
# 4 0.0000 0.0000 0.0000 20.9560 0.0000 -3.8110
# 5 -3.4420 -5.6248 -7.8912 0.0000 28.7617 0.0000
# 6 0.0000 0.0000 0.0000 -3.8110 0.0000 37.5705
#
#
#
# Elastic Compliance Matrix: (Units=1/GPa)
#
#
# Indices 1 2 3 4 5 6 
#
# 1 0.012505 -0.009662 -0.005418 0.000000 -0.001880 0.000000
# 2 -0.009662 0.030053 -0.003171 0.000000 0.003851 0.000000
# 3 -0.005418 -0.003171 0.015233 0.000000 0.002911 0.000000
# 4 0.000000 0.000000 0.000000 0.048616 0.000000 0.004931
# 5 -0.001880 0.003851 0.002911 0.000000 0.036095 0.000000
# 6 0.000000 0.000000 0.000000 0.004931 0.000000 0.027117
#
#
# Mechanical properties :
#
#
# Convention : Reuss Voigt Hill
#
# Bulk Modulus (GPa) = 46.97140 68.27631 57.62385
# Shear Modulus (GPa) = 23.45024 27.42669 25.43847
#
# Velocity S-wave (km/s) = 3.54365 3.83234 3.69082
# Velocity P-wave (km/s) = 6.47273 7.49293 7.00144
#
# Compressibility (1/GPa) = 0.02128955
#
# Stress axis : x y z
#
# Youngs Moduli (GPa) = 79.97018 33.27417 65.64587
#
# Poissons Ratio (x) = 0.32150 0.35565
# Poissons Ratio (y) = 0.77267 0.20817
# Poissons Ratio (z) = 0.43325 0.10552
#
# Static dielectric constant tensor:
#      x y z
#    x 3.716630 0.000000 0.026350 
#    y 0.000000 3.402900 0.000000 
#    z 0.026350 0.000000 3.534740 
# 
# 
# High freq. dielectric constant tensor:
#      x y z
#    x 1.732070 0.000000 0.000300 
#    y 0.000000 1.708050 0.000000 
#    z 0.000300 0.000000 1.722010 
# 
# From -- ./inp_files/64394.got.cif
#   From: 2010.06.25/outbox.cif.g09.slc.cpg/sg11_33_cif.got.tgz:64394.got - 2010.06.27 23:14:04.
