data_PCOD8073637
_publ_section_title
;
Structure prediction by ZEFSAII (Michael W. Deem and Ramdas Pophale) SiO2 
 PCOD8073637
Probable space group: P 21/M
;
_chemical_formula_sum "Si O2"
_cell_formula_units_Z 32
_cell_length_a 23.574587
_cell_length_b 9.242000
_cell_length_c 14.202533
_cell_angle_alpha 90.000000
_cell_angle_beta 31.234478
_cell_angle_gamma 90.000000
_cell_volume 1604.573063
_symmetry_space_group_name_H-M "P 21/M"
_symmetry_group_IT_number 11
_symmetry_cell_setting 'monoclinic'
loop_
_space_group_symop_operation_xyz
x,y,z
-x,1/2+y,-z
-x,-y,-z
x,1/2-y,z
loop_
_atom_site_type_symbol
_atom_site_label
_atom_site_fract_x
_atom_site_fract_y
_atom_site_fract_z
Si Si1 0.022380 0.081312 0.329440
Si Si2 0.400878 0.915008 0.900775
Si Si3 0.157712 0.586118 0.271713
Si Si4 0.998284 0.078566 0.151389
Si Si5 0.212046 0.582480 0.806258
Si Si6 0.603833 0.419985 0.311616
Si Si7 0.761037 0.417474 0.439427
Si Si8 0.456246 0.576906 0.156229
O O1 0.041404 0.250000 0.309886
O O2 0.912890 0.031317 0.539553
O O3 0.009036 0.029530 0.243182
O O4 0.129636 0.006649 0.219609
O O5 0.445321 0.750000 0.846453
O O6 0.385624 0.958527 0.813284
O O7 0.477516 0.027142 0.845696
O O8 0.284344 0.928854 0.117806
O O9 0.127761 0.750000 0.288445
O O10 0.007019 0.250000 0.123192
O O11 0.881271 0.013563 0.284539
O O12 0.098720 0.003752 0.955644
O O13 0.182286 0.750000 0.862389
O O14 0.288497 0.526711 0.783516
O O15 0.276004 0.557104 0.616441
O O16 0.500000 0.500000 0.500000
O O17 0.588469 0.250000 0.349871
O O18 0.774769 0.250000 0.442548
O O19 0.668405 0.474048 0.643916
O O20 0.466208 0.750000 0.130625
O O21 0.500000 0.500000 0.000000
#
# Coordination Sequence:
#
# PCOD8073637 Si02
#       8
#     4   4   4   4   4   4   4   4
#     4   9  18  31  50  77 108 143 185 230 277 334
#     4  10  21  37  58  83 112 148 191 235 287 347
#     4   9  18  33  54  76 105 146 184 228 283 334
#     4  10  20  34  55  83 112 149 192 230 283 344
#     4  10  20  37  59  86 117 151 192 236 284 338
#     4  10  21  36  57  85 117 154 194 239 293 347
#     4   9  20  38  60  82 112 153 193 233 285 347
#     4  11  24  42  64  87 114 151 193 242 292 346
#
# _framework density 19.942999
#
# number of rings (size 3 to 8) (size 9 to 14) (size 15 to 20)
#    0.000    2.250    0.000    2.250    1.750    4.000 
#    0.000    2.500    0.000    0.000    0.000    0.000 
#    0.000    0.000    0.000    0.000    0.000    0.000 
#
# Total GULP energy -396688.916694 kJ/mol
# GULP energy per Si atom -12396.528647 kJ/mol
# Density = 1.989761 g / cm^3
# Si number density = 19.942999 Si / 1000 Ang^3
#
#
#
# Elastic Constant Matrix: (Units=GPa)
#
#
# Indices 1 2 3 4 5 6 
#
# 1 91.6607 29.9010 48.4380 0.0000 -1.4856 0.0000
# 2 29.9010 39.2970 36.5292 0.0000 2.1532 0.0000
# 3 48.4380 36.5292 127.5504 0.0000 -4.4156 0.0000
# 4 0.0000 0.0000 0.0000 31.1269 0.0000 -1.5451
# 5 -1.4856 2.1532 -4.4156 0.0000 30.2907 0.0000
# 6 0.0000 0.0000 0.0000 -1.5451 0.0000 30.3468
#
#
#
# Elastic Compliance Matrix: (Units=1/GPa)
#
#
# Indices 1 2 3 4 5 6 
#
# 1 0.015562 -0.008757 -0.003371 0.000000 0.000894 0.000000
# 2 -0.008757 0.040079 -0.008308 0.000000 -0.004490 0.000000
# 3 -0.003371 -0.008308 0.011573 0.000000 0.002112 0.000000
# 4 0.000000 0.000000 0.000000 0.032208 0.000000 0.001640
# 5 0.000894 -0.004490 0.002112 0.000000 0.033684 0.000000
# 6 0.000000 0.000000 0.000000 0.001640 0.000000 0.033036
#
#
# Mechanical properties :
#
#
# Convention : Reuss Voigt Hill
#
# Bulk Modulus (GPa) = 37.96187 54.24938 46.10563
# Shear Modulus (GPa) = 23.17006 27.92889 25.54947
#
# Velocity S-wave (km/s) = 3.41224 3.74630 3.58316
# Velocity P-wave (km/s) = 5.88226 6.78043 6.34725
#
# Compressibility (1/GPa) = 0.02634222
#
# Stress axis : x y z
#
# Youngs Moduli (GPa) = 64.25797 24.95045 86.40955
#
# Poissons Ratio (x) = 0.21848 0.29129
# Poissons Ratio (y) = 0.56269 0.71793
# Poissons Ratio (z) = 0.21662 0.20730
#
# Static dielectric constant tensor:
#      x y z
#    x 3.757720 0.000000 0.028670 
#    y 0.000000 3.403850 0.000000 
#    z 0.028670 0.000000 3.864720 
# 
# 
# High freq. dielectric constant tensor:
#      x y z
#    x 1.783980 0.000000 0.004350 
#    y 0.000000 1.753540 0.000000 
#    z 0.004350 0.000000 1.789050 
# 
# From -- ./inp_files/55631.got.cif
#   From: 2010.06.25/outbox.cif.g09.slc.cpg/sg11_28_cif.got.tgz:55631.got - 2010.06.27 23:14:04.
