data_PCOD8073213
_publ_section_title
;
Structure prediction by ZEFSAII (Michael W. Deem and Ramdas Pophale) SiO2 
 PCOD8073213
Probable space group: P 21/M
;
_chemical_formula_sum "Si O2"
_cell_formula_units_Z 28
_cell_length_a 9.628390
_cell_length_b 9.280783
_cell_length_c 27.203495
_cell_angle_alpha 90.000000
_cell_angle_beta 38.612307
_cell_angle_gamma 90.000000
_cell_volume 1516.982634
_symmetry_space_group_name_H-M "P 21/M"
_symmetry_group_IT_number 11
_symmetry_cell_setting 'monoclinic'
loop_
_space_group_symop_operation_xyz
x,y,z
-x,1/2+y,-z
-x,-y,-z
x,1/2-y,z
loop_
_atom_site_type_symbol
_atom_site_label
_atom_site_fract_x
_atom_site_fract_y
_atom_site_fract_z
Si Si1 0.895543 0.083565 0.185921
Si Si2 0.487236 0.416169 0.230190
Si Si3 0.225722 0.913953 0.939944
Si Si4 0.957718 0.419215 0.653722
Si Si5 0.816619 0.417983 0.318460
Si Si6 0.698800 0.084270 0.969755
Si Si7 0.392639 0.086571 0.486943
O O1 0.969825 0.250000 0.160561
O O2 0.652752 0.060974 0.229973
O O3 0.891007 0.033870 0.243772
O O4 0.066770 0.984772 0.109340
O O5 0.414946 0.250000 0.245194
O O6 0.601238 0.471959 0.148330
O O7 0.272186 0.511929 0.299748
O O8 0.163942 0.750000 0.944130
O O9 0.339170 0.928284 0.961530
O O10 0.000000 0.000000 0.000000
O O11 0.924575 0.250000 0.672473
O O12 0.047586 0.489750 0.679322
O O13 0.128099 0.449237 0.560347
O O14 0.872195 0.250000 0.311955
O O15 0.545554 0.444014 0.396523
O O16 0.696259 0.250000 0.953356
O O17 0.500000 0.000000 0.000000
O O18 0.419762 0.250000 0.495474
O O19 0.500000 0.000000 0.500000
#
# Coordination Sequence:
#
# PCOD8073213 Si02
#       7
#     4   4   4   4   4   4   4
#     4  10  21  38  58  79 106 141 179 220 268 315
#     4  10  21  37  55  77 107 142 178 216 260 316
#     4  10  21  38  59  79 103 139 180 218 260 312
#     4  10  20  33  53  82 110 139 177 220 264 311
#     4   9  18  34  57  80 105 140 178 219 267 317
#     4  11  24  39  57  82 110 141 177 219 266 316
#     4   8  15  30  51  76 106 137 173 216 261 311
#
# _framework density 18.457692999999999
#
# number of rings (size 3 to 8) (size 9 to 14) (size 15 to 20)
#    0.000    2.286    1.429    0.857    2.000    2.857 
#    0.000    0.714    0.000    0.000    0.000    0.000 
#    0.000    0.000    0.000    0.000    0.000    0.000 
#
# Total GULP energy -347025.270383 kJ/mol
# GULP energy per Si atom -12393.759657 kJ/mol
# Density = 1.841568 g / cm^3
# Si number density = 18.457693 Si / 1000 Ang^3
#
#
#
# Elastic Constant Matrix: (Units=GPa)
#
#
# Indices 1 2 3 4 5 6 
#
# 1 63.7365 28.7013 14.0423 0.0000 -10.3587 0.0000
# 2 28.7013 71.5121 29.1622 0.0000 -13.8599 0.0000
# 3 14.0423 29.1622 63.1586 0.0000 -17.0502 0.0000
# 4 0.0000 0.0000 0.0000 30.1893 0.0000 -7.3419
# 5 -10.3587 -13.8599 -17.0502 0.0000 30.1959 0.0000
# 6 0.0000 0.0000 0.0000 -7.3419 0.0000 28.0735
#
#
#
# Elastic Compliance Matrix: (Units=1/GPa)
#
#
# Indices 1 2 3 4 5 6 
#
# 1 0.019463 -0.007106 -0.000147 0.000000 0.003332 0.000000
# 2 -0.007106 0.020248 -0.006983 0.000000 0.002913 0.000000
# 3 -0.000147 -0.006983 0.021486 0.000000 0.008877 0.000000
# 4 0.000000 0.000000 0.000000 0.035374 0.000000 0.009251
# 5 0.003332 0.002913 0.008877 0.000000 0.040610 0.000000
# 6 0.000000 0.000000 0.000000 0.009251 0.000000 0.038040
#
#
# Mechanical properties :
#
#
# Convention : Reuss Voigt Hill
#
# Bulk Modulus (GPa) = 30.55596 38.02431 34.29014
# Shear Modulus (GPa) = 23.29905 26.12517 24.71211
#
# Velocity S-wave (km/s) = 3.55673 3.76627 3.66300
# Velocity P-wave (km/s) = 5.78426 6.28956 6.04220
#
# Compressibility (1/GPa) = 0.03272684
#
# Stress axis : x y z
#
# Youngs Moduli (GPa) = 51.37847 49.38833 46.54128
#
# Poissons Ratio (x) = 0.35095 0.00683
# Poissons Ratio (y) = 0.36509 0.32498
# Poissons Ratio (z) = 0.00754 0.34486
#
# Static dielectric constant tensor:
#      x y z
#    x 3.172670 0.000000 0.080470 
#    y 0.000000 3.472830 0.000000 
#    z 0.080470 0.000000 4.253300 
# 
# 
# High freq. dielectric constant tensor:
#      x y z
#    x 1.695570 0.000000 -0.004520 
#    y 0.000000 1.717630 0.000000 
#    z -0.004520 0.000000 1.730930 
# 
# From -- ./inp_files/28554.got.cif
#   From: 2010.06.25/outbox.cif.g09.slc.cpg/sg11_15_cif.got.tgz:28554.got - 2010.06.27 23:14:04.
