data_PCOD8073233
_publ_section_title
;
Structure prediction by ZEFSAII (Michael W. Deem and Ramdas Pophale) SiO2 
 PCOD8073233
Probable space group: P 21/M
;
_chemical_formula_sum "Si O2"
_cell_formula_units_Z 28
_cell_length_a 21.378233
_cell_length_b 9.221567
_cell_length_c 15.987288
_cell_angle_alpha 90.000000
_cell_angle_beta 153.547678
_cell_angle_gamma 90.000000
_cell_volume 1403.954942
_symmetry_space_group_name_H-M "P 21/M"
_symmetry_group_IT_number 11
_symmetry_cell_setting 'monoclinic'
loop_
_space_group_symop_operation_xyz
x,y,z
-x,1/2+y,-z
-x,-y,-z
x,1/2-y,z
loop_
_atom_site_type_symbol
_atom_site_label
_atom_site_fract_x
_atom_site_fract_y
_atom_site_fract_z
Si Si1 0.814803 0.584087 0.727584
Si Si2 0.477298 0.417135 0.700394
Si Si3 0.940039 0.920408 0.053839
Si Si4 0.683578 0.908692 0.189656
Si Si5 0.786248 0.415989 0.016187
Si Si6 0.126583 0.917089 0.694161
Si Si7 0.606259 0.091197 0.237545
O O1 0.858004 0.750000 0.763098
O O2 0.648693 0.560674 0.516461
O O3 0.904327 0.488766 0.768864
O O4 0.849548 0.537821 0.863780
O O5 0.487879 0.250000 0.743450
O O6 0.623723 0.463933 0.833101
O O7 0.445513 0.518767 0.740001
O O8 0.957259 0.750000 0.086399
O O9 0.858516 0.982000 0.035441
O O10 0.759604 0.750000 0.282365
O O11 0.733699 0.009849 0.174069
O O12 0.713736 0.986297 0.315723
O O13 0.520179 0.883320 0.978367
O O14 0.792738 0.250000 0.993214
O O15 0.872882 0.435275 0.205589
O O16 0.123157 0.750000 0.663516
O O17 0.000000 0.000000 0.500000
O O18 0.673641 0.250000 0.337607
#
# Coordination Sequence:
#
# PCOD8073233 Si02
#       7
#     4   4   4   4   4   4   4
#     4   9  20  39  62  87 116 152 191 235 286 343
#     4  10  20  37  60  86 118 153 193 239 290 346
#     4  10  21  38  61  88 118 152 192 235 283 342
#     4  10  20  35  55  78 107 145 188 232 281 334
#     4  10  22  39  60  85 116 154 191 234 292 350
#     4  11  23  39  58  81 112 150 194 237 286 343
#     4  10  20  33  54  82 111 143 183 232 284 334
#
# _framework density 19.943660000000001
#
# number of rings (size 3 to 8) (size 9 to 14) (size 15 to 20)
#    0.000    2.000    1.429    1.714    0.000    5.714 
#    0.000    1.429    0.000    0.000    0.000    0.000 
#    0.000    0.000    0.000    0.000    0.000    0.000 
#
# Total GULP energy -347157.006409 kJ/mol
# GULP energy per Si atom -12398.464515 kJ/mol
# Density = 1.989827 g / cm^3
# Si number density = 19.943660 Si / 1000 Ang^3
#
#
#
# Elastic Constant Matrix: (Units=GPa)
#
#
# Indices 1 2 3 4 5 6 
#
# 1 117.5189 70.6667 22.6598 0.0000 -5.8651 0.0000
# 2 70.6667 139.2485 32.0329 0.0000 -5.2154 0.0000
# 3 22.6598 32.0329 79.7796 0.0000 3.1146 0.0000
# 4 0.0000 0.0000 0.0000 22.8295 0.0000 -2.0904
# 5 -5.8651 -5.2154 3.1146 0.0000 13.5263 0.0000
# 6 0.0000 0.0000 0.0000 -2.0904 0.0000 39.3514
#
#
#
# Elastic Compliance Matrix: (Units=1/GPa)
#
#
# Indices 1 2 3 4 5 6 
#
# 1 0.012485 -0.005906 -0.001309 0.000000 0.003438 0.000000
# 2 -0.005906 0.010906 -0.002791 0.000000 0.002287 0.000000
# 3 -0.001309 -0.002791 0.014219 0.000000 -0.004918 0.000000
# 4 0.000000 0.000000 0.000000 0.044017 0.000000 0.002338
# 5 0.003438 0.002287 -0.004918 0.000000 0.077434 0.000000
# 6 0.000000 0.000000 0.000000 0.002338 0.000000 0.025536
#
#
# Mechanical properties :
#
#
# Convention : Reuss Voigt Hill
#
# Bulk Modulus (GPa) = 56.82343 65.25175 61.03759
# Shear Modulus (GPa) = 23.75582 29.22064 26.48823
#
# Velocity S-wave (km/s) = 3.45504 3.83189 3.64834
# Velocity P-wave (km/s) = 6.66860 7.23650 6.95835
#
# Compressibility (1/GPa) = 0.01759837
#
# Stress axis : x y z
#
# Youngs Moduli (GPa) = 80.09901 91.69066 70.32907
#
# Poissons Ratio (x) = 0.54152 0.09205
# Poissons Ratio (y) = 0.47306 0.19628
# Poissons Ratio (z) = 0.10484 0.25590
#
# Static dielectric constant tensor:
#      x y z
#    x 3.632830 0.000000 0.117320 
#    y 0.000000 3.985370 0.000000 
#    z 0.117320 0.000000 3.634170 
# 
# 
# High freq. dielectric constant tensor:
#      x y z
#    x 1.772130 0.000000 0.000530 
#    y 0.000000 1.791230 0.000000 
#    z 0.000530 0.000000 1.766130 
# 
# From -- ./inp_files/54598.got.cif
#   From: 2010.06.25/outbox.cif.g09.slc.cpg/sg11_28_cif.got.tgz:54598.got - 2010.06.27 23:14:04.
