data_PCOD8073488
_publ_section_title
;
Structure prediction by ZEFSAII (Michael W. Deem and Ramdas Pophale) SiO2 
 PCOD8073488
Probable space group: P 21/M
;
_chemical_formula_sum "Si O2"
_cell_formula_units_Z 32
_cell_length_a 30.968634
_cell_length_b 8.857259
_cell_length_c 11.868300
_cell_angle_alpha 90.000000
_cell_angle_beta 149.511926
_cell_angle_gamma 90.000000
_cell_volume 1651.677615
_symmetry_space_group_name_H-M "P 21/M"
_symmetry_group_IT_number 11
_symmetry_cell_setting 'monoclinic'
loop_
_space_group_symop_operation_xyz
x,y,z
-x,1/2+y,-z
-x,-y,-z
x,1/2-y,z
loop_
_atom_site_type_symbol
_atom_site_label
_atom_site_fract_x
_atom_site_fract_y
_atom_site_fract_z
Si Si1 0.738121 0.429015 0.662922
Si Si2 0.468168 0.075778 0.540209
Si Si3 0.899771 0.427590 0.885164
Si Si4 0.929425 0.072920 0.699841
Si Si5 0.770773 0.427543 0.194337
Si Si6 0.407115 0.428946 0.801543
Si Si7 0.722112 0.928758 0.855658
Si Si8 0.374054 0.574552 0.956163
O O1 0.724959 0.250000 0.631598
O O2 0.813293 0.482324 0.749021
O O3 0.650984 0.510587 0.430647
O O4 0.765108 0.485800 0.847539
O O5 0.463724 0.250000 0.501269
O O6 0.375505 0.014767 0.363315
O O7 0.500000 0.000000 0.500000
O O8 0.531308 0.043403 0.785447
O O9 0.908317 0.250000 0.913361
O O10 0.897712 0.483607 0.751151
O O11 0.981225 0.497181 0.132249
O O12 0.943405 0.250000 0.733692
O O13 0.859403 0.026778 0.450972
O O14 0.764389 0.250000 0.154202
O O15 0.693953 0.477558 0.103504
O O16 0.767566 0.520544 0.072223
O O17 0.414975 0.250000 0.809848
O O18 0.362307 0.476583 0.817701
O O19 0.500000 0.500000 0.000000
O O20 0.731127 0.750000 0.861156
O O21 0.359549 0.750000 0.892551
#
# Coordination Sequence:
#
# PCOD8073488 Si02
#       8
#     4   4   4   4   4   4   4   4
#     4  11  23  41  63  84 113 155 197 236 286 349
#     4  10  20  34  54  78 109 148 188 233 279 330
#     4   9  19  37  61  88 115 147 186 230 287 348
#     4   9  18  34  59  89 118 145 182 234 288 344
#     4  10  20  36  58  84 115 154 193 233 288 346
#     4  12  25  40  59  85 117 153 193 238 287 339
#     4  11  23  37  55  84 118 152 196 244 287 341
#     4  10  20  36  58  83 114 152 192 238 290 343
#
# _framework density 19.374243
#
# number of rings (size 3 to 8) (size 9 to 14) (size 15 to 20)
#    0.000    1.750    1.250    3.375    0.000    6.000 
#    0.000    3.125    0.000    0.000    0.000    0.000 
#    0.000    0.000    0.000    0.000    0.000    0.000 
#
# Total GULP energy -396932.363064 kJ/mol
# GULP energy per Si atom -12404.136346 kJ/mol
# Density = 1.933015 g / cm^3
# Si number density = 19.374243 Si / 1000 Ang^3
#
#
#
# Elastic Constant Matrix: (Units=GPa)
#
#
# Indices 1 2 3 4 5 6 
#
# 1 102.5075 44.4110 50.6019 0.0000 -5.7174 0.0000
# 2 44.4110 69.1431 40.7726 0.0000 -1.1133 0.0000
# 3 50.6019 40.7726 122.6729 0.0000 4.1647 0.0000
# 4 0.0000 0.0000 0.0000 33.8873 0.0000 -3.5176
# 5 -5.7174 -1.1133 4.1647 0.0000 30.0404 0.0000
# 6 0.0000 0.0000 0.0000 -3.5176 0.0000 32.8400
#
#
#
# Elastic Compliance Matrix: (Units=1/GPa)
#
#
# Indices 1 2 3 4 5 6 
#
# 1 0.015004 -0.007307 -0.003866 0.000000 0.003121 0.000000
# 2 -0.007307 0.021614 -0.004170 0.000000 -0.000012 0.000000
# 3 -0.003866 -0.004170 0.011215 0.000000 -0.002445 0.000000
# 4 0.000000 0.000000 0.000000 0.029841 0.000000 0.003196
# 5 0.003121 -0.000012 -0.002445 0.000000 0.034221 0.000000
# 6 0.000000 0.000000 0.000000 0.003196 0.000000 0.030793
#
#
# Mechanical properties :
#
#
# Convention : Reuss Voigt Hill
#
# Bulk Modulus (GPa) = 58.31507 62.87717 60.59612
# Shear Modulus (GPa) = 27.91885 29.92274 28.92079
#
# Velocity S-wave (km/s) = 3.80021 3.93423 3.86780
# Velocity P-wave (km/s) = 7.02994 7.29122 7.16177
#
# Compressibility (1/GPa) = 0.01714823
#
# Stress axis : x y z
#
# Youngs Moduli (GPa) = 66.65039 46.26531 89.16275
#
# Poissons Ratio (x) = 0.33805 0.34473
# Poissons Ratio (y) = 0.48700 0.37177
# Poissons Ratio (z) = 0.25769 0.19291
#
# Static dielectric constant tensor:
#      x y z
#    x 3.572740 0.000000 0.022020 
#    y 0.000000 3.470740 0.000000 
#    z 0.022020 0.000000 3.632730 
# 
# 
# High freq. dielectric constant tensor:
#      x y z
#    x 1.753760 0.000000 -0.003450 
#    y 0.000000 1.747970 0.000000 
#    z -0.003450 0.000000 1.757400 
# 
# From -- ./inp_files/45333.got.cif
#   From: 2010.06.25/outbox.cif.g09.slc.cpg/sg11_23_cif.got.tgz:45333.got - 2010.06.27 23:14:04.
