data_PCOD8073551
_publ_section_title
;
Structure prediction by ZEFSAII (Michael W. Deem and Ramdas Pophale) SiO2 
 PCOD8073551
Probable space group: P 21/M
;
_chemical_formula_sum "Si O2"
_cell_formula_units_Z 32
_cell_length_a 19.023706
_cell_length_b 8.716434
_cell_length_c 12.126321
_cell_angle_alpha 90.000000
_cell_angle_beta 53.502454
_cell_angle_gamma 90.000000
_cell_volume 1616.424849
_symmetry_space_group_name_H-M "P 21/M"
_symmetry_group_IT_number 11
_symmetry_cell_setting 'monoclinic'
loop_
_space_group_symop_operation_xyz
x,y,z
-x,1/2+y,-z
-x,-y,-z
x,1/2-y,z
loop_
_atom_site_type_symbol
_atom_site_label
_atom_site_fract_x
_atom_site_fract_y
_atom_site_fract_z
Si Si1 0.812786 0.928121 0.209039
Si Si2 0.572206 0.932708 0.013766
Si Si3 0.048710 0.069501 0.748025
Si Si4 0.381038 0.427016 0.566090
Si Si5 0.527068 0.930534 0.299752
Si Si6 0.854590 0.069137 0.945749
Si Si7 0.759072 0.432322 0.817304
Si Si8 0.911332 0.930975 0.534905
O O1 0.827822 0.750000 0.167685
O O2 0.889310 0.998184 0.213943
O O3 0.721499 0.952814 0.356986
O O4 0.807904 0.020387 0.100710
O O5 0.568729 0.750000 0.012531
O O6 0.555606 0.996692 0.153832
O O7 0.500000 0.000000 0.000000
O O8 0.665910 0.989986 0.883729
O O9 0.042606 0.250000 0.770150
O O10 0.091312 0.030475 0.591646
O O11 0.952019 0.996201 0.848183
O O12 0.407826 0.250000 0.532150
O O13 0.408558 0.488867 0.662401
O O14 0.429360 0.516088 0.422482
O O15 0.528994 0.750000 0.288679
O O16 0.862045 0.250000 0.930250
O O17 0.796462 0.007977 0.899229
O O18 0.749176 0.250000 0.821806
O O19 0.826295 0.486739 0.661741
O O20 0.909114 0.750000 0.560957
O O21 0.000000 0.000000 0.500000
#
# Coordination Sequence:
#
# PCOD8073551 Si02
#       8
#     4   4   4   4   4   4   4   4
#     4  10  20  34  54  81 113 148 188 234 287 350
#     4  11  24  42  62  88 121 156 195 244 297 352
#     4   9  19  36  55  79 114 151 187 238 297 346
#     4   9  18  33  55  83 111 143 186 233 285 345
#     4   9  19  36  57  80 111 146 187 236 284 340
#     4  10  20  36  56  80 115 152 189 237 290 346
#     4  11  23  40  62  89 119 155 198 245 296 354
#     4  11  21  38  61  85 117 156 201 251 299 351
#
# _framework density 19.796776000000001
#
# number of rings (size 3 to 8) (size 9 to 14) (size 15 to 20)
#    0.000    2.000    1.250    2.250    0.000    4.500 
#    0.000    5.000    0.000    0.000    0.000    0.000 
#    0.000    0.000    0.000    0.000    0.000    0.000 
#
# Total GULP energy -396830.268312 kJ/mol
# GULP energy per Si atom -12400.945885 kJ/mol
# Density = 1.975172 g / cm^3
# Si number density = 19.796776 Si / 1000 Ang^3
#
#
#
# Elastic Constant Matrix: (Units=GPa)
#
#
# Indices 1 2 3 4 5 6 
#
# 1 108.9969 24.0493 38.8610 0.0000 -20.2556 0.0000
# 2 24.0493 33.8882 19.9070 0.0000 -1.3309 0.0000
# 3 38.8610 19.9070 106.0639 0.0000 -11.6710 0.0000
# 4 0.0000 0.0000 0.0000 33.9029 0.0000 -4.2343
# 5 -20.2556 -1.3309 -11.6710 0.0000 31.3741 0.0000
# 6 0.0000 0.0000 0.0000 -4.2343 0.0000 24.5547
#
#
#
# Elastic Compliance Matrix: (Units=1/GPa)
#
#
# Indices 1 2 3 4 5 6 
#
# 1 0.013082 -0.007474 -0.002602 0.000000 0.007161 0.000000
# 2 -0.007474 0.037463 -0.004847 0.000000 -0.005039 0.000000
# 3 -0.002602 -0.004847 0.011557 0.000000 0.002413 0.000000
# 4 0.000000 0.000000 0.000000 0.030145 0.000000 0.005198
# 5 0.007161 -0.005039 0.002413 0.000000 0.037181 0.000000
# 6 0.000000 0.000000 0.000000 0.005198 0.000000 0.041622
#
#
# Mechanical properties :
#
#
# Convention : Reuss Voigt Hill
#
# Bulk Modulus (GPa) = 31.00376 46.06485 38.53430
# Shear Modulus (GPa) = 23.62404 29.04180 26.33292
#
# Velocity S-wave (km/s) = 3.45821 3.83429 3.65110
# Velocity P-wave (km/s) = 5.62500 6.55147 6.10583
#
# Compressibility (1/GPa) = 0.03225415
#
# Stress axis : x y z
#
# Youngs Moduli (GPa) = 76.43919 26.69335 86.52629
#
# Poissons Ratio (x) = 0.19951 0.22518
# Poissons Ratio (y) = 0.57131 0.41943
# Poissons Ratio (z) = 0.19893 0.12939
#
# Static dielectric constant tensor:
#      x y z
#    x 3.771210 0.000000 0.047920 
#    y 0.000000 3.422170 0.000000 
#    z 0.047920 0.000000 3.723030 
# 
# 
# High freq. dielectric constant tensor:
#      x y z
#    x 1.776660 0.000000 -0.004920 
#    y 0.000000 1.753380 0.000000 
#    z -0.004920 0.000000 1.781120 
# 
# From -- ./inp_files/38094.got.cif
#   From: 2010.06.25/outbox.cif.g09.slc.cpg/sg11_20_cif.got.tgz:38094.got - 2010.06.27 23:14:04.
