data_PCOD8073737
_publ_section_title
;
Structure prediction by ZEFSAII (Michael W. Deem and Ramdas Pophale) SiO2 
 PCOD8073737
Probable space group: P 21/M
;
_chemical_formula_sum "Si O2"
_cell_formula_units_Z 32
_cell_length_a 14.438749
_cell_length_b 9.489192
_cell_length_c 22.365002
_cell_angle_alpha 90.000000
_cell_angle_beta 149.544824
_cell_angle_gamma 90.000000
_cell_volume 1553.171105
_symmetry_space_group_name_H-M "P 21/M"
_symmetry_group_IT_number 11
_symmetry_cell_setting 'monoclinic'
loop_
_space_group_symop_operation_xyz
x,y,z
-x,1/2+y,-z
-x,-y,-z
x,1/2-y,z
loop_
_atom_site_type_symbol
_atom_site_label
_atom_site_fract_x
_atom_site_fract_y
_atom_site_fract_z
Si Si1 0.519012 0.912340 0.773049
Si Si2 0.526476 0.904924 0.640486
Si Si3 0.073525 0.094969 0.988611
Si Si4 0.760486 0.921732 0.583931
Si Si5 0.748605 0.094891 0.071950
Si Si6 0.903194 0.915579 0.263046
Si Si7 0.607716 0.588892 0.196992
Si Si8 0.887946 0.536692 0.783033
O O1 0.466712 0.750000 0.750434
O O2 0.510953 0.959259 0.699557
O O3 0.374805 0.000115 0.732179
O O4 0.718732 0.947267 0.910744
O O5 0.433313 0.750000 0.581538
O O6 0.737823 0.882474 0.739261
O O7 0.434754 0.024909 0.548172
O O8 0.069950 0.250000 0.013936
O O9 0.952401 0.093943 0.860347
O O10 0.000000 0.000000 0.000000
O O11 0.769710 0.750000 0.592099
O O12 0.792931 0.995339 0.666483
O O13 0.914660 0.989484 0.626650
O O14 0.709385 0.250000 0.078740
O O15 0.923453 0.119193 0.125496
O O16 0.789295 0.976886 0.144046
O O17 0.569380 0.039252 0.938722
O O18 0.946249 0.750000 0.275491
O O19 0.789759 0.935733 0.260294
O O20 0.584547 0.750000 0.202920
#
# Coordination Sequence:
#
# PCOD8073737 Si02
#       8
#     4   4   4   4   4   4   4   4
#     4  10  22  39  59  89 123 161 203 246 299 358
#     4  11  23  41  63  87 121 162 204 252 300 354
#     4  11  23  38  59  89 126 167 206 245 297 360
#     4  11  25  43  64  89 118 158 207 258 308 356
#     4  10  20  34  56  89 126 162 197 240 298 359
#     4  10  21  38  60  86 118 156 201 252 307 361
#     4  10  21  37  59  88 121 159 199 247 304 361
#     4  11  21  37  61  91 127 161 198 239 294 356
#
# _framework density 20.603010999999999
#
# number of rings (size 3 to 8) (size 9 to 14) (size 15 to 20)
#    0.000    1.500    2.500    3.375    0.000    6.500 
#    0.000    0.625    0.000    0.000    0.000    0.000 
#    0.000    0.000    0.000    0.000    0.000    0.000 
#
# Total GULP energy -396512.390756 kJ/mol
# GULP energy per Si atom -12391.012211 kJ/mol
# Density = 2.055612 g / cm^3
# Si number density = 20.603011 Si / 1000 Ang^3
#
#
#
# Elastic Constant Matrix: (Units=GPa)
#
#
# Indices 1 2 3 4 5 6 
#
# 1 118.8718 49.3432 29.2164 0.0000 -3.9472 0.0000
# 2 49.3432 85.6902 28.7160 0.0000 -6.9478 0.0000
# 3 29.2164 28.7160 76.4483 0.0000 -11.3725 0.0000
# 4 0.0000 0.0000 0.0000 27.8306 0.0000 -2.6655
# 5 -3.9472 -6.9478 -11.3725 0.0000 24.2156 0.0000
# 6 0.0000 0.0000 0.0000 -2.6655 0.0000 23.3645
#
#
#
# Elastic Compliance Matrix: (Units=1/GPa)
#
#
# Indices 1 2 3 4 5 6 
#
# 1 0.011375 -0.005859 -0.002280 0.000000 -0.000898 0.000000
# 2 -0.005859 0.016425 -0.003625 0.000000 0.002055 0.000000
# 3 -0.002280 -0.003625 0.016238 0.000000 0.006214 0.000000
# 4 0.000000 0.000000 0.000000 0.036329 0.000000 0.004144
# 5 -0.000898 0.002055 0.006214 0.000000 0.044658 0.000000
# 6 0.000000 0.000000 0.000000 0.004144 0.000000 0.043273
#
#
# Mechanical properties :
#
#
# Convention : Reuss Voigt Hill
#
# Bulk Modulus (GPa) = 48.75482 55.06237 51.90860
# Shear Modulus (GPa) = 25.16846 26.66444 25.91645
#
# Velocity S-wave (km/s) = 3.49892 3.60140 3.55053
# Velocity P-wave (km/s) = 6.32760 6.63904 6.48519
#
# Compressibility (1/GPa) = 0.02051079
#
# Stress axis : x y z
#
# Youngs Moduli (GPa) = 87.91248 60.88280 61.58344
#
# Poissons Ratio (x) = 0.35670 0.14041
# Poissons Ratio (y) = 0.51506 0.22323
# Poissons Ratio (z) = 0.20044 0.22069
#
# Static dielectric constant tensor:
#      x y z
#    x 3.788980 0.000000 0.095900 
#    y 0.000000 3.797350 0.000000 
#    z 0.095900 0.000000 3.697960 
# 
# 
# High freq. dielectric constant tensor:
#      x y z
#    x 1.808150 0.000000 0.004540 
#    y 0.000000 1.798550 0.000000 
#    z 0.004540 0.000000 1.793760 
# 
# From -- ./inp_files/69168.got.cif
#   From: 2010.06.25/outbox.cif.g09.slc.cpg/sg11_35_cif.got.tgz:69168.got - 2010.06.27 23:14:04.
