data_PCOD8073946
_publ_section_title
;
Structure prediction by ZEFSAII (Michael W. Deem and Ramdas Pophale) SiO2 
 PCOD8073946
Probable space group: P 21/M
;
_chemical_formula_sum "Si O2"
_cell_formula_units_Z 28
_cell_length_a 15.817916
_cell_length_b 8.885915
_cell_length_c 11.886820
_cell_angle_alpha 90.000000
_cell_angle_beta 116.192696
_cell_angle_gamma 90.000000
_cell_volume 1499.207899
_symmetry_space_group_name_H-M "P 21/M"
_symmetry_group_IT_number 11
_symmetry_cell_setting 'monoclinic'
loop_
_space_group_symop_operation_xyz
x,y,z
-x,1/2+y,-z
-x,-y,-z
x,1/2-y,z
loop_
_atom_site_type_symbol
_atom_site_label
_atom_site_fract_x
_atom_site_fract_y
_atom_site_fract_z
Si Si1 0.427933 0.072007 0.308646
Si Si2 0.045173 0.928836 0.321750
Si Si3 0.831657 0.573102 0.213144
Si Si4 0.258983 0.427968 0.063840
Si Si5 0.197669 0.427166 0.553840
Si Si6 0.617194 0.927071 0.466464
Si Si7 0.085879 0.071931 0.115482
O O1 0.438895 0.250000 0.310410
O O2 0.358809 0.010823 0.169546
O O3 0.384617 0.023542 0.404105
O O4 0.529657 0.999358 0.348772
O O5 0.048797 0.750000 0.313773
O O6 0.938281 0.989711 0.269329
O O7 0.103959 0.983496 0.463942
O O8 0.094809 0.004307 0.244259
O O9 0.838497 0.750000 0.198454
O O10 0.784088 0.533925 0.304387
O O11 0.767348 0.503875 0.074612
O O12 0.265452 0.250000 0.059696
O O13 0.179866 0.475155 0.106095
O O14 0.179943 0.250000 0.526131
O O15 0.286707 0.485088 0.534272
O O16 0.608869 0.750000 0.447498
O O17 0.072736 0.250000 0.113783
O O18 0.000000 0.000000 0.000000
#
# Coordination Sequence:
#
# PCOD8073946 Si02
#       7
#     4   4   4   4   4   4   4
#     4   9  17  31  54  76  96 129 167 207 260 315
#     4  11  21  34  52  77 107 138 176 219 261 304
#     4   9  18  33  52  74 103 139 177 213 254 309
#     4   9  17  32  53  76 104 136 171 209 253 310
#     4  10  20  35  55  75  99 138 180 215 259 310
#     4   9  18  33  51  75 102 127 165 216 264 310
#     4  11  20  33  53  77 108 139 172 212 255 306
#
# _framework density 18.67653
#
# number of rings (size 3 to 8) (size 9 to 14) (size 15 to 20)
#    0.000    2.286    1.429    2.143    0.000    2.857 
#    0.000    5.714    0.000    0.000    0.000    0.000 
#    0.000    0.000    0.000    0.000    0.000    0.000 
#
# Total GULP energy -347163.586376 kJ/mol
# GULP energy per Si atom -12398.699513 kJ/mol
# Density = 1.863402 g / cm^3
# Si number density = 18.676530 Si / 1000 Ang^3
#
#
#
# Elastic Constant Matrix: (Units=GPa)
#
#
# Indices 1 2 3 4 5 6 
#
# 1 87.8876 14.9571 62.2487 0.0000 11.8352 0.0000
# 2 14.9571 29.1953 21.1689 0.0000 0.7074 0.0000
# 3 62.2487 21.1689 142.0616 0.0000 16.6887 0.0000
# 4 0.0000 0.0000 0.0000 26.5119 0.0000 4.7625
# 5 11.8352 0.7074 16.6887 0.0000 35.6156 0.0000
# 6 0.0000 0.0000 0.0000 4.7625 0.0000 22.0443
#
#
#
# Elastic Compliance Matrix: (Units=1/GPa)
#
#
# Indices 1 2 3 4 5 6 
#
# 1 0.017050 -0.003890 -0.006598 0.000000 -0.002497 0.000000
# 2 -0.003890 0.039428 -0.004477 0.000000 0.002607 0.000000
# 3 -0.006598 -0.004477 0.010931 0.000000 -0.002841 0.000000
# 4 0.000000 0.000000 0.000000 0.039242 0.000000 -0.008478
# 5 -0.002497 0.002607 -0.002841 0.000000 0.030187 0.000000
# 6 0.000000 0.000000 0.000000 -0.008478 0.000000 0.047195
#
#
# Mechanical properties :
#
#
# Convention : Reuss Voigt Hill
#
# Bulk Modulus (GPa) = 26.68184 50.65486 38.66835
# Shear Modulus (GPa) = 22.07951 27.55237 24.81594
#
# Velocity S-wave (km/s) = 3.44205 3.84505 3.64912
# Velocity P-wave (km/s) = 5.48765 6.84789 6.20516
#
# Compressibility (1/GPa) = 0.03747867
#
# Stress axis : x y z
#
# Youngs Moduli (GPa) = 58.65271 25.36268 91.48263
#
# Poissons Ratio (x) = 0.09867 0.60358
# Poissons Ratio (y) = 0.22817 0.40956
# Poissons Ratio (z) = 0.38698 0.11355
#
# Static dielectric constant tensor:
#      x y z
#    x 3.258790 0.000000 0.160300 
#    y 0.000000 3.135160 0.000000 
#    z 0.160300 0.000000 3.659110 
# 
# 
# High freq. dielectric constant tensor:
#      x y z
#    x 1.718240 0.000000 0.005140 
#    y 0.000000 1.693200 0.000000 
#    z 0.005140 0.000000 1.736180 
# 
# From -- ./inp_files/37657.got.cif
#   From: 2010.06.25/outbox.cif.g09.slc.cpg/sg11_19_cif.got.tgz:37657.got - 2010.06.27 23:14:04.
