data_PCOD8073043
_publ_section_title
;
Structure prediction by ZEFSAII (Michael W. Deem and Ramdas Pophale) SiO2 
 PCOD8073043
Probable space group: P 21/M
;
_chemical_formula_sum "Si O2"
_cell_formula_units_Z 32
_cell_length_a 11.208022
_cell_length_b 9.335858
_cell_length_c 22.649295
_cell_angle_alpha 90.000000
_cell_angle_beta 47.500659
_cell_angle_gamma 90.000000
_cell_volume 1747.323678
_symmetry_space_group_name_H-M "P 21/M"
_symmetry_group_IT_number 11
_symmetry_cell_setting 'monoclinic'
loop_
_space_group_symop_operation_xyz
x,y,z
-x,1/2+y,-z
-x,-y,-z
x,1/2-y,z
loop_
_atom_site_type_symbol
_atom_site_label
_atom_site_fract_x
_atom_site_fract_y
_atom_site_fract_z
Si Si1 0.955147 0.914419 0.749246
Si Si2 0.257297 0.082837 0.603469
Si Si3 0.442117 0.584141 0.306749
Si Si4 0.402001 0.584966 0.453518
Si Si5 0.904792 0.916463 0.898996
Si Si6 0.354708 0.082877 0.224072
Si Si7 0.351176 0.084412 0.922884
Si Si8 0.796739 0.587747 0.152003
O O1 0.013899 0.750000 0.727329
O O2 0.881881 0.951674 0.837847
O O3 0.819136 0.944427 0.746335
O O4 0.105825 0.016497 0.687561
O O5 0.227014 0.250000 0.604561
O O6 0.413402 0.050214 0.591203
O O7 0.278722 0.011808 0.531958
O O8 0.414486 0.750000 0.298891
O O9 0.374277 0.548711 0.394187
O O10 0.348105 0.486800 0.291171
O O11 0.632690 0.549703 0.241874
O O12 0.362315 0.750000 0.480402
O O13 0.927499 0.750000 0.903806
O O14 0.743731 0.968873 0.987089
O O15 0.064206 0.987353 0.871189
O O16 0.395132 0.250000 0.216174
O O17 0.489461 0.010980 0.137544
O O18 0.405635 0.250000 0.908801
O O19 0.230685 0.061817 0.908176
O O20 0.849180 0.750000 0.147398
#
# Coordination Sequence:
#
# PCOD8073043 Si02
#       8
#     4   4   4   4   4   4   4   4
#     4  10  22  38  52  71 103 137 170 213 259 296
#     4  10  20  34  55  82 108 135 167 201 244 303
#     4   9  18  34  55  77 103 136 170 205 251 302
#     4   9  18  34  56  82 111 136 160 200 252 300
#     4  10  20  33  51  74 100 134 172 208 253 309
#     4  10  21  36  53  73  99 133 174 217 255 294
#     4   9  19  35  52  72 101 134 168 210 258 304
#     4   9  17  30  49  76 108 133 159 204 256 303
#
# _framework density 18.313723
#
# number of rings (size 3 to 8) (size 9 to 14) (size 15 to 20)
#    0.000    2.500    0.000    2.625    0.000    6.500 
#    0.000    0.625    0.000    0.000    0.000    0.000 
#    0.000    0.000    0.000    0.000    0.000    0.000 
#
# Total GULP energy -396868.200063 kJ/mol
# GULP energy per Si atom -12402.131252 kJ/mol
# Density = 1.827204 g / cm^3
# Si number density = 18.313723 Si / 1000 Ang^3
#
#
#
# Elastic Constant Matrix: (Units=GPa)
#
#
# Indices 1 2 3 4 5 6 
#
# 1 54.6105 35.8925 30.0983 0.0000 6.5477 0.0000
# 2 35.8925 72.2558 38.3307 0.0000 6.1063 0.0000
# 3 30.0983 38.3307 87.7302 0.0000 23.2010 0.0000
# 4 0.0000 0.0000 0.0000 32.8149 0.0000 -4.1077
# 5 6.5477 6.1063 23.2010 0.0000 18.9820 0.0000
# 6 0.0000 0.0000 0.0000 -4.1077 0.0000 25.7936
#
#
#
# Elastic Compliance Matrix: (Units=1/GPa)
#
#
# Indices 1 2 3 4 5 6 
#
# 1 0.028602 -0.011758 -0.004531 0.000000 -0.000545 0.000000
# 2 -0.011758 0.023269 -0.007722 0.000000 0.006008 0.000000
# 3 -0.004531 -0.007722 0.022543 0.000000 -0.023507 0.000000
# 4 0.000000 0.000000 0.000000 0.031094 0.000000 0.004952
# 5 -0.000545 0.006008 -0.023507 0.000000 0.079669 0.000000
# 6 0.000000 0.000000 0.000000 0.004952 0.000000 0.039558
#
#
# Mechanical properties :
#
#
# Convention : Reuss Voigt Hill
#
# Bulk Modulus (GPa) = 37.88922 47.02659 42.45791
# Shear Modulus (GPa) = 17.75856 22.86976 20.31416
#
# Velocity S-wave (km/s) = 3.11736 3.53764 3.33413
# Velocity P-wave (km/s) = 5.80440 6.51311 6.16894
#
# Compressibility (1/GPa) = 0.02639273
#
# Stress axis : x y z
#
# Youngs Moduli (GPa) = 34.96233 42.97596 44.35870
#
# Poissons Ratio (x) = 0.50531 0.20101
# Poissons Ratio (y) = 0.41109 0.34252
# Poissons Ratio (z) = 0.15843 0.33184
#
# Static dielectric constant tensor:
#      x y z
#    x 3.184850 0.000000 0.207360 
#    y 0.000000 3.381790 0.000000 
#    z 0.207360 0.000000 3.587290 
# 
# 
# High freq. dielectric constant tensor:
#      x y z
#    x 1.694100 0.000000 0.011260 
#    y 0.000000 1.710340 0.000000 
#    z 0.011260 0.000000 1.716470 
# 
# From -- ./inp_files/68294.got.cif
#   From: 2010.06.25/outbox.cif.g09.slc.cpg/sg11_35_cif.got.tgz:68294.got - 2010.06.27 23:14:04.
