data_PCOD8073887
_publ_section_title
;
Structure prediction by ZEFSAII (Michael W. Deem and Ramdas Pophale) SiO2 
 PCOD8073887
Probable space group: P 21/M
;
_chemical_formula_sum "Si O2"
_cell_formula_units_Z 32
_cell_length_a 17.214680
_cell_length_b 9.274483
_cell_length_c 22.077641
_cell_angle_alpha 90.000000
_cell_angle_beta 150.305234
_cell_angle_gamma 90.000000
_cell_volume 1746.140559
_symmetry_space_group_name_H-M "P 21/M"
_symmetry_group_IT_number 11
_symmetry_cell_setting 'monoclinic'
loop_
_space_group_symop_operation_xyz
x,y,z
-x,1/2+y,-z
-x,-y,-z
x,1/2-y,z
loop_
_atom_site_type_symbol
_atom_site_label
_atom_site_fract_x
_atom_site_fract_y
_atom_site_fract_z
Si Si1 0.122249 0.084567 0.927751
Si Si2 0.288899 0.084878 0.430276
Si Si3 0.608404 0.081250 0.709624
Si Si4 0.925484 0.582172 0.363408
Si Si5 0.451477 0.417023 0.208979
Si Si6 0.234658 0.582541 0.645336
Si Si7 0.990627 0.082156 0.710748
Si Si8 0.158424 0.080544 0.212493
O O1 0.071671 0.250000 0.904946
O O2 0.099285 0.043175 0.841695
O O3 0.302387 0.058187 0.065134
O O4 0.016094 0.982663 0.898082
O O5 0.245015 0.250000 0.412286
O O6 0.468643 0.052389 0.567548
O O7 0.260240 0.043798 0.340980
O O8 0.177837 0.993220 0.398778
O O9 0.646821 0.250000 0.741728
O O10 0.559166 0.018928 0.740586
O O11 0.761687 0.997540 0.790276
O O12 0.889677 0.750000 0.345952
O O13 0.790041 0.499108 0.307902
O O14 0.096529 0.542385 0.505283
O O15 0.920981 0.531657 0.290320
O O16 0.465559 0.250000 0.238927
O O17 0.602195 0.467475 0.273275
O O18 0.237578 0.750000 0.662702
O O19 0.952620 0.250000 0.680494
O O20 0.147543 0.250000 0.191808
#
# Coordination Sequence:
#
# PCOD8073887 Si02
#       8
#     4   4   4   4   4   4   4   4
#     4   9  19  36  55  73  97 131 170 212 252 290
#     4   9  19  33  50  76 106 132 161 203 252 299
#     4  11  22  34  51  76 103 131 166 207 252 301
#     4   9  17  30  50  76 103 129 160 199 245 297
#     4  10  21  37  54  72  98 133 172 210 249 294
#     4   9  18  32  50  73 101 132 163 198 244 296
#     4   9  17  31  53  77 100 131 169 206 247 296
#     4  10  20  35  54  75 101 132 166 205 250 299
#
# _framework density 18.326129999999999
#
# number of rings (size 3 to 8) (size 9 to 14) (size 15 to 20)
#    0.000    2.500    0.000    1.875    0.000    4.500 
#    0.000    3.125    0.000    0.000    0.000    0.000 
#    0.000    0.000    0.000    0.000    0.000    0.000 
#
# Total GULP energy -396889.050445 kJ/mol
# GULP energy per Si atom -12402.782826 kJ/mol
# Density = 1.828442 g / cm^3
# Si number density = 18.326130 Si / 1000 Ang^3
#
#
#
# Elastic Constant Matrix: (Units=GPa)
#
#
# Indices 1 2 3 4 5 6 
#
# 1 146.8639 67.5163 44.8910 0.0000 25.2107 0.0000
# 2 67.5163 74.4989 35.1772 0.0000 10.0220 0.0000
# 3 44.8910 35.1772 68.0170 0.0000 17.6241 0.0000
# 4 0.0000 0.0000 0.0000 22.5217 0.0000 2.8228
# 5 25.2107 10.0220 17.6241 0.0000 17.4839 0.0000
# 6 0.0000 0.0000 0.0000 2.8228 0.0000 37.1764
#
#
#
# Elastic Compliance Matrix: (Units=1/GPa)
#
#
# Indices 1 2 3 4 5 6 
#
# 1 0.014377 -0.011080 -0.000044 0.000000 -0.014335 0.000000
# 2 -0.011080 0.026320 -0.008838 0.000000 0.009800 0.000000
# 3 -0.000044 -0.008838 0.024327 0.000000 -0.019393 0.000000
# 4 0.000000 0.000000 0.000000 0.044828 0.000000 -0.003404
# 5 -0.014335 0.009800 -0.019393 0.000000 0.091797 0.000000
# 6 0.000000 0.000000 0.000000 -0.003404 0.000000 0.027157
#
#
# Mechanical properties :
#
#
# Convention : Reuss Voigt Hill
#
# Bulk Modulus (GPa) = 39.84235 64.94986 52.39610
# Shear Modulus (GPa) = 18.04417 24.88944 21.46681
#
# Velocity S-wave (km/s) = 3.14126 3.68929 3.42625
# Velocity P-wave (km/s) = 5.91140 7.32570 6.65622
#
# Compressibility (1/GPa) = 0.02509892
#
# Stress axis : x y z
#
# Youngs Moduli (GPa) = 69.55496 37.99400 41.10663
#
# Poissons Ratio (x) = 0.42099 0.00180
# Poissons Ratio (y) = 0.77070 0.36331
# Poissons Ratio (z) = 0.00305 0.33580
#
# Static dielectric constant tensor:
#      x y z
#    x 3.427440 0.000000 -0.044210 
#    y 0.000000 3.361340 0.000000 
#    z -0.044210 0.000000 3.317630 
# 
# 
# High freq. dielectric constant tensor:
#      x y z
#    x 1.713250 0.000000 -0.001110 
#    y 0.000000 1.709430 0.000000 
#    z -0.001110 0.000000 1.697700 
# 
# From -- ./inp_files/69472.got.cif
#   From: 2010.06.25/outbox.cif.g09.slc.cpg/sg11_35_cif.got.tgz:69472.got - 2010.06.27 23:14:04.
