data_PCOD8073309
_publ_section_title
;
Structure prediction by ZEFSAII (Michael W. Deem and Ramdas Pophale) SiO2 
 PCOD8073309
Probable space group: P 21/M
;
_chemical_formula_sum "Si O2"
_cell_formula_units_Z 28
_cell_length_a 29.683641
_cell_length_b 9.240810
_cell_length_c 9.396399
_cell_angle_alpha 90.000000
_cell_angle_beta 37.893910
_cell_angle_gamma 90.000000
_cell_volume 1583.067416
_symmetry_space_group_name_H-M "P 21/M"
_symmetry_group_IT_number 11
_symmetry_cell_setting 'monoclinic'
loop_
_space_group_symop_operation_xyz
x,y,z
-x,1/2+y,-z
-x,-y,-z
x,1/2-y,z
loop_
_atom_site_type_symbol
_atom_site_label
_atom_site_fract_x
_atom_site_fract_y
_atom_site_fract_z
Si Si1 0.435058 0.919672 0.583625
Si Si2 0.000638 0.079454 0.849674
Si Si3 0.294571 0.082530 0.918815
Si Si4 0.875190 0.084243 0.954562
Si Si5 0.867590 0.582464 0.679974
Si Si6 0.557746 0.412513 0.767056
Si Si7 0.714521 0.414011 0.339186
O O1 0.437556 0.750000 0.611234
O O2 0.442564 0.955168 0.398039
O O3 0.500000 0.000000 0.500000
O O4 0.357784 0.985036 0.834468
O O5 0.995672 0.250000 0.889185
O O6 0.074573 0.035214 0.583300
O O7 0.931454 0.021898 0.930248
O O8 0.000000 0.000000 0.000000
O O9 0.317402 0.250000 0.874801
O O10 0.287225 0.038597 0.773202
O O11 0.213396 0.053314 0.185795
O O12 0.895283 0.250000 0.873113
O O13 0.882984 0.004396 0.785441
O O14 0.792250 0.070028 0.226682
O O15 0.876319 0.750000 0.698913
O O16 0.531487 0.250000 0.851745
O O17 0.641407 0.435489 0.618512
O O18 0.500000 0.500000 0.000000
O O19 0.709107 0.250000 0.285150
#
# Coordination Sequence:
#
# PCOD8073309 Si02
#       7
#     4   4   4   4   4   4   4
#     4  10  20  34  51  73 100 130 164 203 244 288
#     4  10  21  35  49  70 101 134 163 197 243 295
#     4   9  16  28  48  72  97 126 159 199 244 289
#     4   9  17  31  53  75  94 121 162 205 243 286
#     4   9  18  32  51  75 100 124 158 203 247 289
#     4   9  18  31  48  70  97 126 157 194 238 285
#     4   8  15  29  47  69  96 123 156 203 246 282
#
# _framework density 17.687180999999999
#
# number of rings (size 3 to 8) (size 9 to 14) (size 15 to 20)
#    0.000    2.857    0.000    2.143    0.000    4.571 
#    0.000    1.429    0.000    3.429    0.000    0.000 
#    0.000    0.000    0.000    0.000    0.000    0.000 
#
# Total GULP energy -346937.064832 kJ/mol
# GULP energy per Si atom -12390.609458 kJ/mol
# Density = 1.764692 g / cm^3
# Si number density = 17.687181 Si / 1000 Ang^3
#
#
#
# Elastic Constant Matrix: (Units=GPa)
#
#
# Indices 1 2 3 4 5 6 
#
# 1 117.0156 55.2080 74.6661 0.0000 -28.3977 0.0000
# 2 55.2080 75.1952 55.1089 0.0000 -11.5935 0.0000
# 3 74.6661 55.1089 136.9189 0.0000 -26.8510 0.0000
# 4 0.0000 0.0000 0.0000 28.7383 0.0000 0.1160
# 5 -28.3977 -11.5935 -26.8510 0.0000 30.4740 0.0000
# 6 0.0000 0.0000 0.0000 0.1160 0.0000 28.3213
#
#
#
# Elastic Compliance Matrix: (Units=1/GPa)
#
#
# Indices 1 2 3 4 5 6 
#
# 1 0.017466 -0.008150 -0.004425 0.000000 0.009276 0.000000
# 2 -0.008150 0.022675 -0.005415 0.000000 -0.003740 0.000000
# 3 -0.004425 -0.005415 0.012915 0.000000 0.005196 0.000000
# 4 0.000000 0.000000 0.000000 0.034797 0.000000 -0.000143
# 5 0.009276 -0.003740 0.005196 0.000000 0.044614 0.000000
# 6 0.000000 0.000000 0.000000 -0.000143 0.000000 0.035310
#
#
# Mechanical properties :
#
#
# Convention : Reuss Voigt Hill
#
# Bulk Modulus (GPa) = 58.56617 77.67731 68.12174
# Shear Modulus (GPa) = 23.87202 27.11651 25.49426
#
# Velocity S-wave (km/s) = 3.67778 3.91975 3.80069
# Velocity P-wave (km/s) = 7.15674 8.03110 7.60649
#
# Compressibility (1/GPa) = 0.01707470
#
# Stress axis : x y z
#
# Youngs Moduli (GPa) = 57.25445 44.10214 77.42678
#
# Poissons Ratio (x) = 0.35944 0.34263
# Poissons Ratio (y) = 0.46663 0.41929
# Poissons Ratio (z) = 0.25336 0.23883
#
# Static dielectric constant tensor:
#      x y z
#    x 3.330140 0.000000 -0.541840 
#    y 0.000000 3.377080 0.000000 
#    z -0.541840 0.000000 3.410920 
# 
# 
# High freq. dielectric constant tensor:
#      x y z
#    x 1.667690 0.000000 -0.042350 
#    y 0.000000 1.688030 0.000000 
#    z -0.042350 0.000000 1.675540 
# 
# From -- ./inp_files/28984.got.cif
#   From: 2010.06.25/outbox.cif.g09.slc.cpg/sg11_15_cif.got.tgz:28984.got - 2010.06.27 23:14:04.
