data_PCOD8073236
_publ_section_title
;
Structure prediction by ZEFSAII (Michael W. Deem and Ramdas Pophale) SiO2 
 PCOD8073236
Probable space group: P 21/M
;
_chemical_formula_sum "Si O2"
_cell_formula_units_Z 28
_cell_length_a 14.871923
_cell_length_b 8.641412
_cell_length_c 16.700113
_cell_angle_alpha 90.000000
_cell_angle_beta 133.888309
_cell_angle_gamma 90.000000
_cell_volume 1546.754193
_symmetry_space_group_name_H-M "P 21/M"
_symmetry_group_IT_number 11
_symmetry_cell_setting 'monoclinic'
loop_
_space_group_symop_operation_xyz
x,y,z
-x,1/2+y,-z
-x,-y,-z
x,1/2-y,z
loop_
_atom_site_type_symbol
_atom_site_label
_atom_site_fract_x
_atom_site_fract_y
_atom_site_fract_z
Si Si1 0.260880 0.570386 0.375171
Si Si2 0.112887 0.431863 0.020487
Si Si3 0.960158 0.071007 0.358687
Si Si4 0.606176 0.570475 0.392552
Si Si5 0.029135 0.430080 0.798682
Si Si6 0.347890 0.068599 0.266731
Si Si7 0.192536 0.571479 0.583806
O O1 0.285186 0.750000 0.408853
O O2 0.313494 0.469349 0.479817
O O3 0.115647 0.532432 0.274688
O O4 0.333365 0.525424 0.339629
O O5 0.096556 0.250000 0.013611
O O6 0.243592 0.485912 0.138789
O O7 0.000000 0.500000 0.000000
O O8 0.105913 0.486704 0.923824
O O9 0.999051 0.250000 0.388879
O O10 0.846242 0.034897 0.348753
O O11 0.917590 0.027306 0.243117
O O12 0.078959 0.967381 0.454160
O O13 0.571515 0.750000 0.371211
O O14 0.480940 0.470327 0.311039
O O15 0.686935 0.530037 0.363588
O O16 0.049936 0.250000 0.793582
O O17 0.337080 0.250000 0.278563
O O18 0.226395 0.750000 0.591760
#
# Coordination Sequence:
#
# PCOD8073236 Si02
#       7
#     4   4   4   4   4   4   4
#     4  11  21  35  55  80 113 147 180 220 268 322
#     4  10  21  37  57  80 106 142 183 225 268 314
#     4  10  20  33  54  83 111 141 178 219 269 324
#     4  12  24  37  55  79 110 146 185 224 269 325
#     4  10  20  34  55  81 113 145 177 220 271 317
#     4  11  23  38  56  78 109 147 186 225 269 320
#     4  10  20  35  54  79 111 143 177 221 270 322
#
# _framework density 18.102423999999999
#
# number of rings (size 3 to 8) (size 9 to 14) (size 15 to 20)
#    0.000    1.429    2.857    3.429    0.000    3.429 
#    0.000    0.000    0.000    0.857    0.000    0.000 
#    0.000    0.000    0.000    0.000    0.000    0.000 
#
# Total GULP energy -347332.058027 kJ/mol
# GULP energy per Si atom -12404.716358 kJ/mol
# Density = 1.806122 g / cm^3
# Si number density = 18.102424 Si / 1000 Ang^3
#
#
#
# Elastic Constant Matrix: (Units=GPa)
#
#
# Indices 1 2 3 4 5 6 
#
# 1 110.0231 21.7952 43.0619 0.0000 -12.0699 0.0000
# 2 21.7952 44.5057 20.7225 0.0000 -4.9602 0.0000
# 3 43.0619 20.7225 73.4655 0.0000 -6.8826 0.0000
# 4 0.0000 0.0000 0.0000 21.9785 0.0000 -5.0587
# 5 -12.0699 -4.9602 -6.8826 0.0000 28.9566 0.0000
# 6 0.0000 0.0000 0.0000 -5.0587 0.0000 30.0061
#
#
#
# Elastic Compliance Matrix: (Units=1/GPa)
#
#
# Indices 1 2 3 4 5 6 
#
# 1 0.012425 -0.002849 -0.006177 0.000000 0.003223 0.000000
# 2 -0.002849 0.026737 -0.005680 0.000000 0.002042 0.000000
# 3 -0.006177 -0.005680 0.018924 0.000000 0.000950 0.000000
# 4 0.000000 0.000000 0.000000 0.047336 0.000000 0.007980
# 5 0.003223 0.002042 0.000950 0.000000 0.036453 0.000000
# 6 0.000000 0.000000 0.000000 0.007980 0.000000 0.034672
#
#
# Mechanical properties :
#
#
# Convention : Reuss Voigt Hill
#
# Bulk Modulus (GPa) = 34.87728 44.35038 39.61383
# Shear Modulus (GPa) = 23.20006 25.68257 24.44132
#
# Velocity S-wave (km/s) = 3.58383 3.77070 3.67845
# Velocity P-wave (km/s) = 6.03602 6.59624 6.32234
#
# Compressibility (1/GPa) = 0.02867196
#
# Stress axis : x y z
#
# Youngs Moduli (GPa) = 80.48546 37.40173 52.84352
#
# Poissons Ratio (x) = 0.10657 0.32642
# Poissons Ratio (y) = 0.22932 0.30017
# Poissons Ratio (z) = 0.49717 0.21245
#
# Static dielectric constant tensor:
#      x y z
#    x 3.404130 0.000000 -0.111250 
#    y 0.000000 3.343560 0.000000 
#    z -0.111250 0.000000 3.387320 
# 
# 
# High freq. dielectric constant tensor:
#      x y z
#    x 1.701210 0.000000 -0.011720 
#    y 0.000000 1.708980 0.000000 
#    z -0.011720 0.000000 1.683160 
# 
# From -- ./inp_files/37488.got.cif
#   From: 2010.06.25/outbox.cif.g09.slc.cpg/sg11_19_cif.got.tgz:37488.got - 2010.06.27 23:14:04.
