data_PCOD8073385
_publ_section_title
;
Structure prediction by ZEFSAII (Michael W. Deem and Ramdas Pophale) SiO2 
 PCOD8073385
Probable space group: P 21/M
;
_chemical_formula_sum "Si O2"
_cell_formula_units_Z 32
_cell_length_a 12.158627
_cell_length_b 12.976202
_cell_length_c 18.208329
_cell_angle_alpha 90.000000
_cell_angle_beta 147.403297
_cell_angle_gamma 90.000000
_cell_volume 1547.630155
_symmetry_space_group_name_H-M "P 21/M"
_symmetry_group_IT_number 11
_symmetry_cell_setting 'monoclinic'
loop_
_space_group_symop_operation_xyz
x,y,z
-x,1/2+y,-z
-x,-y,-z
x,1/2-y,z
loop_
_atom_site_type_symbol
_atom_site_label
_atom_site_fract_x
_atom_site_fract_y
_atom_site_fract_z
Si Si1 0.000547 0.865015 0.876714
Si Si2 0.196947 0.135583 0.757723
Si Si3 0.701121 0.981098 0.901231
Si Si4 0.818136 0.001320 0.524960
Si Si5 0.459598 0.126479 0.042139
Si Si6 0.899703 0.134840 0.231201
Si Si7 0.363237 0.133515 0.694547
Si Si8 0.579186 0.633215 0.694586
O O1 0.045641 0.750000 0.936504
O O2 0.120494 0.869642 0.867467
O O3 0.754509 0.876771 0.730808
O O4 0.077591 0.966050 0.964389
O O5 0.138249 0.250000 0.748143
O O6 0.345404 0.133311 0.772043
O O7 0.310862 0.086462 0.892656
O O8 0.989109 0.086827 0.611844
O O9 0.607678 0.930841 0.922109
O O10 0.695656 0.892240 0.836790
O O11 0.576134 0.078299 0.799497
O O12 0.806783 0.933882 0.443982
O O13 0.897512 0.928694 0.634749
O O14 0.604935 0.055304 0.426543
O O15 0.446365 0.250000 0.043522
O O16 0.692900 0.093183 0.154155
O O17 0.936638 0.250000 0.279699
O O18 0.362520 0.250000 0.663141
O O19 0.493884 0.750000 0.650849
#
# Coordination Sequence:
#
# PCOD8073385 Si02
#       8
#     4   4   4   4   4   4   4   4
#     4  10  21  38  59  82 110 144 184 229 274 321
#     4  10  20  34  52  78 112 146 180 219 269 329
#     4  11  20  35  60  84 109 141 181 225 275 328
#     4  11  21  35  55  77 106 146 188 226 268 320
#     4  10  21  36  57  87 117 142 174 222 277 330
#     4  10  21  37  58  84 113 144 179 223 275 328
#     4  10  21  34  50  77 111 143 178 222 272 328
#     4  10  23  40  56  78 109 147 189 230 271 318
#
# _framework density 20.676774000000002
#
# number of rings (size 3 to 8) (size 9 to 14) (size 15 to 20)
#    0.000    1.750    0.000    4.500    0.000    5.000 
#    0.000    2.500    0.000    2.250    0.000    0.000 
#    0.000    0.000    0.000    0.000    0.000    0.000 
#
# Total GULP energy -396520.410378 kJ/mol
# GULP energy per Si atom -12391.262824 kJ/mol
# Density = 2.062971 g / cm^3
# Si number density = 20.676774 Si / 1000 Ang^3
#
#
#
# Elastic Constant Matrix: (Units=GPa)
#
#
# Indices 1 2 3 4 5 6 
#
# 1 57.2356 20.0726 16.8524 0.0000 8.6942 0.0000
# 2 20.0726 101.0866 41.6486 0.0000 9.2719 0.0000
# 3 16.8524 41.6486 100.3609 0.0000 7.5664 0.0000
# 4 0.0000 0.0000 0.0000 43.6868 0.0000 0.1213
# 5 8.6942 9.2719 7.5664 0.0000 25.9750 0.0000
# 6 0.0000 0.0000 0.0000 0.1213 0.0000 29.0545
#
#
#
# Elastic Compliance Matrix: (Units=1/GPa)
#
#
# Indices 1 2 3 4 5 6 
#
# 1 0.019728 -0.002705 -0.001805 0.000000 -0.005112 0.000000
# 2 -0.002705 0.012518 -0.004572 0.000000 -0.002231 0.000000
# 3 -0.001805 -0.004572 0.012265 0.000000 -0.001337 0.000000
# 4 0.000000 0.000000 0.000000 0.022890 0.000000 -0.000096
# 5 -0.005112 -0.002231 -0.001337 0.000000 0.041395 0.000000
# 6 0.000000 0.000000 0.000000 -0.000096 0.000000 0.034418
#
#
# Mechanical properties :
#
#
# Convention : Reuss Voigt Hill
#
# Bulk Modulus (GPa) = 37.95449 46.20337 42.07893
# Shear Modulus (GPa) = 29.38361 31.75056 30.56708
#
# Velocity S-wave (km/s) = 3.77383 3.92288 3.84908
# Velocity P-wave (km/s) = 6.11433 6.55078 6.33631
#
# Compressibility (1/GPa) = 0.02634734
#
# Stress axis : x y z
#
# Youngs Moduli (GPa) = 50.68891 79.88394 81.53017
#
# Poissons Ratio (x) = 0.21608 0.14715
# Poissons Ratio (y) = 0.13711 0.37280
# Poissons Ratio (z) = 0.09148 0.36527
#
# Static dielectric constant tensor:
#      x y z
#    x 3.460170 0.000000 -0.036320 
#    y 0.000000 4.067420 0.000000 
#    z -0.036320 0.000000 3.689340 
# 
# 
# High freq. dielectric constant tensor:
#      x y z
#    x 1.783810 0.000000 0.002920 
#    y 0.000000 1.836290 0.000000 
#    z 0.002920 0.000000 1.803120 
# 
# From -- ./inp_files/59503.got.cif
#   From: 2010.06.25/outbox.cif.g09.slc.cpg/sg11_30_cif.got.tgz:59503.got - 2010.06.27 23:14:04.
