data_PCOD8073781
_publ_section_title
;
Structure prediction by ZEFSAII (Michael W. Deem and Ramdas Pophale) SiO2 
 PCOD8073781
Probable space group: P 21/M
;
_chemical_formula_sum "Si O2"
_cell_formula_units_Z 28
_cell_length_a 10.191045
_cell_length_b 8.549150
_cell_length_c 22.891974
_cell_angle_alpha 90.000000
_cell_angle_beta 133.944877
_cell_angle_gamma 90.000000
_cell_volume 1436.025299
_symmetry_space_group_name_H-M "P 21/M"
_symmetry_group_IT_number 11
_symmetry_cell_setting 'monoclinic'
loop_
_space_group_symop_operation_xyz
x,y,z
-x,1/2+y,-z
-x,-y,-z
x,1/2-y,z
loop_
_atom_site_type_symbol
_atom_site_label
_atom_site_fract_x
_atom_site_fract_y
_atom_site_fract_z
Si Si1 0.451611 0.431176 0.071547
Si Si2 0.854674 0.066775 0.500237
Si Si3 0.014626 0.568199 0.662280
Si Si4 0.115260 0.569280 0.260001
Si Si5 0.590665 0.931729 0.228185
Si Si6 0.488086 0.432081 0.664831
Si Si7 0.790044 0.068690 0.096146
O O1 0.408172 0.250000 0.049913
O O2 0.467176 0.473416 0.144266
O O3 0.640981 0.477109 0.098901
O O4 0.285923 0.526717 0.991374
O O5 0.888418 0.250000 0.518480
O O6 0.875933 0.981557 0.568757
O O7 0.651716 0.035379 0.415316
O O8 0.000000 0.000000 0.500000
O O9 0.064572 0.750000 0.672579
O O10 0.918962 0.537374 0.694332
O O11 0.197456 0.468924 0.713204
O O12 0.101131 0.750000 0.273579
O O13 0.312340 0.527399 0.296081
O O14 0.969850 0.531496 0.164512
O O15 0.559915 0.750000 0.206631
O O16 0.523537 0.981730 0.271281
O O17 0.438032 0.250000 0.641804
O O18 0.840551 0.250000 0.114524
#
# Coordination Sequence:
#
# PCOD8073781 Si02
#       7
#     4   4   4   4   4   4   4
#     4  10  20  34  57  89 122 155 200 251 298 354
#     4  12  24  40  64  92 122 158 201 252 304 355
#     4  12  24  39  62  91 122 159 203 250 298 360
#     4  11  23  41  63  89 124 163 201 248 305 361
#     4  11  21  37  62  90 121 157 201 251 301 357
#     4  10  24  43  63  89 123 162 203 247 302 365
#     4  10  20  35  57  87 123 158 199 249 300 357
#
# _framework density 19.498263999999999
#
# number of rings (size 3 to 8) (size 9 to 14) (size 15 to 20)
#    0.000    1.143    2.857    4.286    0.000    3.429 
#    0.000    0.714    0.000    0.000    0.000    0.000 
#    0.000    0.000    0.000    0.000    0.000    0.000 
#
# Total GULP energy -347407.526530 kJ/mol
# GULP energy per Si atom -12407.411662 kJ/mol
# Density = 1.945388 g / cm^3
# Si number density = 19.498264 Si / 1000 Ang^3
#
#
#
# Elastic Constant Matrix: (Units=GPa)
#
#
# Indices 1 2 3 4 5 6 
#
# 1 97.7616 20.3241 46.0910 0.0000 0.3741 0.0000
# 2 20.3241 46.0600 32.6169 0.0000 0.8319 0.0000
# 3 46.0910 32.6169 118.1068 0.0000 -2.3986 0.0000
# 4 0.0000 0.0000 0.0000 36.7929 0.0000 -4.9786
# 5 0.3741 0.8319 -2.3986 0.0000 30.7864 0.0000
# 6 0.0000 0.0000 0.0000 -4.9786 0.0000 21.0439
#
#
#
# Elastic Compliance Matrix: (Units=1/GPa)
#
#
# Indices 1 2 3 4 5 6 
#
# 1 0.012790 -0.002605 -0.004280 0.000000 -0.000419 0.000000
# 2 -0.002605 0.027572 -0.006623 0.000000 -0.001229 0.000000
# 3 -0.004280 -0.006623 0.011990 0.000000 0.001165 0.000000
# 4 0.000000 0.000000 0.000000 0.028078 0.000000 0.006643
# 5 -0.000419 -0.001229 0.001165 0.000000 0.032611 0.000000
# 6 0.000000 0.000000 0.000000 0.006643 0.000000 0.049091
#
#
# Mechanical properties :
#
#
# Convention : Reuss Voigt Hill
#
# Bulk Modulus (GPa) = 39.46960 51.11025 45.28993
# Shear Modulus (GPa) = 25.30431 28.58439 26.94435
#
# Velocity S-wave (km/s) = 3.60637 3.83299 3.72140
# Velocity P-wave (km/s) = 6.13415 6.77190 6.46090
#
# Compressibility (1/GPa) = 0.02533595
#
# Stress axis : x y z
#
# Youngs Moduli (GPa) = 78.18481 36.26818 83.40274
#
# Poissons Ratio (x) = 0.09448 0.35700
# Poissons Ratio (y) = 0.20367 0.55237
# Poissons Ratio (z) = 0.33467 0.24020
#
# Static dielectric constant tensor:
#      x y z
#    x 3.425510 0.000000 -0.106310 
#    y 0.000000 3.618600 0.000000 
#    z -0.106310 0.000000 3.715370 
# 
# 
# High freq. dielectric constant tensor:
#      x y z
#    x 1.737860 0.000000 -0.007590 
#    y 0.000000 1.770090 0.000000 
#    z -0.007590 0.000000 1.774890 
# 
# From -- ./inp_files/63417.got.cif
#   From: 2010.06.25/outbox.cif.g09.slc.cpg/sg11_32_cif.got.tgz:63417.got - 2010.06.27 23:14:04.
