data_PCOD8073474
_publ_section_title
;
Structure prediction by ZEFSAII (Michael W. Deem and Ramdas Pophale) SiO2 
 PCOD8073474
Probable space group: P 21/M
;
_chemical_formula_sum "Si O2"
_cell_formula_units_Z 32
_cell_length_a 11.568215
_cell_length_b 13.816953
_cell_length_c 18.013232
_cell_angle_alpha 90.000000
_cell_angle_beta 148.561893
_cell_angle_gamma 90.000000
_cell_volume 1501.719702
_symmetry_space_group_name_H-M "P 21/M"
_symmetry_group_IT_number 11
_symmetry_cell_setting 'monoclinic'
loop_
_space_group_symop_operation_xyz
x,y,z
-x,1/2+y,-z
-x,-y,-z
x,1/2-y,z
loop_
_atom_site_type_symbol
_atom_site_label
_atom_site_fract_x
_atom_site_fract_y
_atom_site_fract_z
Si Si1 0.713604 0.641180 0.984089
Si Si2 0.596364 0.136485 0.850565
Si Si3 0.466252 0.638129 0.436079
Si Si4 0.764741 0.139681 0.239665
Si Si5 0.234820 0.050010 0.284123
Si Si6 0.762858 0.862542 0.458698
Si Si7 0.923351 0.862248 0.945948
Si Si8 0.770874 0.454391 0.088838
O O1 0.785761 0.750000 0.044877
O O2 0.775372 0.571312 0.086395
O O3 0.447859 0.636599 0.822721
O O4 0.845692 0.602584 0.984526
O O5 0.572886 0.250000 0.852816
O O6 0.387362 0.092742 0.689832
O O7 0.600877 0.084031 0.932707
O O8 0.816562 0.116440 0.922146
O O9 0.385417 0.750000 0.389372
O O10 0.561700 0.609671 0.568871
O O11 0.261082 0.566565 0.306740
O O12 0.655573 0.616159 0.479587
O O13 0.815139 0.250000 0.241696
O O14 0.698674 0.077666 0.130811
O O15 0.984051 0.096811 0.400823
O O16 0.223634 0.076652 0.191776
O O17 0.013950 0.087350 0.204294
O O18 0.767864 0.750000 0.444731
O O19 0.866780 0.750000 0.904246
#
# Coordination Sequence:
#
# PCOD8073474 Si02
#       8
#     4   4   4   4   4   4   4   4
#     4  10  23  38  55  80 112 154 192 229 278 340
#     4   9  19  33  56  90 116 141 179 235 293 332
#     4  10  20  34  53  84 120 151 186 229 284 341
#     4  10  20  39  62  82 108 148 196 236 279 333
#     4  10  21  33  57  87 115 150 186 233 287 342
#     4   9  18  33  56  82 111 143 182 230 278 331
#     4   9  19  36  57  82 116 149 186 231 282 342
#     4  11  21  35  59  86 112 143 186 242 286 329
#
# _framework density 21.308903000000001
#
# number of rings (size 3 to 8) (size 9 to 14) (size 15 to 20)
#    0.000    2.250    1.250    1.125    3.500    2.500 
#    0.000    0.625    0.000    0.000    0.000    6.125 
#    0.000    0.000    0.000    0.000    0.000    0.000 
#
# Total GULP energy -396741.381242 kJ/mol
# GULP energy per Si atom -12398.168164 kJ/mol
# Density = 2.126040 g / cm^3
# Si number density = 21.308903 Si / 1000 Ang^3
#
#
#
# Elastic Constant Matrix: (Units=GPa)
#
#
# Indices 1 2 3 4 5 6 
#
# 1 53.5006 10.0824 19.3897 0.0000 -0.5316 0.0000
# 2 10.0824 83.3189 25.1095 0.0000 -15.6448 0.0000
# 3 19.3897 25.1095 107.8462 0.0000 -14.3210 0.0000
# 4 0.0000 0.0000 0.0000 28.2678 0.0000 -2.7477
# 5 -0.5316 -15.6448 -14.3210 0.0000 22.4827 0.0000
# 6 0.0000 0.0000 0.0000 -2.7477 0.0000 18.0254
#
#
#
# Elastic Compliance Matrix: (Units=1/GPa)
#
#
# Indices 1 2 3 4 5 6 
#
# 1 0.020344 -0.001970 -0.003624 0.000000 -0.003198 0.000000
# 2 -0.001970 0.014454 -0.001837 0.000000 0.008841 0.000000
# 3 -0.003624 -0.001837 0.011110 0.000000 0.005713 0.000000
# 4 0.000000 0.000000 0.000000 0.035908 0.000000 0.005474
# 5 -0.003198 0.008841 0.005713 0.000000 0.054194 0.000000
# 6 0.000000 0.000000 0.000000 0.005474 0.000000 0.056312
#
#
# Mechanical properties :
#
#
# Convention : Reuss Voigt Hill
#
# Bulk Modulus (GPa) = 32.20950 39.31434 35.76192
# Shear Modulus (GPa) = 22.98493 26.42745 24.70619
#
# Velocity S-wave (km/s) = 3.28785 3.52548 3.40873
# Velocity P-wave (km/s) = 5.43706 5.92130 5.68434
#
# Compressibility (1/GPa) = 0.03104674
#
# Stress axis : x y z
#
# Youngs Moduli (GPa) = 49.15408 69.18367 90.00644
#
# Poissons Ratio (x) = 0.13631 0.32615
# Poissons Ratio (y) = 0.09685 0.16535
# Poissons Ratio (z) = 0.17812 0.12709
#
# Static dielectric constant tensor:
#      x y z
#    x 3.614580 0.000000 0.129560 
#    y 0.000000 3.830980 0.000000 
#    z 0.129560 0.000000 4.032330 
# 
# 
# High freq. dielectric constant tensor:
#      x y z
#    x 1.810140 0.000000 0.004340 
#    y 0.000000 1.833760 0.000000 
#    z 0.004340 0.000000 1.837050 
# 
# From -- ./inp_files/59515.got.cif
#   From: 2010.06.25/outbox.cif.g09.slc.cpg/sg11_30_cif.got.tgz:59515.got - 2010.06.27 23:14:04.
