data_PCOD8073742
_publ_section_title
;
Structure prediction by ZEFSAII (Michael W. Deem and Ramdas Pophale) SiO2 
 PCOD8073742
Probable space group: P 21/M
;
_chemical_formula_sum "Si O2"
_cell_formula_units_Z 24
_cell_length_a 9.706733
_cell_length_b 13.625319
_cell_length_c 15.262654
_cell_angle_alpha 90.000000
_cell_angle_beta 139.934285
_cell_angle_gamma 90.000000
_cell_volume 1299.302438
_symmetry_space_group_name_H-M "P 21/M"
_symmetry_group_IT_number 11
_symmetry_cell_setting 'monoclinic'
loop_
_space_group_symop_operation_xyz
x,y,z
-x,1/2+y,-z
-x,-y,-z
x,1/2-y,z
loop_
_atom_site_type_symbol
_atom_site_label
_atom_site_fract_x
_atom_site_fract_y
_atom_site_fract_z
Si Si1 0.764498 0.363214 0.990285
Si Si2 0.977353 0.360251 0.517911
Si Si3 0.222092 0.035867 0.493864
Si Si4 0.330574 0.864899 0.255740
Si Si5 0.015066 0.983237 0.216043
Si Si6 0.699248 0.639590 0.170143
O O1 0.830479 0.250000 0.033598
O O2 0.734761 0.389815 0.874647
O O3 0.547979 0.386928 0.937559
O O4 0.954212 0.429305 0.120872
O O5 0.886272 0.250000 0.470202
O O6 0.048615 0.392863 0.455610
O O7 0.187440 0.369145 0.680437
O O8 0.789763 0.428987 0.465068
O O9 0.459537 0.075480 0.616380
O O10 0.163487 0.028627 0.363642
O O11 0.375765 0.750000 0.290810
O O12 0.140657 0.898053 0.226695
O O13 0.800516 0.935101 0.150480
O O14 0.725298 0.750000 0.146574
#
# Coordination Sequence:
#
# PCOD8073742 Si02
#       6
#     4   4   4   4   4   4
#     4  10  21  37  57  78 107 148 184 220 272 327
#     4   9  17  33  57  83 111 144 184 224 267 324
#     4  10  20  34  57  84 109 143 185 225 274 318
#     4  11  22  39  59  78 108 151 187 216 269 339
#     4  11  22  35  55  86 113 138 178 236 275 309
#     4   9  17  34  58  82 107 143 187 222 263 323
#
# _framework density 18.471450000000001
#
# number of rings (size 3 to 8) (size 9 to 14) (size 15 to 20)
#    0.000    2.000    1.667    2.500    0.000    2.000 
#    0.000    0.833    0.000    1.000    0.000    0.000 
#    0.000    0.000    0.000    0.000    0.000    0.000 
#
# Total GULP energy -297671.667836 kJ/mol
# GULP energy per Si atom -12402.986160 kJ/mol
# Density = 1.842941 g / cm^3
# Si number density = 18.471450 Si / 1000 Ang^3
#
#
#
# Elastic Constant Matrix: (Units=GPa)
#
#
# Indices 1 2 3 4 5 6 
#
# 1 77.8078 41.5235 48.2650 0.0000 -5.4036 0.0000
# 2 41.5235 116.0250 51.6112 0.0000 -4.9713 0.0000
# 3 48.2650 51.6112 60.9025 0.0000 -14.6722 0.0000
# 4 0.0000 0.0000 0.0000 30.3041 0.0000 2.9561
# 5 -5.4036 -4.9713 -14.6722 0.0000 19.9317 0.0000
# 6 0.0000 0.0000 0.0000 2.9561 0.0000 30.9243
#
#
#
# Elastic Compliance Matrix: (Units=1/GPa)
#
#
# Indices 1 2 3 4 5 6 
#
# 1 0.026936 0.000864 -0.024638 0.000000 -0.010618 0.000000
# 2 0.000864 0.014543 -0.014683 0.000000 -0.006947 0.000000
# 3 -0.024638 -0.014683 0.055791 0.000000 0.030727 0.000000
# 4 0.000000 0.000000 0.000000 0.033309 0.000000 -0.003184
# 5 -0.010618 -0.006947 0.030727 0.000000 0.068179 0.000000
# 6 0.000000 0.000000 0.000000 -0.003184 0.000000 0.032641
#
#
# Mechanical properties :
#
#
# Convention : Reuss Voigt Hill
#
# Bulk Modulus (GPa) = 49.12193 59.72611 54.42402
# Shear Modulus (GPa) = 15.86800 23.78771 19.82785
#
# Velocity S-wave (km/s) = 2.93414 3.59250 3.27988
# Velocity P-wave (km/s) = 6.17496 7.04362 6.62354
#
# Compressibility (1/GPa) = 0.02035751
#
# Stress axis : x y z
#
# Youngs Moduli (GPa) = 37.12446 68.75987 17.92411
#
# Poissons Ratio (x) = -0.05944 0.44161
# Poissons Ratio (y) = -0.03209 0.26319
# Poissons Ratio (z) = 0.91466 1.00962
#
# Static dielectric constant tensor:
#      x y z
#    x 3.382550 0.000000 -0.092910 
#    y 0.000000 3.498490 0.000000 
#    z -0.092910 0.000000 3.170610 
# 
# 
# High freq. dielectric constant tensor:
#      x y z
#    x 1.720140 0.000000 -0.007270 
#    y 0.000000 1.724560 0.000000 
#    z -0.007270 0.000000 1.697660 
# 
# From -- ./inp_files/12469.got.cif
#   From: 2010.06.25/outbox.cif.g09.slc.cpg/sg11_7_cif.got.tgz:12469.got - 2010.06.27 23:14:04.
