data_PCOD8073060
_publ_section_title
;
Structure prediction by ZEFSAII (Michael W. Deem and Ramdas Pophale) SiO2 
 PCOD8073060
Probable space group: P 21/M
;
_chemical_formula_sum "Si O2"
_cell_formula_units_Z 32
_cell_length_a 15.117766
_cell_length_b 17.867645
_cell_length_c 13.151484
_cell_angle_alpha 90.000000
_cell_angle_beta 29.547788
_cell_angle_gamma 90.000000
_cell_volume 1751.895229
_symmetry_space_group_name_H-M "P 21/M"
_symmetry_group_IT_number 11
_symmetry_cell_setting 'monoclinic'
loop_
_space_group_symop_operation_xyz
x,y,z
-x,1/2+y,-z
-x,-y,-z
x,1/2-y,z
loop_
_atom_site_type_symbol
_atom_site_label
_atom_site_fract_x
_atom_site_fract_y
_atom_site_fract_z
Si Si1 0.205700 0.116616 0.926371
Si Si2 0.787276 0.666195 0.300456
Si Si3 0.794181 0.961893 0.439426
Si Si4 0.500016 0.485237 0.881823
Si Si5 0.500021 0.167946 0.780781
Si Si6 0.787274 0.333804 0.125014
Si Si7 0.794369 0.383383 0.337721
Si Si8 0.794120 0.461890 0.972287
O O1 0.281096 0.134679 0.738992
O O2 0.322408 0.161993 0.890209
O O3 0.000036 0.142921 0.144533
O O4 0.225693 0.028117 0.925593
O O5 0.712341 0.750000 0.393250
O O6 0.720179 0.612976 0.458730
O O7 0.000001 0.665316 0.086756
O O8 0.000033 0.953339 0.269357
O O9 0.676653 0.977875 0.656321
O O10 0.774381 0.028115 0.376910
O O11 0.499985 0.395679 0.866857
O O12 0.500000 0.500000 0.000000
O O13 0.323422 0.522144 0.009534
O O14 0.500009 0.250000 0.832863
O O15 0.677685 0.161986 0.534971
O O16 0.712334 0.250000 0.182102
O O17 0.718934 0.365316 0.301184
O O18 0.720144 0.387023 0.100978
#
# Coordination Sequence:
#
# PCOD8073060 Si02
#       8
#     4   4   4   4   4   4   4   4
#     4   9  17  30  49  73 103 136 163 188 227 284
#     4   9  16  27  46  74 107 137 162 190 227 279
#     4   9  18  33  52  72  97 130 164 199 240 287
#     4  10  22  39  55  71  91 121 166 211 251 294
#     4  10  20  33  51  75  99 123 158 205 247 282
#     4   9  16  27  46  74 107 137 162 190 227 279
#     4   9  17  30  49  73 103 136 163 188 227 284
#     4   9  18  33  52  72  97 130 164 199 240 287
#
# _framework density 18.265933
#
# number of rings (size 3 to 8) (size 9 to 14) (size 15 to 20)
#    0.000    2.750    0.000    1.500    0.000    6.000 
#    0.000    6.875    0.000    0.000    0.000    0.000 
#    0.000    0.000    0.000    0.000    0.000    0.000 
#
# Total GULP energy -396744.772748 kJ/mol
# GULP energy per Si atom -12398.274148 kJ/mol
# Density = 1.822436 g / cm^3
# Si number density = 18.265933 Si / 1000 Ang^3
#
#
#
# Elastic Constant Matrix: (Units=GPa)
#
#
# Indices 1 2 3 4 5 6 
#
# 1 100.0046 67.1010 60.5698 0.0000 19.7456 0.0000
# 2 67.1010 142.6198 51.1743 0.0000 19.5140 0.0000
# 3 60.5698 51.1743 79.1639 0.0000 5.6821 0.0000
# 4 0.0000 0.0000 0.0000 11.6917 0.0000 2.5458
# 5 19.7456 19.5140 5.6821 0.0000 28.9841 0.0000
# 6 0.0000 0.0000 0.0000 2.5458 0.0000 13.7519
#
#
#
# Elastic Compliance Matrix: (Units=1/GPa)
#
#
# Indices 1 2 3 4 5 6 
#
# 1 0.024024 -0.004628 -0.014644 0.000000 -0.010380 0.000000
# 2 -0.004628 0.010816 -0.003200 0.000000 -0.003502 0.000000
# 3 -0.014644 -0.003200 0.025392 0.000000 0.007153 0.000000
# 4 0.000000 0.000000 0.000000 0.089123 0.000000 -0.016499
# 5 -0.010380 -0.003502 0.007153 0.000000 0.042528 0.000000
# 6 0.000000 0.000000 0.000000 -0.016499 0.000000 0.075772
#
#
# Mechanical properties :
#
#
# Convention : Reuss Voigt Hill
#
# Bulk Modulus (GPa) = 65.41220 75.49761 70.45490
# Shear Modulus (GPa) = 15.73832 20.41509 18.07671
#
# Velocity S-wave (km/s) = 2.93852 3.34677 3.14927
# Velocity P-wave (km/s) = 6.88491 7.50711 7.20273
#
# Compressibility (1/GPa) = 0.01528767
#
# Stress axis : x y z
#
# Youngs Moduli (GPa) = 41.62493 92.45215 39.38301
#
# Poissons Ratio (x) = 0.42789 0.57674
# Poissons Ratio (y) = 0.19265 0.12601
# Poissons Ratio (z) = 0.60957 0.29581
#
# Static dielectric constant tensor:
#      x y z
#    x 3.091810 0.000000 -0.240030 
#    y 0.000000 3.649500 0.000000 
#    z -0.240030 0.000000 3.286490 
# 
# 
# High freq. dielectric constant tensor:
#      x y z
#    x 1.677820 0.000000 -0.023570 
#    y 0.000000 1.716220 0.000000 
#    z -0.023570 0.000000 1.696940 
# 
# From -- ./inp_files/18626.got.cif
#   From: 2010.06.25/outbox.cif.g09.slc.cpg/sg11_10_cif.got.tgz:18626.got - 2010.06.27 23:14:04.
