data_PCOD8073707
_publ_section_title
;
Structure prediction by ZEFSAII (Michael W. Deem and Ramdas Pophale) SiO2 
 PCOD8073707
Probable space group: P 21/M
;
_chemical_formula_sum "Si O2"
_cell_formula_units_Z 32
_cell_length_a 20.561790
_cell_length_b 9.100707
_cell_length_c 11.353412
_cell_angle_alpha 90.000000
_cell_angle_beta 52.418424
_cell_angle_gamma 90.000000
_cell_volume 1683.658236
_symmetry_space_group_name_H-M "P 21/M"
_symmetry_group_IT_number 11
_symmetry_cell_setting 'monoclinic'
loop_
_space_group_symop_operation_xyz
x,y,z
-x,1/2+y,-z
-x,-y,-z
x,1/2-y,z
loop_
_atom_site_type_symbol
_atom_site_label
_atom_site_fract_x
_atom_site_fract_y
_atom_site_fract_z
Si Si1 0.328673 0.417048 0.002529
Si Si2 0.543977 0.078850 0.282804
Si Si3 0.083141 0.923877 0.373310
Si Si4 0.389218 0.921830 0.535696
Si Si5 0.086091 0.419377 0.908213
Si Si6 0.238918 0.420517 0.594337
Si Si7 0.773018 0.580525 0.661748
Si Si8 0.157524 0.080709 0.078974
O O1 0.358757 0.250000 0.955151
O O2 0.302763 0.449846 0.166186
O O3 0.253075 0.448787 0.998188
O O4 0.403248 0.523137 0.886230
O O5 0.527245 0.250000 0.286406
O O6 0.592740 0.041107 0.348331
O O7 0.456377 0.998925 0.378491
O O8 0.074011 0.750000 0.388528
O O9 0.152321 0.974953 0.388336
O O10 0.103670 0.973714 0.218647
O O11 0.000000 0.000000 0.500000
O O12 0.392229 0.750000 0.507190
O O13 0.299881 0.982715 0.604393
O O14 0.063048 0.250000 0.931053
O O15 0.145010 0.461548 0.733256
O O16 0.137653 0.460303 0.967311
O O17 0.000000 0.500000 0.000000
O O18 0.255267 0.250000 0.605815
O O19 0.254317 0.455266 0.440413
O O20 0.801889 0.750000 0.642754
O O21 0.135884 0.250000 0.132987
#
# Coordination Sequence:
#
# PCOD8073707 Si02
#       8
#     4   4   4   4   4   4   4   4
#     4   9  17  33  57  81 109 143 181 230 278 324
#     4  10  20  34  56  85 116 145 183 230 273 327
#     4  11  22  35  55  79 105 138 182 233 281 328
#     4  10  21  36  56  85 115 146 183 226 277 329
#     4  10  22  37  55  81 111 145 184 228 277 331
#     4  10  21  39  60  80 111 150 185 224 277 335
#     4   9  20  38  57  80 110 146 187 226 276 334
#     4   9  19  36  54  77 109 142 181 226 276 329
#
# _framework density 19.006233000000002
#
# number of rings (size 3 to 8) (size 9 to 14) (size 15 to 20)
#    0.000    2.250    0.000    3.375    1.750    6.000 
#    0.000    0.625    0.000    0.000    0.000    0.000 
#    0.000    0.000    0.000    0.000    0.000    0.000 
#
# Total GULP energy -396869.103191 kJ/mol
# GULP energy per Si atom -12402.159475 kJ/mol
# Density = 1.896297 g / cm^3
# Si number density = 19.006233 Si / 1000 Ang^3
#
#
#
# Elastic Constant Matrix: (Units=GPa)
#
#
# Indices 1 2 3 4 5 6 
#
# 1 61.1051 29.2184 42.0512 0.0000 -1.5850 0.0000
# 2 29.2184 95.0743 53.5751 0.0000 -10.6544 0.0000
# 3 42.0512 53.5751 114.8002 0.0000 -11.9279 0.0000
# 4 0.0000 0.0000 0.0000 34.6130 0.0000 -5.9557
# 5 -1.5850 -10.6544 -11.9279 0.0000 29.4972 0.0000
# 6 0.0000 0.0000 0.0000 -5.9557 0.0000 31.0912
#
#
#
# Elastic Compliance Matrix: (Units=1/GPa)
#
#
# Indices 1 2 3 4 5 6 
#
# 1 0.022751 -0.003321 -0.007079 0.000000 -0.002840 0.000000
# 2 -0.003321 0.014945 -0.005444 0.000000 0.003018 0.000000
# 3 -0.007079 -0.005444 0.014197 0.000000 0.003394 0.000000
# 4 0.000000 0.000000 0.000000 0.029876 0.000000 0.005723
# 5 -0.002840 0.003018 0.003394 0.000000 0.036212 0.000000
# 6 0.000000 0.000000 0.000000 0.005723 0.000000 0.033260
#
#
# Mechanical properties :
#
#
# Convention : Reuss Voigt Hill
#
# Bulk Modulus (GPa) = 49.49393 57.85213 53.67303
# Shear Modulus (GPa) = 26.36244 28.78260 27.57252
#
# Velocity S-wave (km/s) = 3.72834 3.89572 3.81295
# Velocity P-wave (km/s) = 6.68068 7.12321 6.90549
#
# Compressibility (1/GPa) = 0.02020450
#
# Stress axis : x y z
#
# Youngs Moduli (GPa) = 43.95375 66.91235 70.43630
#
# Poissons Ratio (x) = 0.22223 0.49861
# Poissons Ratio (y) = 0.14598 0.38348
# Poissons Ratio (z) = 0.31114 0.36430
#
# Static dielectric constant tensor:
#      x y z
#    x 3.294730 0.000000 -0.040190 
#    y 0.000000 3.452840 0.000000 
#    z -0.040190 0.000000 3.504410 
# 
# 
# High freq. dielectric constant tensor:
#      x y z
#    x 1.722130 0.000000 -0.001730 
#    y 0.000000 1.736410 0.000000 
#    z -0.001730 0.000000 1.748650 
# 
# From -- ./inp_files/42775.got.cif
#   From: 2010.06.25/outbox.cif.g09.slc.cpg/sg11_22_cif.got.tgz:42775.got - 2010.06.27 23:14:04.
