data_PCOD8073305
_publ_section_title
;
Structure prediction by ZEFSAII (Michael W. Deem and Ramdas Pophale) SiO2 
 PCOD8073305
Probable space group: P 21/M
;
_chemical_formula_sum "Si O2"
_cell_formula_units_Z 24
_cell_length_a 20.980090
_cell_length_b 8.936041
_cell_length_c 9.673715
_cell_angle_alpha 90.000000
_cell_angle_beta 132.026015
_cell_angle_gamma 90.000000
_cell_volume 1347.229594
_symmetry_space_group_name_H-M "P 21/M"
_symmetry_group_IT_number 11
_symmetry_cell_setting 'monoclinic'
loop_
_space_group_symop_operation_xyz
x,y,z
-x,1/2+y,-z
-x,-y,-z
x,1/2-y,z
loop_
_atom_site_type_symbol
_atom_site_label
_atom_site_fract_x
_atom_site_fract_y
_atom_site_fract_z
Si Si1 0.588574 0.081803 0.468509
Si Si2 0.929819 0.428865 0.996233
Si Si3 0.066609 0.428599 0.700708
Si Si4 0.579527 0.083095 0.784915
Si Si5 0.243913 0.082294 0.276140
Si Si6 0.256121 0.085213 0.966015
O O1 0.597401 0.250000 0.426016
O O2 0.585063 0.078430 0.628360
O O3 0.501089 0.013394 0.279623
O O4 0.670212 0.988125 0.532563
O O5 0.935752 0.250000 0.006535
O O6 0.836992 0.478721 0.803547
O O7 0.947180 0.493585 0.172788
O O8 0.000000 0.500000 0.000000
O O9 0.054514 0.250000 0.698615
O O10 0.161724 0.466871 0.779436
O O11 0.000000 0.500000 0.500000
O O12 0.566132 0.250000 0.820396
O O13 0.668695 0.022826 0.979269
O O14 0.230388 0.250000 0.315700
O O15 0.254981 0.089352 0.129007
O O16 0.276754 0.250000 0.938071
#
# Coordination Sequence:
#
# PCOD8073305 Si02
#       6
#     4   4   4   4   4   4
#     4   9  15  22  33  51  77 110 145 180 222 272
#     4  11  21  34  51  71  96 127 162 200 242 287
#     4  10  20  34  51  72  97 127 162 200 242 287
#     4   9  15  21  32  51  76 108 145 182 221 268
#     4   9  16  27  41  59  84 114 149 188 230 277
#     4   8  15  26  39  56  82 114 147 184 227 275
#
# _framework density 17.814335
#
# number of rings (size 3 to 8) (size 9 to 14) (size 15 to 20)
#    0.000    2.667    0.000    4.500    0.000    8.667 
#    0.000    0.000    0.000    0.000    0.000    0.000 
#    0.000    1.333    0.000    5.000    0.000   13.333 
#
# Total GULP energy -297485.434409 kJ/mol
# GULP energy per Si atom -12395.226434 kJ/mol
# Density = 1.777379 g / cm^3
# Si number density = 17.814335 Si / 1000 Ang^3
#
#
#
# Elastic Constant Matrix: (Units=GPa)
#
#
# Indices 1 2 3 4 5 6 
#
# 1 85.2540 61.6665 52.8491 0.0000 37.2718 0.0000
# 2 61.6665 166.4497 58.1029 0.0000 31.8149 0.0000
# 3 52.8491 58.1029 76.7186 0.0000 40.9311 0.0000
# 4 0.0000 0.0000 0.0000 25.0863 0.0000 12.4442
# 5 37.2718 31.8149 40.9311 0.0000 33.7067 0.0000
# 6 0.0000 0.0000 0.0000 12.4442 0.0000 29.6763
#
#
#
# Elastic Compliance Matrix: (Units=1/GPa)
#
#
# Indices 1 2 3 4 5 6 
#
# 1 0.026110 -0.004484 -0.004103 0.000000 -0.019657 0.000000
# 2 -0.004484 0.008941 -0.005184 0.000000 0.002814 0.000000
# 3 -0.004103 -0.005184 0.041906 0.000000 -0.041457 0.000000
# 4 0.000000 0.000000 0.000000 0.050332 0.000000 -0.021106
# 5 -0.019657 0.002814 -0.041457 0.000000 0.099091 0.000000
# 6 0.000000 0.000000 0.000000 -0.021106 0.000000 0.042547
#
#
# Mechanical properties :
#
#
# Convention : Reuss Voigt Hill
#
# Bulk Modulus (GPa) = 20.23683 74.85102 47.54392
# Shear Modulus (GPa) = 15.97750 28.08077 22.02914
#
# Velocity S-wave (km/s) = 2.99806 3.97457 3.52034
# Velocity P-wave (km/s) = 4.83415 7.94805 6.57801
#
# Compressibility (1/GPa) = 0.04941487
#
# Stress axis : x y z
#
# Youngs Moduli (GPa) = 38.29890 111.84872 23.86316
#
# Poissons Ratio (x) = 0.50151 0.09791
# Poissons Ratio (y) = 0.17173 0.12370
# Poissons Ratio (z) = 0.15715 0.57981
#
# Static dielectric constant tensor:
#      x y z
#    x 3.171560 0.000000 0.588850 
#    y 0.000000 3.571530 0.000000 
#    z 0.588850 0.000000 3.085110 
# 
# 
# High freq. dielectric constant tensor:
#      x y z
#    x 1.662580 0.000000 0.057160 
#    y 0.000000 1.708080 0.000000 
#    z 0.057160 0.000000 1.647640 
# 
# From -- ./inp_files/25951.got.cif
#   From: 2010.06.25/outbox.cif.g09.slc.cpg/sg11_13_cif.got.tgz:25951.got - 2010.06.27 23:14:04.
