data_PCOD8073249
_publ_section_title
;
Structure prediction by ZEFSAII (Michael W. Deem and Ramdas Pophale) SiO2 
 PCOD8073249
Probable space group: P 21/M
;
_chemical_formula_sum "Si O2"
_cell_formula_units_Z 32
_cell_length_a 12.094595
_cell_length_b 8.911039
_cell_length_c 19.783857
_cell_angle_alpha 90.000000
_cell_angle_beta 125.347967
_cell_angle_gamma 90.000000
_cell_volume 1739.147272
_symmetry_space_group_name_H-M "P 21/M"
_symmetry_group_IT_number 11
_symmetry_cell_setting 'monoclinic'
loop_
_space_group_symop_operation_xyz
x,y,z
-x,1/2+y,-z
-x,-y,-z
x,1/2-y,z
loop_
_atom_site_type_symbol
_atom_site_label
_atom_site_fract_x
_atom_site_fract_y
_atom_site_fract_z
Si Si1 0.405590 0.578449 0.134014
Si Si2 0.361366 0.074139 0.473941
Si Si3 0.616346 0.076984 0.383070
Si Si4 0.358986 0.577115 0.966767
Si Si5 0.314907 0.574733 0.741486
Si Si6 0.850431 0.573057 0.205827
Si Si7 0.866483 0.575852 0.712505
Si Si8 0.679074 0.577379 0.769376
O O1 0.447863 0.750000 0.162692
O O2 0.327902 0.562592 0.035541
O O3 0.540740 0.479024 0.179360
O O4 0.304886 0.522027 0.157450
O O5 0.383394 0.250000 0.478834
O O6 0.241102 0.025210 0.381805
O O7 0.500000 0.000000 0.500000
O O8 0.321087 0.023160 0.535217
O O9 0.630249 0.250000 0.408813
O O10 0.697882 0.042178 0.343002
O O11 0.458910 0.033549 0.318186
O O12 0.366461 0.750000 0.946825
O O13 0.500000 0.500000 0.000000
O O14 0.238018 0.497668 0.884944
O O15 0.301893 0.750000 0.752461
O O16 0.195539 0.487408 0.737263
O O17 0.832301 0.750000 0.197487
O O18 0.005271 0.530089 0.249314
O O19 0.907127 0.750000 0.717830
O O20 0.805108 0.547433 0.765097
O O21 0.670082 0.750000 0.788890
#
# Coordination Sequence:
#
# PCOD8073249 Si02
#       8
#     4   4   4   4   4   4   4   4
#     4  10  20  33  55  88 117 142 187 240 281 332
#     4  11  21  35  58  86 116 150 191 238 284 337
#     4   9  18  34  56  86 115 144 188 236 284 336
#     4  11  22  37  59  86 117 152 190 237 285 337
#     4  10  20  36  58  81 114 155 188 229 287 344
#     4  12  25  39  58  86 116 149 194 241 288 344
#     4  10  22  41  59  80 115 157 195 230 285 350
#     4   9  18  35  57  81 114 153 189 229 284 343
#
# _framework density 18.399822
#
# number of rings (size 3 to 8) (size 9 to 14) (size 15 to 20)
#    0.000    1.750    2.500    3.375    0.000    5.500 
#    0.000    1.250    0.000    0.000    0.000    0.000 
#    0.000    0.000    0.000    0.000    0.000    0.000 
#
# Total GULP energy -396894.510601 kJ/mol
# GULP energy per Si atom -12402.953456 kJ/mol
# Density = 1.835794 g / cm^3
# Si number density = 18.399822 Si / 1000 Ang^3
#
#
#
# Elastic Constant Matrix: (Units=GPa)
#
#
# Indices 1 2 3 4 5 6 
#
# 1 109.1061 55.9388 58.3802 0.0000 -6.8135 0.0000
# 2 55.9388 117.9153 62.9829 0.0000 -2.2859 0.0000
# 3 58.3802 62.9829 106.4699 0.0000 -7.8128 0.0000
# 4 0.0000 0.0000 0.0000 32.3126 0.0000 -3.1358
# 5 -6.8135 -2.2859 -7.8128 0.0000 28.0292 0.0000
# 6 0.0000 0.0000 0.0000 -3.1358 0.0000 33.1615
#
#
#
# Elastic Compliance Matrix: (Units=1/GPa)
#
#
# Indices 1 2 3 4 5 6 
#
# 1 0.014074 -0.003782 -0.005361 0.000000 0.001618 0.000000
# 2 -0.003782 0.013445 -0.005989 0.000000 -0.001492 0.000000
# 3 -0.005361 -0.005989 0.016072 0.000000 0.002688 0.000000
# 4 0.000000 0.000000 0.000000 0.031234 0.000000 0.002954
# 5 0.001618 -0.001492 0.002688 0.000000 0.036698 0.000000
# 6 0.000000 0.000000 0.000000 0.002954 0.000000 0.030435
#
#
# Mechanical properties :
#
#
# Convention : Reuss Voigt Hill
#
# Bulk Modulus (GPa) = 75.03754 76.45502 75.74628
# Shear Modulus (GPa) = 28.30209 29.11326 28.70768
#
# Velocity S-wave (km/s) = 3.92621 3.98208 3.95424
# Velocity P-wave (km/s) = 7.83733 7.92369 7.88063
#
# Compressibility (1/GPa) = 0.01332666
#
# Stress axis : x y z
#
# Youngs Moduli (GPa) = 71.05281 74.37788 62.21849
#
# Poissons Ratio (x) = 0.28127 0.33358
# Poissons Ratio (y) = 0.26870 0.37265
# Poissons Ratio (z) = 0.38094 0.44547
#
# Static dielectric constant tensor:
#      x y z
#    x 3.438060 0.000000 -0.298620 
#    y 0.000000 3.465300 0.000000 
#    z -0.298620 0.000000 3.065000 
# 
# 
# High freq. dielectric constant tensor:
#      x y z
#    x 1.709890 0.000000 -0.025080 
#    y 0.000000 1.721930 0.000000 
#    z -0.025080 0.000000 1.702290 
# 
# From -- ./inp_files/64424.got.cif
#   From: 2010.06.25/outbox.cif.g09.slc.cpg/sg11_33_cif.got.tgz:64424.got - 2010.06.27 23:14:04.
