data_PCOD8073522
_publ_section_title
;
Structure prediction by ZEFSAII (Michael W. Deem and Ramdas Pophale) SiO2 
 PCOD8073522
Probable space group: P 21/M
;
_chemical_formula_sum "Si O2"
_cell_formula_units_Z 32
_cell_length_a 25.686517
_cell_length_b 8.879731
_cell_length_c 15.829843
_cell_angle_alpha 90.000000
_cell_angle_beta 28.795822
_cell_angle_gamma 90.000000
_cell_volume 1739.198139
_symmetry_space_group_name_H-M "P 21/M"
_symmetry_group_IT_number 11
_symmetry_cell_setting 'monoclinic'
loop_
_space_group_symop_operation_xyz
x,y,z
-x,1/2+y,-z
-x,-y,-z
x,1/2-y,z
loop_
_atom_site_type_symbol
_atom_site_label
_atom_site_fract_x
_atom_site_fract_y
_atom_site_fract_z
Si Si1 0.199812 0.921469 0.394040
Si Si2 0.715336 0.574780 0.889084
Si Si3 0.969471 0.575059 0.794678
Si Si4 0.462026 0.575359 0.639220
Si Si5 0.220031 0.574770 0.037349
Si Si6 0.478393 0.925204 0.279366
Si Si7 0.264599 0.574878 0.487570
Si Si8 0.950544 0.928001 0.153054
O O1 0.219868 0.750000 0.336221
O O2 0.265119 0.956601 0.386868
O O3 0.073170 0.952285 0.588081
O O4 0.242690 0.034999 0.263040
O O5 0.734921 0.750000 0.879143
O O6 0.782363 0.479994 0.862462
O O7 0.588791 0.532701 0.074161
O O8 0.958485 0.750000 0.833747
O O9 0.980068 0.482837 0.865835
O O10 0.864786 0.520245 0.894778
O O11 0.500000 0.500000 0.500000
O O12 0.486144 0.750000 0.598399
O O13 0.336135 0.540513 0.831835
O O14 0.531435 0.511785 0.618313
O O15 0.189848 0.750000 0.077298
O O16 0.473066 0.750000 0.308410
O O17 0.380390 0.975010 0.358650
O O18 0.238660 0.750000 0.541729
O O19 0.173881 0.477200 0.662767
O O20 0.957979 0.750000 0.136341
O O21 0.000000 0.000000 0.000000
#
# Coordination Sequence:
#
# PCOD8073522 Si02
#       8
#     4   4   4   4   4   4   4   4
#     4   9  19  35  54  77 107 141 175 216 267 318
#     4  10  20  34  54  80 108 141 180 220 264 314
#     4  10  21  38  58  80 107 140 178 220 267 317
#     4  10  21  36  55  79 107 139 175 217 264 315
#     4  10  21  37  56  79 107 140 178 220 267 316
#     4   9  19  36  56  78 107 141 177 219 264 311
#     4   9  19  37  57  78 108 143 178 219 266 313
#     4  11  22  37  57  81 109 141 178 219 264 315
#
# _framework density 18.399283
#
# number of rings (size 3 to 8) (size 9 to 14) (size 15 to 20)
#    0.000    2.250    0.000    3.375    0.000    7.000 
#    0.000    1.250    0.000    0.000    0.000    0.000 
#    0.000    0.000    0.000    0.000    0.000    0.000 
#
# Total GULP energy -396927.154851 kJ/mol
# GULP energy per Si atom -12403.973589 kJ/mol
# Density = 1.835741 g / cm^3
# Si number density = 18.399283 Si / 1000 Ang^3
#
#
#
# Elastic Constant Matrix: (Units=GPa)
#
#
# Indices 1 2 3 4 5 6 
#
# 1 122.6059 54.8981 67.8645 0.0000 -5.9046 0.0000
# 2 54.8981 94.9925 51.1707 0.0000 4.8011 0.0000
# 3 67.8645 51.1707 80.7813 0.0000 12.4455 0.0000
# 4 0.0000 0.0000 0.0000 32.6529 0.0000 3.6411
# 5 -5.9046 4.8011 12.4455 0.0000 36.3166 0.0000
# 6 0.0000 0.0000 0.0000 3.6411 0.0000 36.1854
#
#
#
# Elastic Compliance Matrix: (Units=1/GPa)
#
#
# Indices 1 2 3 4 5 6 
#
# 1 0.017838 -0.002990 -0.014357 0.000000 0.008216 0.000000
# 2 -0.002990 0.016552 -0.007982 0.000000 0.000061 0.000000
# 3 -0.014357 -0.007982 0.031349 0.000000 -0.012022 0.000000
# 4 0.000000 0.000000 0.000000 0.030973 0.000000 -0.003117
# 5 0.008216 0.000061 -0.012022 0.000000 0.032983 0.000000
# 6 0.000000 0.000000 0.000000 -0.003117 0.000000 0.027949
#
#
# Mechanical properties :
#
#
# Convention : Reuss Voigt Hill
#
# Bulk Modulus (GPa) = 66.31388 71.80515 69.05951
# Shear Modulus (GPa) = 23.43797 29.32741 26.38269
#
# Velocity S-wave (km/s) = 3.57298 3.99675 3.79079
# Velocity P-wave (km/s) = 7.28981 7.77235 7.53495
#
# Compressibility (1/GPa) = 0.01507980
#
# Stress axis : x y z
#
# Youngs Moduli (GPa) = 56.06139 60.41579 31.89887
#
# Poissons Ratio (x) = 0.18065 0.45797
# Poissons Ratio (y) = 0.16763 0.25463
# Poissons Ratio (z) = 0.80488 0.48226
#
# Static dielectric constant tensor:
#      x y z
#    x 2.921580 0.000000 -0.860980 
#    y 0.000000 3.176130 0.000000 
#    z -0.860980 0.000000 2.334040 
# 
# 
# High freq. dielectric constant tensor:
#      x y z
#    x 1.720750 0.000000 0.000050 
#    y 0.000000 1.721910 0.000000 
#    z 0.000050 0.000000 1.709730 
# 
# From -- ./inp_files/51662.got.cif
#   From: 2010.06.25/outbox.cif.g09.slc.cpg/sg11_26_cif.got.tgz:51662.got - 2010.06.27 23:14:04.
