data_PCOD8073087
_publ_section_title
;
Structure prediction by ZEFSAII (Michael W. Deem and Ramdas Pophale) SiO2 
 PCOD8073087
Probable space group: P 21/M
;
_chemical_formula_sum "Si O2"
_cell_formula_units_Z 28
_cell_length_a 11.638284
_cell_length_b 9.175919
_cell_length_c 15.576201
_cell_angle_alpha 90.000000
_cell_angle_beta 63.317861
_cell_angle_gamma 90.000000
_cell_volume 1486.278409
_symmetry_space_group_name_H-M "P 21/M"
_symmetry_group_IT_number 11
_symmetry_cell_setting 'monoclinic'
loop_
_space_group_symop_operation_xyz
x,y,z
-x,1/2+y,-z
-x,-y,-z
x,1/2-y,z
loop_
_atom_site_type_symbol
_atom_site_label
_atom_site_fract_x
_atom_site_fract_y
_atom_site_fract_z
Si Si1 0.934542 0.922912 0.768847
Si Si2 0.105870 0.418009 0.411029
Si Si3 0.533608 0.919692 0.116218
Si Si4 0.553301 0.583131 0.303924
Si Si5 0.298982 0.919949 0.074431
Si Si6 0.803828 0.918367 0.322185
Si Si7 0.669146 0.581470 0.540638
O O1 0.931741 0.750000 0.782235
O O2 0.894763 0.971838 0.686461
O O3 0.834053 0.996219 0.866919
O O4 0.075438 0.982808 0.743356
O O5 0.068853 0.250000 0.429346
O O6 0.245641 0.448759 0.403597
O O7 0.000000 0.500000 0.500000
O O8 0.572762 0.750000 0.096037
O O9 0.532886 0.975274 0.214378
O O10 0.392985 0.947190 0.123642
O O11 0.638415 0.016170 0.032404
O O12 0.510743 0.750000 0.323738
O O13 0.701416 0.562552 0.280308
O O14 0.465623 0.498827 0.401672
O O15 0.271054 0.750000 0.070093
O O16 0.847028 0.750000 0.317563
O O17 0.743524 0.976645 0.431718
O O18 0.637412 0.750000 0.537756
#
# Coordination Sequence:
#
# PCOD8073087 Si02
#       7
#     4   4   4   4   4   4   4
#     4  11  22  35  54  81 111 145 182 221 268 319
#     4  10  20  33  51  77 108 141 176 217 264 311
#     4   9  19  37  58  83 111 136 173 224 271 320
#     4  10  21  36  56  80 106 142 183 223 269 318
#     4  10  20  35  59  85 109 140 173 216 275 329
#     4  10  21  37  54  75 109 148 185 223 263 315
#     4  10  20  34  53  78 109 144 180 223 268 313
#
# _framework density 18.839001
#
# number of rings (size 3 to 8) (size 9 to 14) (size 15 to 20)
#    0.000    2.000    1.429    2.143    0.000    3.429 
#    0.000    0.714    0.000    0.000    0.000    0.000 
#    0.000    0.000    0.000    0.000    0.000    0.000 
#
# Total GULP energy -347321.046732 kJ/mol
# GULP energy per Si atom -12404.323098 kJ/mol
# Density = 1.879612 g / cm^3
# Si number density = 18.839001 Si / 1000 Ang^3
#
#
#
# Elastic Constant Matrix: (Units=GPa)
#
#
# Indices 1 2 3 4 5 6 
#
# 1 74.8852 37.3731 44.5507 0.0000 -14.4123 0.0000
# 2 37.3731 74.1771 49.0847 0.0000 -20.1031 0.0000
# 3 44.5507 49.0847 97.4715 0.0000 -20.7923 0.0000
# 4 0.0000 0.0000 0.0000 34.0976 0.0000 -7.8963
# 5 -14.4123 -20.1031 -20.7923 0.0000 32.6762 0.0000
# 6 0.0000 0.0000 0.0000 -7.8963 0.0000 29.7872
#
#
#
# Elastic Compliance Matrix: (Units=1/GPa)
#
#
# Indices 1 2 3 4 5 6 
#
# 1 0.020056 -0.005761 -0.005941 0.000000 0.001521 0.000000
# 2 -0.005761 0.023313 -0.007624 0.000000 0.006950 0.000000
# 3 -0.005941 -0.007624 0.017650 0.000000 0.003920 0.000000
# 4 0.000000 0.000000 0.000000 0.031246 0.000000 0.008283
# 5 0.001521 0.006950 0.003920 0.000000 0.038045 0.000000
# 6 0.000000 0.000000 0.000000 0.008283 0.000000 0.035767
#
#
# Mechanical properties :
#
#
# Convention : Reuss Voigt Hill
#
# Bulk Modulus (GPa) = 44.70993 56.50565 50.60779
# Shear Modulus (GPa) = 23.56429 27.01389 25.28909
#
# Velocity S-wave (km/s) = 3.54054 3.79084 3.66782
# Velocity P-wave (km/s) = 6.36381 7.01568 6.69768
#
# Compressibility (1/GPa) = 0.02236639
#
# Stress axis : x y z
#
# Youngs Moduli (GPa) = 49.85918 42.89542 56.65591
#
# Poissons Ratio (x) = 0.24714 0.33661
# Poissons Ratio (y) = 0.28726 0.43193
# Poissons Ratio (z) = 0.29623 0.32703
#
# Static dielectric constant tensor:
#      x y z
#    x 2.471250 0.000000 -0.722630 
#    y 0.000000 3.346410 0.000000 
#    z -0.722630 0.000000 2.749520 
# 
# 
# High freq. dielectric constant tensor:
#      x y z
#    x 1.730150 0.000000 -0.002160 
#    y 0.000000 1.729630 0.000000 
#    z -0.002160 0.000000 1.727560 
# 
# From -- ./inp_files/37429.got.cif
#   From: 2010.06.25/outbox.cif.g09.slc.cpg/sg11_19_cif.got.tgz:37429.got - 2010.06.27 23:14:04.
