data_PCOD8073011
_publ_section_title
;
Structure prediction by ZEFSAII (Michael W. Deem and Ramdas Pophale) SiO2 
 PCOD8073011
Probable space group: P 21/M
;
_chemical_formula_sum "Si O2"
_cell_formula_units_Z 24
_cell_length_a 11.158576
_cell_length_b 14.293199
_cell_length_c 8.736628
_cell_angle_alpha 90.000000
_cell_angle_beta 66.953573
_cell_angle_gamma 90.000000
_cell_volume 1282.208340
_symmetry_space_group_name_H-M "P 21/M"
_symmetry_group_IT_number 11
_symmetry_cell_setting 'monoclinic'
loop_
_space_group_symop_operation_xyz
x,y,z
-x,1/2+y,-z
-x,-y,-z
x,1/2-y,z
loop_
_atom_site_type_symbol
_atom_site_label
_atom_site_fract_x
_atom_site_fract_y
_atom_site_fract_z
Si Si1 0.625760 0.451302 0.868968
Si Si2 0.121356 0.056971 0.621345
Si Si3 0.720460 0.250000 0.457958
Si Si4 0.374240 0.951302 0.494729
Si Si5 0.279540 0.750000 0.178419
Si Si6 0.016710 0.250000 0.673773
Si Si7 0.016710 0.250000 0.309516
Si Si8 0.121356 0.056971 0.257299
O O1 0.617561 0.454543 0.691219
O O2 0.644001 0.343407 0.915874
O O3 0.746179 0.512407 0.872526
O O4 0.500000 0.500000 0.000000
O O5 0.122642 0.051421 0.438679
O O6 0.101087 0.162413 0.690251
O O7 0.253821 0.012407 0.618705
O O8 0.000000 1.000000 0.748448
O O9 0.644001 0.343407 0.440125
O O10 0.728659 0.250000 0.635670
O O11 0.868634 0.250000 0.318320
O O12 0.500000 0.000000 0.500000
O O13 0.131366 0.750000 0.186955
O O14 0.005599 0.250000 0.497200
O O15 0.101088 0.162413 0.208661
#
# Coordination Sequence:
#
# PCOD8073011 Si02
#       8
#     4   4   2   4   2   2   2   4
#     4  10  20  33  50  74 103 133 164 201 247 298
#     4   9  15  25  44  70  94 118 158 207 243 274
#     4   9  16  29  49  71  97 132 167 198 244 302
#     4  10  20  33  50  74 103 133 164 201 247 298
#     4   9  16  29  49  71  97 132 167 198 244 302
#     4   9  14  23  44  73  97 118 157 212 252 278
#     4   9  14  23  44  73  97 118 157 212 252 278
#     4   9  15  25  44  70  94 118 158 207 243 274
#
# _framework density 18.717707000000001
#
# number of rings (size 3 to 8) (size 9 to 14) (size 15 to 20)
#    0.000    2.667    3.333    0.000    0.000    1.333 
#    0.000    2.500    0.000    1.000    0.000    0.000 
#    0.000    0.000    0.000    0.000    0.000    0.000 
#
# Total GULP energy -297418.621425 kJ/mol
# GULP energy per Si atom -12392.442559 kJ/mol
# Density = 1.867510 g / cm^3
# Si number density = 18.717707 Si / 1000 Ang^3
#
#
#
# Elastic Constant Matrix: (Units=GPa)
#
#
# Indices 1 2 3 4 5 6 
#
# 1 105.3266 79.5109 30.4140 0.0000 -45.7370 0.0000
# 2 79.5109 220.8320 48.6349 0.0000 -46.3723 0.0000
# 3 30.4140 48.6349 51.1395 0.0000 -35.6455 0.0000
# 4 0.0000 0.0000 0.0000 21.3020 0.0000 -13.5559
# 5 -45.7370 -46.3723 -35.6455 0.0000 37.3858 0.0000
# 6 0.0000 0.0000 0.0000 -13.5559 0.0000 30.3278
#
#
#
# Elastic Compliance Matrix: (Units=1/GPa)
#
#
# Indices 1 2 3 4 5 6 
#
# 1 0.028573 -0.004613 0.023166 0.000000 0.051322 0.000000
# 2 -0.004613 0.006911 -0.005329 0.000000 -0.002152 0.000000
# 3 0.023166 -0.005329 0.077490 0.000000 0.095614 0.000000
# 4 0.000000 0.000000 0.000000 0.065604 0.000000 0.029324
# 5 0.051322 -0.002152 0.095614 0.000000 0.178028 0.000000
# 6 0.000000 0.000000 0.000000 0.029324 0.000000 0.046080
#
#
# Mechanical properties :
#
#
# Convention : Reuss Voigt Hill
#
# Bulk Modulus (GPa) = 7.17241 77.15752 42.16497
# Shear Modulus (GPa) = 11.82838 32.38569 22.10703
#
# Velocity S-wave (km/s) = 2.51656 4.16410 3.44041
# Velocity P-wave (km/s) = 3.50490 8.02688 6.19335
#
# Compressibility (1/GPa) = 0.13942314
#
# Stress axis : x y z
#
# Youngs Moduli (GPa) = 34.99807 144.69899 12.90485
#
# Poissons Ratio (x) = 0.66746 -0.29896
# Poissons Ratio (y) = 0.16144 0.06877
# Poissons Ratio (z) = -0.81078 0.77114
#
# Static dielectric constant tensor:
#      x y z
#    x 3.250370 0.000000 -0.419660 
#    y 0.000000 3.973750 0.000000 
#    z -0.419660 0.000000 2.970950 
# 
# 
# High freq. dielectric constant tensor:
#      x y z
#    x 1.701070 0.000000 -0.039330 
#    y 0.000000 1.750630 0.000000 
#    z -0.039330 0.000000 1.674890 
# 
# From -- ./inp_files/35217.got.cif
#   From: 2010.06.25/outbox.cif.g09.slc.cpg/sg11_18_cif.got.tgz:35217.got - 2010.06.27 23:14:04.
