data_PCOD8073890
_publ_section_title
;
Structure prediction by ZEFSAII (Michael W. Deem and Ramdas Pophale) SiO2 
 PCOD8073890
Probable space group: P 21/M
;
_chemical_formula_sum "Si O2"
_cell_formula_units_Z 32
_cell_length_a 28.140462
_cell_length_b 8.950924
_cell_length_c 22.408190
_cell_angle_alpha 90.000000
_cell_angle_beta 18.377285
_cell_angle_gamma 90.000000
_cell_volume 1779.477146
_symmetry_space_group_name_H-M "P 21/M"
_symmetry_group_IT_number 11
_symmetry_cell_setting 'monoclinic'
loop_
_space_group_symop_operation_xyz
x,y,z
-x,1/2+y,-z
-x,-y,-z
x,1/2-y,z
loop_
_atom_site_type_symbol
_atom_site_label
_atom_site_fract_x
_atom_site_fract_y
_atom_site_fract_z
Si Si1 0.351221 0.425134 0.959383
Si Si2 0.171319 0.427583 0.004736
Si Si3 0.544573 0.074316 0.281940
Si Si4 0.573720 0.925249 0.998134
Si Si5 0.221435 0.422237 0.718669
Si Si6 0.924709 0.076989 0.000327
Si Si7 0.727061 0.426301 0.709930
Si Si8 0.967367 0.924451 0.708263
O O1 0.380922 0.250000 0.913657
O O2 0.443088 0.514216 0.800003
O O3 0.408581 0.480521 0.955176
O O4 0.173363 0.461386 0.166887
O O5 0.187648 0.250000 0.985156
O O6 0.337410 0.496547 0.814181
O O7 0.093338 0.482372 0.037841
O O8 0.067937 0.484207 0.183133
O O9 0.573885 0.250000 0.247350
O O10 0.379326 0.032401 0.501875
O O11 0.601832 0.750000 0.959930
O O12 0.699605 0.003802 0.807569
O O13 0.407294 0.971089 0.174809
O O14 0.217626 0.250000 0.743455
O O15 0.092967 0.454115 0.822923
O O16 0.196558 0.523302 0.806470
O O17 0.895565 0.250000 0.021313
O O18 0.738156 0.250000 0.705138
O O19 0.880745 0.496929 0.499730
O O20 0.996629 0.750000 0.677773
#
# Coordination Sequence:
#
# PCOD8073890 Si02
#       8
#     4   4   4   4   4   4   4   4
#     4   9  18  33  50  69  97 129 162 201 245 295
#     4  10  20  35  54  76 104 135 168 207 252 301
#     4  10  20  35  54  76 103 133 168 209 251 297
#     4   9  18  31  47  69  96 125 158 198 243 291
#     4   9  20  37  54  75 104 135 167 207 253 299
#     4  10  20  35  55  78 103 132 169 210 250 296
#     4   9  17  31  49  68  93 125 161 199 240 289
#     4   8  16  31  49  68  92 125 161 197 238 287
#
# _framework density 17.982811000000002
#
# number of rings (size 3 to 8) (size 9 to 14) (size 15 to 20)
#    0.000    2.750    0.000    1.875    0.000    4.000 
#    0.000    4.375    0.000    0.000    0.000    0.000 
#    0.000    0.000    0.000    0.000    0.000    0.000 
#
# Total GULP energy -396822.390142 kJ/mol
# GULP energy per Si atom -12400.699692 kJ/mol
# Density = 1.794188 g / cm^3
# Si number density = 17.982811 Si / 1000 Ang^3
#
#
#
# Elastic Constant Matrix: (Units=GPa)
#
#
# Indices 1 2 3 4 5 6 
#
# 1 79.8268 25.0155 15.9435 0.0000 5.7878 0.0000
# 2 25.0155 51.0269 31.5172 0.0000 3.1063 0.0000
# 3 15.9435 31.5172 114.9147 0.0000 2.9323 0.0000
# 4 0.0000 0.0000 0.0000 26.1915 0.0000 4.1271
# 5 5.7878 3.1063 2.9323 0.0000 14.2951 0.0000
# 6 0.0000 0.0000 0.0000 4.1271 0.0000 30.2181
#
#
#
# Elastic Compliance Matrix: (Units=1/GPa)
#
#
# Indices 1 2 3 4 5 6 
#
# 1 0.015089 -0.007101 -0.000029 0.000000 -0.004560 0.000000
# 2 -0.007101 0.027146 -0.006416 0.000000 -0.001707 0.000000
# 3 -0.000029 -0.006416 0.010485 0.000000 -0.000745 0.000000
# 4 0.000000 0.000000 0.000000 0.039020 0.000000 -0.005329
# 5 -0.004560 -0.001707 -0.000745 0.000000 0.072324 0.000000
# 6 0.000000 0.000000 0.000000 -0.005329 0.000000 0.033821
#
#
# Mechanical properties :
#
#
# Convention : Reuss Voigt Hill
#
# Bulk Modulus (GPa) = 39.02371 43.41339 41.21855
# Shear Modulus (GPa) = 21.41132 25.69375 23.55253
#
# Velocity S-wave (km/s) = 3.45433 3.78404 3.62294
# Velocity P-wave (km/s) = 6.13657 6.57921 6.36174
#
# Compressibility (1/GPa) = 0.02562545
#
# Stress axis : x y z
#
# Youngs Moduli (GPa) = 66.27334 36.83779 95.37447
#
# Poissons Ratio (x) = 0.26160 0.00281
# Poissons Ratio (y) = 0.47064 0.61196
# Poissons Ratio (z) = 0.00195 0.23637
#
# Static dielectric constant tensor:
#      x y z
#    x 3.370410 0.000000 0.019590 
#    y 0.000000 3.205500 0.000000 
#    z 0.019590 0.000000 3.476220 
# 
# 
# High freq. dielectric constant tensor:
#      x y z
#    x 1.698650 0.000000 0.001920 
#    y 0.000000 1.686040 0.000000 
#    z 0.001920 0.000000 1.698710 
# 
# From -- ./inp_files/66998.got.cif
#   From: 2010.06.25/outbox.cif.g09.slc.cpg/sg11_34_cif.got.tgz:66998.got - 2010.06.27 23:14:04.
