data_PCOD8073129
_publ_section_title
;
Structure prediction by ZEFSAII (Michael W. Deem and Ramdas Pophale) SiO2 
 PCOD8073129
Probable space group: P 21/M
;
_chemical_formula_sum "Si O2"
_cell_formula_units_Z 32
_cell_length_a 14.326439
_cell_length_b 8.528620
_cell_length_c 26.475048
_cell_angle_alpha 90.000000
_cell_angle_beta 34.695350
_cell_angle_gamma 90.000000
_cell_volume 1841.316444
_symmetry_space_group_name_H-M "P 21/M"
_symmetry_group_IT_number 11
_symmetry_cell_setting 'monoclinic'
loop_
_space_group_symop_operation_xyz
x,y,z
-x,1/2+y,-z
-x,-y,-z
x,1/2-y,z
loop_
_atom_site_type_symbol
_atom_site_label
_atom_site_fract_x
_atom_site_fract_y
_atom_site_fract_z
Si Si1 0.426106 0.433760 0.584729
Si Si2 0.488440 0.931679 0.081581
Si Si3 0.703448 0.930638 0.748272
Si Si4 0.241061 0.931837 0.103475
Si Si5 0.982310 0.570084 0.351524
Si Si6 0.090954 0.932411 0.720059
Si Si7 0.293543 0.567324 0.461581
Si Si8 0.184064 0.436882 0.411462
O O1 0.500000 0.500000 0.500000
O O2 0.399119 0.250000 0.589712
O O3 0.255915 0.517607 0.675942
O O4 0.543046 0.470564 0.580128
O O5 0.529841 0.750000 0.058230
O O6 0.338236 0.978369 0.111314
O O7 0.444462 0.975281 0.158903
O O8 0.650341 0.026697 0.993587
O O9 0.654324 0.750000 0.769986
O O10 0.740146 0.992645 0.675695
O O11 0.863887 0.956400 0.710710
O O12 0.196402 0.750000 0.123117
O O13 0.071444 0.027642 0.175810
O O14 0.041472 0.750000 0.327053
O O15 0.899404 0.532576 0.335318
O O16 0.853823 0.538726 0.452635
O O17 0.096198 0.750000 0.704772
O O18 0.246798 0.750000 0.486547
O O19 0.308230 0.513644 0.396904
O O20 0.181186 0.250000 0.416548
O O21 0.000000 0.500000 0.500000
#
# Coordination Sequence:
#
# PCOD8073129 Si02
#       8
#     4   4   4   4   4   4   4   4
#     4  11  23  37  55  77 105 141 181 222 266 317
#     4  10  20  33  52  77 106 141 177 216 265 315
#     4  11  22  35  52  76 107 143 181 219 263 315
#     4  10  20  34  52  76 108 141 176 217 263 316
#     4  12  22  32  51  75 105 143 181 220 264 313
#     4  12  23  35  53  77 108 143 181 221 263 316
#     4  11  23  38  54  75 105 140 181 226 269 311
#     4  11  23  36  54  77 106 142 182 222 266 315
#
# _framework density 17.378871
#
# number of rings (size 3 to 8) (size 9 to 14) (size 15 to 20)
#    0.000    1.000    3.750    4.500    0.000    4.000 
#    0.000    0.000    0.000    0.000    0.000    0.875 
#    0.000    0.000    0.000    0.000    0.000    0.000 
#
# Total GULP energy -396889.515425 kJ/mol
# GULP energy per Si atom -12402.797357 kJ/mol
# Density = 1.733932 g / cm^3
# Si number density = 17.378871 Si / 1000 Ang^3
#
#
#
# Elastic Constant Matrix: (Units=GPa)
#
#
# Indices 1 2 3 4 5 6 
#
# 1 88.4669 30.1341 44.8831 0.0000 5.8144 0.0000
# 2 30.1341 67.5526 31.1804 0.0000 -0.9249 0.0000
# 3 44.8831 31.1804 114.5641 0.0000 7.0839 0.0000
# 4 0.0000 0.0000 0.0000 31.7107 0.0000 0.2696
# 5 5.8144 -0.9249 7.0839 0.0000 27.4891 0.0000
# 6 0.0000 0.0000 0.0000 0.2696 0.0000 24.8919
#
#
#
# Elastic Compliance Matrix: (Units=1/GPa)
#
#
# Indices 1 2 3 4 5 6 
#
# 1 0.015413 -0.004784 -0.004598 0.000000 -0.002236 0.000000
# 2 -0.004784 0.018502 -0.003315 0.000000 0.002489 0.000000
# 3 -0.004598 -0.003315 0.011563 0.000000 -0.002119 0.000000
# 4 0.000000 0.000000 0.000000 0.031538 0.000000 -0.000342
# 5 -0.002236 0.002489 -0.002119 0.000000 0.037481 0.000000
# 6 0.000000 0.000000 0.000000 -0.000342 0.000000 0.040177
#
#
# Mechanical properties :
#
#
# Convention : Reuss Voigt Hill
#
# Bulk Modulus (GPa) = 49.79147 53.66432 51.72789
# Shear Modulus (GPa) = 26.77191 27.77739 27.27465
#
# Velocity S-wave (km/s) = 3.92916 4.00227 3.96588
# Velocity P-wave (km/s) = 7.02120 7.23212 7.12744
#
# Compressibility (1/GPa) = 0.02008376
#
# Stress axis : x y z
#
# Youngs Moduli (GPa) = 64.88070 54.04965 86.47929
#
# Poissons Ratio (x) = 0.25856 0.39764
# Poissons Ratio (y) = 0.31037 0.28670
# Poissons Ratio (z) = 0.29833 0.17919
#
# Static dielectric constant tensor:
#      x y z
#    x 3.173750 0.000000 0.042770 
#    y 0.000000 3.307170 0.000000 
#    z 0.042770 0.000000 3.288240 
# 
# 
# High freq. dielectric constant tensor:
#      x y z
#    x 1.640040 0.000000 0.004340 
#    y 0.000000 1.688520 0.000000 
#    z 0.004340 0.000000 1.665330 
# 
# From -- ./inp_files/71607.got.cif
#   From: 2010.06.25/outbox.cif.g09.slc.cpg/sg11_36_cif.got.tgz:71607.got - 2010.06.27 23:14:04.
