data_PCOD8073429
_publ_section_title
;
Structure prediction by ZEFSAII (Michael W. Deem and Ramdas Pophale) SiO2 
 PCOD8073429
Probable space group: P 21/M
;
_chemical_formula_sum "Si O2"
_cell_formula_units_Z 28
_cell_length_a 24.424679
_cell_length_b 8.933039
_cell_length_c 19.417540
_cell_angle_alpha 90.000000
_cell_angle_beta 158.713986
_cell_angle_gamma 90.000000
_cell_volume 1538.003743
_symmetry_space_group_name_H-M "P 21/M"
_symmetry_group_IT_number 11
_symmetry_cell_setting 'monoclinic'
loop_
_space_group_symop_operation_xyz
x,y,z
-x,1/2+y,-z
-x,-y,-z
x,1/2-y,z
loop_
_atom_site_type_symbol
_atom_site_label
_atom_site_fract_x
_atom_site_fract_y
_atom_site_fract_z
Si Si1 0.191466 0.077730 0.789308
Si Si2 0.841943 0.075997 0.832468
Si Si3 0.624455 0.073488 0.693171
Si Si4 0.847334 0.421536 0.399681
Si Si5 0.446410 0.927420 0.595012
Si Si6 0.402654 0.074857 0.826308
Si Si7 0.536349 0.425622 0.835151
O O1 0.239800 0.250000 0.837426
O O2 0.023212 0.062614 0.620619
O O3 0.205884 0.997791 0.733106
O O4 0.295759 0.994797 0.967306
O O5 0.869760 0.250000 0.854938
O O6 0.787349 0.041673 0.847604
O O7 0.708253 0.023219 0.624306
O O8 0.000000 0.000000 0.000000
O O9 0.596706 0.250000 0.666097
O O10 0.500000 0.000000 0.500000
O O11 0.597638 0.997717 0.736275
O O12 0.795606 0.250000 0.334082
O O13 0.764972 0.505341 0.365840
O O14 0.464889 0.750000 0.617465
O O15 0.437316 0.993338 0.660957
O O16 0.397637 0.250000 0.833434
O O17 0.462828 0.034604 0.821858
O O18 0.500000 0.000000 0.000000
O O19 0.543578 0.250000 0.828638
#
# Coordination Sequence:
#
# PCOD8073429 Si02
#       7
#     4   4   4   4   4   4   4
#     4  10  20  34  54  77 103 138 176 221 275 328
#     4   9  19  34  56  86 115 145 181 220 264 318
#     4   9  17  32  54  81 110 142 181 220 260 312
#     4  10  20  34  53  78 104 133 177 227 275 328
#     4  10  21  37  56  81 111 145 185 227 275 329
#     4  11  22  35  54  79 107 143 187 233 283 336
#     4  11  23  37  55  80 109 143 185 231 281 336
#
# _framework density 18.205416
#
# number of rings (size 3 to 8) (size 9 to 14) (size 15 to 20)
#    0.000    2.000    1.429    3.429    0.000    6.857 
#    0.000    1.429    0.000    3.429    0.000    0.000 
#    0.000    0.000    0.000    0.000    0.000    0.000 
#
# Total GULP energy -347110.894102 kJ/mol
# GULP energy per Si atom -12396.817647 kJ/mol
# Density = 1.816398 g / cm^3
# Si number density = 18.205416 Si / 1000 Ang^3
#
#
#
# Elastic Constant Matrix: (Units=GPa)
#
#
# Indices 1 2 3 4 5 6 
#
# 1 115.4250 69.9846 58.6147 0.0000 9.1927 0.0000
# 2 69.9846 111.2670 51.0513 0.0000 5.5404 0.0000
# 3 58.6147 51.0513 89.6656 0.0000 7.4549 0.0000
# 4 0.0000 0.0000 0.0000 32.9585 0.0000 2.3876
# 5 9.1927 5.5404 7.4549 0.0000 28.4281 0.0000
# 6 0.0000 0.0000 0.0000 2.3876 0.0000 35.7910
#
#
#
# Elastic Compliance Matrix: (Units=1/GPa)
#
#
# Indices 1 2 3 4 5 6 
#
# 1 0.016584 -0.007352 -0.006470 0.000000 -0.002233 0.000000
# 2 -0.007352 0.015433 -0.004016 0.000000 0.000423 0.000000
# 3 -0.006470 -0.004016 0.017818 0.000000 -0.001798 0.000000
# 4 0.000000 0.000000 0.000000 0.030488 0.000000 -0.002034
# 5 -0.002233 0.000423 -0.001798 0.000000 0.036288 0.000000
# 6 0.000000 0.000000 0.000000 -0.002034 0.000000 0.028076
#
#
# Mechanical properties :
#
#
# Convention : Reuss Voigt Hill
#
# Bulk Modulus (GPa) = 70.62128 75.07322 72.84725
# Shear Modulus (GPa) = 27.01489 28.54933 27.78211
#
# Velocity S-wave (km/s) = 3.85631 3.96432 3.91069
# Velocity P-wave (km/s) = 7.66184 7.89181 7.77768
#
# Compressibility (1/GPa) = 0.01416004
#
# Stress axis : x y z
#
# Youngs Moduli (GPa) = 60.29740 64.79611 56.12253
#
# Poissons Ratio (x) = 0.47635 0.36311
# Poissons Ratio (y) = 0.44328 0.22540
# Poissons Ratio (z) = 0.39013 0.26024
#
# Static dielectric constant tensor:
#      x y z
#    x 3.565190 0.000000 0.097750 
#    y 0.000000 3.569040 0.000000 
#    z 0.097750 0.000000 3.111240 
# 
# 
# High freq. dielectric constant tensor:
#      x y z
#    x 1.704860 0.000000 0.016130 
#    y 0.000000 1.722840 0.000000 
#    z 0.016130 0.000000 1.684330 
# 
# From -- ./inp_files/66896.got.cif
#   From: 2010.06.25/outbox.cif.g09.slc.cpg/sg11_34_cif.got.tgz:66896.got - 2010.06.27 23:14:04.
