data_PCOD8073374
_publ_section_title
;
Structure prediction by ZEFSAII (Michael W. Deem and Ramdas Pophale) SiO2 
 PCOD8073374
Probable space group: P 21/M
;
_chemical_formula_sum "Si O2"
_cell_formula_units_Z 32
_cell_length_a 11.638590
_cell_length_b 8.934760
_cell_length_c 31.794460
_cell_angle_alpha 90.000000
_cell_angle_beta 149.117849
_cell_angle_gamma 90.000000
_cell_volume 1697.008084
_symmetry_space_group_name_H-M "P 21/M"
_symmetry_group_IT_number 11
_symmetry_cell_setting 'monoclinic'
loop_
_space_group_symop_operation_xyz
x,y,z
-x,1/2+y,-z
-x,-y,-z
x,1/2-y,z
loop_
_atom_site_type_symbol
_atom_site_label
_atom_site_fract_x
_atom_site_fract_y
_atom_site_fract_z
Si Si1 0.307730 0.422391 0.748850
Si Si2 0.841900 0.575660 0.608935
Si Si3 0.468011 0.924621 0.424763
Si Si4 0.848672 0.075506 0.143617
Si Si5 0.371395 0.575432 0.225885
Si Si6 0.859078 0.573802 0.060558
Si Si7 0.475348 0.423998 0.893891
Si Si8 0.629566 0.923000 0.689080
O O1 0.235225 0.250000 0.721372
O O2 0.474275 0.472457 0.764295
O O3 0.436748 0.450121 0.832637
O O4 0.090594 0.524461 0.676802
O O5 0.838425 0.750000 0.618428
O O6 0.750909 0.491511 0.621448
O O7 0.689182 0.537125 0.520794
O O8 0.427409 0.750000 0.406883
O O9 0.502456 0.996222 0.389899
O O10 0.796479 0.250000 0.120396
O O11 0.108043 0.046313 0.234389
O O12 0.772778 0.985546 0.078435
O O13 0.714106 0.014261 0.140894
O O14 0.386617 0.750000 0.240851
O O15 0.455430 0.487876 0.293363
O O16 0.117401 0.530849 0.134593
O O17 0.815693 0.750000 0.044400
O O18 0.719409 0.490327 0.980625
O O19 0.463786 0.250000 0.902485
O O20 0.568438 0.750000 0.668503
#
# Coordination Sequence:
#
# PCOD8073374 Si02
#       8
#     4   4   4   4   4   4   4   4
#     4  10  22  39  57  77 105 143 182 220 266 318
#     4  10  21  36  56  84 114 142 175 217 263 312
#     4  10  20  35  57  84 114 145 174 210 262 320
#     4  10  20  34  52  77 109 139 171 215 266 317
#     4   9  20  39  58  76 103 141 183 223 265 316
#     4  10  20  35  55  77 103 137 176 219 267 315
#     4  11  22  34  51  77 107 138 175 218 266 320
#     4  10  20  34  56  84 109 138 179 223 266 314
#
# _framework density 18.856715999999999
#
# number of rings (size 3 to 8) (size 9 to 14) (size 15 to 20)
#    0.000    2.000    0.000    3.375    0.000    7.500 
#    0.000    0.625    0.000    0.000    0.000    0.000 
#    0.000    0.000    0.000    0.000    0.000    0.000 
#
# Total GULP energy -396983.085903 kJ/mol
# GULP energy per Si atom -12405.721434 kJ/mol
# Density = 1.881380 g / cm^3
# Si number density = 18.856716 Si / 1000 Ang^3
#
#
#
# Elastic Constant Matrix: (Units=GPa)
#
#
# Indices 1 2 3 4 5 6 
#
# 1 113.7767 41.7183 50.2415 0.0000 -16.0943 0.0000
# 2 41.7183 80.0005 49.0209 0.0000 -8.8344 0.0000
# 3 50.2415 49.0209 86.2679 0.0000 -18.4959 0.0000
# 4 0.0000 0.0000 0.0000 34.1927 0.0000 -0.7971
# 5 -16.0943 -8.8344 -18.4959 0.0000 21.0132 0.0000
# 6 0.0000 0.0000 0.0000 -0.7971 0.0000 26.5767
#
#
#
# Elastic Compliance Matrix: (Units=1/GPa)
#
#
# Indices 1 2 3 4 5 6 
#
# 1 0.012619 -0.003324 -0.004545 0.000000 0.004266 0.000000
# 2 -0.003324 0.020114 -0.010140 0.000000 -0.003015 0.000000
# 3 -0.004545 -0.010140 0.022607 0.000000 0.012154 0.000000
# 4 0.000000 0.000000 0.000000 0.029266 0.000000 0.000878
# 5 0.004266 -0.003015 0.012154 0.000000 0.060288 0.000000
# 6 0.000000 0.000000 0.000000 0.000878 0.000000 0.037653
#
#
# Mechanical properties :
#
#
# Convention : Reuss Voigt Hill
#
# Bulk Modulus (GPa) = 51.75865 62.44519 57.10192
# Shear Modulus (GPa) = 22.22171 25.62747 23.92459
#
# Velocity S-wave (km/s) = 3.43658 3.69055 3.56583
# Velocity P-wave (km/s) = 6.57684 7.16573 6.87759
#
# Compressibility (1/GPa) = 0.01932044
#
# Stress axis : x y z
#
# Youngs Moduli (GPa) = 79.24813 49.71741 44.23447
#
# Poissons Ratio (x) = 0.16526 0.20106
# Poissons Ratio (y) = 0.26341 0.44854
# Poissons Ratio (z) = 0.36022 0.50413
#
# Static dielectric constant tensor:
#      x y z
#    x 3.367820 0.000000 -0.084940 
#    y 0.000000 3.530730 0.000000 
#    z -0.084940 0.000000 3.468630 
# 
# 
# High freq. dielectric constant tensor:
#      x y z
#    x 1.723830 0.000000 -0.008900 
#    y 0.000000 1.743780 0.000000 
#    z -0.008900 0.000000 1.734290 
# 
# From -- ./inp_files/73173.got.cif
#   From: 2010.06.25/outbox.cif.g09.slc.cpg/sg11_37_cif.got.tgz:73173.got - 2010.06.27 23:14:04.
