data_PCOD8073959
_publ_section_title
;
Structure prediction by ZEFSAII (Michael W. Deem and Ramdas Pophale) SiO2 
 PCOD8073959
Probable space group: P 21/M
;
_chemical_formula_sum "Si O2"
_cell_formula_units_Z 24
_cell_length_a 13.893529
_cell_length_b 13.452908
_cell_length_c 6.855767
_cell_angle_alpha 90.000000
_cell_angle_beta 83.293555
_cell_angle_gamma 90.000000
_cell_volume 1272.632261
_symmetry_space_group_name_H-M "P 21/M"
_symmetry_group_IT_number 11
_symmetry_cell_setting 'monoclinic'
loop_
_space_group_symop_operation_xyz
x,y,z
-x,1/2+y,-z
-x,-y,-z
x,1/2-y,z
loop_
_atom_site_type_symbol
_atom_site_label
_atom_site_fract_x
_atom_site_fract_y
_atom_site_fract_z
Si Si1 0.224286 0.636802 0.539469
Si Si2 0.080638 0.367968 0.624675
Si Si3 0.557546 0.978646 0.180952
Si Si4 0.897374 0.488774 0.726013
Si Si5 0.554878 0.139572 0.502624
Si Si6 0.782775 0.522283 0.143538
O O1 0.191296 0.750000 0.576193
O O2 0.165501 0.589643 0.378203
O O3 0.335522 0.626534 0.449874
O O4 0.204407 0.582683 0.749451
O O5 0.060634 0.250000 0.623009
O O6 0.085843 0.410342 0.402543
O O7 0.179355 0.389934 0.721885
O O8 0.996629 0.430908 0.754452
O O9 0.514859 0.882097 0.298349
O O10 0.670826 0.959672 0.115712
O O11 0.533996 0.071821 0.322757
O O12 0.500000 0.000000 0.000000
O O13 0.844565 0.521869 0.933462
O O14 0.534220 0.250000 0.433707
#
# Coordination Sequence:
#
# PCOD8073959 Si02
#       6
#     4   4   4   4   4   4
#     4   9  18  33  55  82 108 136 175 222 268 313
#     4  10  22  38  55  78 109 143 178 219 271 327
#     4  10  20  35  55  78 107 144 182 221 265 316
#     4  10  20  37  58  80 106 140 180 222 267 321
#     4   9  19  35  53  77 109 140 174 220 268 315
#     4  10  21  36  54  80 110 139 178 224 269 317
#
# _framework density 18.858552
#
# number of rings (size 3 to 8) (size 9 to 14) (size 15 to 20)
#    0.000    2.333    0.000    2.000    0.000    4.667 
#    0.000    3.333    0.000    0.000    0.000    0.000 
#    0.000    0.000    0.000    0.000    0.000    0.000 
#
# Total GULP energy -297598.948892 kJ/mol
# GULP energy per Si atom -12399.956204 kJ/mol
# Density = 1.881563 g / cm^3
# Si number density = 18.858552 Si / 1000 Ang^3
#
#
#
# Elastic Constant Matrix: (Units=GPa)
#
#
# Indices 1 2 3 4 5 6 
#
# 1 96.0467 42.2920 48.9872 0.0000 4.3934 0.0000
# 2 42.2920 93.6395 30.4975 0.0000 -8.3067 0.0000
# 3 48.9872 30.4975 89.3830 0.0000 -11.0322 0.0000
# 4 0.0000 0.0000 0.0000 13.2556 0.0000 -1.8448
# 5 4.3934 -8.3067 -11.0322 0.0000 39.7052 0.0000
# 6 0.0000 0.0000 0.0000 -1.8448 0.0000 26.3385
#
#
#
# Elastic Compliance Matrix: (Units=1/GPa)
#
#
# Indices 1 2 3 4 5 6 
#
# 1 0.017343 -0.005623 -0.008251 0.000000 -0.005388 0.000000
# 2 -0.005623 0.013916 -0.001274 0.000000 0.003180 0.000000
# 3 -0.008251 -0.001274 0.016800 0.000000 0.005315 0.000000
# 4 0.000000 0.000000 0.000000 0.076182 0.000000 0.005336
# 5 -0.005388 0.003180 0.005315 0.000000 0.027924 0.000000
# 6 0.000000 0.000000 0.000000 0.005336 0.000000 0.038341
#
#
# Mechanical properties :
#
#
# Convention : Reuss Voigt Hill
#
# Bulk Modulus (GPa) = 56.29812 58.06917 57.18364
# Shear Modulus (GPa) = 22.05335 26.34603 24.19969
#
# Velocity S-wave (km/s) = 3.42337 3.74175 3.58609
# Velocity P-wave (km/s) = 6.74860 7.03750 6.89456
#
# Compressibility (1/GPa) = 0.01776258
#
# Stress axis : x y z
#
# Youngs Moduli (GPa) = 57.66177 71.86003 59.52231
#
# Poissons Ratio (x) = 0.40410 0.49112
# Poissons Ratio (y) = 0.32425 0.07582
# Poissons Ratio (z) = 0.47577 0.09153
#
# Static dielectric constant tensor:
#      x y z
#    x 3.713090 0.000000 -0.044570 
#    y 0.000000 3.485640 0.000000 
#    z -0.044570 0.000000 3.338620 
# 
# 
# High freq. dielectric constant tensor:
#      x y z
#    x 1.746970 0.000000 0.002520 
#    y 0.000000 1.726500 0.000000 
#    z 0.002520 0.000000 1.727030 
# 
# From -- ./inp_files/6444.got.cif
#   From: 2010.06.25/outbox.cif.g09.slc.cpg/sg11_4_cif.got.tgz:6444.got - 2010.06.27 23:14:04.
