data_PCOD8073425
_publ_section_title
;
Structure prediction by ZEFSAII (Michael W. Deem and Ramdas Pophale) SiO2 
 PCOD8073425
Probable space group: P 21/M
;
_chemical_formula_sum "Si O2"
_cell_formula_units_Z 28
_cell_length_a 25.897180
_cell_length_b 8.959550
_cell_length_c 9.500630
_cell_angle_alpha 90.000000
_cell_angle_beta 136.950656
_cell_angle_gamma 90.000000
_cell_volume 1504.787415
_symmetry_space_group_name_H-M "P 21/M"
_symmetry_group_IT_number 11
_symmetry_cell_setting 'monoclinic'
loop_
_space_group_symop_operation_xyz
x,y,z
-x,1/2+y,-z
-x,-y,-z
x,1/2-y,z
loop_
_atom_site_type_symbol
_atom_site_label
_atom_site_fract_x
_atom_site_fract_y
_atom_site_fract_z
Si Si1 0.711009 0.078430 0.068690
Si Si2 0.421455 0.921162 0.988055
Si Si3 0.592638 0.921603 0.326764
Si Si4 0.130134 0.074986 0.913627
Si Si5 0.283399 0.577375 0.242513
Si Si6 0.990732 0.427176 0.829676
Si Si7 0.136756 0.425622 0.604763
O O1 0.735806 0.250000 0.139988
O O2 0.777358 0.972520 0.258810
O O3 0.633417 0.040687 0.992658
O O4 0.695330 0.042708 0.875410
O O5 0.412646 0.750000 0.919614
O O6 0.507127 0.950614 0.209600
O O7 0.399266 0.030700 0.818514
O O8 0.615969 0.750000 0.387292
O O9 0.648244 0.018784 0.529570
O O10 0.143043 0.250000 0.946749
O O11 0.059873 0.022759 0.867779
O O12 0.116144 0.025687 0.723728
O O13 0.204572 0.999802 0.126638
O O14 0.272669 0.750000 0.252310
O O15 0.986655 0.250000 0.837936
O O16 0.914902 0.486068 0.607022
O O17 0.000000 0.500000 0.000000
O O18 0.126433 0.250000 0.560807
#
# Coordination Sequence:
#
# PCOD8073425 Si02
#       7
#     4   4   4   4   4   4   4
#     4   9  19  36  56  79 106 137 176 218 260 309
#     4   9  19  36  55  75 103 140 179 218 261 310
#     4  10  20  34  53  77 106 140 177 217 262 312
#     4   9  20  38  58  79 105 138 176 216 259 310
#     4  10  20  34  55  81 107 137 174 216 262 312
#     4  11  23  38  56  80 109 140 175 216 260 307
#     4  10  20  36  58  82 107 137 173 214 263 315
#
# _framework density 18.607278999999998
#
# number of rings (size 3 to 8) (size 9 to 14) (size 15 to 20)
#    0.000    2.286    0.000    2.143    0.000    5.143 
#    0.000    0.000    0.000    0.000    0.000    0.000 
#    0.000    0.000    0.000    0.000    0.000    0.000 
#
# Total GULP energy -347289.909003 kJ/mol
# GULP energy per Si atom -12403.211036 kJ/mol
# Density = 1.856493 g / cm^3
# Si number density = 18.607279 Si / 1000 Ang^3
#
#
#
# Elastic Constant Matrix: (Units=GPa)
#
#
# Indices 1 2 3 4 5 6 
#
# 1 -11.4816 -19.5443 -8.2596 0.0000 6.1564 0.0000
# 2 -19.5443 19.2410 7.6436 0.0000 3.6326 0.0000
# 3 -8.2596 7.6436 94.7013 0.0000 8.6419 0.0000
# 4 0.0000 0.0000 0.0000 8.9419 0.0000 -9.7357
# 5 6.1564 3.6326 8.6419 0.0000 17.9307 0.0000
# 6 0.0000 0.0000 0.0000 -9.7357 0.0000 24.2989
#
#
#
# Elastic Compliance Matrix: (Units=1/GPa)
#
#
# Indices 1 2 3 4 5 6 
#
# 1 -0.026885 -0.029762 -0.001397 0.000000 0.015934 0.000000
# 2 -0.029762 0.022236 -0.005138 0.000000 0.008190 0.000000
# 3 -0.001397 -0.005138 0.011207 0.000000 -0.003881 0.000000
# 4 0.000000 0.000000 0.000000 0.198364 0.000000 0.079477
# 5 0.015934 0.008190 -0.003881 0.000000 0.050511 0.000000
# 6 0.000000 0.000000 0.000000 0.079477 0.000000 0.072997
#
#
# Mechanical properties :
#
#
# Convention : Reuss Voigt Hill
#
# Bulk Modulus (GPa) = -15.14298 6.90444 -4.11927
# Shear Modulus (GPa) = 13.19223 18.40904 15.80064
#
# Velocity S-wave (km/s) = 2.66556 3.14880 2.91720
# Velocity P-wave (km/s) = 1.14793 4.11565 3.02129
#
# Compressibility (1/GPa) = -0.06603720
#
# Stress axis : x y z
#
# Youngs Moduli (GPa) = -37.19503 44.97292 89.23370
#
# Poissons Ratio (x) = 1.33850 0.12463
# Poissons Ratio (y) = -1.10701 0.45847
# Poissons Ratio (z) = -0.05195 0.23107
#
# Static dielectric constant tensor:
#      x y z
#    x 3.542450 0.000000 0.061380 
#    y 0.000000 3.475030 0.000000 
#    z 0.061380 0.000000 3.363780 
# 
# 
# High freq. dielectric constant tensor:
#      x y z
#    x 1.723140 0.000000 0.007350 
#    y 0.000000 1.729380 0.000000 
#    z 0.007350 0.000000 1.723330 
# 
# From -- ./inp_files/28405.got.cif
#   From: 2010.06.25/outbox.cif.g09.slc.cpg/sg11_15_cif.got.tgz:28405.got - 2010.06.27 23:14:04.
