data_PCOD8073511
_publ_section_title
;
Structure prediction by ZEFSAII (Michael W. Deem and Ramdas Pophale) SiO2 
 PCOD8073511
Probable space group: P 21/M
;
_chemical_formula_sum "Si O2"
_cell_formula_units_Z 32
_cell_length_a 27.639046
_cell_length_b 9.110791
_cell_length_c 21.611328
_cell_angle_alpha 90.000000
_cell_angle_beta 18.640442
_cell_angle_gamma 90.000000
_cell_volume 1739.424921
_symmetry_space_group_name_H-M "P 21/M"
_symmetry_group_IT_number 11
_symmetry_cell_setting 'monoclinic'
loop_
_space_group_symop_operation_xyz
x,y,z
-x,1/2+y,-z
-x,-y,-z
x,1/2-y,z
loop_
_atom_site_type_symbol
_atom_site_label
_atom_site_fract_x
_atom_site_fract_y
_atom_site_fract_z
Si Si1 0.555448 0.079624 0.740472
Si Si2 0.551165 0.424876 0.374484
Si Si3 0.138447 0.920698 0.564121
Si Si4 0.611133 0.082880 0.535878
Si Si5 0.961100 0.416778 0.108476
Si Si6 0.409592 0.584530 0.022309
Si Si7 0.727951 0.584470 0.705865
Si Si8 0.863763 0.577045 0.983835
O O1 0.530147 0.250000 0.785457
O O2 0.725365 0.033710 0.554799
O O3 0.528556 0.045262 0.700612
O O4 0.429778 0.990040 0.930886
O O5 0.500000 0.500000 0.500000
O O6 0.551594 0.250000 0.382396
O O7 0.434514 0.469481 0.462061
O O8 0.713821 0.482617 0.155496
O O9 0.150166 0.750000 0.533934
O O10 0.978685 0.958966 0.789109
O O11 0.147486 0.008477 0.488825
O O12 0.573539 0.250000 0.560501
O O13 0.787299 0.065363 0.336838
O O14 0.004584 0.250000 0.043766
O O15 0.061694 0.477594 0.042668
O O16 0.000000 0.500000 0.000000
O O17 0.353405 0.750000 0.080646
O O18 0.567450 0.578479 0.866680
O O19 0.282751 0.499540 0.215739
O O20 0.779535 0.750000 0.656575
O O21 0.825435 0.750000 0.032101
#
# Coordination Sequence:
#
# PCOD8073511 Si02
#       8
#     4   4   4   4   4   4   4   4
#     4   9  16  29  50  75 104 137 171 213 263 315
#     4  12  26  42  58  78 105 140 181 224 268 318
#     4   9  16  29  50  75 104 137 171 213 263 315
#     4  10  20  37  58  80 107 139 175 217 268 322
#     4  10  20  34  54  80 105 132 169 212 263 320
#     4   9  16  25  39  64 100 140 178 215 256 305
#     4   9  16  25  39  64 100 140 178 215 256 305
#     4  10  20  37  58  80 107 139 175 217 268 322
#
# _framework density 18.396884
#
# number of rings (size 3 to 8) (size 9 to 14) (size 15 to 20)
#    0.000    2.250    1.250    2.625    0.000    7.000 
#    0.000    0.000    0.000    0.000    0.000    0.875 
#    0.000    0.000    0.000    0.000    0.000    0.000 
#
# Total GULP energy -396804.874070 kJ/mol
# GULP energy per Si atom -12400.152315 kJ/mol
# Density = 1.835501 g / cm^3
# Si number density = 18.396884 Si / 1000 Ang^3
#
#
#
# Elastic Constant Matrix: (Units=GPa)
#
#
# Indices 1 2 3 4 5 6 
#
# 1 56.1980 32.8392 24.4428 0.0000 24.0006 0.0000
# 2 32.8392 97.5032 39.9531 0.0000 24.0214 0.0000
# 3 24.4428 39.9531 68.7213 0.0000 26.8940 0.0000
# 4 0.0000 0.0000 0.0000 28.3122 0.0000 7.4176
# 5 24.0006 24.0214 26.8940 0.0000 36.3707 0.0000
# 6 0.0000 0.0000 0.0000 7.4176 0.0000 29.8840
#
#
#
# Elastic Compliance Matrix: (Units=1/GPa)
#
#
# Indices 1 2 3 4 5 6 
#
# 1 0.027230 -0.005307 -0.001322 0.000000 -0.013486 0.000000
# 2 -0.005307 0.015010 -0.006093 0.000000 -0.001906 0.000000
# 3 -0.001322 -0.006093 0.023427 0.000000 -0.012426 0.000000
# 4 0.000000 0.000000 0.000000 0.037777 0.000000 -0.009377
# 5 -0.013486 -0.001906 -0.012426 0.000000 0.046841 0.000000
# 6 0.000000 0.000000 0.000000 -0.009377 0.000000 0.035790
#
#
# Mechanical properties :
#
#
# Convention : Reuss Voigt Hill
#
# Bulk Modulus (GPa) = 24.86134 46.32141 35.59137
# Shear Modulus (GPa) = 22.22950 27.25920 24.74435
#
# Velocity S-wave (km/s) = 3.47987 3.85350 3.67144
# Velocity P-wave (km/s) = 5.44879 6.71065 6.11237
#
# Compressibility (1/GPa) = 0.04022310
#
# Stress axis : x y z
#
# Youngs Moduli (GPa) = 36.72449 66.62398 42.68562
#
# Poissons Ratio (x) = 0.35356 0.05643
# Poissons Ratio (y) = 0.19489 0.26008
# Poissons Ratio (z) = 0.04855 0.40593
#
# Static dielectric constant tensor:
#      x y z
#    x 3.251620 0.000000 0.296750 
#    y 0.000000 3.376830 0.000000 
#    z 0.296750 0.000000 1.546280 
# 
# 
# High freq. dielectric constant tensor:
#      x y z
#    x 1.694910 0.000000 0.032340 
#    y 0.000000 1.710490 0.000000 
#    z 0.032340 0.000000 1.701680 
# 
# From -- ./inp_files/67082.got.cif
#   From: 2010.06.25/outbox.cif.g09.slc.cpg/sg11_34_cif.got.tgz:67082.got - 2010.06.27 23:14:04.
