data_PCOD8073602
_publ_section_title
;
Structure prediction by ZEFSAII (Michael W. Deem and Ramdas Pophale) SiO2 
 PCOD8073602
Probable space group: P 21/M
;
_chemical_formula_sum "Si O2"
_cell_formula_units_Z 32
_cell_length_a 20.917258
_cell_length_b 9.165939
_cell_length_c 26.189639
_cell_angle_alpha 90.000000
_cell_angle_beta 20.159989
_cell_angle_gamma 90.000000
_cell_volume 1730.534915
_symmetry_space_group_name_H-M "P 21/M"
_symmetry_group_IT_number 11
_symmetry_cell_setting 'monoclinic'
loop_
_space_group_symop_operation_xyz
x,y,z
-x,1/2+y,-z
-x,-y,-z
x,1/2-y,z
loop_
_atom_site_type_symbol
_atom_site_label
_atom_site_fract_x
_atom_site_fract_y
_atom_site_fract_z
Si Si1 0.221832 0.411028 0.206915
Si Si2 0.426619 0.912309 0.129620
Si Si3 0.332817 0.583542 0.855633
Si Si4 0.662617 0.419396 0.029342
Si Si5 0.005992 0.080381 0.048879
Si Si6 0.622182 0.580433 0.554131
Si Si7 0.405139 0.917053 0.616552
Si Si8 0.005862 0.423415 0.272511
O O1 0.176668 0.250000 0.262259
O O2 0.246513 0.519009 0.236452
O O3 0.058558 0.465062 0.291513
O O4 0.407914 0.404379 0.034486
O O5 0.374810 0.750000 0.187699
O O6 0.486457 0.011706 0.132399
O O7 0.272500 0.750000 0.889212
O O8 0.379041 0.559762 0.879956
O O9 0.165666 0.479081 0.965561
O O10 0.517381 0.544982 0.685483
O O11 0.681134 0.250000 0.000147
O O12 0.852860 0.500938 0.872647
O O13 0.039289 0.250000 0.013209
O O14 0.813202 0.052251 0.222268
O O15 0.000000 0.000000 0.000000
O O16 0.680312 0.750000 0.507495
O O17 0.484474 0.534111 0.611867
O O18 0.801584 0.480093 0.414578
O O19 0.451982 0.750000 0.572511
O O20 0.500000 0.000000 0.500000
O O21 0.018523 0.250000 0.254528
#
# Coordination Sequence:
#
# PCOD8073602 Si02
#       8
#     4   4   4   4   4   4   4   4
#     4   8  15  28  46  71 105 142 176 216 266 319
#     4   9  16  27  47  76 109 139 175 224 268 315
#     4  10  22  40  59  80 108 144 186 225 267 323
#     4  10  20  34  55  81 109 145 181 221 273 322
#     4  11  22  39  61  84 109 141 181 226 270 320
#     4  10  21  40  58  76 108 145 180 221 270 325
#     4  10  23  40  58  82 111 142 178 223 272 321
#     4  10  21  35  53  81 113 142 180 226 270 321
#
# _framework density 18.491392999999999
#
# number of rings (size 3 to 8) (size 9 to 14) (size 15 to 20)
#    0.000    2.250    1.250    2.250    1.750    6.500 
#    0.000    0.000    0.000    0.750    0.000    0.000 
#    0.000    0.000    0.000    0.000    0.000    0.000 
#
# Total GULP energy -396816.077648 kJ/mol
# GULP energy per Si atom -12400.502427 kJ/mol
# Density = 1.844931 g / cm^3
# Si number density = 18.491393 Si / 1000 Ang^3
#
#
#
# Elastic Constant Matrix: (Units=GPa)
#
#
# Indices 1 2 3 4 5 6 
#
# 1 94.2925 49.9469 31.0416 0.0000 12.5259 0.0000
# 2 49.9469 100.3794 34.0746 0.0000 10.6014 0.0000
# 3 31.0416 34.0746 52.3574 0.0000 13.1197 0.0000
# 4 0.0000 0.0000 0.0000 24.9077 0.0000 -5.6171
# 5 12.5259 10.6014 13.1197 0.0000 20.9071 0.0000
# 6 0.0000 0.0000 0.0000 -5.6171 0.0000 35.0780
#
#
#
# Elastic Compliance Matrix: (Units=1/GPa)
#
#
# Indices 1 2 3 4 5 6 
#
# 1 0.015703 -0.005879 -0.004596 0.000000 -0.003543 0.000000
# 2 -0.005879 0.015028 -0.006251 0.000000 -0.000175 0.000000
# 3 -0.004596 -0.006251 0.028962 0.000000 -0.012251 0.000000
# 4 0.000000 0.000000 0.000000 0.041652 0.000000 0.006670
# 5 -0.003543 -0.000175 -0.012251 0.000000 0.057730 0.000000
# 6 0.000000 0.000000 0.000000 0.006670 0.000000 0.029576
#
#
# Mechanical properties :
#
#
# Convention : Reuss Voigt Hill
#
# Bulk Modulus (GPa) = 38.10760 53.01729 45.56244
# Shear Modulus (GPa) = 21.65896 24.97631 23.31764
#
# Velocity S-wave (km/s) = 3.42614 3.67917 3.55491
# Velocity P-wave (km/s) = 6.02530 6.83974 6.44540
#
# Compressibility (1/GPa) = 0.02624148
#
# Stress axis : x y z
#
# Youngs Moduli (GPa) = 63.68106 66.54245 34.52758
#
# Poissons Ratio (x) = 0.39122 0.15869
# Poissons Ratio (y) = 0.37440 0.21582
# Poissons Ratio (z) = 0.29268 0.41594
#
# Static dielectric constant tensor:
#      x y z
#    x 3.603290 0.000000 -0.183530 
#    y 0.000000 7.553950 0.000000 
#    z -0.183530 0.000000 3.219880 
# 
# 
# High freq. dielectric constant tensor:
#      x y z
#    x 1.723790 0.000000 -0.011520 
#    y 0.000000 1.726280 0.000000 
#    z -0.011520 0.000000 1.688770 
# 
# From -- ./inp_files/72037.got.cif
#   From: 2010.06.25/outbox.cif.g09.slc.cpg/sg11_37_cif.got.tgz:72037.got - 2010.06.27 23:14:04.
