data_PCOD8073885
_publ_section_title
;
Structure prediction by ZEFSAII (Michael W. Deem and Ramdas Pophale) SiO2 
 PCOD8073885
Probable space group: P 21/M
;
_chemical_formula_sum "Si O2"
_cell_formula_units_Z 32
_cell_length_a 18.243551
_cell_length_b 8.755544
_cell_length_c 11.623946
_cell_angle_alpha 90.000000
_cell_angle_beta 91.105418
_cell_angle_gamma 90.000000
_cell_volume 1856.373075
_symmetry_space_group_name_H-M "P 21/M"
_symmetry_group_IT_number 11
_symmetry_cell_setting 'monoclinic'
loop_
_space_group_symop_operation_xyz
x,y,z
-x,1/2+y,-z
-x,-y,-z
x,1/2-y,z
loop_
_atom_site_type_symbol
_atom_site_label
_atom_site_fract_x
_atom_site_fract_y
_atom_site_fract_z
Si Si1 0.069586 0.926492 0.388506
Si Si2 0.497934 0.425083 0.623785
Si Si3 0.628189 0.068691 0.231526
Si Si4 0.419606 0.429662 0.999356
Si Si5 0.639968 0.074732 0.777657
Si Si6 0.913015 0.576112 0.371145
Si Si7 0.767551 0.429878 0.375822
Si Si8 0.227973 0.572895 0.364849
O O1 0.069696 0.750000 0.433407
O O2 0.144189 0.953225 0.316750
O O3 0.993608 0.957008 0.314902
O O4 0.073737 0.041990 0.494581
O O5 0.500000 0.500000 0.500000
O O6 0.471740 0.250000 0.614151
O O7 0.443656 0.518574 0.702766
O O8 0.578521 0.436038 0.678462
O O9 0.628357 0.250000 0.220300
O O10 0.700170 0.006149 0.299372
O O11 0.628810 0.995526 0.105645
O O12 0.427887 0.250000 0.985190
O O13 0.378685 0.468878 0.115597
O O14 0.500000 0.500000 0.000000
O O15 0.649151 0.250000 0.819950
O O16 0.714326 0.003643 0.724143
O O17 0.889814 0.750000 0.352767
O O18 0.845378 0.477391 0.319808
O O19 0.764211 0.250000 0.378682
O O20 0.762974 0.496927 0.505909
O O21 0.248184 0.750000 0.374378
#
# Coordination Sequence:
#
# PCOD8073885 Si02
#       8
#     4   4   4   4   4   4   4   4
#     4   8  14  25  41  64  97 136 169 197 237 289
#     4  11  22  34  51  75 105 136 167 202 245 299
#     4  11  22  37  56  75  97 129 170 212 256 302
#     4  12  24  39  57  75  96 126 165 212 259 302
#     4  10  20  35  54  74  97 130 169 208 250 295
#     4   9  15  23  40  67  98 132 168 202 237 285
#     4   9  18  32  49  71 101 135 165 200 249 303
#     4   8  14  28  49  71  99 133 166 198 237 293
#
# _framework density 17.237914
#
# number of rings (size 3 to 8) (size 9 to 14) (size 15 to 20)
#    0.000    2.250    1.250    3.750    0.000    4.000 
#    0.000    2.500    0.000    0.000    0.000    0.875 
#    0.000    0.000    0.000    0.000    0.000    0.000 
#
# Total GULP energy -396570.129264 kJ/mol
# GULP energy per Si atom -12392.816540 kJ/mol
# Density = 1.719868 g / cm^3
# Si number density = 17.237914 Si / 1000 Ang^3
#
#
#
# Elastic Constant Matrix: (Units=GPa)
#
#
# Indices 1 2 3 4 5 6 
#
# 1 144.8018 26.1296 39.5633 0.0000 -14.9434 0.0000
# 2 26.1296 56.2652 24.8498 0.0000 -3.3444 0.0000
# 3 39.5633 24.8498 76.5804 0.0000 -10.6333 0.0000
# 4 0.0000 0.0000 0.0000 22.7624 0.0000 -0.1776
# 5 -14.9434 -3.3444 -10.6333 0.0000 11.1514 0.0000
# 6 0.0000 0.0000 0.0000 -0.1776 0.0000 25.0730
#
#
#
# Elastic Compliance Matrix: (Units=1/GPa)
#
#
# Indices 1 2 3 4 5 6 
#
# 1 0.008976 -0.002494 -0.002607 0.000000 0.008794 0.000000
# 2 -0.002494 0.021440 -0.006039 0.000000 -0.002671 0.000000
# 3 -0.002607 -0.006039 0.018013 0.000000 0.011872 0.000000
# 4 0.000000 0.000000 0.000000 0.043935 0.000000 0.000311
# 5 0.008794 -0.002671 0.011872 0.000000 0.111979 0.000000
# 6 0.000000 0.000000 0.000000 0.000311 0.000000 0.039886
#
#
# Mechanical properties :
#
#
# Convention : Reuss Voigt Hill
#
# Bulk Modulus (GPa) = 38.24390 50.97031 44.60710
# Shear Modulus (GPa) = 18.16701 24.27102 21.21902
#
# Velocity S-wave (km/s) = 3.24990 3.75641 3.51230
# Velocity P-wave (km/s) = 6.02632 6.96039 6.51013
#
# Compressibility (1/GPa) = 0.02614796
#
# Stress axis : x y z
#
# Youngs Moduli (GPa) = 111.40968 46.64199 55.51566
#
# Poissons Ratio (x) = 0.11635 0.14471
# Poissons Ratio (y) = 0.27791 0.33528
# Poissons Ratio (z) = 0.29040 0.28169
#
# Static dielectric constant tensor:
#      x y z
#    x 3.727960 0.000000 -0.013880 
#    y 0.000000 3.173410 0.000000 
#    z -0.013880 0.000000 3.030200 
# 
# 
# High freq. dielectric constant tensor:
#      x y z
#    x 1.684630 0.000000 -0.002010 
#    y 0.000000 1.659820 0.000000 
#    z -0.002010 0.000000 1.618610 
# 
# From -- ./inp_files/40641.got.cif
#   From: 2010.06.25/outbox.cif.g09.slc.cpg/sg11_21_cif.got.tgz:40641.got - 2010.06.27 23:14:04.
