data_PCOD8073501
_publ_section_title
;
Structure prediction by ZEFSAII (Michael W. Deem and Ramdas Pophale) SiO2 
 PCOD8073501
Probable space group: P 21/M
;
_chemical_formula_sum "Si O2"
_cell_formula_units_Z 32
_cell_length_a 27.966276
_cell_length_b 8.967928
_cell_length_c 21.804174
_cell_angle_alpha 90.000000
_cell_angle_beta 18.639535
_cell_angle_gamma 90.000000
_cell_volume 1747.797486
_symmetry_space_group_name_H-M "P 21/M"
_symmetry_group_IT_number 11
_symmetry_cell_setting 'monoclinic'
loop_
_space_group_symop_operation_xyz
x,y,z
-x,1/2+y,-z
-x,-y,-z
x,1/2-y,z
loop_
_atom_site_type_symbol
_atom_site_label
_atom_site_fract_x
_atom_site_fract_y
_atom_site_fract_z
Si Si1 0.308954 0.576481 0.013609
Si Si2 0.186669 0.422410 0.981755
Si Si3 0.537349 0.074456 0.298924
Si Si4 0.577548 0.076103 0.992180
Si Si5 0.223163 0.577111 0.700587
Si Si6 0.958068 0.077066 0.957454
Si Si7 0.727354 0.575149 0.700579
Si Si8 0.967751 0.921170 0.701389
O O1 0.268342 0.750000 0.061880
O O2 0.394521 0.530152 0.971513
O O3 0.153103 0.488448 0.198823
O O4 0.418195 0.534470 0.824849
O O5 0.214966 0.250000 0.931809
O O6 0.345193 0.503009 0.796910
O O7 0.100009 0.500720 0.032750
O O8 0.087482 0.443002 0.162520
O O9 0.532105 0.250000 0.316683
O O10 0.379420 0.004553 0.505935
O O11 0.606450 0.250000 0.945771
O O12 0.694012 0.986704 0.808758
O O13 0.407831 0.032709 0.181128
O O14 0.240444 0.750000 0.662703
O O15 0.163781 0.554396 0.841431
O O16 0.112494 0.502154 0.786704
O O17 0.990911 0.250000 0.905305
O O18 0.750986 0.750000 0.676764
O O19 0.875912 0.504143 0.493226
O O20 0.990685 0.750000 0.655963
#
# Coordination Sequence:
#
# PCOD8073501 Si02
#       8
#     4   4   4   4   4   4   4   4
#     4   9  19  36  56  78 104 136 175 218 262 309
#     4  10  21  37  56  79 108 141 178 221 268 317
#     4  10  20  35  56  81 108 140 179 221 267 319
#     4   9  19  36  55  76 104 136 173 217 261 308
#     4  10  21  37  56  80 110 142 177 219 267 317
#     4  10  21  37  57  80 107 141 180 221 265 315
#     4  10  20  34  54  79 106 138 174 214 261 312
#     4  10  21  36  54  78 107 139 174 214 261 312
#
# _framework density 18.308755999999999
#
# number of rings (size 3 to 8) (size 9 to 14) (size 15 to 20)
#    0.000    2.250    0.000    2.250    0.000    6.500 
#    0.000    1.250    0.000    0.000    0.000    0.000 
#    0.000    0.000    0.000    0.000    0.000    0.000 
#
# Total GULP energy -396937.735235 kJ/mol
# GULP energy per Si atom -12404.304226 kJ/mol
# Density = 1.826708 g / cm^3
# Si number density = 18.308756 Si / 1000 Ang^3
#
#
#
# Elastic Constant Matrix: (Units=GPa)
#
#
# Indices 1 2 3 4 5 6 
#
# 1 -3336.8462-1913.8034-2230.2191 0.0000 386.4765 0.0000
# 2 -1913.8034-1006.6592-1227.6311 0.0000 217.6277 0.0000
# 3 -2230.2191-1227.6311-1367.8637 0.0000 242.7763 0.0000
# 4 0.0000 0.0000 0.0000 42.3740 0.0000 -3.6822
# 5 386.4765 217.6277 242.7763 0.0000 -30.5232 0.0000
# 6 0.0000 0.0000 0.0000 -3.6822 0.0000 32.9278
#
#
#
# Elastic Compliance Matrix: (Units=1/GPa)
#
#
# Indices 1 2 3 4 5 6 
#
# 1 0.004722 -0.004348 -0.003188 0.000000 0.003426 0.000000
# 2 -0.004348 0.014518 -0.006462 0.000000 -0.002938 0.000000
# 3 -0.003188 -0.006462 0.012329 0.000000 0.011617 0.000000
# 4 0.000000 0.000000 0.000000 0.023831 0.000000 0.002665
# 5 0.003426 -0.002938 0.011617 0.000000 0.082069 0.000000
# 6 0.000000 0.000000 0.000000 0.002665 0.000000 0.030668
#
#
# Mechanical properties :
#
#
# Convention : Reuss Voigt Hill
#
# Bulk Modulus (GPa) = 279.95095 -1828.29734 -774.17319
# Shear Modulus (GPa) = 25.33918 -13.69197 5.82361
#
# Velocity S-wave (km/s) = 3.72424 -2.73763 1.78541
# Velocity P-wave (km/s) = 13.10461 31.79233 20.48196
#
# Compressibility (1/GPa) = 0.00357205
#
# Stress axis : x y z
#
# Youngs Moduli (GPa) = 211.77680 68.87970 81.11282
#
# Poissons Ratio (x) = 0.29950 0.25862
# Poissons Ratio (y) = 0.92084 0.52412
# Poissons Ratio (z) = 0.67524 0.44508
#
# Static dielectric constant tensor:
#      x y z
#    x 3.417070 0.000000 -0.046300 
#    y 0.000000 3.860950 0.000000 
#    z -0.046300 0.000000 3.347980 
# 
# 
# High freq. dielectric constant tensor:
#      x y z
#    x 1.712220 0.000000 -0.006420 
#    y 0.000000 1.724450 0.000000 
#    z -0.006420 0.000000 1.711020 
# 
# From -- ./inp_files/66997.got.cif
#   From: 2010.06.25/outbox.cif.g09.slc.cpg/sg11_34_cif.got.tgz:66997.got - 2010.06.27 23:14:04.
