data_PCOD8073144
_publ_section_title
;
Structure prediction by ZEFSAII (Michael W. Deem and Ramdas Pophale) SiO2 
 PCOD8073144
Probable space group: P 21/M
;
_chemical_formula_sum "Si O2"
_cell_formula_units_Z 32
_cell_length_a 18.883708
_cell_length_b 10.707820
_cell_length_c 14.532157
_cell_angle_alpha 90.000000
_cell_angle_beta 34.405246
_cell_angle_gamma 90.000000
_cell_volume 1660.349713
_symmetry_space_group_name_H-M "P 21/M"
_symmetry_group_IT_number 11
_symmetry_cell_setting 'monoclinic'
loop_
_space_group_symop_operation_xyz
x,y,z
-x,1/2+y,-z
-x,-y,-z
x,1/2-y,z
loop_
_atom_site_type_symbol
_atom_site_label
_atom_site_fract_x
_atom_site_fract_y
_atom_site_fract_z
Si Si1 0.495289 0.895812 0.771341
Si Si2 0.932588 0.614598 0.777457
Si Si3 0.431993 0.602600 0.634214
Si Si4 0.162218 0.887332 0.853222
Si Si5 0.940894 0.523173 0.205172
Si Si6 0.886312 0.448282 0.563637
Si Si7 0.767117 0.109671 0.872238
Si Si8 0.756089 0.607557 0.557958
O O1 0.518852 0.750000 0.743812
O O2 0.466348 0.940218 0.699681
O O3 0.624182 0.958709 0.670398
O O4 0.377817 0.930181 0.962240
O O5 0.861272 0.750000 0.855367
O O6 0.849197 0.496598 0.834809
O O7 0.985834 0.589464 0.822416
O O8 0.052263 0.635723 0.581881
O O9 0.500000 0.500000 0.500000
O O10 0.466955 0.750000 0.576419
O O11 0.284604 0.578626 0.780436
O O12 0.174691 0.750000 0.797957
O O13 0.149348 0.977223 0.779563
O O14 0.044657 0.888652 0.048215
O O15 0.858061 0.597379 0.367532
O O16 0.796529 0.377886 0.732042
O O17 0.804769 0.554382 0.601980
O O18 0.000000 0.500000 0.500000
O O19 0.789764 0.250000 0.891114
O O20 0.731210 0.750000 0.606590
#
# Coordination Sequence:
#
# PCOD8073144 Si02
#       8
#     4   4   4   4   4   4   4   4
#     4   9  19  35  55  80 109 142 182 225 266 315
#     4  10  20  34  53  79 112 144 179 229 279 320
#     4  10  20  36  57  80 109 144 182 223 267 318
#     4  10  20  34  53  78 109 145 184 227 275 323
#     4  10  20  33  52  78 108 143 185 227 273 325
#     4   9  20  33  52  79 105 136 176 218 265 320
#     4  10  20  36  58  81 109 145 183 222 268 326
#     4  10  20  35  56  81 110 144 181 222 271 326
#
# _framework density 19.273047999999999
#
# number of rings (size 3 to 8) (size 9 to 14) (size 15 to 20)
#    0.000    2.250    0.000    2.625    0.000    8.500 
#    0.000    5.000    0.000    5.250    0.000    0.000 
#    0.000    0.000    0.000    0.000    0.000    0.000 
#
# Total GULP energy -396476.520887 kJ/mol
# GULP energy per Si atom -12389.891278 kJ/mol
# Density = 1.922918 g / cm^3
# Si number density = 19.273048 Si / 1000 Ang^3
#
#
#
# Elastic Constant Matrix: (Units=GPa)
#
#
# Indices 1 2 3 4 5 6 
#
# 1 134.2114 37.5150 43.1557 0.0000 -17.4671 0.0000
# 2 37.5150 88.5283 25.4753 0.0000 -12.3806 0.0000
# 3 43.1557 25.4753 95.1000 0.0000 -12.2403 0.0000
# 4 0.0000 0.0000 0.0000 18.0617 0.0000 -3.0966
# 5 -17.4671 -12.3806 -12.2403 0.0000 31.5574 0.0000
# 6 0.0000 0.0000 0.0000 -3.0966 0.0000 23.2426
#
#
#
# Elastic Compliance Matrix: (Units=1/GPa)
#
#
# Indices 1 2 3 4 5 6 
#
# 1 0.009655 -0.002732 -0.003262 0.000000 0.003007 0.000000
# 2 -0.002732 0.013441 -0.001975 0.000000 0.002995 0.000000
# 3 -0.003262 -0.001975 0.012833 0.000000 0.002397 0.000000
# 4 0.000000 0.000000 0.000000 0.056660 0.000000 0.007549
# 5 0.003007 0.002995 0.002397 0.000000 0.035457 0.000000
# 6 0.000000 0.000000 0.000000 0.007549 0.000000 0.044030
#
#
# Mechanical properties :
#
#
# Convention : Reuss Voigt Hill
#
# Bulk Modulus (GPa) = 50.02627 58.90350 54.46488
# Shear Modulus (GPa) = 25.68324 28.68525 27.18424
#
# Velocity S-wave (km/s) = 3.65444 3.86211 3.75971
# Velocity P-wave (km/s) = 6.61963 7.10752 6.86791
#
# Compressibility (1/GPa) = 0.01998950
#
# Stress axis : x y z
#
# Youngs Moduli (GPa) = 103.57336 74.40031 77.92172
#
# Poissons Ratio (x) = 0.20327 0.25422
# Poissons Ratio (y) = 0.28297 0.15392
# Poissons Ratio (z) = 0.33791 0.14696
#
# Static dielectric constant tensor:
#      x y z
#    x 3.795490 0.000000 0.022510 
#    y 0.000000 3.489920 0.000000 
#    z 0.022510 0.000000 3.748290 
# 
# 
# High freq. dielectric constant tensor:
#      x y z
#    x 1.756730 0.000000 0.001810 
#    y 0.000000 1.731860 0.000000 
#    z 0.001810 0.000000 1.749820 
# 
# From -- ./inp_files/53622.got.cif
#   From: 2010.06.25/outbox.cif.g09.slc.cpg/sg11_27_cif.got.tgz:53622.got - 2010.06.27 23:14:04.
