data_PCOD8073218
_publ_section_title
;
Structure prediction by ZEFSAII (Michael W. Deem and Ramdas Pophale) SiO2 
 PCOD8073218
Probable space group: P 21/M
;
_chemical_formula_sum "Si O2"
_cell_formula_units_Z 32
_cell_length_a 17.431979
_cell_length_b 14.253376
_cell_length_c 12.001819
_cell_angle_alpha 90.000000
_cell_angle_beta 148.026704
_cell_angle_gamma 90.000000
_cell_volume 1579.054502
_symmetry_space_group_name_H-M "P 21/M"
_symmetry_group_IT_number 11
_symmetry_cell_setting 'monoclinic'
loop_
_space_group_symop_operation_xyz
x,y,z
-x,1/2+y,-z
-x,-y,-z
x,1/2-y,z
loop_
_atom_site_type_symbol
_atom_site_label
_atom_site_fract_x
_atom_site_fract_y
_atom_site_fract_z
Si Si1 0.687058 0.644160 0.200230
Si Si2 0.608732 0.360251 0.542877
Si Si3 0.894362 0.996089 0.203628
Si Si4 0.581769 0.538570 0.870194
Si Si5 0.338627 0.146428 0.355483
Si Si6 0.125927 0.984720 0.066148
Si Si7 0.008299 0.859377 0.510308
Si Si8 0.568096 0.854158 0.287817
O O1 0.639815 0.750000 0.118086
O O2 0.853664 0.628641 0.377873
O O3 0.666683 0.617530 0.304173
O O4 0.583101 0.581778 0.995342
O O5 0.624365 0.250000 0.538093
O O6 0.546169 0.412211 0.357049
O O7 0.500237 0.381292 0.512394
O O8 0.767813 0.400176 0.767062
O O9 0.003746 0.915707 0.386650
O O10 0.735652 0.947931 0.999197
O O11 0.943776 0.032315 0.142253
O O12 0.883197 0.086186 0.272809
O O13 0.560187 0.427601 0.856068
O O14 0.301339 0.250000 0.264271
O O15 0.216536 0.078948 0.159788
O O16 0.330701 0.142645 0.479068
O O17 0.000000 0.000000 0.000000
O O18 0.052557 0.750000 0.547725
O O19 0.500089 0.750000 0.189934
#
# Coordination Sequence:
#
# PCOD8073218 Si02
#       8
#     4   4   4   4   4   4   4   4
#     4   9  19  34  56  86 113 150 200 247 309 367
#     4  11  23  41  64  89 121 161 209 259 303 361
#     4  10  22  37  60  89 115 156 210 246 300 370
#     4  11  19  36  62  83 119 153 208 255 302 357
#     4  10  21  39  63  86 117 162 204 248 302 359
#     4  12  25  40  61  92 132 165 203 252 312 377
#     4   9  20  39  60  83 116 154 197 255 304 357
#     4  10  20  33  53  82 114 148 190 246 304 363
#
# _framework density 20.265291000000001
#
# number of rings (size 3 to 8) (size 9 to 14) (size 15 to 20)
#    0.000    1.750    2.500    1.875    1.750    2.500 
#    0.000    0.000    0.000    0.000    0.000    0.000 
#    0.000    0.000    0.000    0.000    0.000    0.000 
#
# Total GULP energy -396716.750189 kJ/mol
# GULP energy per Si atom -12397.398443 kJ/mol
# Density = 2.021917 g / cm^3
# Si number density = 20.265291 Si / 1000 Ang^3
#
#
#
# Elastic Constant Matrix: (Units=GPa)
#
#
# Indices 1 2 3 4 5 6 
#
# 1 95.4938 26.2574 41.0920 0.0000 -13.4519 0.0000
# 2 26.2574 127.7459 41.8298 0.0000 -2.4756 0.0000
# 3 41.0920 41.8298 85.7552 0.0000 -14.9531 0.0000
# 4 0.0000 0.0000 0.0000 23.0837 0.0000 -1.4916
# 5 -13.4519 -2.4756 -14.9531 0.0000 28.3710 0.0000
# 6 0.0000 0.0000 0.0000 -1.4916 0.0000 24.1168
#
#
#
# Elastic Compliance Matrix: (Units=1/GPa)
#
#
# Indices 1 2 3 4 5 6 
#
# 1 0.013558 -0.000941 -0.005430 0.000000 0.003484 0.000000
# 2 -0.000941 0.009460 -0.004512 0.000000 -0.001999 0.000000
# 3 -0.005430 -0.004512 0.017560 0.000000 0.006287 0.000000
# 4 0.000000 0.000000 0.000000 0.043494 0.000000 0.002690
# 5 0.003484 -0.001999 0.006287 0.000000 0.040038 0.000000
# 6 0.000000 0.000000 0.000000 0.002690 0.000000 0.041631
#
#
# Mechanical properties :
#
#
# Convention : Reuss Voigt Hill
#
# Bulk Modulus (GPa) = 53.15794 58.59483 55.87638
# Shear Modulus (GPa) = 25.80245 28.43535 27.11890
#
# Velocity S-wave (km/s) = 3.57211 3.74994 3.66210
# Velocity P-wave (km/s) = 6.58037 6.90840 6.74638
#
# Compressibility (1/GPa) = 0.01881187
#
# Stress axis : x y z
#
# Youngs Moduli (GPa) = 73.75633 105.70586 56.94692
#
# Poissons Ratio (x) = 0.09949 0.30923
# Poissons Ratio (y) = 0.06942 0.25695
# Poissons Ratio (z) = 0.40050 0.47695
#
# Static dielectric constant tensor:
#      x y z
#    x 3.650470 0.000000 -0.229610 
#    y 0.000000 3.868670 0.000000 
#    z -0.229610 0.000000 3.490470 
# 
# 
# High freq. dielectric constant tensor:
#      x y z
#    x 1.780940 0.000000 -0.023650 
#    y 0.000000 1.802240 0.000000 
#    z -0.023650 0.000000 1.778550 
# 
# From -- ./inp_files/41694.got.cif
#   From: 2010.06.25/outbox.cif.g09.slc.cpg/sg11_21_cif.got.tgz:41694.got - 2010.06.27 23:14:04.
