data_PCOD8073715
_publ_section_title
;
Structure prediction by ZEFSAII (Michael W. Deem and Ramdas Pophale) SiO2 
 PCOD8073715
Probable space group: P 21/M
;
_chemical_formula_sum "Si O2"
_cell_formula_units_Z 32
_cell_length_a 19.252154
_cell_length_b 9.171039
_cell_length_c 11.176959
_cell_angle_alpha 90.000000
_cell_angle_beta 57.673583
_cell_angle_gamma 90.000000
_cell_volume 1667.577916
_symmetry_space_group_name_H-M "P 21/M"
_symmetry_group_IT_number 11
_symmetry_cell_setting 'monoclinic'
loop_
_space_group_symop_operation_xyz
x,y,z
-x,1/2+y,-z
-x,-y,-z
x,1/2-y,z
loop_
_atom_site_type_symbol
_atom_site_label
_atom_site_fract_x
_atom_site_fract_y
_atom_site_fract_z
Si Si1 0.116876 0.081854 0.814461
Si Si2 0.667782 0.583248 0.115971
Si Si3 0.419675 0.413265 0.046906
Si Si4 0.030730 0.417706 0.144845
Si Si5 0.176670 0.422090 0.168951
Si Si6 0.741826 0.922521 0.669810
Si Si7 0.413503 0.919887 0.593126
Si Si8 0.262363 0.919818 0.574346
O O1 0.130513 0.250000 0.769519
O O2 0.202557 0.996835 0.725115
O O3 0.086074 0.059179 0.976944
O O4 0.049997 0.017197 0.783262
O O5 0.678133 0.750000 0.153233
O O6 0.599703 0.577965 0.075242
O O7 0.637524 0.480191 0.248904
O O8 0.752978 0.516820 0.985258
O O9 0.437601 0.250000 0.070304
O O10 0.500000 0.500000 0.000000
O O11 0.344919 0.472694 0.195623
O O12 0.003035 0.250000 0.181538
O O13 0.086161 0.467530 0.207012
O O14 0.190091 0.250000 0.150583
O O15 0.189312 0.470531 0.295247
O O16 0.745426 0.750000 0.640548
O O17 0.756792 0.010247 0.535763
O O18 0.431488 0.750000 0.596849
O O19 0.356965 0.944473 0.527317
O O20 0.500000 0.000000 0.500000
O O21 0.240767 0.750000 0.589387
#
# Coordination Sequence:
#
# PCOD8073715 Si02
#       8
#     4   4   4   4   4   4   4   4
#     4  10  20  34  56  86 114 147 182 217 268 328
#     4   9  18  35  56  79 108 139 176 221 270 323
#     4   9  19  33  53  79 106 137 176 225 272 318
#     4   9  17  32  57  86 115 143 177 224 271 319
#     4   8  15  32  58  83 108 141 180 222 271 321
#     4   9  19  36  56  79 105 142 186 224 268 327
#     4  11  25  40  55  78 107 141 181 226 274 326
#     4  11  24  40  56  77 110 146 182 227 275 323
#
# _framework density 19.189506999999999
#
# number of rings (size 3 to 8) (size 9 to 14) (size 15 to 20)
#    0.000    2.500    0.000    3.375    1.750    4.500 
#    0.000    3.750    0.000    0.000    0.000    0.000 
#    0.000    0.000    0.000    0.000    0.000    0.000 
#
# Total GULP energy -396742.334765 kJ/mol
# GULP energy per Si atom -12398.197961 kJ/mol
# Density = 1.914583 g / cm^3
# Si number density = 19.189507 Si / 1000 Ang^3
#
#
#
# Elastic Constant Matrix: (Units=GPa)
#
#
# Indices 1 2 3 4 5 6 
#
# 1 108.5573 47.9274 21.0616 0.0000 -6.5974 0.0000
# 2 47.9274 90.2669 32.0283 0.0000 -3.0547 0.0000
# 3 21.0616 32.0283 52.6798 0.0000 3.8557 0.0000
# 4 0.0000 0.0000 0.0000 30.9934 0.0000 -2.7328
# 5 -6.5974 -3.0547 3.8557 0.0000 23.2991 0.0000
# 6 0.0000 0.0000 0.0000 -2.7328 0.0000 30.8293
#
#
#
# Elastic Compliance Matrix: (Units=1/GPa)
#
#
# Indices 1 2 3 4 5 6 
#
# 1 0.012286 -0.005869 -0.001561 0.000000 0.002968 0.000000
# 2 -0.005869 0.017186 -0.008246 0.000000 0.001956 0.000000
# 3 -0.001561 -0.008246 0.025035 0.000000 -0.005666 0.000000
# 4 0.000000 0.000000 0.000000 0.032519 0.000000 0.002883
# 5 0.002968 0.001956 -0.005666 0.000000 0.044955 0.000000
# 6 0.000000 0.000000 0.000000 0.002883 0.000000 0.032692
#
#
# Mechanical properties :
#
#
# Convention : Reuss Voigt Hill
#
# Bulk Modulus (GPa) = 43.18596 50.39316 46.78956
# Shear Modulus (GPa) = 24.54076 27.05681 25.79878
#
# Velocity S-wave (km/s) = 3.58000 3.75904 3.67061
# Velocity P-wave (km/s) = 6.29622 6.72000 6.51156
#
# Compressibility (1/GPa) = 0.02315567
#
# Stress axis : x y z
#
# Youngs Moduli (GPa) = 81.39304 58.18580 39.94475
#
# Poissons Ratio (x) = 0.34149 0.06235
# Poissons Ratio (y) = 0.47770 0.32937
# Poissons Ratio (z) = 0.12705 0.47978
#
# Static dielectric constant tensor:
#      x y z
#    x 3.722210 0.000000 0.078780 
#    y 0.000000 3.403280 0.000000 
#    z 0.078780 0.000000 3.301630 
# 
# 
# High freq. dielectric constant tensor:
#      x y z
#    x 1.759550 0.000000 0.001150 
#    y 0.000000 1.731600 0.000000 
#    z 0.001150 0.000000 1.731780 
# 
# From -- ./inp_files/42755.got.cif
#   From: 2010.06.25/outbox.cif.g09.slc.cpg/sg11_22_cif.got.tgz:42755.got - 2010.06.27 23:14:04.
