data_PCOD8073452
_publ_section_title
;
Structure prediction by ZEFSAII (Michael W. Deem and Ramdas Pophale) SiO2 
 PCOD8073452
Probable space group: P 21/M
;
_chemical_formula_sum "Si O2"
_cell_formula_units_Z 24
_cell_length_a 9.071494
_cell_length_b 8.929382
_cell_length_c 20.606225
_cell_angle_alpha 90.000000
_cell_angle_beta 49.282237
_cell_angle_gamma 90.000000
_cell_volume 1265.112009
_symmetry_space_group_name_H-M "P 21/M"
_symmetry_group_IT_number 11
_symmetry_cell_setting 'monoclinic'
loop_
_space_group_symop_operation_xyz
x,y,z
-x,1/2+y,-z
-x,-y,-z
x,1/2-y,z
loop_
_atom_site_type_symbol
_atom_site_label
_atom_site_fract_x
_atom_site_fract_y
_atom_site_fract_z
Si Si1 0.189494 0.579513 0.596888
Si Si2 0.198550 0.925363 0.921822
Si Si3 0.925048 0.422106 0.764077
Si Si4 0.737697 0.581417 0.228219
Si Si5 0.506522 0.078790 0.585994
Si Si6 0.537434 0.573163 0.920431
O O1 0.123974 0.750000 0.627449
O O2 0.265910 0.555486 0.500195
O O3 0.377698 0.543841 0.586321
O O4 0.010984 0.473329 0.669319
O O5 0.169272 0.750000 0.934942
O O6 0.367809 0.980561 0.920990
O O7 0.255265 0.966319 0.832391
O O8 0.000000 0.000000 0.000000
O O9 0.861809 0.250000 0.777709
O O10 0.740554 0.521954 0.832765
O O11 0.085023 0.449499 0.773539
O O12 0.753185 0.750000 0.196076
O O13 0.532942 0.557946 0.325582
O O14 0.441435 0.250000 0.586050
O O15 0.538469 0.750000 0.928857
O O16 0.500000 0.500000 0.000000
#
# Coordination Sequence:
#
# PCOD8073452 Si02
#       6
#     4   4   4   4   4   4
#     4   9  15  25  45  73 105 140 175 214 259 302
#     4  11  24  39  56  79 105 133 169 212 257 309
#     4  10  20  34  53  79 109 140 176 217 259 306
#     4   9  18  33  53  78 108 139 173 213 256 304
#     4   8  15  27  44  71 106 140 175 215 256 301
#     4  11  24  40  57  79 105 134 171 214 259 310
#
# _framework density 18.970652000000001
#
# number of rings (size 3 to 8) (size 9 to 14) (size 15 to 20)
#    0.000    2.333    0.000    4.000    0.000   10.667 
#    0.000    0.000    0.000    1.000    0.000    0.000 
#    0.000    0.000    0.000    0.000    0.000    0.000 
#
# Total GULP energy -297463.306311 kJ/mol
# GULP energy per Si atom -12394.304430 kJ/mol
# Density = 1.892747 g / cm^3
# Si number density = 18.970652 Si / 1000 Ang^3
#
#
#
# Elastic Constant Matrix: (Units=GPa)
#
#
# Indices 1 2 3 4 5 6 
#
# 1 63.5721 30.3814 51.2111 0.0000 -0.5161 0.0000
# 2 30.3814 58.6421 38.4225 0.0000 1.4315 0.0000
# 3 51.2111 38.4225 166.9446 0.0000 -3.6045 0.0000
# 4 0.0000 0.0000 0.0000 38.3000 0.0000 -0.1658
# 5 -0.5161 1.4315 -3.6045 0.0000 21.5064 0.0000
# 6 0.0000 0.0000 0.0000 -0.1658 0.0000 23.3457
#
#
#
# Elastic Compliance Matrix: (Units=1/GPa)
#
#
# Indices 1 2 3 4 5 6 
#
# 1 0.024440 -0.009139 -0.005387 0.000000 0.000292 0.000000
# 2 -0.009139 0.023595 -0.002675 0.000000 -0.002238 0.000000
# 3 -0.005387 -0.002675 0.008289 0.000000 0.001438 0.000000
# 4 0.000000 0.000000 0.000000 0.026110 0.000000 0.000185
# 5 0.000292 -0.002238 0.001438 0.000000 0.046895 0.000000
# 6 0.000000 0.000000 0.000000 0.000185 0.000000 0.042836
#
#
# Mechanical properties :
#
#
# Convention : Reuss Voigt Hill
#
# Bulk Modulus (GPa) = 45.61907 58.79875 52.20891
# Shear Modulus (GPa) = 23.37801 27.90666 25.64234
#
# Velocity S-wave (km/s) = 3.51426 3.83958 3.68051
# Velocity P-wave (km/s) = 6.36915 7.12168 6.75590
#
# Compressibility (1/GPa) = 0.02192066
#
# Stress axis : x y z
#
# Youngs Moduli (GPa) = 40.91636 42.38196 120.63636
#
# Poissons Ratio (x) = 0.38734 0.64992
# Poissons Ratio (y) = 0.37395 0.32273
# Poissons Ratio (z) = 0.22043 0.11338
#
# Static dielectric constant tensor:
#      x y z
#    x 3.124050 0.000000 -0.036800 
#    y 0.000000 3.544130 0.000000 
#    z -0.036800 0.000000 4.003050 
# 
# 
# High freq. dielectric constant tensor:
#      x y z
#    x 1.679600 0.000000 -0.004670 
#    y 0.000000 1.746650 0.000000 
#    z -0.004670 0.000000 1.768720 
# 
# From -- ./inp_files/25714.got.cif
#   From: 2010.06.25/outbox.cif.g09.slc.cpg/sg11_13_cif.got.tgz:25714.got - 2010.06.27 23:14:04.
