data_PCOD8073143
_publ_section_title
;
Structure prediction by ZEFSAII (Michael W. Deem and Ramdas Pophale) SiO2 
 PCOD8073143
Probable space group: P 21/M
;
_chemical_formula_sum "Si O2"
_cell_formula_units_Z 32
_cell_length_a 10.608739
_cell_length_b 9.773782
_cell_length_c 28.849691
_cell_angle_alpha 90.000000
_cell_angle_beta 30.252614
_cell_angle_gamma 90.000000
_cell_volume 1507.083386
_symmetry_space_group_name_H-M "P 21/M"
_symmetry_group_IT_number 11
_symmetry_cell_setting 'monoclinic'
loop_
_space_group_symop_operation_xyz
x,y,z
-x,1/2+y,-z
-x,-y,-z
x,1/2-y,z
loop_
_atom_site_type_symbol
_atom_site_label
_atom_site_fract_x
_atom_site_fract_y
_atom_site_fract_z
Si Si1 0.685873 0.908135 0.040342
Si Si2 0.434263 0.603242 0.845295
Si Si3 0.776393 0.596143 0.558566
Si Si4 0.115605 0.593459 0.192825
Si Si5 0.477056 0.516718 0.277467
Si Si6 0.994788 0.403966 0.310266
Si Si7 0.060040 0.402290 0.589894
Si Si8 0.006090 0.900325 0.123322
O O1 0.764583 0.750000 0.020417
O O2 0.880527 0.984732 0.945694
O O3 0.410492 0.924224 0.107246
O O4 0.707970 0.978433 0.084169
O O5 0.305911 0.750000 0.897654
O O6 0.439326 0.590186 0.788388
O O7 0.712545 0.606731 0.776002
O O8 0.859835 0.750000 0.543119
O O9 0.545679 0.557536 0.665086
O O10 0.000000 0.500000 0.500000
O O11 0.732082 0.579334 0.517103
O O12 0.034925 0.750000 0.228685
O O13 0.951226 0.492784 0.277618
O O14 0.059872 0.550300 0.158257
O O15 0.220039 0.588137 0.342791
O O16 0.708674 0.619426 0.209883
O O17 0.878054 0.250000 0.343437
O O18 0.877127 0.484273 0.391575
O O19 0.081135 0.250000 0.605054
O O20 0.128263 0.750000 0.075918
#
# Coordination Sequence:
#
# PCOD8073143 Si02
#       8
#     4   4   4   4   4   4   4   4
#     4  10  21  36  55  77 100 132 176 222 264 307
#     4   9  18  33  53  74 101 136 171 212 258 305
#     4   9  18  32  52  78 108 141 175 212 255 306
#     4   9  19  36  56  77 102 134 174 218 262 309
#     4  10  20  33  52  78 108 138 174 211 254 308
#     4   9  17  30  52  80 104 130 169 216 259 300
#     4   9  17  31  53  79 106 136 168 206 253 305
#     4  11  23  37  54  76 105 140 174 213 262 314
#
# _framework density 21.233066000000001
#
# number of rings (size 3 to 8) (size 9 to 14) (size 15 to 20)
#    0.000    2.500    0.000    1.875    0.000    9.500 
#    0.000    0.000    0.000    0.750    0.000    0.000 
#    0.000    0.000    0.000    0.000    0.000    0.000 
#
# Total GULP energy -396499.758227 kJ/mol
# GULP energy per Si atom -12390.617445 kJ/mol
# Density = 2.118474 g / cm^3
# Si number density = 21.233066 Si / 1000 Ang^3
#
#
#
# Elastic Constant Matrix: (Units=GPa)
#
#
# Indices 1 2 3 4 5 6 
#
# 1 31.2770 26.9335 58.1566 0.0000 23.1333 0.0000
# 2 26.9335 170.4403 73.9739 0.0000 39.9555 0.0000
# 3 58.1566 73.9739 90.7858 0.0000 48.4313 0.0000
# 4 0.0000 0.0000 0.0000 26.0674 0.0000 10.7087
# 5 23.1333 39.9555 48.4313 0.0000 35.5431 0.0000
# 6 0.0000 0.0000 0.0000 10.7087 0.0000 15.1374
#
#
#
# Elastic Compliance Matrix: (Units=1/GPa)
#
#
# Indices 1 2 3 4 5 6 
#
# 1 -0.062328 -0.011348 0.075897 0.000000 -0.050096 0.000000
# 2 -0.011348 0.007013 0.006666 0.000000 -0.009582 0.000000
# 3 0.075897 0.006666 -0.046454 0.000000 0.006406 0.000000
# 4 0.000000 0.000000 0.000000 0.054078 0.000000 -0.038257
# 5 -0.050096 -0.009582 0.006406 0.000000 0.062782 0.000000
# 6 0.000000 0.000000 0.000000 -0.038257 0.000000 0.093125
#
#
# Mechanical properties :
#
#
# Convention : Reuss Voigt Hill
#
# Bulk Modulus (GPa) = 24.59190 67.84791 46.21990
# Shear Modulus (GPa) = -242.02190 24.24553 -108.88818
#
# Velocity S-wave (km/s) = -10.68789 3.38283 -7.16894
# Velocity P-wave (km/s) = 11.86174 6.87614 6.83446
#
# Compressibility (1/GPa) = 0.04066380
#
# Stress axis : x y z
#
# Youngs Moduli (GPa) = -16.04425 142.58669 -21.52689
#
# Poissons Ratio (x) = 1.61805 1.63383
# Poissons Ratio (y) = -0.18207 0.14351
# Poissons Ratio (z) = 1.21772 -0.95053
#
# Static dielectric constant tensor:
#      x y z
#    x 3.715750 0.000000 0.384480 
#    y 0.000000 4.022510 0.000000 
#    z 0.384480 0.000000 4.043480 
# 
# 
# High freq. dielectric constant tensor:
#      x y z
#    x 1.812820 0.000000 0.027970 
#    y 0.000000 1.840280 0.000000 
#    z 0.027970 0.000000 1.820610 
# 
# From -- ./inp_files/73122.got.cif
#   From: 2010.06.25/outbox.cif.g09.slc.cpg/sg11_37_cif.got.tgz:73122.got - 2010.06.27 23:14:04.
