data_PCOD8073654
_publ_section_title
;
Structure prediction by ZEFSAII (Michael W. Deem and Ramdas Pophale) SiO2 
 PCOD8073654
Probable space group: P 21/M
;
_chemical_formula_sum "Si O2"
_cell_formula_units_Z 20
_cell_length_a 26.461340
_cell_length_b 9.260799
_cell_length_c 11.436090
_cell_angle_alpha 90.000000
_cell_angle_beta 157.584747
_cell_angle_gamma 90.000000
_cell_volume 1068.620358
_symmetry_space_group_name_H-M "P 21/M"
_symmetry_group_IT_number 11
_symmetry_cell_setting 'monoclinic'
loop_
_space_group_symop_operation_xyz
x,y,z
-x,1/2+y,-z
-x,-y,-z
x,1/2-y,z
loop_
_atom_site_type_symbol
_atom_site_label
_atom_site_fract_x
_atom_site_fract_y
_atom_site_fract_z
Si Si1 0.162855 0.412290 0.284394
Si Si2 0.505383 0.922206 0.388334
Si Si3 0.765989 0.589345 0.814274
Si Si4 0.723120 0.584187 0.227600
Si Si5 0.012164 0.914245 0.791881
O O1 0.108463 0.250000 0.193453
O O2 0.264689 0.410002 0.391121
O O3 0.243438 0.466895 0.569173
O O4 0.040874 0.516840 0.983202
O O5 0.498471 0.750000 0.388198
O O6 0.640715 0.973456 0.615471
O O7 0.500000 0.000000 0.500000
O O8 0.384143 0.974527 0.050373
O O9 0.797285 0.750000 0.927182
O O10 0.900050 0.494216 0.120443
O O11 0.671539 0.750000 0.114077
O O12 0.855899 0.570760 0.432142
O O13 0.058340 0.750000 0.893529
#
# Coordination Sequence:
#
# PCOD8073654 Si02
#       5
#     4   4   4   4   4
#     4   8  16  32  54  80 116 145 169 211 264 317
#     4  11  24  41  58  76 102 140 186 229 269 315
#     4   8  18  36  55  77 109 143 175 215 266 317
#     4  10  20  34  55  84 114 143 175 215 263 317
#     4   9  17  30  53  86 115 140 173 213 260 317
#
# _framework density 18.715720000000001
#
# number of rings (size 3 to 8) (size 9 to 14) (size 15 to 20)
#    1.200    1.600    0.000    1.200    0.000    4.800 
#    0.000    1.000    0.000    0.000    0.000    0.000 
#    0.000    0.000    0.000    0.000    0.000    0.000 
#
# Total GULP energy -247782.117480 kJ/mol
# GULP energy per Si atom -12389.105874 kJ/mol
# Density = 1.867312 g / cm^3
# Si number density = 18.715720 Si / 1000 Ang^3
#
#
#
# Elastic Constant Matrix: (Units=GPa)
#
#
# Indices 1 2 3 4 5 6 
#
# 1 60.2397 22.9393 13.9316 0.0000 22.3492 0.0000
# 2 22.9393 77.7763 16.2974 0.0000 15.0380 0.0000
# 3 13.9316 16.2974 13.9250 0.0000 15.1183 0.0000
# 4 0.0000 0.0000 0.0000 31.3535 0.0000 3.1953
# 5 22.3492 15.0380 15.1183 0.0000 25.7694 0.0000
# 6 0.0000 0.0000 0.0000 3.1953 0.0000 27.3970
#
#
#
# Elastic Compliance Matrix: (Units=1/GPa)
#
#
# Indices 1 2 3 4 5 6 
#
# 1 0.025366 -0.003802 0.001508 0.000000 -0.020666 0.000000
# 2 -0.003802 0.017827 -0.025742 0.000000 0.007996 0.000000
# 3 0.001508 -0.025742 0.235624 0.000000 -0.124521 0.000000
# 4 0.000000 0.000000 0.000000 0.032278 0.000000 -0.003765
# 5 -0.020666 0.007996 -0.124521 0.000000 0.125116 0.000000
# 6 0.000000 0.000000 0.000000 -0.003765 0.000000 0.036939
#
#
# Mechanical properties :
#
#
# Convention : Reuss Voigt Hill
#
# Bulk Modulus (GPa) = 4.48943 28.69751 16.59347
# Shear Modulus (GPa) = 8.28541 23.48883 15.88712
#
# Velocity S-wave (km/s) = 2.10632 3.54649 2.91669
# Velocity P-wave (km/s) = 2.88434 5.66893 4.49756
#
# Compressibility (1/GPa) = 0.22274558
#
# Stress axis : x y z
#
# Youngs Moduli (GPa) = 39.42220 56.09611 4.24405
#
# Poissons Ratio (x) = 0.21327 -0.00640
# Poissons Ratio (y) = 0.14988 0.10925
# Poissons Ratio (z) = -0.05944 1.44401
#
# Static dielectric constant tensor:
#      x y z
#    x 3.426000 0.000000 0.110590 
#    y 0.000000 3.426190 0.000000 
#    z 0.110590 0.000000 3.124970 
# 
# 
# High freq. dielectric constant tensor:
#      x y z
#    x 1.726000 0.000000 0.011920 
#    y 0.000000 1.729960 0.000000 
#    z 0.011920 0.000000 1.696050 
# 
# From -- ./inp_files/24229.got.cif
#   From: 2010.06.25/outbox.cif.g09.slc.cpg/sg11_13_cif.got.tgz:24229.got - 2010.06.27 23:14:04.
