data_PCOD8073495
_publ_section_title
;
Structure prediction by ZEFSAII (Michael W. Deem and Ramdas Pophale) SiO2 
 PCOD8073495
Probable space group: P 21/M
;
_chemical_formula_sum "Si O2"
_cell_formula_units_Z 32
_cell_length_a 15.693423
_cell_length_b 8.864843
_cell_length_c 25.305327
_cell_angle_alpha 90.000000
_cell_angle_beta 30.052556
_cell_angle_gamma 90.000000
_cell_volume 1763.031006
_symmetry_space_group_name_H-M "P 21/M"
_symmetry_group_IT_number 11
_symmetry_cell_setting 'monoclinic'
loop_
_space_group_symop_operation_xyz
x,y,z
-x,1/2+y,-z
-x,-y,-z
x,1/2-y,z
loop_
_atom_site_type_symbol
_atom_site_label
_atom_site_fract_x
_atom_site_fract_y
_atom_site_fract_z
Si Si1 0.637043 0.427195 0.858920
Si Si2 0.294301 0.927993 0.060657
Si Si3 0.462598 0.428611 0.685274
Si Si4 0.764743 0.575486 0.584248
Si Si5 0.150304 0.575284 0.355569
Si Si6 0.887452 0.428987 0.105916
Si Si7 0.595201 0.576626 0.401217
Si Si8 0.031686 0.073767 0.828551
O O1 0.607788 0.250000 0.875058
O O2 0.709285 0.483738 0.876557
O O3 0.771238 0.475440 0.742295
O O4 0.456089 0.503201 0.943581
O O5 0.308198 0.750000 0.050134
O O6 0.123534 0.984510 0.123916
O O7 0.432717 0.250000 0.704805
O O8 0.635080 0.474213 0.621246
O O9 0.304106 0.510099 0.798244
O O10 0.473334 0.482495 0.618531
O O11 0.712412 0.750000 0.608541
O O12 0.762270 0.525638 0.646504
O O13 0.949485 0.544956 0.460113
O O14 0.187602 0.750000 0.348430
O O15 0.887450 0.250000 0.101033
O O16 0.967761 0.477592 0.118501
O O17 0.000000 0.500000 0.000000
O O18 0.500000 0.500000 0.500000
O O19 0.552284 0.750000 0.429739
O O20 0.796853 0.545265 0.296896
O O21 0.015668 0.250000 0.852250
#
# Coordination Sequence:
#
# PCOD8073495 Si02
#       8
#     4   4   4   4   4   4   4   4
#     4   9  18  33  52  75 103 136 173 211 254 303
#     4   9  18  33  53  75 101 134 171 212 255 302
#     4  10  21  38  56  77 107 140 174 215 263 311
#     4  10  20  34  54  79 104 135 176 217 260 310
#     4   9  19  35  53  74 105 141 174 212 258 310
#     4  11  22  37  57  80 106 137 174 216 262 313
#     4   9  19  34  53  76 103 135 170 212 260 311
#     4   9  19  36  54  75 106 141 175 214 262 311
#
# _framework density 18.150559999999999
#
# number of rings (size 3 to 8) (size 9 to 14) (size 15 to 20)
#    0.000    2.500    0.000    2.625    0.000    6.000 
#    0.000    5.000    0.000    3.000    0.000    0.000 
#    0.000    0.000    0.000    0.000    0.000    0.000 
#
# Total GULP energy -396848.193569 kJ/mol
# GULP energy per Si atom -12401.506049 kJ/mol
# Density = 1.810925 g / cm^3
# Si number density = 18.150560 Si / 1000 Ang^3
#
#
#
# Elastic Constant Matrix: (Units=GPa)
#
#
# Indices 1 2 3 4 5 6 
#
# 1 103.9612 36.5655 68.3470 0.0000 -15.3939 0.0000
# 2 36.5655 67.3976 45.0699 0.0000 1.5775 0.0000
# 3 68.3470 45.0699 131.2495 0.0000 11.6693 0.0000
# 4 0.0000 0.0000 0.0000 33.1765 0.0000 -0.0846
# 5 -15.3939 1.5775 11.6693 0.0000 31.5147 0.0000
# 6 0.0000 0.0000 0.0000 -0.0846 0.0000 31.3039
#
#
#
# Elastic Compliance Matrix: (Units=1/GPa)
#
#
# Indices 1 2 3 4 5 6 
#
# 1 0.019709 -0.004337 -0.009977 0.000000 0.013539 0.000000
# 2 -0.004337 0.020287 -0.004580 0.000000 -0.001438 0.000000
# 3 -0.009977 -0.004580 0.015304 0.000000 -0.010311 0.000000
# 4 0.000000 0.000000 0.000000 0.030142 0.000000 0.000081
# 5 0.013539 -0.001438 -0.010311 0.000000 0.042234 0.000000
# 6 0.000000 0.000000 0.000000 0.000081 0.000000 0.031945
#
#
# Mechanical properties :
#
#
# Convention : Reuss Voigt Hill
#
# Bulk Modulus (GPa) = 57.10882 66.95256 62.03069
# Shear Modulus (GPa) = 24.60061 29.37408 26.98734
#
# Velocity S-wave (km/s) = 3.68552 4.02724 3.86017
# Velocity P-wave (km/s) = 7.04578 7.65456 7.35647
#
# Compressibility (1/GPa) = 0.01751043
#
# Stress axis : x y z
#
# Youngs Moduli (GPa) = 50.73909 49.29327 65.34190
#
# Poissons Ratio (x) = 0.21381 0.65194
# Poissons Ratio (y) = 0.22008 0.29925
# Poissons Ratio (z) = 0.50624 0.22575
#
# Static dielectric constant tensor:
#      x y z
#    x 3.517650 0.000000 0.026710 
#    y 0.000000 3.350400 0.000000 
#    z 0.026710 0.000000 3.468330 
# 
# 
# High freq. dielectric constant tensor:
#      x y z
#    x 1.704030 0.000000 -0.001290 
#    y 0.000000 1.702330 0.000000 
#    z -0.001290 0.000000 1.707100 
# 
# From -- ./inp_files/69010.got.cif
#   From: 2010.06.25/outbox.cif.g09.slc.cpg/sg11_35_cif.got.tgz:69010.got - 2010.06.27 23:14:04.
