data_PCOD8073525
_publ_section_title
;
Structure prediction by ZEFSAII (Michael W. Deem and Ramdas Pophale) SiO2 
 PCOD8073525
Probable space group: P 21/M
;
_chemical_formula_sum "Si O2"
_cell_formula_units_Z 32
_cell_length_a 15.786967
_cell_length_b 8.824768
_cell_length_c 25.444711
_cell_angle_alpha 90.000000
_cell_angle_beta 29.361510
_cell_angle_gamma 90.000000
_cell_volume 1738.111748
_symmetry_space_group_name_H-M "P 21/M"
_symmetry_group_IT_number 11
_symmetry_cell_setting 'monoclinic'
loop_
_space_group_symop_operation_xyz
x,y,z
-x,1/2+y,-z
-x,-y,-z
x,1/2-y,z
loop_
_atom_site_type_symbol
_atom_site_label
_atom_site_fract_x
_atom_site_fract_y
_atom_site_fract_z
Si Si1 0.669183 0.574676 0.841941
Si Si2 0.279541 0.925696 0.077821
Si Si3 0.467819 0.429324 0.680977
Si Si4 0.768089 0.574658 0.582286
Si Si5 0.163373 0.574359 0.348229
Si Si6 0.886874 0.428883 0.106388
Si Si7 0.595925 0.576264 0.400678
Si Si8 0.025681 0.074317 0.833378
O O1 0.712857 0.750000 0.808792
O O2 0.746285 0.525060 0.856198
O O3 0.756871 0.474928 0.749877
O O4 0.464580 0.543547 0.951315
O O5 0.258489 0.750000 0.104715
O O6 0.136010 0.977970 0.113936
O O7 0.439263 0.250000 0.699281
O O8 0.643841 0.475464 0.613537
O O9 0.306575 0.508662 0.796352
O O10 0.474375 0.485960 0.617032
O O11 0.716296 0.750000 0.606619
O O12 0.749375 0.522387 0.652632
O O13 0.959238 0.543536 0.457269
O O14 0.203066 0.750000 0.337151
O O15 0.884268 0.250000 0.102176
O O16 0.971098 0.473989 0.116295
O O17 0.000000 0.500000 0.000000
O O18 0.500000 0.500000 0.500000
O O19 0.549335 0.750000 0.430248
O O20 0.801010 0.547121 0.294145
O O21 0.011111 0.250000 0.858032
#
# Coordination Sequence:
#
# PCOD8073525 Si02
#       8
#     4   4   4   4   4   4   4   4
#     4  10  20  34  54  80 109 140 179 226 270 318
#     4   9  19  36  56  77 105 141 179 222 271 321
#     4  10  21  38  57  80 110 143 179 222 271 320
#     4  10  21  37  57  81 107 140 182 225 270 319
#     4  10  21  37  56  78 109 146 181 221 269 323
#     4  11  22  37  57  81 110 143 180 223 270 323
#     4   9  19  34  53  76 104 137 173 216 264 317
#     4   9  19  37  56  76 105 141 181 224 271 322
#
# _framework density 18.410784
#
# number of rings (size 3 to 8) (size 9 to 14) (size 15 to 20)
#    0.000    2.250    0.000    3.375    0.000    7.000 
#    0.000    7.500    0.000    0.000    0.000    0.000 
#    0.000    0.000    0.000    0.000    0.000    0.000 
#
# Total GULP energy -396905.008141 kJ/mol
# GULP energy per Si atom -12403.281504 kJ/mol
# Density = 1.836888 g / cm^3
# Si number density = 18.410784 Si / 1000 Ang^3
#
#
#
# Elastic Constant Matrix: (Units=GPa)
#
#
# Indices 1 2 3 4 5 6 
#
# 1 104.1541 38.3967 54.8648 0.0000 -13.5733 0.0000
# 2 38.3967 82.4367 45.5493 0.0000 2.0172 0.0000
# 3 54.8648 45.5493 103.2885 0.0000 14.9113 0.0000
# 4 0.0000 0.0000 0.0000 33.7248 0.0000 3.2837
# 5 -13.5733 2.0172 14.9113 0.0000 28.9634 0.0000
# 6 0.0000 0.0000 0.0000 3.2837 0.0000 35.6944
#
#
#
# Elastic Compliance Matrix: (Units=1/GPa)
#
#
# Indices 1 2 3 4 5 6 
#
# 1 0.017866 -0.003060 -0.010133 0.000000 0.013803 0.000000
# 2 -0.003060 0.016765 -0.005825 0.000000 0.000397 0.000000
# 3 -0.010133 -0.005825 0.019726 0.000000 -0.014499 0.000000
# 4 0.000000 0.000000 0.000000 0.029920 0.000000 -0.002752
# 5 0.013803 0.000397 -0.014499 0.000000 0.048431 0.000000
# 6 0.000000 0.000000 0.000000 -0.002752 0.000000 0.028269
#
#
# Mechanical properties :
#
#
# Convention : Reuss Voigt Hill
#
# Bulk Modulus (GPa) = 61.27419 63.05565 62.16492
# Shear Modulus (GPa) = 24.45558 29.74776 27.10167
#
# Velocity S-wave (km/s) = 3.64858 4.02404 3.84090
# Velocity P-wave (km/s) = 7.14867 7.47758 7.31497
#
# Compressibility (1/GPa) = 0.01632008
#
# Stress axis : x y z
#
# Youngs Moduli (GPa) = 55.97287 59.64947 50.69495
#
# Poissons Ratio (x) = 0.18254 0.51369
# Poissons Ratio (y) = 0.17129 0.29529
# Poissons Ratio (z) = 0.56717 0.34745
#
# Static dielectric constant tensor:
#      x y z
#    x 3.456560 0.000000 -0.100050 
#    y 0.000000 3.409800 0.000000 
#    z -0.100050 0.000000 3.297280 
# 
# 
# High freq. dielectric constant tensor:
#      x y z
#    x 1.716820 0.000000 -0.000300 
#    y 0.000000 1.721260 0.000000 
#    z -0.000300 0.000000 1.715260 
# 
# From -- ./inp_files/69011.got.cif
#   From: 2010.06.25/outbox.cif.g09.slc.cpg/sg11_35_cif.got.tgz:69011.got - 2010.06.27 23:14:04.
