data_PCOD8073122
_publ_section_title
;
Structure prediction by ZEFSAII (Michael W. Deem and Ramdas Pophale) SiO2 
 PCOD8073122
Probable space group: P 21/M
;
_chemical_formula_sum "Si O2"
_cell_formula_units_Z 32
_cell_length_a 14.549888
_cell_length_b 9.578067
_cell_length_c 25.551818
_cell_angle_alpha 90.000000
_cell_angle_beta 30.364518
_cell_angle_gamma 90.000000
_cell_volume 1800.031412
_symmetry_space_group_name_H-M "P 21/M"
_symmetry_group_IT_number 11
_symmetry_cell_setting 'monoclinic'
loop_
_space_group_symop_operation_xyz
x,y,z
-x,1/2+y,-z
-x,-y,-z
x,1/2-y,z
loop_
_atom_site_type_symbol
_atom_site_label
_atom_site_fract_x
_atom_site_fract_y
_atom_site_fract_z
Si Si1 0.054197 0.584052 0.231678
Si Si2 0.106583 0.089666 0.489742
Si Si3 0.763872 0.589573 0.229475
Si Si4 0.496010 0.588912 0.837455
Si Si5 0.843857 0.416035 0.929989
Si Si6 0.483383 0.909854 0.722231
Si Si7 0.174635 0.588944 0.284223
Si Si8 0.658344 0.910184 0.398260
O O1 0.049932 0.750000 0.234557
O O2 0.165940 0.531331 0.125687
O O3 0.145997 0.528211 0.239761
O O4 0.847042 0.531496 0.329217
O O5 0.103920 0.250000 0.471587
O O6 0.314026 0.036812 0.391628
O O7 0.014617 0.073563 0.591640
O O8 0.000000 0.000000 0.500000
O O9 0.765097 0.750000 0.210589
O O10 0.665243 0.500662 0.233992
O O11 0.657664 0.573688 0.336134
O O12 0.969861 0.531779 0.134474
O O13 0.534998 0.750000 0.832374
O O14 0.444132 0.572009 0.802724
O O15 0.674535 0.501047 0.761185
O O16 0.330265 0.526933 0.953272
O O17 0.848087 0.250000 0.928698
O O18 0.460345 0.750000 0.715885
O O19 0.237624 0.750000 0.252182
O O20 0.628246 0.750000 0.429274
O O21 0.500000 0.000000 0.500000
#
# Coordination Sequence:
#
# PCOD8073122 Si02
#       8
#     4   4   4   4   4   4   4   4
#     4   8  16  32  52  73  99 132 168 202 246 305
#     4  10  20  34  51  72 102 137 169 206 253 300
#     4   9  19  35  53  76 102 133 173 210 247 299
#     4  10  20  35  54  75 101 134 171 210 254 300
#     4   8  16  34  56  74  99 134 168 207 253 301
#     4  10  21  34  50  76 105 134 168 207 255 303
#     4  10  20  33  52  77 102 133 172 207 247 302
#     4   9  18  32  51  74 101 133 169 207 248 298
#
# _framework density 17.777469
#
# number of rings (size 3 to 8) (size 9 to 14) (size 15 to 20)
#    0.000    2.750    1.250    1.500    1.750    2.500 
#    0.000    1.250    0.000    1.500    0.000    0.000 
#    0.000    0.000    0.000    0.000    0.000    0.000 
#
# Total GULP energy -396750.750018 kJ/mol
# GULP energy per Si atom -12398.460938 kJ/mol
# Density = 1.773701 g / cm^3
# Si number density = 17.777469 Si / 1000 Ang^3
#
#
#
# Elastic Constant Matrix: (Units=GPa)
#
#
# Indices 1 2 3 4 5 6 
#
# 1 82.8382 27.2436 14.5227 0.0000 10.9648 0.0000
# 2 27.2436 39.6422 19.4543 0.0000 4.1489 0.0000
# 3 14.5227 19.4543 100.2618 0.0000 7.3665 0.0000
# 4 0.0000 0.0000 0.0000 21.6708 0.0000 -0.4374
# 5 10.9648 4.1489 7.3665 0.0000 17.4316 0.0000
# 6 0.0000 0.0000 0.0000 -0.4374 0.0000 22.8917
#
#
#
# Elastic Compliance Matrix: (Units=1/GPa)
#
#
# Indices 1 2 3 4 5 6 
#
# 1 0.016606 -0.010701 0.000260 0.000000 -0.008008 0.000000
# 2 -0.010701 0.035121 -0.005310 0.000000 0.000616 0.000000
# 3 0.000260 -0.005310 0.011235 0.000000 -0.003647 0.000000
# 4 0.000000 0.000000 0.000000 0.046163 0.000000 0.000882
# 5 -0.008008 0.000616 -0.003647 0.000000 0.063799 0.000000
# 6 0.000000 0.000000 0.000000 0.000882 0.000000 0.043701
#
#
# Mechanical properties :
#
#
# Convention : Reuss Voigt Hill
#
# Bulk Modulus (GPa) = 31.78836 38.35371 35.07104
# Shear Modulus (GPa) = 19.33385 23.16691 21.25038
#
# Velocity S-wave (km/s) = 3.30138 3.61385 3.46114
# Velocity P-wave (km/s) = 5.69668 6.24775 5.97857
#
# Compressibility (1/GPa) = 0.03145805
#
# Stress axis : x y z
#
# Youngs Moduli (GPa) = 60.22065 28.47269 89.01082
#
# Poissons Ratio (x) = 0.30469 -0.02310
# Poissons Ratio (y) = 0.64444 0.47265
# Poissons Ratio (z) = -0.01563 0.15119
#
# Static dielectric constant tensor:
#      x y z
#    x 3.331370 0.000000 0.151140 
#    y 0.000000 3.016940 0.000000 
#    z 0.151140 0.000000 3.617440 
# 
# 
# High freq. dielectric constant tensor:
#      x y z
#    x 1.688230 0.000000 0.005210 
#    y 0.000000 1.656720 0.000000 
#    z 0.005210 0.000000 1.697500 
# 
# From -- ./inp_files/51644.got.cif
#   From: 2010.06.25/outbox.cif.g09.slc.cpg/sg11_26_cif.got.tgz:51644.got - 2010.06.27 23:14:04.
