data_PCOD8073547
_publ_section_title
;
Structure prediction by ZEFSAII (Michael W. Deem and Ramdas Pophale) SiO2 
 PCOD8073547
Probable space group: P 21/M
;
_chemical_formula_sum "Si O2"
_cell_formula_units_Z 32
_cell_length_a 15.084403
_cell_length_b 18.702772
_cell_length_c 5.358472
_cell_angle_alpha 90.000000
_cell_angle_beta 79.793953
_cell_angle_gamma 90.000000
_cell_volume 1487.812643
_symmetry_space_group_name_H-M "P 21/M"
_symmetry_group_IT_number 11
_symmetry_cell_setting 'monoclinic'
loop_
_space_group_symop_operation_xyz
x,y,z
-x,1/2+y,-z
-x,-y,-z
x,1/2-y,z
loop_
_atom_site_type_symbol
_atom_site_label
_atom_site_fract_x
_atom_site_fract_y
_atom_site_fract_z
Si Si1 0.890229 0.166538 0.423854
Si Si2 0.427098 0.086528 0.907411
Si Si3 0.605060 0.066824 0.070671
Si Si4 0.814142 0.665561 0.202928
Si Si5 0.295065 0.827957 0.269762
Si Si6 0.527192 0.171637 0.504243
Si Si7 0.712575 0.665381 0.746917
Si Si8 0.017129 0.664516 0.120236
O O1 0.911174 0.250000 0.405136
O O2 0.783108 0.150445 0.495971
O O3 0.938282 0.134476 0.647336
O O4 0.928891 0.133235 0.147642
O O5 0.433651 0.146107 0.684263
O O6 0.370745 0.014679 0.860732
O O7 0.531125 0.061773 0.886860
O O8 0.383462 0.125081 0.172841
O O9 0.554831 0.110587 0.304559
O O10 0.695347 0.109375 0.941830
O O11 0.818572 0.750000 0.220515
O O12 0.760880 0.636219 0.473012
O O13 0.915366 0.635004 0.157109
O O14 0.767968 0.642044 0.967348
O O15 0.269301 0.750000 0.159741
O O16 0.391167 0.818219 0.346099
O O17 0.507842 0.250000 0.390995
O O18 0.698091 0.750000 0.742721
O O19 0.019885 0.750000 0.117160
#
# Coordination Sequence:
#
# PCOD8073547 Si02
#       8
#     4   4   4   4   4   4   4   4
#     4   9  17  27  47  76 109 141 177 219 272 335
#     4  10  22  37  52  78 106 141 191 228 272 329
#     4  10  21  37  55  73 107 147 183 227 276 329
#     4   9  18  32  51  78 112 142 177 226 284 332
#     4   9  19  33  49  79 110 139 180 226 273 324
#     4  10  20  34  55  78 108 141 176 227 279 327
#     4  10  20  34  54  81 110 142 183 232 276 329
#     4   9  16  28  47  75 109 143 172 218 279 332
#
# _framework density 21.508085000000001
#
# number of rings (size 3 to 8) (size 9 to 14) (size 15 to 20)
#    0.000    2.500    0.000    1.875    3.500    4.500 
#    0.000    0.000    0.000    0.000    0.000    5.250 
#    0.000    0.000    0.000    0.000    0.000    0.000 
#
# Total GULP energy -396494.214162 kJ/mol
# GULP energy per Si atom -12390.444193 kJ/mol
# Density = 2.145913 g / cm^3
# Si number density = 21.508085 Si / 1000 Ang^3
#
#
#
# Elastic Constant Matrix: (Units=GPa)
#
#
# Indices 1 2 3 4 5 6 
#
# 1 41.3036 21.7972 35.7405 0.0000 -22.8440 0.0000
# 2 21.7972 75.1055 23.8043 0.0000 -15.5708 0.0000
# 3 35.7405 23.8043 144.8695 0.0000 -25.8818 0.0000
# 4 0.0000 0.0000 0.0000 11.6938 0.0000 7.3259
# 5 -22.8440 -15.5708 -25.8818 0.0000 42.3027 0.0000
# 6 0.0000 0.0000 0.0000 7.3259 0.0000 -1.8992
#
#
#
# Elastic Compliance Matrix: (Units=1/GPa)
#
#
# Indices 1 2 3 4 5 6 
#
# 1 0.042520 -0.006887 -0.006410 0.000000 0.016505 0.000000
# 2 -0.006887 0.015866 -0.000594 0.000000 0.001757 0.000000
# 3 -0.006410 -0.000594 0.008897 0.000000 0.001763 0.000000
# 4 0.000000 0.000000 0.000000 0.025030 0.000000 0.096550
# 5 0.016505 0.001757 0.001763 0.000000 0.034278 0.000000
# 6 0.000000 0.000000 0.000000 0.096550 0.000000 -0.154116
#
#
# Mechanical properties :
#
#
# Convention : Reuss Voigt Hill
#
# Bulk Modulus (GPa) = 25.31543 47.10695 36.21119
# Shear Modulus (GPa) = 372.49740 22.41525 197.45632
#
# Velocity S-wave (km/s) = 13.17442 3.23178 9.59192
# Velocity P-wave (km/s) = 15.59540 5.98961 11.81295
#
# Compressibility (1/GPa) = 0.03950160
#
# Stress axis : x y z
#
# Youngs Moduli (GPa) = 23.51816 63.02804 112.40098
#
# Poissons Ratio (x) = 0.43407 0.72046
# Poissons Ratio (y) = 0.16197 0.06676
# Poissons Ratio (z) = 0.15075 0.03744
#
# Static dielectric constant tensor:
#      x y z
#    x 3.971910 0.000000 -0.099340 
#    y 0.000000 3.806080 0.000000 
#    z -0.099340 0.000000 4.031410 
# 
# 
# High freq. dielectric constant tensor:
#      x y z
#    x 1.832030 0.000000 -0.013150 
#    y 0.000000 1.795910 0.000000 
#    z -0.013150 0.000000 1.850720 
# 
# From -- ./inp_files/7052.got.cif
#   From: 2010.06.25/outbox.cif.g09.slc.cpg/sg11_4_cif.got.tgz:7052.got - 2010.06.27 23:14:04.
