data_PCOD8073400
_publ_section_title
;
Structure prediction by ZEFSAII (Michael W. Deem and Ramdas Pophale) SiO2 
 PCOD8073400
Probable space group: P 21/M
;
_chemical_formula_sum "Si O2"
_cell_formula_units_Z 32
_cell_length_a 15.375951
_cell_length_b 8.760627
_cell_length_c 20.766709
_cell_angle_alpha 90.000000
_cell_angle_beta 137.018030
_cell_angle_gamma 90.000000
_cell_volume 1907.135640
_symmetry_space_group_name_H-M "P 21/M"
_symmetry_group_IT_number 11
_symmetry_cell_setting 'monoclinic'
loop_
_space_group_symop_operation_xyz
x,y,z
-x,1/2+y,-z
-x,-y,-z
x,1/2-y,z
loop_
_atom_site_type_symbol
_atom_site_label
_atom_site_fract_x
_atom_site_fract_y
_atom_site_fract_z
Si Si1 0.590121 0.569211 0.602441
Si Si2 0.451438 0.571009 0.284323
Si Si3 0.701896 0.073450 0.378920
Si Si4 0.003564 0.572054 0.901114
Si Si5 0.087245 0.571234 0.402385
Si Si6 0.199642 0.072089 0.098379
Si Si7 0.086715 0.574112 0.600360
Si Si8 0.857535 0.069052 0.711808
O O1 0.500000 0.500000 0.500000
O O2 0.586352 0.750000 0.595883
O O3 0.537960 0.518826 0.643126
O O4 0.732790 0.511932 0.671174
O O5 0.439924 0.750000 0.291455
O O6 0.578488 0.533526 0.312983
O O7 0.331828 0.515641 0.177998
O O8 0.663057 0.250000 0.367694
O O9 0.797873 0.022268 0.488091
O O10 0.767131 0.049629 0.343729
O O11 0.027097 0.750000 0.901488
O O12 0.884936 0.543987 0.884260
O O13 0.975761 0.486247 0.819154
O O14 0.130749 0.497795 0.998893
O O15 0.067721 0.750000 0.392640
O O16 0.118593 0.512996 0.347908
O O17 0.951413 0.499908 0.351716
O O18 0.225547 0.250000 0.101078
O O19 0.052567 0.750000 0.585524
O O20 0.000000 0.500000 0.500000
O O21 0.840249 0.250000 0.706973
#
# Coordination Sequence:
#
# PCOD8073400 Si02
#       8
#     4   4   4   4   4   4   4   4
#     4  12  24  37  50  68  98 137 174 209 246 291
#     4  12  23  34  51  75 101 133 170 208 250 301
#     4   9  18  33  50  71 102 136 171 209 250 294
#     4  10  20  34  53  75  99 130 168 212 256 298
#     4   9  19  33  50  73 102 135 169 208 249 294
#     4  10  20  35  54  73  98 131 166 212 259 298
#     4   9  17  30  50  72  97 130 166 209 253 294
#     4  11  21  34  52  75 103 136 170 206 250 300
#
# _framework density 16.77909
#
# number of rings (size 3 to 8) (size 9 to 14) (size 15 to 20)
#    0.000    1.750    1.250    5.250    0.000    5.500 
#    0.000    0.000    0.000    0.000    0.000    0.875 
#    0.000    0.000    0.000    0.000    0.000    0.000 
#
# Total GULP energy -396827.603856 kJ/mol
# GULP energy per Si atom -12400.862621 kJ/mol
# Density = 1.674090 g / cm^3
# Si number density = 16.779090 Si / 1000 Ang^3
#
#
#
# Elastic Constant Matrix: (Units=GPa)
#
#
# Indices 1 2 3 4 5 6 
#
# 1 69.9037 26.1057 23.2407 0.0000 10.8982 0.0000
# 2 26.1057 83.0216 30.1607 0.0000 2.1460 0.0000
# 3 23.2407 30.1607 88.6892 0.0000 5.8613 0.0000
# 4 0.0000 0.0000 0.0000 29.9282 0.0000 1.2704
# 5 10.8982 2.1460 5.8613 0.0000 9.8626 0.0000
# 6 0.0000 0.0000 0.0000 1.2704 0.0000 28.7280
#
#
#
# Elastic Compliance Matrix: (Units=1/GPa)
#
#
# Indices 1 2 3 4 5 6 
#
# 1 0.019966 -0.004953 -0.002249 0.000000 -0.019648 0.000000
# 2 -0.004953 0.014972 -0.004101 0.000000 0.004653 0.000000
# 3 -0.002249 -0.004101 0.013569 0.000000 -0.004686 0.000000
# 4 0.000000 0.000000 0.000000 0.033476 0.000000 -0.001480
# 5 -0.019648 0.004653 -0.004686 0.000000 0.124878 0.000000
# 6 0.000000 0.000000 0.000000 -0.001480 0.000000 0.034875
#
#
# Mechanical properties :
#
#
# Convention : Reuss Voigt Hill
#
# Bulk Modulus (GPa) = 38.60938 44.51430 41.56184
# Shear Modulus (GPa) = 18.31658 24.51092 21.41375
#
# Velocity S-wave (km/s) = 3.30757 3.82619 3.57629
# Velocity P-wave (km/s) = 6.13572 6.79020 6.47124
#
# Compressibility (1/GPa) = 0.02590044
#
# Stress axis : x y z
#
# Youngs Moduli (GPa) = 50.08466 66.79036 73.69698
#
# Poissons Ratio (x) = 0.33084 0.16575
# Poissons Ratio (y) = 0.24809 0.30224
# Poissons Ratio (z) = 0.11264 0.27392
#
# Static dielectric constant tensor:
#      x y z
#    x 3.385340 0.000000 -0.032030 
#    y 0.000000 3.301070 0.000000 
#    z -0.032030 0.000000 3.120470 
# 
# 
# High freq. dielectric constant tensor:
#      x y z
#    x 1.635970 0.000000 0.002790 
#    y 0.000000 1.662170 0.000000 
#    z 0.002790 0.000000 1.626260 
# 
# From -- ./inp_files/65212.got.cif
#   From: 2010.06.25/outbox.cif.g09.slc.cpg/sg11_33_cif.got.tgz:65212.got - 2010.06.27 23:14:04.
