data_PCOD8073691
_publ_section_title
;
Structure prediction by ZEFSAII (Michael W. Deem and Ramdas Pophale) SiO2 
 PCOD8073691
Probable space group: P 21/M
;
_chemical_formula_sum "Si O2"
_cell_formula_units_Z 32
_cell_length_a 33.498550
_cell_length_b 8.845374
_cell_length_c 12.329342
_cell_angle_alpha 90.000000
_cell_angle_beta 25.686768
_cell_angle_gamma 90.000000
_cell_volume 1583.514682
_symmetry_space_group_name_H-M "P 21/M"
_symmetry_group_IT_number 11
_symmetry_cell_setting 'monoclinic'
loop_
_space_group_symop_operation_xyz
x,y,z
-x,1/2+y,-z
-x,-y,-z
x,1/2-y,z
loop_
_atom_site_type_symbol
_atom_site_label
_atom_site_fract_x
_atom_site_fract_y
_atom_site_fract_z
Si Si1 0.435480 0.426837 0.796488
Si Si2 0.062552 0.072819 0.254389
Si Si3 0.377729 0.425934 0.711507
Si Si4 0.985831 0.577681 0.868993
Si Si5 0.401032 0.571388 0.274638
Si Si6 0.139247 0.920398 0.656814
Si Si7 0.271848 0.072263 0.767049
Si Si8 0.684865 0.925108 0.711528
O O1 0.448512 0.250000 0.754955
O O2 0.370607 0.483094 0.854181
O O3 0.533883 0.500898 0.558563
O O4 0.393751 0.472364 0.012876
O O5 0.063877 0.250000 0.273790
O O6 0.016620 0.032522 0.251265
O O7 0.168514 0.012008 0.995082
O O8 0.000000 0.000000 0.500000
O O9 0.396180 0.250000 0.664991
O O10 0.289742 0.463979 0.851377
O O11 0.948579 0.750000 0.975372
O O12 0.089166 0.565134 0.662942
O O13 0.926294 0.458886 0.081907
O O14 0.414958 0.750000 0.251537
O O15 0.353469 0.509757 0.500484
O O16 0.326707 0.529695 0.364709
O O17 0.500000 0.500000 0.000000
O O18 0.175641 0.750000 0.584124
O O19 0.220454 0.041053 0.459216
O O20 0.278824 0.250000 0.723913
O O21 0.680779 0.750000 0.687465
#
# Coordination Sequence:
#
# PCOD8073691 Si02
#       8
#     4   4   4   4   4   4   4   4
#     4   9  19  34  52  76 106 141 180 223 272 329
#     4  10  22  39  59  83 114 152 193 240 291 344
#     4   9  18  34  55  78 105 139 181 226 274 328
#     4   9  19  37  57  79 111 147 184 230 287 344
#     4  12  25  40  60  87 120 156 195 238 285 342
#     4  10  20  34  56  84 110 141 183 231 284 342
#     4  10  21  38  60  85 115 152 193 239 291 344
#     4  11  22  36  55  81 114 147 183 228 279 336
#
# _framework density 20.208210999999999
#
# number of rings (size 3 to 8) (size 9 to 14) (size 15 to 20)
#    0.000    2.000    0.000    3.375    0.000    7.000 
#    0.000    1.250    0.000    0.000    0.000    0.000 
#    0.000    0.000    0.000    0.000    0.000    0.000 
#
# Total GULP energy -396628.529568 kJ/mol
# GULP energy per Si atom -12394.641549 kJ/mol
# Density = 2.016222 g / cm^3
# Si number density = 20.208211 Si / 1000 Ang^3
#
#
#
# Elastic Constant Matrix: (Units=GPa)
#
#
# Indices 1 2 3 4 5 6 
#
# 1 125.8660 34.8535 22.0399 0.0000 -6.3903 0.0000
# 2 34.8535 58.0388 20.4489 0.0000 -3.5156 0.0000
# 3 22.0399 20.4489 70.7453 0.0000 -2.0517 0.0000
# 4 0.0000 0.0000 0.0000 33.2052 0.0000 -1.2569
# 5 -6.3903 -3.5156 -2.0517 0.0000 31.0934 0.0000
# 6 0.0000 0.0000 0.0000 -1.2569 0.0000 27.1481
#
#
#
# Elastic Compliance Matrix: (Units=1/GPa)
#
#
# Indices 1 2 3 4 5 6 
#
# 1 0.009720 -0.005238 -0.001476 0.000000 0.001308 0.000000
# 2 -0.005238 0.022108 -0.004726 0.000000 0.001111 0.000000
# 3 -0.001476 -0.004726 0.015968 0.000000 0.000216 0.000000
# 4 0.000000 0.000000 0.000000 0.030169 0.000000 0.001397
# 5 0.001308 0.001111 0.000216 0.000000 0.032570 0.000000
# 6 0.000000 0.000000 0.000000 0.001397 0.000000 0.036900
#
#
# Mechanical properties :
#
#
# Convention : Reuss Voigt Hill
#
# Bulk Modulus (GPa) = 40.13674 45.48163 42.80919
# Shear Modulus (GPa) = 27.99245 30.10985 29.05115
#
# Velocity S-wave (km/s) = 3.72587 3.86421 3.79567
# Velocity P-wave (km/s) = 6.19792 6.51651 6.35921
#
# Compressibility (1/GPa) = 0.02491483
#
# Stress axis : x y z
#
# Youngs Moduli (GPa) = 102.87759 45.23289 62.62714
#
# Poissons Ratio (x) = 0.23692 0.09246
# Poissons Ratio (y) = 0.53886 0.29599
# Poissons Ratio (z) = 0.15188 0.21378
#
# Static dielectric constant tensor:
#      x y z
#    x 4.091040 0.000000 -0.002010 
#    y 0.000000 3.576250 0.000000 
#    z -0.002010 0.000000 3.700360 
# 
# 
# High freq. dielectric constant tensor:
#      x y z
#    x 1.811210 0.000000 -0.004610 
#    y 0.000000 1.781150 0.000000 
#    z -0.004610 0.000000 1.772450 
# 
# From -- ./inp_files/45163.got.cif
#   From: 2010.06.25/outbox.cif.g09.slc.cpg/sg11_23_cif.got.tgz:45163.got - 2010.06.27 23:14:04.
