data_PCOD8073227
_publ_section_title
;
Structure prediction by ZEFSAII (Michael W. Deem and Ramdas Pophale) SiO2 
 PCOD8073227
Probable space group: P 21/M
;
_chemical_formula_sum "Si O2"
_cell_formula_units_Z 28
_cell_length_a 17.795475
_cell_length_b 9.278838
_cell_length_c 14.961094
_cell_angle_alpha 90.000000
_cell_angle_beta 143.733070
_cell_angle_gamma 90.000000
_cell_volume 1461.357444
_symmetry_space_group_name_H-M "P 21/M"
_symmetry_group_IT_number 11
_symmetry_cell_setting 'monoclinic'
loop_
_space_group_symop_operation_xyz
x,y,z
-x,1/2+y,-z
-x,-y,-z
x,1/2-y,z
loop_
_atom_site_type_symbol
_atom_site_label
_atom_site_fract_x
_atom_site_fract_y
_atom_site_fract_z
Si Si1 0.395171 0.922166 0.338545
Si Si2 0.500615 0.585211 0.720409
Si Si3 0.211799 0.911308 0.430569
Si Si4 0.877897 0.084012 0.849073
Si Si5 0.152525 0.416218 0.722206
Si Si6 0.082608 0.082233 0.455996
Si Si7 0.438953 0.082643 0.023517
O O1 0.414397 0.750000 0.363114
O O2 0.253447 0.968667 0.231815
O O3 0.500000 0.000000 0.500000
O O4 0.410936 0.978530 0.252031
O O5 0.551163 0.750000 0.761061
O O6 0.359058 0.572963 0.545660
O O7 0.498968 0.536916 0.822762
O O8 0.185850 0.750000 0.442305
O O9 0.129548 0.941788 0.263982
O O10 0.178358 0.026319 0.473403
O O11 0.899299 0.250000 0.893142
O O12 0.000000 0.000000 0.000000
O O13 0.118885 0.250000 0.704812
O O14 0.143536 0.457904 0.609486
O O15 0.054185 0.507899 0.686352
O O16 0.291140 0.456206 0.889640
O O17 0.063136 0.250000 0.424018
O O18 0.459551 0.250000 0.022898
O O19 0.500000 0.000000 0.000000
#
# Coordination Sequence:
#
# PCOD8073227 Si02
#       7
#     4   4   4   4   4   4   4
#     4  11  22  40  64  89 119 154 197 249 298 355
#     4  10  21  38  60  87 116 153 197 239 293 356
#     4  10  20  37  57  79 113 148 184 233 288 348
#     4  10  23  41  60  86 119 153 191 241 296 351
#     4   9  19  36  53  76 112 149 185 230 285 339
#     4  10  20  33  54  81 108 144 192 235 275 337
#     4  10  21  36  57  83 116 152 189 238 290 343
#
# _framework density 19.160267999999999
#
# number of rings (size 3 to 8) (size 9 to 14) (size 15 to 20)
#    0.000    2.000    1.429    1.714    0.000    5.143 
#    0.000    4.286    0.000    0.000    0.000    0.000 
#    0.000    0.000    0.000    0.000    0.000    0.000 
#
# Total GULP energy -347273.659720 kJ/mol
# GULP energy per Si atom -12402.630704 kJ/mol
# Density = 1.911666 g / cm^3
# Si number density = 19.160268 Si / 1000 Ang^3
#
#
#
# Elastic Constant Matrix: (Units=GPa)
#
#
# Indices 1 2 3 4 5 6 
#
# 1 98.2098 52.5167 30.9639 0.0000 4.7468 0.0000
# 2 52.5167 77.0245 41.2594 0.0000 5.8126 0.0000
# 3 30.9639 41.2594 108.0457 0.0000 9.8033 0.0000
# 4 0.0000 0.0000 0.0000 30.3299 0.0000 0.2474
# 5 4.7468 5.8126 9.8033 0.0000 23.0833 0.0000
# 6 0.0000 0.0000 0.0000 0.2474 0.0000 42.2471
#
#
#
# Elastic Compliance Matrix: (Units=1/GPa)
#
#
# Indices 1 2 3 4 5 6 
#
# 1 0.016053 -0.010648 -0.000497 0.000000 -0.000409 0.000000
# 2 -0.010648 0.023436 -0.005784 0.000000 -0.001255 0.000000
# 3 -0.000497 -0.005784 0.011925 0.000000 -0.003506 0.000000
# 4 0.000000 0.000000 0.000000 0.032972 0.000000 -0.000193
# 5 -0.000409 -0.001255 -0.003506 0.000000 0.045210 0.000000
# 6 0.000000 0.000000 0.000000 -0.000193 0.000000 0.023671
#
#
# Mechanical properties :
#
#
# Convention : Reuss Voigt Hill
#
# Bulk Modulus (GPa) = 56.96414 59.19557 58.07985
# Shear Modulus (GPa) = 25.90983 29.70139 27.80561
#
# Velocity S-wave (km/s) = 3.68131 3.94147 3.81361
# Velocity P-wave (km/s) = 6.91840 7.18858 7.05478
#
# Compressibility (1/GPa) = 0.01755490
#
# Stress axis : x y z
#
# Youngs Moduli (GPa) = 62.29519 42.66978 83.85969
#
# Poissons Ratio (x) = 0.45434 0.04170
# Poissons Ratio (y) = 0.66330 0.48505
# Poissons Ratio (z) = 0.03098 0.24681
#
# Static dielectric constant tensor:
#      x y z
#    x 3.537050 0.000000 0.048670 
#    y 0.000000 3.509920 0.000000 
#    z 0.048670 0.000000 3.541420 
# 
# 
# High freq. dielectric constant tensor:
#      x y z
#    x 1.748390 0.000000 0.000310 
#    y 0.000000 1.741480 0.000000 
#    z 0.000310 0.000000 1.746780 
# 
# From -- ./inp_files/53294.got.cif
#   From: 2010.06.25/outbox.cif.g09.slc.cpg/sg11_27_cif.got.tgz:53294.got - 2010.06.27 23:14:04.
