data_PCOD8073463
_publ_section_title
;
Structure prediction by ZEFSAII (Michael W. Deem and Ramdas Pophale) SiO2 
 PCOD8073463
Probable space group: P 21/M
;
_chemical_formula_sum "Si O2"
_cell_formula_units_Z 32
_cell_length_a 9.979237
_cell_length_b 13.461202
_cell_length_c 14.296312
_cell_angle_alpha 90.000000
_cell_angle_beta 62.354488
_cell_angle_gamma 90.000000
_cell_volume 1701.210962
_symmetry_space_group_name_H-M "P 21/M"
_symmetry_group_IT_number 11
_symmetry_cell_setting 'monoclinic'
loop_
_space_group_symop_operation_xyz
x,y,z
-x,1/2+y,-z
-x,-y,-z
x,1/2-y,z
loop_
_atom_site_type_symbol
_atom_site_label
_atom_site_fract_x
_atom_site_fract_y
_atom_site_fract_z
Si Si1 0.292582 0.638116 0.050508
Si Si2 0.255275 0.360694 0.328664
Si Si3 0.831542 0.038626 0.544995
Si Si4 0.062768 0.865603 0.665817
Si Si5 0.977374 0.860429 0.059473
Si Si6 0.361477 0.635744 0.239663
Si Si7 0.450439 0.550944 0.831359
Si Si8 0.148633 0.555730 0.835936
O O1 0.351604 0.750000 0.011485
O O2 0.303596 0.610568 0.155088
O O3 0.117176 0.629500 0.083940
O O4 0.387158 0.559883 0.957594
O O5 0.243787 0.250000 0.373033
O O6 0.266122 0.436949 0.413152
O O7 0.406436 0.375199 0.219572
O O8 0.110566 0.384003 0.309479
O O9 0.818081 0.095206 0.450890
O O10 0.776825 0.113608 0.644409
O O11 0.000000 0.000000 0.500000
O O12 0.093925 0.750000 0.674119
O O13 0.101152 0.928136 0.745029
O O14 0.906296 0.750000 0.085635
O O15 0.854168 0.939428 0.134311
O O16 0.029924 0.882315 0.936509
O O17 0.413402 0.750000 0.234178
O O18 0.503628 0.562338 0.209799
O O19 0.321203 0.589056 0.800840
#
# Coordination Sequence:
#
# PCOD8073463 Si02
#       8
#     4   4   4   4   4   4   4   4
#     4   9  18  32  54  81 107 142 182 221 272 327
#     4   9  19  35  56  81 112 142 178 227 274 320
#     4   9  19  34  55  80 107 140 176 231 274 315
#     4  10  20  36  58  83 106 140 188 230 269 320
#     4   9  19  35  53  77 110 145 182 226 272 321
#     4  10  20  34  53  80 111 145 181 222 277 327
#     4  10  20  35  54  80 113 147 177 221 268 327
#     4  10  21  35  56  79 108 146 184 224 270 322
#
# _framework density 18.810131999999999
#
# number of rings (size 3 to 8) (size 9 to 14) (size 15 to 20)
#    0.000    2.500    0.000    1.500    5.250    2.500 
#    2.250    3.125    0.000    1.500    0.000    0.000 
#    0.000    0.000    0.000    0.000    0.000    0.000 
#
# Total GULP energy -396601.440208 kJ/mol
# GULP energy per Si atom -12393.795007 kJ/mol
# Density = 1.876732 g / cm^3
# Si number density = 18.810132 Si / 1000 Ang^3
#
#
#
# Elastic Constant Matrix: (Units=GPa)
#
#
# Indices 1 2 3 4 5 6 
#
# 1 60.7645 25.3925 48.4239 0.0000 3.4166 0.0000
# 2 25.3925 106.9000 40.0266 0.0000 4.1963 0.0000
# 3 48.4239 40.0266 111.7963 0.0000 8.2450 0.0000
# 4 0.0000 0.0000 0.0000 24.9403 0.0000 -0.0417
# 5 3.4166 4.1963 8.2450 0.0000 17.5493 0.0000
# 6 0.0000 0.0000 0.0000 -0.0417 0.0000 21.5955
#
#
#
# Elastic Compliance Matrix: (Units=1/GPa)
#
#
# Indices 1 2 3 4 5 6 
#
# 1 0.025585 -0.002232 -0.010312 0.000000 0.000397 0.000000
# 2 -0.002232 0.011008 -0.002913 0.000000 -0.000829 0.000000
# 3 -0.010312 -0.002913 0.014767 0.000000 -0.004233 0.000000
# 4 0.000000 0.000000 0.000000 0.040096 0.000000 0.000077
# 5 0.000397 -0.000829 -0.004233 0.000000 0.059092 0.000000
# 6 0.000000 0.000000 0.000000 0.000077 0.000000 0.046306
#
#
# Mechanical properties :
#
#
# Convention : Reuss Voigt Hill
#
# Bulk Modulus (GPa) = 48.91139 56.34964 52.63052
# Shear Modulus (GPa) = 21.31426 23.85820 22.58623
#
# Velocity S-wave (km/s) = 3.36985 3.56528 3.46894
# Velocity P-wave (km/s) = 6.41874 6.85350 6.63968
#
# Compressibility (1/GPa) = 0.02044514
#
# Stress axis : x y z
#
# Youngs Moduli (GPa) = 39.08492 90.84241 67.71897
#
# Poissons Ratio (x) = 0.20274 0.69835
# Poissons Ratio (y) = 0.08723 0.19729
# Poissons Ratio (z) = 0.40306 0.26466
#
# Static dielectric constant tensor:
#      x y z
#    x 3.186050 0.000000 -0.079290 
#    y 0.000000 3.710530 0.000000 
#    z -0.079290 0.000000 3.607100 
# 
# 
# High freq. dielectric constant tensor:
#      x y z
#    x 1.702690 0.000000 -0.005940 
#    y 0.000000 1.743250 0.000000 
#    z -0.005940 0.000000 1.725170 
# 
# From -- ./inp_files/47612.got.cif
#   From: 2010.06.25/outbox.cif.g09.slc.cpg/sg11_24_cif.got.tgz:47612.got - 2010.06.27 23:14:04.
