data_PCOD8073359
_publ_section_title
;
Structure prediction by ZEFSAII (Michael W. Deem and Ramdas Pophale) SiO2 
 PCOD8073359
Probable space group: P 21/M
;
_chemical_formula_sum "Si O2"
_cell_formula_units_Z 28
_cell_length_a 9.339420
_cell_length_b 9.063212
_cell_length_c 29.473824
_cell_angle_alpha 90.000000
_cell_angle_beta 37.492780
_cell_angle_gamma 90.000000
_cell_volume 1518.498364
_symmetry_space_group_name_H-M "P 21/M"
_symmetry_group_IT_number 11
_symmetry_cell_setting 'monoclinic'
loop_
_space_group_symop_operation_xyz
x,y,z
-x,1/2+y,-z
-x,-y,-z
x,1/2-y,z
loop_
_atom_site_type_symbol
_atom_site_label
_atom_site_fract_x
_atom_site_fract_y
_atom_site_fract_z
Si Si1 0.966932 0.925066 0.370524
Si Si2 0.749654 0.076498 0.934935
Si Si3 0.848949 0.921710 0.500312
Si Si4 0.060535 0.576216 0.209626
Si Si5 0.305167 0.577090 0.639338
Si Si6 0.918378 0.925585 0.066428
Si Si7 0.604060 0.423225 0.795278
O O1 0.930422 0.750000 0.375013
O O2 0.928359 0.981467 0.431134
O O3 0.228899 0.973295 0.288388
O O4 0.774830 0.002008 0.387173
O O5 0.706404 0.250000 0.946297
O O6 0.882534 0.028436 0.855754
O O7 0.908809 0.024251 0.936868
O O8 0.500000 0.000000 0.000000
O O9 0.902385 0.750000 0.489774
O O10 0.578134 0.957734 0.577308
O O11 0.000000 0.000000 0.500000
O O12 0.011987 0.750000 0.226361
O O13 0.278499 0.527203 0.186728
O O14 0.827327 0.491026 0.283959
O O15 0.253206 0.750000 0.649364
O O16 0.919298 0.750000 0.060109
O O17 0.657891 0.989054 0.143527
O O18 0.000000 0.000000 0.000000
O O19 0.577616 0.250000 0.801180
#
# Coordination Sequence:
#
# PCOD8073359 Si02
#       7
#     4   4   4   4   4   4   4
#     4   9  18  35  57  78 100 135 177 213 256 315
#     4  10  21  35  54  79 106 138 178 218 260 310
#     4  10  22  36  52  77 108 140 176 217 264 313
#     4   9  18  34  54  75 101 139 179 213 255 312
#     4  10  20  34  53  80 109 136 170 216 263 310
#     4  10  20  34  52  76 103 133 169 211 256 304
#     4   8  15  30  52  73  96 127 168 212 249 294
#
# _framework density 18.43927
#
# number of rings (size 3 to 8) (size 9 to 14) (size 15 to 20)
#    0.000    2.571    0.000    2.571    0.000    5.143 
#    0.000    7.143    0.000    0.000    0.000    0.000 
#    0.000    0.000    0.000    0.000    0.000    0.000 
#
# Total GULP energy -347189.489900 kJ/mol
# GULP energy per Si atom -12399.624639 kJ/mol
# Density = 1.839730 g / cm^3
# Si number density = 18.439270 Si / 1000 Ang^3
#
#
#
# Elastic Constant Matrix: (Units=GPa)
#
#
# Indices 1 2 3 4 5 6 
#
# 1 152.3884 49.3057 103.7745 0.0000 5.5111 0.0000
# 2 49.3057 42.1275 53.1414 0.0000 -1.0637 0.0000
# 3 103.7745 53.1414 154.8301 0.0000 8.6943 0.0000
# 4 0.0000 0.0000 0.0000 30.9761 0.0000 -0.1467
# 5 5.5111 -1.0637 8.6943 0.0000 36.6315 0.0000
# 6 0.0000 0.0000 0.0000 -0.1467 0.0000 29.2253
#
#
#
# Elastic Compliance Matrix: (Units=1/GPa)
#
#
# Indices 1 2 3 4 5 6 
#
# 1 0.013355 -0.007780 -0.006238 0.000000 -0.000755 0.000000
# 2 -0.007780 0.047204 -0.011280 0.000000 0.005219 0.000000
# 3 -0.006238 -0.011280 0.014673 0.000000 -0.002872 0.000000
# 4 0.000000 0.000000 0.000000 0.032284 0.000000 0.000162
# 5 -0.000755 0.005219 -0.002872 0.000000 0.028246 0.000000
# 6 0.000000 0.000000 0.000000 0.000162 0.000000 0.034218
#
#
# Mechanical properties :
#
#
# Convention : Reuss Voigt Hill
#
# Bulk Modulus (GPa) = 40.59308 84.64323 62.61816
# Shear Modulus (GPa) = 21.85428 28.90822 25.38125
#
# Velocity S-wave (km/s) = 3.44641 3.96378 3.71412
# Velocity P-wave (km/s) = 6.15624 8.18243 7.24056
#
# Compressibility (1/GPa) = 0.02463474
#
# Stress axis : x y z
#
# Youngs Moduli (GPa) = 74.87763 21.18454 68.15321
#
# Poissons Ratio (x) = 0.16482 0.42517
# Poissons Ratio (y) = 0.58257 0.76876
# Poissons Ratio (z) = 0.46712 0.23896
#
# Static dielectric constant tensor:
#      x y z
#    x 3.499650 0.000000 -0.005980 
#    y 0.000000 3.199250 0.000000 
#    z -0.005980 0.000000 3.794650 
# 
# 
# High freq. dielectric constant tensor:
#      x y z
#    x 1.715180 0.000000 -0.000610 
#    y 0.000000 1.693380 0.000000 
#    z -0.000610 0.000000 1.732220 
# 
# From -- ./inp_files/70815.got.cif
#   From: 2010.06.25/outbox.cif.g09.slc.cpg/sg11_36_cif.got.tgz:70815.got - 2010.06.27 23:14:04.
