data_PCOD8073678
_publ_section_title
;
Structure prediction by ZEFSAII (Michael W. Deem and Ramdas Pophale) SiO2 
 PCOD8073678
Probable space group: P 21/M
;
_chemical_formula_sum "Si O2"
_cell_formula_units_Z 32
_cell_length_a 21.828251
_cell_length_b 8.855447
_cell_length_c 25.159708
_cell_angle_alpha 90.000000
_cell_angle_beta 22.548030
_cell_angle_gamma 90.000000
_cell_volume 1864.887186
_symmetry_space_group_name_H-M "P 21/M"
_symmetry_group_IT_number 11
_symmetry_cell_setting 'monoclinic'
loop_
_space_group_symop_operation_xyz
x,y,z
-x,1/2+y,-z
-x,-y,-z
x,1/2-y,z
loop_
_atom_site_type_symbol
_atom_site_label
_atom_site_fract_x
_atom_site_fract_y
_atom_site_fract_z
Si Si1 0.200011 0.078133 0.195459
Si Si2 0.288959 0.572315 0.626088
Si Si3 0.883556 0.424965 0.051004
Si Si4 0.487261 0.921818 0.108364
Si Si5 0.407642 0.921784 0.643606
Si Si6 0.240785 0.572009 0.058208
Si Si7 0.861188 0.070639 0.646725
Si Si8 0.934686 0.928983 0.898462
O O1 0.138164 0.250000 0.248185
O O2 0.140632 0.002730 0.187443
O O3 0.123769 0.986610 0.305115
O O4 0.395681 0.072125 0.037689
O O5 0.291044 0.750000 0.623760
O O6 0.428079 0.510445 0.476391
O O7 0.317987 0.512135 0.663074
O O8 0.117088 0.517023 0.742974
O O9 0.931724 0.250000 0.003459
O O10 0.703454 0.438039 0.216432
O O11 0.883026 0.520072 0.998024
O O12 0.000000 0.500000 0.000000
O O13 0.475227 0.750000 0.138720
O O14 0.311189 0.984735 0.236818
O O15 0.571517 0.023484 0.086667
O O16 0.454675 0.750000 0.594757
O O17 0.223896 0.750000 0.074431
O O18 0.176660 0.511898 0.054181
O O19 0.875797 0.250000 0.634292
O O20 0.000000 0.000000 0.500000
O O21 0.914148 0.750000 0.909662
#
# Coordination Sequence:
#
# PCOD8073678 Si02
#       8
#     4   4   4   4   4   4   4   4
#     4   9  18  35  56  79 107 142 179 220 264 310
#     4   9  18  32  51  74 100 133 169 207 257 314
#     4  11  21  34  52  78 107 136 172 219 271 321
#     4   8  18  35  55  78 107 143 179 215 261 311
#     4   9  18  33  49  73 104 132 164 209 262 314
#     4  10  20  34  56  81 104 137 182 225 266 313
#     4  11  21  33  53  85 118 147 179 218 265 316
#     4  11  21  36  55  78 106 136 176 221 265 322
#
# _framework density 17.159215
#
# number of rings (size 3 to 8) (size 9 to 14) (size 15 to 20)
#    0.750    1.500    1.250    2.625    0.000    3.000 
#    0.000    0.000    2.750    0.000    0.000    0.000 
#    0.000    0.000    0.000    0.000    0.000    0.000 
#
# Total GULP energy -396596.230165 kJ/mol
# GULP energy per Si atom -12393.632193 kJ/mol
# Density = 1.712016 g / cm^3
# Si number density = 17.159215 Si / 1000 Ang^3
#
#
#
# Elastic Constant Matrix: (Units=GPa)
#
#
# Indices 1 2 3 4 5 6 
#
# 1 101.3891 35.7595 33.3040 0.0000 5.3278 0.0000
# 2 35.7595 76.0908 27.1353 0.0000 0.4431 0.0000
# 3 33.3040 27.1353 78.0364 0.0000 6.0541 0.0000
# 4 0.0000 0.0000 0.0000 29.7614 0.0000 3.3724
# 5 5.3278 0.4431 6.0541 0.0000 13.7326 0.0000
# 6 0.0000 0.0000 0.0000 3.3724 0.0000 27.9339
#
#
#
# Elastic Compliance Matrix: (Units=1/GPa)
#
#
# Indices 1 2 3 4 5 6 
#
# 1 0.012894 -0.004758 -0.003595 0.000000 -0.003264 0.000000
# 2 -0.004758 0.016806 -0.004053 0.000000 0.003091 0.000000
# 3 -0.003595 -0.004053 0.016193 0.000000 -0.005614 0.000000
# 4 0.000000 0.000000 0.000000 0.034067 0.000000 -0.004113
# 5 -0.003264 0.003091 -0.005614 0.000000 0.076461 0.000000
# 6 0.000000 0.000000 0.000000 -0.004113 0.000000 0.036295
#
#
# Mechanical properties :
#
#
# Convention : Reuss Voigt Hill
#
# Bulk Modulus (GPa) = 47.43668 49.76820 48.60244
# Shear Modulus (GPa) = 22.26628 24.90675 23.58652
#
# Velocity S-wave (km/s) = 3.60617 3.81400 3.71154
# Velocity P-wave (km/s) = 6.71151 6.96148 6.83763
#
# Compressibility (1/GPa) = 0.02108073
#
# Stress axis : x y z
#
# Youngs Moduli (GPa) = 77.55771 59.50335 61.75330
#
# Poissons Ratio (x) = 0.28315 0.22199
# Poissons Ratio (y) = 0.36906 0.25027
# Poissons Ratio (z) = 0.27881 0.24115
#
# Static dielectric constant tensor:
#      x y z
#    x 2.971870 0.000000 -0.075810 
#    y 0.000000 3.272490 0.000000 
#    z -0.075810 0.000000 3.177710 
# 
# 
# High freq. dielectric constant tensor:
#      x y z
#    x 1.639050 0.000000 -0.000880 
#    y 0.000000 1.672800 0.000000 
#    z -0.000880 0.000000 1.649950 
# 
# From -- ./inp_files/72281.got.cif
#   From: 2010.06.25/outbox.cif.g09.slc.cpg/sg11_37_cif.got.tgz:72281.got - 2010.06.27 23:14:04.
