data_PCOD8073223
_publ_section_title
;
Structure prediction by ZEFSAII (Michael W. Deem and Ramdas Pophale) SiO2 
 PCOD8073223
Probable space group: P 21/M
;
_chemical_formula_sum "Si O2"
_cell_formula_units_Z 32
_cell_length_a 11.475292
_cell_length_b 8.616274
_cell_length_c 16.369835
_cell_angle_alpha 90.000000
_cell_angle_beta 87.498263
_cell_angle_gamma 90.000000
_cell_volume 1617.012677
_symmetry_space_group_name_H-M "P 21/M"
_symmetry_group_IT_number 11
_symmetry_cell_setting 'monoclinic'
loop_
_space_group_symop_operation_xyz
x,y,z
-x,1/2+y,-z
-x,-y,-z
x,1/2-y,z
loop_
_atom_site_type_symbol
_atom_site_label
_atom_site_fract_x
_atom_site_fract_y
_atom_site_fract_z
Si Si1 0.658417 0.431408 0.449553
Si Si2 0.507185 0.432025 0.909413
Si Si3 0.669730 0.930477 0.776808
Si Si4 0.065865 0.067128 0.229190
Si Si5 0.840961 0.068110 0.319707
Si Si6 0.720264 0.066458 0.160535
Si Si7 0.434612 0.929132 0.377698
Si Si8 0.058301 0.067622 0.919138
O O1 0.630972 0.250000 0.435136
O O2 0.784561 0.481903 0.408314
O O3 0.656946 0.467407 0.546244
O O4 0.563004 0.532209 0.405375
O O5 0.505511 0.250000 0.918701
O O6 0.625511 0.482141 0.859296
O O7 0.401360 0.487083 0.856301
O O8 0.500000 0.500000 0.000000
O O9 0.659693 0.750000 0.796111
O O10 0.802648 0.979964 0.752519
O O11 0.593669 0.968423 0.699765
O O12 0.054979 0.250000 0.209841
O O13 0.977195 0.018851 0.306193
O O14 0.027690 0.970073 0.152316
O O15 0.833475 0.250000 0.310841
O O16 0.762807 0.002076 0.247417
O O17 0.702314 0.250000 0.158659
O O18 0.817039 0.016532 0.092001
O O19 0.428017 0.750000 0.352259
O O20 0.078673 0.250000 0.926090
O O21 0.000000 0.000000 0.000000
#
# Coordination Sequence:
#
# PCOD8073223 Si02
#       8
#     4   4   4   4   4   4   4   4
#     4   9  17  32  57  85 115 149 190 238 289 345
#     4  12  26  42  60  84 114 148 189 235 287 346
#     4  11  23  40  60  80 113 155 194 237 291 352
#     4   9  20  38  58  80 107 146 196 241 288 346
#     4   8  15  32  58  83 107 141 185 234 282 331
#     4  10  20  37  59  84 113 145 187 232 282 341
#     4  10  20  33  53  85 119 152 190 235 289 349
#     4  11  22  36  57  82 111 145 186 237 290 340
#
# _framework density 19.789579
#
# number of rings (size 3 to 8) (size 9 to 14) (size 15 to 20)
#    0.000    2.000    0.000    4.875    1.750    2.500 
#    0.000    3.125    0.000    0.000    0.000    0.000 
#    0.000    0.000    0.000    0.000    0.000    0.000 
#
# Total GULP energy -396729.141062 kJ/mol
# GULP energy per Si atom -12397.785658 kJ/mol
# Density = 1.974454 g / cm^3
# Si number density = 19.789579 Si / 1000 Ang^3
#
#
#
# Elastic Constant Matrix: (Units=GPa)
#
#
# Indices 1 2 3 4 5 6 
#
# 1 97.3611 28.7290 40.2691 0.0000 -20.3761 0.0000
# 2 28.7290 83.8851 27.1708 0.0000 -5.0075 0.0000
# 3 40.2691 27.1708 98.0450 0.0000 -29.3513 0.0000
# 4 0.0000 0.0000 0.0000 26.3503 0.0000 -1.2604
# 5 -20.3761 -5.0075 -29.3513 0.0000 36.0854 0.0000
# 6 0.0000 0.0000 0.0000 -1.2604 0.0000 27.5929
#
#
#
# Elastic Compliance Matrix: (Units=1/GPa)
#
#
# Indices 1 2 3 4 5 6 
#
# 1 0.013555 -0.003304 -0.003302 0.000000 0.004510 0.000000
# 2 -0.003304 0.013964 -0.003293 0.000000 -0.002606 0.000000
# 3 -0.003302 -0.003293 0.015563 0.000000 0.010337 0.000000
# 4 0.000000 0.000000 0.000000 0.038033 0.000000 0.001737
# 5 0.004510 -0.002606 0.010337 0.000000 0.038305 0.000000
# 6 0.000000 0.000000 0.000000 0.001737 0.000000 0.036321
#
#
# Mechanical properties :
#
#
# Convention : Reuss Voigt Hill
#
# Bulk Modulus (GPa) = 42.94670 52.40325 47.67498
# Shear Modulus (GPa) = 27.27780 30.21387 28.74584
#
# Velocity S-wave (km/s) = 3.71670 3.91161 3.81540
# Velocity P-wave (km/s) = 6.33776 6.85118 6.59947
#
# Compressibility (1/GPa) = 0.02328467
#
# Stress axis : x y z
#
# Youngs Moduli (GPa) = 73.77110 71.61488 64.25652
#
# Poissons Ratio (x) = 0.23660 0.21216
# Poissons Ratio (y) = 0.24372 0.21159
# Poissons Ratio (z) = 0.24357 0.23583
#
# Static dielectric constant tensor:
#      x y z
#    x 3.841500 0.000000 -0.391870 
#    y 0.000000 3.682990 0.000000 
#    z -0.391870 0.000000 3.742500 
# 
# 
# High freq. dielectric constant tensor:
#      x y z
#    x 1.771950 0.000000 -0.024520 
#    y 0.000000 1.765150 0.000000 
#    z -0.024520 0.000000 1.767740 
# 
# From -- ./inp_files/49284.got.cif
#   From: 2010.06.25/outbox.cif.g09.slc.cpg/sg11_25_cif.got.tgz:49284.got - 2010.06.27 23:14:04.
