data_PCOD8073565
_publ_section_title
;
Structure prediction by ZEFSAII (Michael W. Deem and Ramdas Pophale) SiO2 
 PCOD8073565
Probable space group: P 21/M
;
_chemical_formula_sum "Si O2"
_cell_formula_units_Z 28
_cell_length_a 12.185786
_cell_length_b 9.292744
_cell_length_c 13.519596
_cell_angle_alpha 90.000000
_cell_angle_beta 115.012683
_cell_angle_gamma 90.000000
_cell_volume 1387.369376
_symmetry_space_group_name_H-M "P 21/M"
_symmetry_group_IT_number 11
_symmetry_cell_setting 'monoclinic'
loop_
_space_group_symop_operation_xyz
x,y,z
-x,1/2+y,-z
-x,-y,-z
x,1/2-y,z
loop_
_atom_site_type_symbol
_atom_site_label
_atom_site_fract_x
_atom_site_fract_y
_atom_site_fract_z
Si Si1 0.383293 0.411912 0.477129
Si Si2 0.332786 0.089038 0.689430
Si Si3 0.168610 0.908507 0.352962
Si Si4 0.955451 0.583086 0.840580
Si Si5 0.118351 0.592216 0.558838
Si Si6 0.542729 0.080391 0.918039
Si Si7 0.808968 0.416607 0.946840
O O1 0.500000 0.500000 0.500000
O O2 0.396665 0.250000 0.442879
O O3 0.360505 0.413124 0.584738
O O4 0.281640 0.489080 0.371963
O O5 0.296202 0.250000 0.708913
O O6 0.449822 0.036865 0.795256
O O7 0.217551 0.985829 0.666372
O O8 0.180037 0.750000 0.307626
O O9 0.169146 0.887092 0.469414
O O10 0.052029 0.994260 0.265442
O O11 0.924420 0.750000 0.813216
O O12 0.852676 0.513983 0.872281
O O13 0.092084 0.562287 0.929392
O O14 0.089660 0.750000 0.594058
O O15 0.000000 0.500000 0.500000
O O16 0.541572 0.250000 0.938673
O O17 0.677982 0.031475 0.936935
O O18 0.500000 0.000000 0.000000
O O19 0.803257 0.250000 0.911003
#
# Coordination Sequence:
#
# PCOD8073565 Si02
#       7
#     4   4   4   4   4   4   4
#     4  10  20  34  54  83 114 147 184 226 279 340
#     4   9  20  38  57  80 114 151 189 233 284 337
#     4  10  21  36  54  79 111 147 185 228 281 341
#     4  10  20  35  57  87 115 146 191 241 292 348
#     4  10  21  37  58  83 112 149 190 233 284 339
#     4  10  22  40  60  84 114 155 199 243 293 347
#     4   9  20  38  58  80 114 153 190 237 297 352
#
# _framework density 20.182079000000002
#
# number of rings (size 3 to 8) (size 9 to 14) (size 15 to 20)
#    0.000    2.286    0.000    1.714    2.000    5.143 
#    0.000    2.857    0.000    0.000    0.000    0.000 
#    0.000    0.000    0.000    0.000    0.000    0.000 
#
# Total GULP energy -347057.725465 kJ/mol
# GULP energy per Si atom -12394.918767 kJ/mol
# Density = 2.013614 g / cm^3
# Si number density = 20.182079 Si / 1000 Ang^3
#
#
#
# Elastic Constant Matrix: (Units=GPa)
#
#
# Indices 1 2 3 4 5 6 
#
# 1 94.1377 49.8200 26.8325 0.0000 37.2682 0.0000
# 2 49.8200 153.5603 51.2038 0.0000 29.3503 0.0000
# 3 26.8325 51.2038 97.1985 0.0000 29.9912 0.0000
# 4 0.0000 0.0000 0.0000 34.7499 0.0000 3.2835
# 5 37.2682 29.3503 29.9912 0.0000 31.5183 0.0000
# 6 0.0000 0.0000 0.0000 3.2835 0.0000 34.6444
#
#
#
# Elastic Compliance Matrix: (Units=1/GPa)
#
#
# Indices 1 2 3 4 5 6 
#
# 1 0.021628 -0.003297 0.003836 0.000000 -0.026154 0.000000
# 2 -0.003297 0.008953 -0.003449 0.000000 -0.001156 0.000000
# 3 0.003836 -0.003449 0.016216 0.000000 -0.016754 0.000000
# 4 0.000000 0.000000 0.000000 0.029037 0.000000 -0.002752
# 5 -0.026154 -0.001156 -0.016754 0.000000 0.079672 0.000000
# 6 0.000000 0.000000 0.000000 -0.002752 0.000000 0.029126
#
#
# Mechanical properties :
#
#
# Convention : Reuss Voigt Hill
#
# Bulk Modulus (GPa) = 24.40429 66.73434 45.56931
# Shear Modulus (GPa) = 24.49642 34.65189 29.57415
#
# Velocity S-wave (km/s) = 3.48770 4.14812 3.83216
# Velocity P-wave (km/s) = 5.32326 7.48869 6.49683
#
# Compressibility (1/GPa) = 0.04097640
#
# Stress axis : x y z
#
# Youngs Moduli (GPa) = 46.23557 111.69446 61.66760
#
# Poissons Ratio (x) = 0.36829 -0.23657
# Poissons Ratio (y) = 0.15245 0.21272
# Poissons Ratio (z) = -0.17737 0.38529
#
# Static dielectric constant tensor:
#      x y z
#    x 3.576620 0.000000 0.150440 
#    y 0.000000 4.305420 0.000000 
#    z 0.150440 0.000000 3.671930 
# 
# 
# High freq. dielectric constant tensor:
#      x y z
#    x 1.770380 0.000000 0.018470 
#    y 0.000000 1.800100 0.000000 
#    z 0.018470 0.000000 1.791950 
# 
# From -- ./inp_files/49450.got.cif
#   From: 2010.06.25/outbox.cif.g09.slc.cpg/sg11_25_cif.got.tgz:49450.got - 2010.06.27 23:14:04.
