data_PCOD8073643
_publ_section_title
;
Structure prediction by ZEFSAII (Michael W. Deem and Ramdas Pophale) SiO2 
 PCOD8073643
Probable space group: P 21/M
;
_chemical_formula_sum "Si O2"
_cell_formula_units_Z 28
_cell_length_a 16.669341
_cell_length_b 8.552679
_cell_length_c 12.423277
_cell_angle_alpha 90.000000
_cell_angle_beta 120.651376
_cell_angle_gamma 90.000000
_cell_volume 1523.699203
_symmetry_space_group_name_H-M "P 21/M"
_symmetry_group_IT_number 11
_symmetry_cell_setting 'monoclinic'
loop_
_space_group_symop_operation_xyz
x,y,z
-x,1/2+y,-z
-x,-y,-z
x,1/2-y,z
loop_
_atom_site_type_symbol
_atom_site_label
_atom_site_fract_x
_atom_site_fract_y
_atom_site_fract_z
Si Si1 0.771121 0.432168 0.971380
Si Si2 0.789206 0.931579 0.399538
Si Si3 0.389533 0.569478 0.806583
Si Si4 0.903584 0.932339 0.891587
Si Si5 0.400487 0.431457 0.044181
Si Si6 0.093174 0.570356 0.335390
Si Si7 0.116625 0.068798 0.757697
O O1 0.750261 0.250000 0.952088
O O2 0.817852 0.485801 0.892702
O O3 0.672791 0.522821 0.913831
O O4 0.839110 0.467965 0.117162
O O5 0.806396 0.750000 0.434336
O O6 0.841384 0.986619 0.326873
O O7 0.679218 0.966058 0.313239
O O8 0.827691 0.031377 0.524516
O O9 0.365498 0.750000 0.771618
O O10 0.495328 0.529412 0.843670
O O11 0.374856 0.531271 0.921797
O O12 0.901648 0.750000 0.916271
O O13 0.892607 0.961115 0.757766
O O14 0.000000 0.000000 0.000000
O O15 0.392130 0.250000 0.007395
O O16 0.101657 0.750000 0.304943
O O17 0.993333 0.536821 0.321027
O O18 0.140404 0.250000 0.795984
#
# Coordination Sequence:
#
# PCOD8073643 Si02
#       7
#     4   4   4   4   4   4   4
#     4  12  23  35  58  86 115 150 190 234 286 340
#     4  11  22  36  56  83 118 156 192 232 285 341
#     4  10  20  34  55  83 114 150 190 232 283 341
#     4  12  24  40  60  83 113 149 193 238 285 333
#     4  10  20  35  55  82 116 149 186 235 287 339
#     4  11  23  39  58  81 114 154 197 237 280 335
#     4  10  21  36  55  81 116 154 189 231 280 334
#
# _framework density 18.376329999999999
#
# number of rings (size 3 to 8) (size 9 to 14) (size 15 to 20)
#    0.000    1.143    2.857    4.714    0.000    2.857 
#    0.000    0.000    0.000    0.857    0.000    0.000 
#    0.000    0.000    0.000    0.000    0.000    0.000 
#
# Total GULP energy -347383.714486 kJ/mol
# GULP energy per Si atom -12406.561232 kJ/mol
# Density = 1.833450 g / cm^3
# Si number density = 18.376330 Si / 1000 Ang^3
#
#
#
# Elastic Constant Matrix: (Units=GPa)
#
#
# Indices 1 2 3 4 5 6 
#
# 1 110.3753 16.4349 41.8868 0.0000 13.7753 0.0000
# 2 16.4349 56.8204 16.1961 0.0000 5.1564 0.0000
# 3 41.8868 16.1961 89.1974 0.0000 6.5080 0.0000
# 4 0.0000 0.0000 0.0000 30.8572 0.0000 1.0490
# 5 13.7753 5.1564 6.5080 0.0000 27.1296 0.0000
# 6 0.0000 0.0000 0.0000 1.0490 0.0000 29.7302
#
#
#
# Elastic Compliance Matrix: (Units=1/GPa)
#
#
# Indices 1 2 3 4 5 6 
#
# 1 0.011708 -0.001589 -0.004883 0.000000 -0.004471 0.000000
# 2 -0.001589 0.018982 -0.002541 0.000000 -0.002192 0.000000
# 3 -0.004883 -0.002541 0.013994 0.000000 -0.000395 0.000000
# 4 0.000000 0.000000 0.000000 0.032446 0.000000 -0.001145
# 5 -0.004471 -0.002192 -0.000395 0.000000 0.039642 0.000000
# 6 0.000000 0.000000 0.000000 -0.001145 0.000000 0.033676
#
#
# Mechanical properties :
#
#
# Convention : Reuss Voigt Hill
#
# Bulk Modulus (GPa) = 37.51106 45.04761 41.27934
# Shear Modulus (GPa) = 28.19131 29.66843 28.92987
#
# Velocity S-wave (km/s) = 3.92102 4.02243 3.97205
# Velocity P-wave (km/s) = 6.39971 6.79268 6.59912
#
# Compressibility (1/GPa) = 0.02665880
#
# Stress axis : x y z
#
# Youngs Moduli (GPa) = 85.41358 52.68174 71.45742
#
# Poissons Ratio (x) = 0.08370 0.34894
# Poissons Ratio (y) = 0.13570 0.18155
# Poissons Ratio (z) = 0.41709 0.13385
#
# Static dielectric constant tensor:
#      x y z
#    x 3.580730 0.000000 0.067210 
#    y 0.000000 3.465640 0.000000 
#    z 0.067210 0.000000 3.183170 
# 
# 
# High freq. dielectric constant tensor:
#      x y z
#    x 1.715430 0.000000 0.011150 
#    y 0.000000 1.725570 0.000000 
#    z 0.011150 0.000000 1.690510 
# 
# From -- ./inp_files/37924.got.cif
#   From: 2010.06.25/outbox.cif.g09.slc.cpg/sg11_19_cif.got.tgz:37924.got - 2010.06.27 23:14:04.
