data_PCOD8073982
_publ_section_title
;
Structure prediction by ZEFSAII (Michael W. Deem and Ramdas Pophale) SiO2 
 PCOD8073982
Probable space group: P 21/M
;
_chemical_formula_sum "Si O2"
_cell_formula_units_Z 28
_cell_length_a 25.777087
_cell_length_b 8.983474
_cell_length_c 9.448482
_cell_angle_alpha 90.000000
_cell_angle_beta 42.726334
_cell_angle_gamma 90.000000
_cell_volume 1484.527903
_symmetry_space_group_name_H-M "P 21/M"
_symmetry_group_IT_number 11
_symmetry_cell_setting 'monoclinic'
loop_
_space_group_symop_operation_xyz
x,y,z
-x,1/2+y,-z
-x,-y,-z
x,1/2-y,z
loop_
_atom_site_type_symbol
_atom_site_label
_atom_site_fract_x
_atom_site_fract_y
_atom_site_fract_z
Si Si1 0.636454 0.920865 0.397527
Si Si2 0.485605 0.575043 0.178239
Si Si3 0.092947 0.422102 0.672757
Si Si4 0.192336 0.077180 0.007146
Si Si5 0.624468 0.923974 0.099860
Si Si6 0.781737 0.073994 0.755325
Si Si7 0.941080 0.578227 0.935314
O O1 0.616896 0.750000 0.470794
O O2 0.726710 0.952216 0.231337
O O3 0.608448 0.963547 0.295761
O O4 0.594729 0.022796 0.596046
O O5 0.483338 0.750000 0.160110
O O6 0.551918 0.526800 0.153833
O O7 0.500000 0.500000 0.000000
O O8 0.103448 0.250000 0.612616
O O9 0.165321 0.514509 0.475907
O O10 0.089200 0.450220 0.846966
O O11 0.015670 0.480392 0.753021
O O12 0.186034 0.250000 0.062408
O O13 0.125429 0.026539 0.036800
O O14 0.184346 0.980999 0.164015
O O15 0.643532 0.750000 0.046342
O O16 0.696748 0.014293 0.897658
O O17 0.780371 0.250000 0.755691
O O18 0.962982 0.750000 0.868899
#
# Coordination Sequence:
#
# PCOD8073982 Si02
#       7
#     4   4   4   4   4   4   4
#     4   9  18  35  58  81 106 138 177 221 270 321
#     4  11  23  37  55  81 112 144 179 220 265 314
#     4  10  20  35  55  79 110 145 178 218 271 323
#     4   9  19  37  58  80 108 141 177 220 270 320
#     4   9  20  39  59  78 105 143 181 218 267 321
#     4  11  22  35  55  83 110 138 178 224 266 315
#     4   9  19  36  57  79 104 140 185 224 262 316
#
# _framework density 18.861215000000001
#
# number of rings (size 3 to 8) (size 9 to 14) (size 15 to 20)
#    0.000    2.286    0.000    3.429    0.000    6.286 
#    0.000    2.857    0.000    0.000    0.000    0.000 
#    0.000    0.000    0.000    0.000    0.000    0.000 
#
# Total GULP energy -347310.255858 kJ/mol
# GULP energy per Si atom -12403.937709 kJ/mol
# Density = 1.881829 g / cm^3
# Si number density = 18.861215 Si / 1000 Ang^3
#
#
#
# Elastic Constant Matrix: (Units=GPa)
#
#
# Indices 1 2 3 4 5 6 
#
# 1 38.0349 11.0860 -2.6292 0.0000 -2.6455 0.0000
# 2 11.0860 79.3290 40.0145 0.0000 -3.2692 0.0000
# 3 -2.6292 40.0145 86.7952 0.0000 -3.1386 0.0000
# 4 0.0000 0.0000 0.0000 39.0602 0.0000 -2.7095
# 5 -2.6455 -3.2692 -3.1386 0.0000 17.6283 0.0000
# 6 0.0000 0.0000 0.0000 -2.7095 0.0000 28.8283
#
#
#
# Elastic Compliance Matrix: (Units=1/GPa)
#
#
# Indices 1 2 3 4 5 6 
#
# 1 0.028451 -0.005631 0.003598 0.000000 0.003866 0.000000
# 2 -0.005631 0.017591 -0.008246 0.000000 0.000949 0.000000
# 3 0.003598 -0.008246 0.015496 0.000000 0.001770 0.000000
# 4 0.000000 0.000000 0.000000 0.025770 0.000000 0.002422
# 5 0.003866 0.000949 0.001770 0.000000 0.057798 0.000000
# 6 0.000000 0.000000 0.000000 0.002422 0.000000 0.034916
#
#
# Mechanical properties :
#
#
# Convention : Reuss Voigt Hill
#
# Bulk Modulus (GPa) = 24.40313 33.45573 28.92943
# Shear Modulus (GPa) = 23.33829 27.48256 25.41043
#
# Velocity S-wave (km/s) = 3.52144 3.82133 3.67445
# Velocity P-wave (km/s) = 5.43143 6.10299 5.77697
#
# Compressibility (1/GPa) = 0.04097836
#
# Stress axis : x y z
#
# Youngs Moduli (GPa) = 35.14870 56.84635 64.53264
#
# Poissons Ratio (x) = 0.32012 -0.23217
# Poissons Ratio (y) = 0.19793 0.53215
# Poissons Ratio (z) = -0.12646 0.46877
#
# Static dielectric constant tensor:
#      x y z
#    x 3.543370 0.000000 -0.070680 
#    y 0.000000 3.412990 0.000000 
#    z -0.070680 0.000000 3.399730 
# 
# 
# High freq. dielectric constant tensor:
#      x y z
#    x 1.732990 0.000000 -0.006250 
#    y 0.000000 1.732020 0.000000 
#    z -0.006250 0.000000 1.735710 
# 
# From -- ./inp_files/24054.got.cif
#   From: 2010.06.25/outbox.cif.g09.slc.cpg/sg11_13_cif.got.tgz:24054.got - 2010.06.27 23:14:04.
