data_PCOD8073630
_publ_section_title
;
Structure prediction by ZEFSAII (Michael W. Deem and Ramdas Pophale) SiO2 
 PCOD8073630
Probable space group: P 21/M
;
_chemical_formula_sum "Si O2"
_cell_formula_units_Z 32
_cell_length_a 20.739142
_cell_length_b 8.761325
_cell_length_c 27.145688
_cell_angle_alpha 90.000000
_cell_angle_beta 160.368409
_cell_angle_gamma 90.000000
_cell_volume 1657.155037
_symmetry_space_group_name_H-M "P 21/M"
_symmetry_group_IT_number 11
_symmetry_cell_setting 'monoclinic'
loop_
_space_group_symop_operation_xyz
x,y,z
-x,1/2+y,-z
-x,-y,-z
x,1/2-y,z
loop_
_atom_site_type_symbol
_atom_site_label
_atom_site_fract_x
_atom_site_fract_y
_atom_site_fract_z
Si Si1 0.107221 0.430637 0.435797
Si Si2 0.873108 0.423905 0.044020
Si Si3 0.550926 0.072986 0.893488
Si Si4 0.822118 0.578524 0.160856
Si Si5 0.160526 0.569452 0.580933
Si Si6 0.167199 0.071782 0.088773
Si Si7 0.590025 0.070153 0.418415
Si Si8 0.861157 0.081522 0.695402
O O1 0.089645 0.250000 0.425749
O O2 0.140393 0.496838 0.513213
O O3 0.290395 0.474454 0.534988
O O4 0.908216 0.497553 0.271151
O O5 0.883843 0.250000 0.034376
O O6 0.074180 0.464376 0.215764
O O7 0.697308 0.454745 0.954034
O O8 0.845969 0.529354 0.977646
O O9 0.493908 0.250000 0.856685
O O10 0.366667 0.970320 0.751636
O O11 0.643731 0.018820 0.011793
O O12 0.754368 0.750000 0.125472
O O13 0.986373 0.584054 0.238544
O O14 0.136876 0.750000 0.560525
O O15 0.000000 0.500000 0.500000
O O16 0.146835 0.250000 0.079331
O O17 0.370558 0.016730 0.256883
O O18 0.000000 0.000000 0.000000
O O19 0.617287 0.250000 0.426428
O O20 0.660774 0.032854 0.525252
O O21 0.844699 0.250000 0.707317
#
# Coordination Sequence:
#
# PCOD8073630 Si02
#       8
#     4   4   4   4   4   4   4   4
#     4  11  21  35  58  87 115 145 183 229 276 326
#     4  10  20  34  55  83 112 141 178 220 265 320
#     4  10  20  36  59  88 116 144 182 229 276 327
#     4   9  17  32  55  84 115 147 182 224 273 325
#     4  12  25  41  58  79 111 150 189 230 277 330
#     4  11  23  38  55  76 107 144 183 226 274 325
#     4   9  19  36  58  83 109 141 181 226 274 328
#     4   8  15  30  53  80 108 136 173 220 269 317
#
# _framework density 19.310203000000001
#
# number of rings (size 3 to 8) (size 9 to 14) (size 15 to 20)
#    0.000    2.000    0.000    5.250    0.000    7.500 
#    0.000    1.250    0.000    0.000    0.000    0.000 
#    0.000    0.000    0.000    0.000    0.000    0.000 
#
# Total GULP energy -396820.521799 kJ/mol
# GULP energy per Si atom -12400.641306 kJ/mol
# Density = 1.926625 g / cm^3
# Si number density = 19.310203 Si / 1000 Ang^3
#
#
#
# Elastic Constant Matrix: (Units=GPa)
#
#
# Indices 1 2 3 4 5 6 
#
# 1 25.2668 29.8786 58.9268 0.0000 9.8534 0.0000
# 2 29.8786 90.6435 34.0338 0.0000 2.4506 0.0000
# 3 58.9268 34.0338 131.4313 0.0000 -23.5702 0.0000
# 4 0.0000 0.0000 0.0000 30.8237 0.0000 -4.3795
# 5 9.8534 2.4506 -23.5702 0.0000 13.3028 0.0000
# 6 0.0000 0.0000 0.0000 -4.3795 0.0000 29.9637
#
#
#
# Elastic Compliance Matrix: (Units=1/GPa)
#
#
# Indices 1 2 3 4 5 6 
#
# 1 -0.021101 -0.001324 0.018541 0.000000 0.048726 0.000000
# 2 -0.001324 0.013473 -0.004639 0.000000 -0.009720 0.000000
# 3 0.018541 -0.004639 -0.002657 0.000000 -0.017588 0.000000
# 4 0.000000 0.000000 0.000000 0.033131 0.000000 0.004842
# 5 0.048726 -0.009720 -0.017588 0.000000 0.009710 0.000000
# 6 0.000000 0.000000 0.000000 0.004842 0.000000 0.034082
#
#
# Mechanical properties :
#
#
# Convention : Reuss Voigt Hill
#
# Bulk Modulus (GPa) = 67.23465 54.77999 61.00732
# Shear Modulus (GPa) = 107.67628 23.11817 65.39723
#
# Velocity S-wave (km/s) = 7.47545 3.46381 5.82582
# Velocity P-wave (km/s) = 10.45962 6.66538 8.77015
#
# Compressibility (1/GPa) = 0.01487328
#
# Stress axis : x y z
#
# Youngs Moduli (GPa) = -47.39130 74.22287 -376.30439
#
# Poissons Ratio (x) = 0.09824 6.97724
# Poissons Ratio (y) = -0.06273 -1.74549
# Poissons Ratio (z) = 0.87870 0.34428
#
# Static dielectric constant tensor:
#      x y z
#    x 3.274230 0.000000 -0.211070 
#    y 0.000000 3.639280 0.000000 
#    z -0.211070 0.000000 3.924290 
# 
# 
# High freq. dielectric constant tensor:
#      x y z
#    x 1.722110 0.000000 -0.021790 
#    y 0.000000 1.762020 0.000000 
#    z -0.021790 0.000000 1.765500 
# 
# From -- ./inp_files/72211.got.cif
#   From: 2010.06.25/outbox.cif.g09.slc.cpg/sg11_37_cif.got.tgz:72211.got - 2010.06.27 23:14:04.
