data_PCOD8073279
_publ_section_title
;
Structure prediction by ZEFSAII (Michael W. Deem and Ramdas Pophale) SiO2 
 PCOD8073279
Probable space group: P 21/M
;
_chemical_formula_sum "Si O2"
_cell_formula_units_Z 28
_cell_length_a 15.249748
_cell_length_b 9.252046
_cell_length_c 19.309913
_cell_angle_alpha 90.000000
_cell_angle_beta 143.370276
_cell_angle_gamma 90.000000
_cell_volume 1625.526547
_symmetry_space_group_name_H-M "P 21/M"
_symmetry_group_IT_number 11
_symmetry_cell_setting 'monoclinic'
loop_
_space_group_symop_operation_xyz
x,y,z
-x,1/2+y,-z
-x,-y,-z
x,1/2-y,z
loop_
_atom_site_type_symbol
_atom_site_label
_atom_site_fract_x
_atom_site_fract_y
_atom_site_fract_z
Si Si1 0.051349 0.581130 0.231239
Si Si2 0.864170 0.416846 0.382142
Si Si3 0.299519 0.418912 0.617403
Si Si4 0.622959 0.082054 0.771429
Si Si5 0.975251 0.585251 0.649510
Si Si6 0.898786 0.921535 0.992058
Si Si7 0.633303 0.418148 0.618018
O O1 0.044330 0.750000 0.240109
O O2 0.988396 0.505138 0.259328
O O3 0.218310 0.529999 0.325007
O O4 0.955290 0.538326 0.104076
O O5 0.866814 0.250000 0.406591
O O6 0.719067 0.493404 0.321806
O O7 0.000000 0.500000 0.500000
O O8 0.882096 0.430578 0.310369
O O9 0.282327 0.250000 0.622935
O O10 0.457475 0.458223 0.687002
O O11 0.174485 0.468519 0.483322
O O12 0.657545 0.250000 0.808297
O O13 0.646683 0.043618 0.706758
O O14 0.733199 0.981373 0.884296
O O15 0.952491 0.750000 0.657791
O O16 0.904164 0.750000 0.981985
O O17 0.000000 0.000000 0.000000
O O18 0.500000 0.500000 0.500000
O O19 0.604586 0.250000 0.589382
#
# Coordination Sequence:
#
# PCOD8073279 Si02
#       7
#     4   4   4   4   4   4   4
#     4  10  21  35  51  72 101 133 168 214 256 296
#     4   9  17  30  49  74 106 138 171 209 251 305
#     4   9  18  32  52  78 108 138 168 207 258 308
#     4  10  20  36  54  74 105 137 169 215 259 303
#     4   9  18  32  51  77 105 136 169 204 253 308
#     4  11  22  38  56  74  98 133 179 220 258 303
#     4  10  20  34  49  71 104 135 164 202 252 303
#
# _framework density 17.225186999999998
#
# number of rings (size 3 to 8) (size 9 to 14) (size 15 to 20)
#    0.000    2.286    1.429    2.571    0.000    6.857 
#    0.000    0.000    0.000    0.857    0.000    0.000 
#    0.000    0.000    0.000    0.000    0.000    0.000 
#
# Total GULP energy -347158.725537 kJ/mol
# GULP energy per Si atom -12398.525912 kJ/mol
# Density = 1.718598 g / cm^3
# Si number density = 17.225187 Si / 1000 Ang^3
#
#
#
# Elastic Constant Matrix: (Units=GPa)
#
#
# Indices 1 2 3 4 5 6 
#
# 1 92.4050 43.2718 22.8480 0.0000 -21.9245 0.0000
# 2 43.2718 66.9287 38.8931 0.0000 -12.7925 0.0000
# 3 22.8480 38.8931 76.0506 0.0000 -14.1665 0.0000
# 4 0.0000 0.0000 0.0000 31.0494 0.0000 -1.2476
# 5 -21.9245 -12.7925 -14.1665 0.0000 18.1005 0.0000
# 6 0.0000 0.0000 0.0000 -1.2476 0.0000 33.9756
#
#
#
# Elastic Compliance Matrix: (Units=1/GPa)
#
#
# Indices 1 2 3 4 5 6 
#
# 1 0.019531 -0.010946 0.003156 0.000000 0.018391 0.000000
# 2 -0.010946 0.028334 -0.011638 0.000000 -0.002343 0.000000
# 3 0.003156 -0.011638 0.020291 0.000000 0.011479 0.000000
# 4 0.000000 0.000000 0.000000 0.032254 0.000000 0.001184
# 5 0.018391 -0.002343 0.011479 0.000000 0.084852 0.000000
# 6 0.000000 0.000000 0.000000 0.001184 0.000000 0.029476
#
#
# Mechanical properties :
#
#
# Convention : Reuss Voigt Hill
#
# Bulk Modulus (GPa) = 34.13023 49.48998 41.81011
# Shear Modulus (GPa) = 18.98531 25.31652 22.15092
#
# Velocity S-wave (km/s) = 3.32352 3.83788 3.58992
# Velocity P-wave (km/s) = 5.88089 6.95935 6.44273
#
# Compressibility (1/GPa) = 0.02929954
#
# Stress axis : x y z
#
# Youngs Moduli (GPa) = 51.20013 35.29365 49.28323
#
# Poissons Ratio (x) = 0.38634 -0.15555
# Poissons Ratio (y) = 0.56046 0.57355
# Poissons Ratio (z) = -0.16160 0.41074
#
# Static dielectric constant tensor:
#      x y z
#    x 3.638470 0.000000 0.009210 
#    y 0.000000 3.318510 0.000000 
#    z 0.009210 0.000000 3.034920 
# 
# 
# High freq. dielectric constant tensor:
#      x y z
#    x 1.673370 0.000000 -0.002970 
#    y 0.000000 1.668300 0.000000 
#    z -0.002970 0.000000 1.638750 
# 
# From -- ./inp_files/42388.got.cif
#   From: 2010.06.25/outbox.cif.g09.slc.cpg/sg11_22_cif.got.tgz:42388.got - 2010.06.27 23:14:04.
