data_PCOD8073911
_publ_section_title
;
Structure prediction by ZEFSAII (Michael W. Deem and Ramdas Pophale) SiO2 
 PCOD8073911
Probable space group: P 21/M
;
_chemical_formula_sum "Si O2"
_cell_formula_units_Z 32
_cell_length_a 28.105884
_cell_length_b 8.831302
_cell_length_c 14.254183
_cell_angle_alpha 90.000000
_cell_angle_beta 29.589453
_cell_angle_gamma 90.000000
_cell_volume 1747.026111
_symmetry_space_group_name_H-M "P 21/M"
_symmetry_group_IT_number 11
_symmetry_cell_setting 'monoclinic'
loop_
_space_group_symop_operation_xyz
x,y,z
-x,1/2+y,-z
-x,-y,-z
x,1/2-y,z
loop_
_atom_site_type_symbol
_atom_site_label
_atom_site_fract_x
_atom_site_fract_y
_atom_site_fract_z
Si Si1 0.234261 0.072456 0.844763
Si Si2 0.602025 0.430512 0.796791
Si Si3 0.917433 0.428611 0.765145
Si Si4 0.881261 0.069679 0.617228
Si Si5 0.548375 0.077678 0.209668
Si Si6 0.644705 0.428783 0.513550
Si Si7 0.401338 0.427645 0.701642
Si Si8 0.707843 0.421738 0.791112
O O1 0.218861 0.250000 0.859291
O O2 0.318644 0.029344 0.771452
O O3 0.261467 0.002485 0.696563
O O4 0.137841 0.000160 0.051882
O O5 0.590877 0.250000 0.820964
O O6 0.636870 0.484064 0.634585
O O7 0.686624 0.488058 0.723514
O O8 0.500000 0.500000 0.000000
O O9 0.919631 0.250000 0.774026
O O10 0.868938 0.475051 0.748327
O O11 0.024864 0.492310 0.586250
O O12 0.890820 0.250000 0.592933
O O13 0.791974 0.000736 0.709055
O O14 0.521730 0.250000 0.282155
O O15 0.450485 0.982721 0.377347
O O16 0.622191 0.006670 0.158739
O O17 0.602896 0.067295 0.018233
O O18 0.653417 0.250000 0.491238
O O19 0.500000 0.500000 0.500000
O O20 0.412183 0.250000 0.696388
O O21 0.741926 0.250000 0.723508
#
# Coordination Sequence:
#
# PCOD8073911 Si02
#       8
#     4   4   4   4   4   4   4   4
#     4  11  23  37  54  75 104 146 185 221 268 325
#     4  10  20  35  54  78 108 143 184 228 274 321
#     4  10  20  35  57  84 113 141 175 222 269 322
#     4   9  18  35  58  83 110 143 178 216 268 327
#     4  11  20  32  51  74 105 143 180 218 263 319
#     4  11  22  34  51  75 106 143 182 225 269 315
#     4  11  22  33  47  70 103 140 178 217 259 312
#     4   9  18  33  55  79 106 141 179 221 270 325
#
# _framework density 18.316842000000001
#
# number of rings (size 3 to 8) (size 9 to 14) (size 15 to 20)
#    0.000    1.750    2.500    2.625    0.000    3.500 
#    0.000    1.875    0.000    0.750    0.000    0.000 
#    0.000    0.000    0.000    0.000    0.000    0.000 
#
# Total GULP energy -396690.866344 kJ/mol
# GULP energy per Si atom -12396.589573 kJ/mol
# Density = 1.827515 g / cm^3
# Si number density = 18.316842 Si / 1000 Ang^3
#
#
#
# Elastic Constant Matrix: (Units=GPa)
#
#
# Indices 1 2 3 4 5 6 
#
# 1 98.6212 23.1980 51.0494 0.0000 12.0366 0.0000
# 2 23.1980 47.6402 34.3793 0.0000 7.3372 0.0000
# 3 51.0494 34.3793 116.6711 0.0000 13.3320 0.0000
# 4 0.0000 0.0000 0.0000 30.2605 0.0000 0.9755
# 5 12.0366 7.3372 13.3320 0.0000 29.1407 0.0000
# 6 0.0000 0.0000 0.0000 0.9755 0.0000 19.0456
#
#
#
# Elastic Compliance Matrix: (Units=1/GPa)
#
#
# Indices 1 2 3 4 5 6 
#
# 1 0.013620 -0.002714 -0.004849 0.000000 -0.002724 0.000000
# 2 -0.002714 0.027503 -0.006599 0.000000 -0.002785 0.000000
# 3 -0.004849 -0.006599 0.012892 0.000000 -0.002234 0.000000
# 4 0.000000 0.000000 0.000000 0.033101 0.000000 -0.001695
# 5 -0.002724 -0.002785 -0.002234 0.000000 0.037165 0.000000
# 6 0.000000 0.000000 0.000000 -0.001695 0.000000 0.052592
#
#
# Mechanical properties :
#
#
# Convention : Reuss Voigt Hill
#
# Bulk Modulus (GPa) = 38.92014 53.35401 46.13707
# Shear Modulus (GPa) = 23.39066 25.97642 24.68354
#
# Velocity S-wave (km/s) = 3.57739 3.76995 3.67493
# Velocity P-wave (km/s) = 6.19339 6.93842 6.57646
#
# Compressibility (1/GPa) = 0.02569364
#
# Stress axis : x y z
#
# Youngs Moduli (GPa) = 73.41892 36.35986 77.56555
#
# Poissons Ratio (x) = 0.09867 0.37609
# Poissons Ratio (y) = 0.19924 0.51182
# Poissons Ratio (z) = 0.35598 0.23992
#
# Static dielectric constant tensor:
#      x y z
#    x 3.850530 0.000000 0.243470 
#    y 0.000000 3.346350 0.000000 
#    z 0.243470 0.000000 3.363180 
# 
# 
# High freq. dielectric constant tensor:
#      x y z
#    x 1.701300 0.000000 0.014070 
#    y 0.000000 1.704850 0.000000 
#    z 0.014070 0.000000 1.703010 
# 
# From -- ./inp_files/56472.got.cif
#   From: 2010.06.25/outbox.cif.g09.slc.cpg/sg11_29_cif.got.tgz:56472.got - 2010.06.27 23:14:04.
