data_PCOD8073328
_publ_section_title
;
Structure prediction by ZEFSAII (Michael W. Deem and Ramdas Pophale) SiO2 
 PCOD8073328
Probable space group: P 21/M
;
_chemical_formula_sum "Si O2"
_cell_formula_units_Z 28
_cell_length_a 16.873479
_cell_length_b 9.013568
_cell_length_c 14.254533
_cell_angle_alpha 90.000000
_cell_angle_beta 41.937657
_cell_angle_gamma 90.000000
_cell_volume 1448.904853
_symmetry_space_group_name_H-M "P 21/M"
_symmetry_group_IT_number 11
_symmetry_cell_setting 'monoclinic'
loop_
_space_group_symop_operation_xyz
x,y,z
-x,1/2+y,-z
-x,-y,-z
x,1/2-y,z
loop_
_atom_site_type_symbol
_atom_site_label
_atom_site_fract_x
_atom_site_fract_y
_atom_site_fract_z
Si Si1 0.702859 0.580369 0.599783
Si Si2 0.043425 0.080816 0.552184
Si Si3 0.386989 0.574293 0.647350
Si Si4 0.956996 0.073400 0.824798
Si Si5 0.511311 0.426728 0.091241
Si Si6 0.794986 0.926987 0.321014
Si Si7 0.303903 0.924960 0.920535
O O1 0.669399 0.750000 0.611863
O O2 0.815576 0.563241 0.567482
O O3 0.592841 0.506594 0.750889
O O4 0.729682 0.514226 0.473226
O O5 0.004588 0.250000 0.577458
O O6 0.983747 0.010480 0.697380
O O7 0.000000 0.000000 0.500000
O O8 0.500000 0.500000 0.500000
O O9 0.395652 0.750000 0.626216
O O10 0.264772 0.513651 0.711572
O O11 0.382217 0.528221 0.761353
O O12 0.956743 0.250000 0.819542
O O13 0.065373 0.027232 0.798381
O O14 0.829653 0.007486 0.968913
O O15 0.501661 0.250000 0.087250
O O16 0.632634 0.473557 0.038121
O O17 0.500000 0.500000 0.000000
O O18 0.780465 0.750000 0.322192
O O19 0.290372 0.750000 0.931581
#
# Coordination Sequence:
#
# PCOD8073328 Si02
#       7
#     4   4   4   4   4   4   4
#     4   8  16  32  50  70 100 139 172 202 257 324
#     4   9  17  29  49  73  98 132 175 218 257 305
#     4  11  22  36  57  82 108 140 180 221 264 314
#     4   8  16  32  53  77 106 141 179 212 255 324
#     4  10  20  34  52  72 100 137 177 216 258 308
#     4   9  17  34  59  81 104 138 177 216 262 316
#     4   9  19  35  54  77 107 143 178 214 261 325
#
# _framework density 19.324940000000002
#
# number of rings (size 3 to 8) (size 9 to 14) (size 15 to 20)
#    0.000    2.857    0.000    3.000    2.000    2.857 
#    0.000    6.429    0.000    3.429    0.000    0.000 
#    0.000    0.000    0.000    0.000    0.000    0.000 
#
# Total GULP energy -346977.514531 kJ/mol
# GULP energy per Si atom -12392.054090 kJ/mol
# Density = 1.928096 g / cm^3
# Si number density = 19.324940 Si / 1000 Ang^3
#
#
#
# Elastic Constant Matrix: (Units=GPa)
#
#
# Indices 1 2 3 4 5 6 
#
# 1 135.3018 36.3063 59.2922 0.0000 5.9226 0.0000
# 2 36.3063 38.0240 21.8428 0.0000 0.4530 0.0000
# 3 59.2922 21.8428 121.0193 0.0000 -15.9869 0.0000
# 4 0.0000 0.0000 0.0000 18.0242 0.0000 2.8001
# 5 5.9226 0.4530 -15.9869 0.0000 28.7851 0.0000
# 6 0.0000 0.0000 0.0000 2.8001 0.0000 32.4693
#
#
#
# Elastic Compliance Matrix: (Units=1/GPa)
#
#
# Indices 1 2 3 4 5 6 
#
# 1 0.012163 -0.008629 -0.005088 0.000000 -0.005192 0.000000
# 2 -0.008629 0.035828 -0.002243 0.000000 -0.000034 0.000000
# 3 -0.005088 -0.002243 0.012199 0.000000 0.007857 0.000000
# 4 0.000000 0.000000 0.000000 0.056234 0.000000 -0.004850
# 5 -0.005192 -0.000034 0.007857 0.000000 0.040173 0.000000
# 6 0.000000 0.000000 0.000000 -0.004850 0.000000 0.031217
#
#
# Mechanical properties :
#
#
# Convention : Reuss Voigt Hill
#
# Bulk Modulus (GPa) = 35.37428 58.80306 47.08867
# Shear Modulus (GPa) = 21.81911 27.64929 24.73420
#
# Velocity S-wave (km/s) = 3.36380 3.78664 3.58147
# Velocity P-wave (km/s) = 5.78201 7.04364 6.44377
#
# Compressibility (1/GPa) = 0.02826913
#
# Stress axis : x y z
#
# Youngs Moduli (GPa) = 82.21479 27.91136 81.97644
#
# Poissons Ratio (x) = 0.24086 0.41707
# Poissons Ratio (y) = 0.70946 0.18389
# Poissons Ratio (z) = 0.41828 0.06261
#
# Static dielectric constant tensor:
#      x y z
#    x 3.676030 0.000000 -0.106260 
#    y 0.000000 2.990990 0.000000 
#    z -0.106260 0.000000 3.682290 
# 
# 
# High freq. dielectric constant tensor:
#      x y z
#    x 1.765330 0.000000 -0.006810 
#    y 0.000000 1.695990 0.000000 
#    z -0.006810 0.000000 1.758990 
# 
# From -- ./inp_files/53230.got.cif
#   From: 2010.06.25/outbox.cif.g09.slc.cpg/sg11_27_cif.got.tgz:53230.got - 2010.06.27 23:14:04.
