data_PCOD8073778
_publ_section_title
;
Structure prediction by ZEFSAII (Michael W. Deem and Ramdas Pophale) SiO2 
 PCOD8073778
Probable space group: P 21/M
;
_chemical_formula_sum "Si O2"
_cell_formula_units_Z 28
_cell_length_a 15.377603
_cell_length_b 8.791303
_cell_length_c 20.834946
_cell_angle_alpha 90.000000
_cell_angle_beta 28.296872
_cell_angle_gamma 90.000000
_cell_volume 1335.209427
_symmetry_space_group_name_H-M "P 21/M"
_symmetry_group_IT_number 11
_symmetry_cell_setting 'monoclinic'
loop_
_space_group_symop_operation_xyz
x,y,z
-x,1/2+y,-z
-x,-y,-z
x,1/2-y,z
loop_
_atom_site_type_symbol
_atom_site_label
_atom_site_fract_x
_atom_site_fract_y
_atom_site_fract_z
Si Si1 0.835978 0.072111 0.065796
Si Si2 0.349626 0.571545 0.553284
Si Si3 0.007433 0.575322 0.172899
Si Si4 0.178304 0.421386 0.412675
Si Si5 0.598322 0.919065 0.856895
Si Si6 0.756559 0.920547 0.881577
Si Si7 0.425728 0.431855 0.367077
O O1 0.843111 0.250000 0.074538
O O2 0.633685 0.008824 0.216708
O O3 0.870080 0.035066 0.968716
O O4 0.000000 0.000000 0.000000
O O5 0.500000 0.500000 0.500000
O O6 0.379096 0.750000 0.526287
O O7 0.163470 0.537413 0.712364
O O8 0.355531 0.494738 0.480040
O O9 0.941405 0.750000 0.214234
O O10 0.122598 0.547214 0.162439
O O11 0.119106 0.250000 0.466281
O O12 0.336333 0.430976 0.257606
O O13 0.275750 0.492879 0.412602
O O14 0.000000 0.500000 0.500000
O O15 0.512522 0.750000 0.924141
O O16 0.768504 0.940274 0.796461
O O17 0.454283 0.052832 0.962000
O O18 0.816118 0.750000 0.863694
O O19 0.427399 0.250000 0.366287
#
# Coordination Sequence:
#
# PCOD8073778 Si02
#       7
#     4   4   4   4   4   4   4
#     4  10  22  40  65  93 123 158 203 255 314 379
#     4  12  26  44  65  92 126 164 209 260 315 377
#     4  11  23  40  63  91 124 160 201 250 310 371
#     4  10  22  39  60  86 121 165 213 260 309 367
#     4   9  19  37  57  81 119 159 198 248 303 354
#     4  10  20  34  57  89 119 153 199 248 298 357
#     4  10  22  42  65  92 127 170 212 257 318 382
#
# _framework density 20.970492
#
# number of rings (size 3 to 8) (size 9 to 14) (size 15 to 20)
#    0.000    1.714    0.000    3.857    2.000    8.000 
#    0.000    1.429    0.000    0.000    0.000    0.000 
#    0.000    0.000    0.000    0.000    0.000    0.000 
#
# Total GULP energy -347101.244193 kJ/mol
# GULP energy per Si atom -12396.473007 kJ/mol
# Density = 2.092276 g / cm^3
# Si number density = 20.970492 Si / 1000 Ang^3
#
#
#
# Elastic Constant Matrix: (Units=GPa)
#
#
# Indices 1 2 3 4 5 6 
#
# 1 132.3256 36.6996 21.1624 0.0000 -8.1266 0.0000
# 2 36.6996 50.0574 19.8416 0.0000 -0.6856 0.0000
# 3 21.1624 19.8416 67.1293 0.0000 -6.3502 0.0000
# 4 0.0000 0.0000 0.0000 32.1835 0.0000 -5.6548
# 5 -8.1266 -0.6856 -6.3502 0.0000 38.5669 0.0000
# 6 0.0000 0.0000 0.0000 -5.6548 0.0000 34.2008
#
#
#
# Elastic Compliance Matrix: (Units=1/GPa)
#
#
# Indices 1 2 3 4 5 6 
#
# 1 0.009670 -0.006710 -0.000898 0.000000 0.001771 0.000000
# 2 -0.006710 0.027303 -0.006138 0.000000 -0.001939 0.000000
# 3 -0.000898 -0.006138 0.017234 0.000000 0.002539 0.000000
# 4 0.000000 0.000000 0.000000 0.032001 0.000000 0.005291
# 5 0.001771 -0.001939 0.002539 0.000000 0.026686 0.000000
# 6 0.000000 0.000000 0.000000 0.005291 0.000000 0.030114
#
#
# Mechanical properties :
#
#
# Convention : Reuss Voigt Hill
#
# Bulk Modulus (GPa) = 37.43101 44.99105 41.21103
# Shear Modulus (GPa) = 27.86991 32.44416 30.15703
#
# Velocity S-wave (km/s) = 3.64951 3.93763 3.79630
# Velocity P-wave (km/s) = 5.97048 6.49417 6.23783
#
# Compressibility (1/GPa) = 0.02671581
#
# Stress axis : x y z
#
# Youngs Moduli (GPa) = 103.40918 36.62641 58.02426
#
# Poissons Ratio (x) = 0.24575 0.05210
# Poissons Ratio (y) = 0.69384 0.35616
# Poissons Ratio (z) = 0.09285 0.22482
#
# Static dielectric constant tensor:
#      x y z
#    x 4.060060 0.000000 0.112650 
#    y 0.000000 3.772990 0.000000 
#    z 0.112650 0.000000 3.644200 
# 
# 
# High freq. dielectric constant tensor:
#      x y z
#    x 1.842050 0.000000 0.001660 
#    y 0.000000 1.811260 0.000000 
#    z 0.001660 0.000000 1.816500 
# 
# From -- ./inp_files/65348.got.cif
#   From: 2010.06.25/outbox.cif.g09.slc.cpg/sg11_33_cif.got.tgz:65348.got - 2010.06.27 23:14:04.
