data_PCOD8073314
_publ_section_title
;
Structure prediction by ZEFSAII (Michael W. Deem and Ramdas Pophale) SiO2 
 PCOD8073314
Probable space group: P 21/M
;
_chemical_formula_sum "Si O2"
_cell_formula_units_Z 28
_cell_length_a 15.716818
_cell_length_b 8.769310
_cell_length_c 17.942646
_cell_angle_alpha 90.000000
_cell_angle_beta 142.143602
_cell_angle_gamma 90.000000
_cell_volume 1517.615354
_symmetry_space_group_name_H-M "P 21/M"
_symmetry_group_IT_number 11
_symmetry_cell_setting 'monoclinic'
loop_
_space_group_symop_operation_xyz
x,y,z
-x,1/2+y,-z
-x,-y,-z
x,1/2-y,z
loop_
_atom_site_type_symbol
_atom_site_label
_atom_site_fract_x
_atom_site_fract_y
_atom_site_fract_z
Si Si1 0.668505 0.573370 0.912352
Si Si2 0.436761 0.420698 0.670881
Si Si3 0.633768 0.567983 0.053759
Si Si4 0.843414 0.933363 0.893501
Si Si5 0.143575 0.427302 0.519368
Si Si6 0.405853 0.575925 0.370674
Si Si7 0.131114 0.070925 0.677860
O O1 0.696900 0.750000 0.938490
O O2 0.515569 0.541578 0.776140
O O3 0.780684 0.508727 0.929948
O O4 0.670272 0.502098 0.996513
O O5 0.457502 0.250000 0.718477
O O6 0.276058 0.465961 0.561059
O O7 0.486686 0.428707 0.621842
O O8 0.619691 0.750000 0.041971
O O9 0.756954 0.503496 0.189042
O O10 0.500000 0.500000 0.000000
O O11 0.848511 0.750000 0.891096
O O12 0.740154 0.993330 0.755188
O O13 0.000000 0.000000 0.000000
O O14 0.107798 0.250000 0.496079
O O15 0.164206 0.489646 0.617767
O O16 0.016794 0.515346 0.394293
O O17 0.500000 0.500000 0.500000
O O18 0.368244 0.750000 0.366925
O O19 0.137112 0.250000 0.684443
#
# Coordination Sequence:
#
# PCOD8073314 Si02
#       7
#     4   4   4   4   4   4   4
#     4   9  19  34  53  77 106 136 173 217 259 316
#     4   9  18  33  54  76 101 132 170 212 256 310
#     4  10  20  34  51  74 104 135 171 213 258 306
#     4  10  20  37  59  82 111 148 187 229 281 337
#     4   9  17  31  49  69  95 129 167 207 247 294
#     4  10  20  36  57  82 111 141 179 228 279 332
#     4   9  18  31  47  68  98 132 165 203 247 297
#
# _framework density 18.449998999999998
#
# number of rings (size 3 to 8) (size 9 to 14) (size 15 to 20)
#    0.000    2.571    0.000    1.714    0.000    4.000 
#    2.571    2.857    0.000    0.000    0.000    0.000 
#    0.000    0.000    0.000    0.000    0.000    0.000 
#
# Total GULP energy -346912.779470 kJ/mol
# GULP energy per Si atom -12389.742124 kJ/mol
# Density = 1.840801 g / cm^3
# Si number density = 18.449999 Si / 1000 Ang^3
#
#
#
# Elastic Constant Matrix: (Units=GPa)
#
#
# Indices 1 2 3 4 5 6 
#
# 1 97.3296 26.4234 69.5951 0.0000 14.1229 0.0000
# 2 26.4234 38.5433 37.0388 0.0000 -0.8832 0.0000
# 3 69.5951 37.0388 157.0246 0.0000 7.6602 0.0000
# 4 0.0000 0.0000 0.0000 30.9164 0.0000 5.2108
# 5 14.1229 -0.8832 7.6602 0.0000 28.8683 0.0000
# 6 0.0000 0.0000 0.0000 5.2108 0.0000 25.3161
#
#
#
# Elastic Compliance Matrix: (Units=1/GPa)
#
#
# Indices 1 2 3 4 5 6 
#
# 1 0.017142 -0.006392 -0.005745 0.000000 -0.007057 0.000000
# 2 -0.006392 0.036222 -0.005995 0.000000 0.005826 0.000000
# 3 -0.005745 -0.005995 0.010335 0.000000 -0.000115 0.000000
# 4 0.000000 0.000000 0.000000 0.033508 0.000000 -0.006897
# 5 -0.007057 0.005826 -0.000115 0.000000 0.038301 0.000000
# 6 0.000000 0.000000 0.000000 -0.006897 0.000000 0.040920
#
#
# Mechanical properties :
#
#
# Convention : Reuss Voigt Hill
#
# Bulk Modulus (GPa) = 36.45279 62.11244 49.28262
# Shear Modulus (GPa) = 22.53907 27.67618 25.10763
#
# Velocity S-wave (km/s) = 3.49897 3.87727 3.69297
# Velocity P-wave (km/s) = 6.01035 7.33367 6.70473
#
# Compressibility (1/GPa) = 0.02743274
#
# Stress axis : x y z
#
# Youngs Moduli (GPa) = 58.33606 27.60787 96.76234
#
# Poissons Ratio (x) = 0.17648 0.55595
# Poissons Ratio (y) = 0.37290 0.58009
# Poissons Ratio (z) = 0.33517 0.16551
#
# Static dielectric constant tensor:
#      x y z
#    x 3.592030 0.000000 -0.049260 
#    y 0.000000 3.386200 0.000000 
#    z -0.049260 0.000000 3.627630 
# 
# 
# High freq. dielectric constant tensor:
#      x y z
#    x 1.715680 0.000000 0.005410 
#    y 0.000000 1.707350 0.000000 
#    z 0.005410 0.000000 1.716740 
# 
# From -- ./inp_files/54518.got.cif
#   From: 2010.06.25/outbox.cif.g09.slc.cpg/sg11_28_cif.got.tgz:54518.got - 2010.06.27 23:14:04.
