data_PCOD8073706
_publ_section_title
;
Structure prediction by ZEFSAII (Michael W. Deem and Ramdas Pophale) SiO2 
 PCOD8073706
Probable space group: P 21/M
;
_chemical_formula_sum "Si O2"
_cell_formula_units_Z 24
_cell_length_a 21.980020
_cell_length_b 9.052864
_cell_length_c 11.033829
_cell_angle_alpha 90.000000
_cell_angle_beta 31.930194
_cell_angle_gamma 90.000000
_cell_volume 1161.186872
_symmetry_space_group_name_H-M "P 21/M"
_symmetry_group_IT_number 11
_symmetry_cell_setting 'monoclinic'
loop_
_space_group_symop_operation_xyz
x,y,z
-x,1/2+y,-z
-x,-y,-z
x,1/2-y,z
loop_
_atom_site_type_symbol
_atom_site_label
_atom_site_fract_x
_atom_site_fract_y
_atom_site_fract_z
Si Si1 0.375606 0.925269 0.710016
Si Si2 0.814452 0.582800 0.368501
Si Si3 0.177208 0.420898 0.920443
Si Si4 0.618270 0.420072 0.815831
Si Si5 0.244804 0.920526 0.176512
Si Si6 0.957285 0.922370 0.360817
O O1 0.389178 0.750000 0.669098
O O2 0.500000 0.000000 0.500000
O O3 0.298946 0.996010 0.732711
O O4 0.308888 0.965843 0.945903
O O5 0.771908 0.750000 0.461974
O O6 0.862201 0.561777 0.152539
O O7 0.706198 0.476072 0.565857
O O8 0.911480 0.542762 0.302938
O O9 0.190664 0.250000 0.934301
O O10 0.079429 0.496082 0.168864
O O11 0.596926 0.250000 0.829395
O O12 0.665744 0.455440 0.868471
O O13 0.500000 0.500000 0.000000
O O14 0.207207 0.750000 0.240566
O O15 0.129981 0.017005 0.389817
O O16 0.977123 0.750000 0.349973
#
# Coordination Sequence:
#
# PCOD8073706 Si02
#       6
#     4   4   4   4   4   4
#     4  11  25  44  63  86 117 157 203 248 294 349
#     4   9  20  37  57  86 122 156 193 240 294 350
#     4  11  23  39  61  88 122 162 198 240 296 354
#     4  10  20  34  56  85 115 152 194 240 295 353
#     4   9  21  41  61  82 116 156 194 242 296 350
#     4  10  20  37  63  93 121 151 195 247 295 352
#
# _framework density 20.668509
#
# number of rings (size 3 to 8) (size 9 to 14) (size 15 to 20)
#    0.000    2.000    0.000    2.500    2.333    4.667 
#    0.000    0.000    0.000    0.000    0.000    0.000 
#    0.000    0.000    0.000    0.000    0.000    0.000 
#
# Total GULP energy -297678.179640 kJ/mol
# GULP energy per Si atom -12403.257485 kJ/mol
# Density = 2.062147 g / cm^3
# Si number density = 20.668509 Si / 1000 Ang^3
#
#
#
# Elastic Constant Matrix: (Units=GPa)
#
#
# Indices 1 2 3 4 5 6 
#
# 1 50.6566 33.8741 39.6453 0.0000 -6.3009 0.0000
# 2 33.8741 106.0957 62.0529 0.0000 -14.4899 0.0000
# 3 39.6453 62.0529 109.9573 0.0000 -16.0597 0.0000
# 4 0.0000 0.0000 0.0000 44.7474 0.0000 -6.0379
# 5 -6.3009 -14.4899 -16.0597 0.0000 38.1325 0.0000
# 6 0.0000 0.0000 0.0000 -6.0379 0.0000 31.4322
#
#
#
# Elastic Compliance Matrix: (Units=1/GPa)
#
#
# Indices 1 2 3 4 5 6 
#
# 1 0.028987 -0.004713 -0.007836 0.000000 -0.000301 0.000000
# 2 -0.004713 0.015000 -0.006443 0.000000 0.002207 0.000000
# 3 -0.007836 -0.006443 0.015993 0.000000 0.002992 0.000000
# 4 0.000000 0.000000 0.000000 0.022942 0.000000 0.004407
# 5 -0.000301 0.002207 0.002992 0.000000 0.028274 0.000000
# 6 0.000000 0.000000 0.000000 0.004407 0.000000 0.032661
#
#
# Mechanical properties :
#
#
# Convention : Reuss Voigt Hill
#
# Bulk Modulus (GPa) = 45.46278 59.76157 52.61217
# Shear Modulus (GPa) = 26.43061 31.60491 29.01776
#
# Velocity S-wave (km/s) = 3.57989 3.91466 3.75101
# Velocity P-wave (km/s) = 6.25551 7.02921 6.65362
#
# Compressibility (1/GPa) = 0.02199602
#
# Stress axis : x y z
#
# Youngs Moduli (GPa) = 34.49765 66.66462 62.52785
#
# Poissons Ratio (x) = 0.31422 0.48994
# Poissons Ratio (y) = 0.16260 0.40290
# Poissons Ratio (z) = 0.27031 0.42955
#
# Static dielectric constant tensor:
#      x y z
#    x 3.949110 0.000000 0.566230 
#    y 0.000000 3.798130 0.000000 
#    z 0.566230 0.000000 4.719880 
# 
# 
# High freq. dielectric constant tensor:
#      x y z
#    x 1.807890 0.000000 -0.003380 
#    y 0.000000 1.816770 0.000000 
#    z -0.003380 0.000000 1.810020 
# 
# From -- ./inp_files/43891.got.cif
#   From: 2010.06.25/outbox.cif.g09.slc.cpg/sg11_22_cif.got.tgz:43891.got - 2010.06.27 23:14:04.
