data_PCOD8073988
_publ_section_title
;
Structure prediction by ZEFSAII (Michael W. Deem and Ramdas Pophale) SiO2 
 PCOD8073988
Probable space group: P 21/M
;
_chemical_formula_sum "Si O2"
_cell_formula_units_Z 32
_cell_length_a 14.849688
_cell_length_b 12.757336
_cell_length_c 14.619892
_cell_angle_alpha 90.000000
_cell_angle_beta 37.447379
_cell_angle_gamma 90.000000
_cell_volume 1684.024152
_symmetry_space_group_name_H-M "P 21/M"
_symmetry_group_IT_number 11
_symmetry_cell_setting 'monoclinic'
loop_
_space_group_symop_operation_xyz
x,y,z
-x,1/2+y,-z
-x,-y,-z
x,1/2-y,z
loop_
_atom_site_type_symbol
_atom_site_label
_atom_site_fract_x
_atom_site_fract_y
_atom_site_fract_z
Si Si1 0.530681 0.872709 0.721264
Si Si2 0.904129 0.366299 0.328498
Si Si3 0.121660 0.627465 0.333093
Si Si4 0.217610 0.869717 0.057544
Si Si5 0.623559 0.979052 0.290467
Si Si6 0.081264 0.476285 0.030381
Si Si7 0.636099 0.136608 0.426421
Si Si8 0.828529 0.517722 0.547881
O O1 0.556700 0.750000 0.676501
O O2 0.679427 0.922394 0.641806
O O3 0.490375 0.939082 0.664162
O O4 0.393250 0.886172 0.901520
O O5 0.955629 0.250000 0.320667
O O6 0.732289 0.361697 0.440484
O O7 0.913335 0.452547 0.399987
O O8 0.996857 0.393810 0.162187
O O9 0.153600 0.750000 0.322392
O O10 0.180940 0.586504 0.187538
O O11 0.209833 0.562159 0.339107
O O12 0.946023 0.605634 0.484554
O O13 0.171080 0.750000 0.089971
O O14 0.112743 0.919679 0.064313
O O15 0.532773 0.884352 0.407366
O O16 0.701304 0.047766 0.307310
O O17 0.753968 0.930488 0.123749
O O18 0.000000 0.500000 0.000000
O O19 0.641380 0.250000 0.372902
#
# Coordination Sequence:
#
# PCOD8073988 Si02
#       8
#     4   4   4   4   4   4   4   4
#     4  10  20  35  57  84 113 147 187 233 283 334
#     4  11  22  37  56  81 116 152 189 231 284 339
#     4  10  21  38  61  85 113 146 187 235 285 340
#     4   9  20  38  59  84 114 149 189 234 282 333
#     4  10  20  35  56  79 113 149 192 240 275 332
#     4  11  21  36  56  82 116 152 193 229 279 332
#     4  10  20  35  55  79 111 150 190 232 284 335
#     4  11  21  37  60  87 112 147 188 235 286 338
#
# _framework density 19.002102000000001
#
# number of rings (size 3 to 8) (size 9 to 14) (size 15 to 20)
#    0.000    1.750    3.750    1.125    0.000    2.000 
#    0.000    0.000    0.000    0.000    0.000    0.000 
#    0.000    0.000    0.000    0.000    0.000    0.000 
#
# Total GULP energy -396611.825794 kJ/mol
# GULP energy per Si atom -12394.119556 kJ/mol
# Density = 1.895885 g / cm^3
# Si number density = 19.002102 Si / 1000 Ang^3
#
#
#
# Elastic Constant Matrix: (Units=GPa)
#
#
# Indices 1 2 3 4 5 6 
#
# 1 74.3824 21.1129 19.3653 0.0000 2.4711 0.0000
# 2 21.1129 67.6366 24.5835 0.0000 -4.0817 0.0000
# 3 19.3653 24.5835 79.9607 0.0000 8.5434 0.0000
# 4 0.0000 0.0000 0.0000 25.3119 0.0000 1.2460
# 5 2.4711 -4.0817 8.5434 0.0000 30.9327 0.0000
# 6 0.0000 0.0000 0.0000 1.2460 0.0000 26.4877
#
#
#
# Elastic Compliance Matrix: (Units=1/GPa)
#
#
# Indices 1 2 3 4 5 6 
#
# 1 0.015217 -0.003961 -0.002351 0.000000 -0.001089 0.000000
# 2 -0.003961 0.018102 -0.005044 0.000000 0.004098 0.000000
# 3 -0.002351 -0.005044 0.015124 0.000000 -0.004655 0.000000
# 4 0.000000 0.000000 0.000000 0.039599 0.000000 -0.001863
# 5 -0.001089 0.004098 -0.004655 0.000000 0.034242 0.000000
# 6 0.000000 0.000000 0.000000 -0.001863 0.000000 0.037841
#
#
# Mechanical properties :
#
#
# Convention : Reuss Voigt Hill
#
# Bulk Modulus (GPa) = 38.86507 39.12258 38.99382
# Shear Modulus (GPa) = 26.12161 27.00767 26.56464
#
# Velocity S-wave (km/s) = 3.71168 3.77410 3.74302
# Velocity P-wave (km/s) = 6.23427 6.29484 6.26463
#
# Compressibility (1/GPa) = 0.02573004
#
# Stress axis : x y z
#
# Youngs Moduli (GPa) = 65.71754 55.24270 66.12178
#
# Poissons Ratio (x) = 0.21882 0.15546
# Poissons Ratio (y) = 0.26031 0.33351
# Poissons Ratio (z) = 0.15451 0.27864
#
# Static dielectric constant tensor:
#      x y z
#    x 3.419320 0.000000 0.093370 
#    y 0.000000 3.452820 0.000000 
#    z 0.093370 0.000000 3.523930 
# 
# 
# High freq. dielectric constant tensor:
#      x y z
#    x 1.732540 0.000000 0.003150 
#    y 0.000000 1.734590 0.000000 
#    z 0.003150 0.000000 1.741510 
# 
# From -- ./inp_files/26560.got.cif
#   From: 2010.06.25/outbox.cif.g09.slc.cpg/sg11_14_cif.got.tgz:26560.got - 2010.06.27 23:14:04.
