data_PCOD8073989
_publ_section_title
;
Structure prediction by ZEFSAII (Michael W. Deem and Ramdas Pophale) SiO2 
 PCOD8073989
Probable space group: P 21/M
;
_chemical_formula_sum "Si O2"
_cell_formula_units_Z 32
_cell_length_a 14.069963
_cell_length_b 8.803035
_cell_length_c 30.834165
_cell_angle_alpha 90.000000
_cell_angle_beta 152.637174
_cell_angle_gamma 90.000000
_cell_volume 1755.334780
_symmetry_space_group_name_H-M "P 21/M"
_symmetry_group_IT_number 11
_symmetry_cell_setting 'monoclinic'
loop_
_space_group_symop_operation_xyz
x,y,z
-x,1/2+y,-z
-x,-y,-z
x,1/2-y,z
loop_
_atom_site_type_symbol
_atom_site_label
_atom_site_fract_x
_atom_site_fract_y
_atom_site_fract_z
Si Si1 0.220017 0.572499 0.599431
Si Si2 0.052961 0.428524 0.303958
Si Si3 0.218803 0.925189 0.453998
Si Si4 0.236025 0.422475 0.693907
Si Si5 0.371604 0.429331 0.841866
Si Si6 0.520793 0.924153 0.368873
Si Si7 0.910019 0.076427 0.769002
Si Si8 0.362348 0.071107 0.981970
O O1 0.192904 0.750000 0.583585
O O2 0.295304 0.531223 0.678280
O O3 0.395018 0.519261 0.637240
O O4 0.000000 0.500000 0.500000
O O5 0.047392 0.250000 0.309571
O O6 0.823572 0.495598 0.213862
O O7 0.204341 0.504000 0.400404
O O8 0.138672 0.467370 0.291212
O O9 0.283143 0.750000 0.475882
O O10 0.003421 0.943420 0.391767
O O11 0.390808 0.015660 0.549964
O O12 0.281159 0.250000 0.698093
O O13 0.373958 0.467665 0.791561
O O14 0.355309 0.250000 0.842806
O O15 0.575827 0.497593 0.946768
O O16 0.588006 0.750000 0.390042
O O17 0.272910 0.942615 0.270054
O O18 0.921911 0.250000 0.757039
O O19 0.123223 0.029219 0.878358
O O20 0.401439 0.250000 0.998935
O O21 0.500000 0.000000 0.000000
#
# Coordination Sequence:
#
# PCOD8073989 Si02
#       8
#     4   4   4   4   4   4   4   4
#     4  12  23  36  58  85 114 146 184 233 279 331
#     4  11  21  33  54  81 111 150 192 230 273 333
#     4  10  20  35  55  79 113 150 186 231 277 327
#     4   9  19  35  56  82 112 145 181 227 281 330
#     4  10  20  35  56  83 116 146 182 233 283 330
#     4  11  23  39  58  80 110 150 192 233 280 336
#     4  10  23  40  56  78 113 152 189 233 283 332
#     4  11  21  35  58  85 113 147 188 233 282 334
#
# _framework density 18.230141
#
# number of rings (size 3 to 8) (size 9 to 14) (size 15 to 20)
#    0.000    1.500    2.500    4.500    0.000    4.500 
#    0.000    0.000    0.000    0.750    0.000    0.000 
#    0.000    0.000    0.000    0.000    0.000    0.000 
#
# Total GULP energy -396931.152506 kJ/mol
# GULP energy per Si atom -12404.098516 kJ/mol
# Density = 1.818865 g / cm^3
# Si number density = 18.230141 Si / 1000 Ang^3
#
#
#
# Elastic Constant Matrix: (Units=GPa)
#
#
# Indices 1 2 3 4 5 6 
#
# 1 100.7337 53.0813 53.9253 0.0000 -8.4082 0.0000
# 2 53.0813 120.0632 40.7763 0.0000 -4.5990 0.0000
# 3 53.9253 40.7763 100.8434 0.0000 -8.0911 0.0000
# 4 0.0000 0.0000 0.0000 27.8670 0.0000 -6.7991
# 5 -8.4082 -4.5990 -8.0911 0.0000 24.9727 0.0000
# 6 0.0000 0.0000 0.0000 -6.7991 0.0000 31.4060
#
#
#
# Elastic Compliance Matrix: (Units=1/GPa)
#
#
# Indices 1 2 3 4 5 6 
#
# 1 0.016156 -0.004847 -0.006483 0.000000 0.002447 0.000000
# 2 -0.004847 0.011116 -0.001919 0.000000 -0.000207 0.000000
# 3 -0.006483 -0.001919 0.014328 0.000000 0.002106 0.000000
# 4 0.000000 0.000000 0.000000 0.037886 0.000000 0.008202
# 5 0.002447 -0.000207 0.002106 0.000000 0.041512 0.000000
# 6 0.000000 0.000000 0.000000 0.008202 0.000000 0.033617
#
#
# Mechanical properties :
#
#
# Convention : Reuss Voigt Hill
#
# Bulk Modulus (GPa) = 66.22103 68.57847 67.39975
# Shear Modulus (GPa) = 26.86038 28.43962 27.65000
#
# Velocity S-wave (km/s) = 3.84266 3.95401 3.89873
# Velocity P-wave (km/s) = 7.48945 7.65150 7.57091
#
# Compressibility (1/GPa) = 0.01510094
#
# Stress axis : x y z
#
# Youngs Moduli (GPa) = 61.89558 89.96118 69.79237
#
# Poissons Ratio (x) = 0.43607 0.45247
# Poissons Ratio (y) = 0.30003 0.13395
# Poissons Ratio (z) = 0.40128 0.17266
#
# Static dielectric constant tensor:
#      x y z
#    x 3.303080 0.000000 -0.216550 
#    y 0.000000 3.472540 0.000000 
#    z -0.216550 0.000000 3.379120 
# 
# 
# High freq. dielectric constant tensor:
#      x y z
#    x 1.695080 0.000000 -0.016510 
#    y 0.000000 1.719810 0.000000 
#    z -0.016510 0.000000 1.694350 
# 
# From -- ./inp_files/73146.got.cif
#   From: 2010.06.25/outbox.cif.g09.slc.cpg/sg11_37_cif.got.tgz:73146.got - 2010.06.27 23:14:04.
