data_PCOD8073408
_publ_section_title
;
Structure prediction by ZEFSAII (Michael W. Deem and Ramdas Pophale) SiO2 
 PCOD8073408
Probable space group: P 21/M
;
_chemical_formula_sum "Si O2"
_cell_formula_units_Z 20
_cell_length_a 15.511719
_cell_length_b 12.618225
_cell_length_c 12.138774
_cell_angle_alpha 90.000000
_cell_angle_beta 153.206339
_cell_angle_gamma 90.000000
_cell_volume 1071.017312
_symmetry_space_group_name_H-M "P 21/M"
_symmetry_group_IT_number 11
_symmetry_cell_setting 'monoclinic'
loop_
_space_group_symop_operation_xyz
x,y,z
-x,1/2+y,-z
-x,-y,-z
x,1/2-y,z
loop_
_atom_site_type_symbol
_atom_site_label
_atom_site_fract_x
_atom_site_fract_y
_atom_site_fract_z
Si Si1 0.066923 0.987490 0.405306
Si Si2 0.614483 0.870284 0.324756
Si Si3 0.979394 0.127196 0.874539
Si Si4 0.798604 0.130597 0.234762
Si Si5 0.675656 0.524206 0.620383
O O1 0.222372 0.077341 0.561989
O O2 0.885596 0.046585 0.249401
O O3 0.000862 0.931481 0.218918
O O4 0.148909 0.898624 0.580424
O O5 0.672881 0.750000 0.418038
O O6 0.583712 0.932238 0.403605
O O7 0.427482 0.875812 0.036753
O O8 0.938919 0.250000 0.809835
O O9 0.801013 0.081543 0.741327
O O10 0.180449 0.112022 0.166332
O O11 0.872145 0.250000 0.294695
O O12 0.500000 0.500000 0.500000
#
# Coordination Sequence:
#
# PCOD8073408 Si02
#       5
#     4   4   4   4   4
#     4  10  20  35  53  76 106 135 170 214 258 306
#     4  10  20  34  53  76 103 135 171 212 258 308
#     4  10  21  36  55  79 107 139 175 216 262 310
#     4  10  20  34  54  77 102 136 173 210 256 308
#     4  10  21  37  55  78 107 139 176 218 261 311
#
# _framework density 18.673835
#
# number of rings (size 3 to 8) (size 9 to 14) (size 15 to 20)
#    0.000    2.000    0.000    3.600    0.000    1.600 
#    0.000    5.000    0.000   13.200    0.000    0.000 
#    0.000    0.000    0.000    0.000    0.000    0.000 
#
# Total GULP energy -248060.971162 kJ/mol
# GULP energy per Si atom -12403.048558 kJ/mol
# Density = 1.863133 g / cm^3
# Si number density = 18.673835 Si / 1000 Ang^3
#
#
#
# Elastic Constant Matrix: (Units=GPa)
#
#
# Indices 1 2 3 4 5 6 
#
# 1 73.7571 6.1850 10.8534 0.0000 7.3487 0.0000
# 2 6.1850 88.7975 18.8137 0.0000 8.7117 0.0000
# 3 10.8534 18.8137 67.6613 0.0000 -1.0934 0.0000
# 4 0.0000 0.0000 0.0000 25.0621 0.0000 -1.4487
# 5 7.3487 8.7117 -1.0934 0.0000 25.3142 0.0000
# 6 0.0000 0.0000 0.0000 -1.4487 0.0000 20.5553
#
#
#
# Elastic Compliance Matrix: (Units=1/GPa)
#
#
# Indices 1 2 3 4 5 6 
#
# 1 0.014332 -0.000087 -0.002343 0.000000 -0.004232 0.000000
# 2 -0.000087 0.012446 -0.003518 0.000000 -0.004410 0.000000
# 3 -0.002343 -0.003518 0.016175 0.000000 0.002590 0.000000
# 4 0.000000 0.000000 0.000000 0.040064 0.000000 0.002824
# 5 -0.004232 -0.004410 0.002590 0.000000 0.042361 0.000000
# 6 0.000000 0.000000 0.000000 0.002824 0.000000 0.048848
#
#
# Mechanical properties :
#
#
# Convention : Reuss Voigt Hill
#
# Bulk Modulus (GPa) = 32.19868 33.54667 32.87268
# Shear Modulus (GPa) = 25.44858 27.14390 26.29624
#
# Velocity S-wave (km/s) = 3.69561 3.81672 3.75665
# Velocity P-wave (km/s) = 5.95736 6.11773 6.03808
#
# Compressibility (1/GPa) = 0.03105717
#
# Stress axis : x y z
#
# Youngs Moduli (GPa) = 69.77530 80.34961 61.82229
#
# Poissons Ratio (x) = 0.00696 0.14486
# Poissons Ratio (y) = 0.00604 0.21749
# Poissons Ratio (z) = 0.16350 0.28267
#
# Static dielectric constant tensor:
#      x y z
#    x 3.380720 0.000000 -0.099740 
#    y 0.000000 3.476000 0.000000 
#    z -0.099740 0.000000 3.423950 
# 
# 
# High freq. dielectric constant tensor:
#      x y z
#    x 1.728010 0.000000 -0.006680 
#    y 0.000000 1.730330 0.000000 
#    z -0.006680 0.000000 1.733450 
# 
# From -- ./inp_files/16573.got.cif
#   From: 2010.06.25/outbox.cif.g09.slc.cpg/sg11_9_cif.got.tgz:16573.got - 2010.06.27 23:14:04.
