data_PCOD8073176
_publ_section_title
;
Structure prediction by ZEFSAII (Michael W. Deem and Ramdas Pophale) SiO2 
 PCOD8073176
Probable space group: P 21/M
;
_chemical_formula_sum "Si O2"
_cell_formula_units_Z 32
_cell_length_a 12.280669
_cell_length_b 9.092646
_cell_length_c 22.464582
_cell_angle_alpha 90.000000
_cell_angle_beta 46.402266
_cell_angle_gamma 90.000000
_cell_volume 1816.639081
_symmetry_space_group_name_H-M "P 21/M"
_symmetry_group_IT_number 11
_symmetry_cell_setting 'monoclinic'
loop_
_space_group_symop_operation_xyz
x,y,z
-x,1/2+y,-z
-x,-y,-z
x,1/2-y,z
loop_
_atom_site_type_symbol
_atom_site_label
_atom_site_fract_x
_atom_site_fract_y
_atom_site_fract_z
Si Si1 0.553661 0.917730 0.338068
Si Si2 0.311385 0.414279 0.012081
Si Si3 0.366319 0.581164 0.518335
Si Si4 0.157621 0.579916 0.175691
Si Si5 0.174967 0.077130 0.675829
Si Si6 0.846058 0.582721 0.050373
Si Si7 0.410028 0.921334 0.168551
Si Si8 0.434187 0.575354 0.787828
O O1 0.571424 0.750000 0.308516
O O2 0.400712 0.931791 0.434950
O O3 0.702483 0.961778 0.319784
O O4 0.531296 0.029518 0.292592
O O5 0.331100 0.250000 0.029490
O O6 0.254613 0.512545 0.086755
O O7 0.189571 0.419202 0.005749
O O8 0.470530 0.473228 0.926809
O O9 0.500000 0.500000 0.500000
O O10 0.362738 0.750000 0.539829
O O11 0.213767 0.502711 0.598329
O O12 0.148804 0.750000 0.164019
O O13 0.242648 0.552451 0.206466
O O14 0.988493 0.516233 0.242686
O O15 0.170732 0.250000 0.664542
O O16 0.856964 0.750000 0.070150
O O17 0.722390 0.497233 0.134912
O O18 0.000000 0.500000 0.000000
O O19 0.441458 0.750000 0.171979
O O20 0.432216 0.016315 0.219900
O O21 0.423796 0.750000 0.796766
#
# Coordination Sequence:
#
# PCOD8073176 Si02
#       8
#     4   4   4   4   4   4   4   4
#     4   9  18  33  52  75 105 137 167 203 252 309
#     4   9  19  33  49  72  99 132 173 216 258 298
#     4   9  17  31  52  76 103 136 167 201 251 306
#     4  10  20  33  53  78 102 135 174 212 258 310
#     4   9  19  33  50  78 109 135 165 204 257 312
#     4  10  21  36  51  71 103 139 172 210 258 304
#     4   9  19  37  54  70 100 138 176 218 261 301
#     4  11  22  34  52  77 100 132 177 215 255 304
#
# _framework density 17.614946
#
# number of rings (size 3 to 8) (size 9 to 14) (size 15 to 20)
#    0.000    2.500    0.000    3.750    1.750    6.000 
#    0.000    0.000    0.000    0.750    0.000    0.000 
#    0.000    0.000    0.000    0.000    0.000    0.000 
#
# Total GULP energy -396705.160779 kJ/mol
# GULP energy per Si atom -12397.036274 kJ/mol
# Density = 1.757485 g / cm^3
# Si number density = 17.614946 Si / 1000 Ang^3
#
#
#
# Elastic Constant Matrix: (Units=GPa)
#
#
# Indices 1 2 3 4 5 6 
#
# 1 68.4791 35.8127 45.1176 0.0000 0.0036 0.0000
# 2 35.8127 95.9375 47.7900 0.0000 10.1619 0.0000
# 3 45.1176 47.7900 83.7003 0.0000 10.6686 0.0000
# 4 0.0000 0.0000 0.0000 33.3621 0.0000 3.5624
# 5 0.0036 10.1619 10.6686 0.0000 18.1477 0.0000
# 6 0.0000 0.0000 0.0000 3.5624 0.0000 23.4848
#
#
#
# Elastic Compliance Matrix: (Units=1/GPa)
#
#
# Indices 1 2 3 4 5 6 
#
# 1 0.024841 -0.004202 -0.012205 0.000000 0.009523 0.000000
# 2 -0.004202 0.015490 -0.005917 0.000000 -0.005194 0.000000
# 3 -0.012205 -0.005917 0.023222 0.000000 -0.010336 0.000000
# 4 0.000000 0.000000 0.000000 0.030468 0.000000 -0.004622
# 5 0.009523 -0.005194 -0.010336 0.000000 0.064086 0.000000
# 6 0.000000 0.000000 0.000000 -0.004622 0.000000 0.043282
#
#
# Mechanical properties :
#
#
# Convention : Reuss Voigt Hill
#
# Bulk Modulus (GPa) = 52.89547 56.17303 54.53425
# Shear Modulus (GPa) = 19.81462 22.95869 21.38666
#
# Velocity S-wave (km/s) = 3.35755 3.61413 3.48820
# Velocity P-wave (km/s) = 6.71750 7.02670 6.87384
#
# Compressibility (1/GPa) = 0.01890521
#
# Stress axis : x y z
#
# Youngs Moduli (GPa) = 40.25546 64.55920 43.06219
#
# Poissons Ratio (x) = 0.27128 0.52558
# Poissons Ratio (y) = 0.16915 0.25480
# Poissons Ratio (z) = 0.49132 0.38199
#
# Static dielectric constant tensor:
#      x y z
#    x 3.257250 0.000000 -0.099830 
#    y 0.000000 3.421070 0.000000 
#    z -0.099830 0.000000 3.416730 
# 
# 
# High freq. dielectric constant tensor:
#      x y z
#    x 1.663340 0.000000 0.000730 
#    y 0.000000 1.683440 0.000000 
#    z 0.000730 0.000000 1.674900 
# 
# From -- ./inp_files/64333.got.cif
#   From: 2010.06.25/outbox.cif.g09.slc.cpg/sg11_33_cif.got.tgz:64333.got - 2010.06.27 23:14:04.
