data_PCOD8073514
_publ_section_title
;
Structure prediction by ZEFSAII (Michael W. Deem and Ramdas Pophale) SiO2 
 PCOD8073514
Probable space group: P 21/M
;
_chemical_formula_sum "Si O2"
_cell_formula_units_Z 28
_cell_length_a 9.415706
_cell_length_b 8.965171
_cell_length_c 29.833530
_cell_angle_alpha 90.000000
_cell_angle_beta 37.014429
_cell_angle_gamma 90.000000
_cell_volume 1516.087393
_symmetry_space_group_name_H-M "P 21/M"
_symmetry_group_IT_number 11
_symmetry_cell_setting 'monoclinic'
loop_
_space_group_symop_operation_xyz
x,y,z
-x,1/2+y,-z
-x,-y,-z
x,1/2-y,z
loop_
_atom_site_type_symbol
_atom_site_label
_atom_site_fract_x
_atom_site_fract_y
_atom_site_fract_z
Si Si1 0.248967 0.075999 0.066000
Si Si2 0.862176 0.925083 0.218830
Si Si3 0.302577 0.923095 0.649504
Si Si4 0.919605 0.077196 0.065296
Si Si5 0.458487 0.077056 0.783702
Si Si6 0.057073 0.081714 0.340940
Si Si7 0.363651 0.922899 0.494555
O O1 0.277151 0.250000 0.069281
O O2 0.117726 0.046336 0.052425
O O3 0.105861 0.001252 0.142584
O O4 0.500000 0.000000 0.000000
O O5 0.905870 0.750000 0.212840
O O6 0.658281 0.962217 0.234471
O O7 0.787099 0.993002 0.284523
O O8 0.341458 0.750000 0.650386
O O9 0.112925 0.949086 0.658196
O O10 0.555922 0.994339 0.571352
O O11 0.882423 0.250000 0.065118
O O12 0.669935 0.011400 0.144139
O O13 0.000000 0.000000 0.000000
O O14 0.434711 0.250000 0.800999
O O15 0.731230 0.034161 0.713291
O O16 0.156868 0.250000 0.313272
O O17 0.914344 0.060085 0.423847
O O18 0.435755 0.750000 0.473635
O O19 0.500000 0.000000 0.500000
#
# Coordination Sequence:
#
# PCOD8073514 Si02
#       7
#     4   4   4   4   4   4   4
#     4  10  21  37  57  80 105 137 174 213 259 310
#     4  10  21  37  55  77 106 139 174 215 261 310
#     4  10  20  34  54  80 106 137 177 218 261 310
#     4  10  21  37  57  79 105 137 173 212 258 308
#     4  10  21  36  55  78 105 138 175 213 259 310
#     4   9  19  34  53  78 106 136 173 215 259 307
#     4   9  17  31  51  76 106 138 173 216 263 309
#
# _framework density 18.468592000000001
#
# number of rings (size 3 to 8) (size 9 to 14) (size 15 to 20)
#    0.000    2.286    0.000    3.429    0.000    8.000 
#    0.000    0.714    0.000    0.000    0.000    0.000 
#    0.000    0.000    0.000    0.000    0.000    0.000 
#
# Total GULP energy -347212.247188 kJ/mol
# GULP energy per Si atom -12400.437400 kJ/mol
# Density = 1.842656 g / cm^3
# Si number density = 18.468592 Si / 1000 Ang^3
#
#
#
# Elastic Constant Matrix: (Units=GPa)
#
#
# Indices 1 2 3 4 5 6 
#
# 1 41.0904 38.2184 51.9652 0.0000 0.5052 0.0000
# 2 38.2184 117.2573 78.7227 0.0000 4.1797 0.0000
# 3 51.9652 78.7227 167.8822 0.0000 11.7754 0.0000
# 4 0.0000 0.0000 0.0000 44.4316 0.0000 0.4144
# 5 0.5052 4.1797 11.7754 0.0000 30.7872 0.0000
# 6 0.0000 0.0000 0.0000 0.4144 0.0000 29.2964
#
#
#
# Elastic Compliance Matrix: (Units=1/GPa)
#
#
# Indices 1 2 3 4 5 6 
#
# 1 0.044773 -0.007646 -0.010578 0.000000 0.004349 0.000000
# 2 -0.007646 0.013762 -0.004073 0.000000 -0.000185 0.000000
# 3 -0.010578 -0.004073 0.011396 0.000000 -0.003632 0.000000
# 4 0.000000 0.000000 0.000000 0.022509 0.000000 -0.000318
# 5 0.004349 -0.000185 -0.003632 0.000000 0.033824 0.000000
# 6 0.000000 0.000000 0.000000 -0.000318 0.000000 0.034138
#
#
# Mechanical properties :
#
#
# Convention : Reuss Voigt Hill
#
# Bulk Modulus (GPa) = 39.47192 73.78251 56.62722
# Shear Modulus (GPa) = 23.42549 31.39128 27.40838
#
# Velocity S-wave (km/s) = 3.56532 4.12723 3.85652
# Velocity P-wave (km/s) = 6.19415 7.92143 7.11043
#
# Compressibility (1/GPa) = 0.02533447
#
# Stress axis : x y z
#
# Youngs Moduli (GPa) = 22.33500 72.66518 87.75202
#
# Poissons Ratio (x) = 0.55561 0.92827
# Poissons Ratio (y) = 0.17078 0.35745
# Poissons Ratio (z) = 0.23627 0.29599
#
# Static dielectric constant tensor:
#      x y z
#    x 3.161560 0.000000 0.014110 
#    y 0.000000 3.964490 0.000000 
#    z 0.014110 0.000000 3.715640 
# 
# 
# High freq. dielectric constant tensor:
#      x y z
#    x 1.687100 0.000000 0.002100 
#    y 0.000000 1.735060 0.000000 
#    z 0.002100 0.000000 1.733980 
# 
# From -- ./inp_files/28228.got.cif
#   From: 2010.06.25/outbox.cif.g09.slc.cpg/sg11_15_cif.got.tgz:28228.got - 2010.06.27 23:14:04.
