data_PCOD8073321
_publ_section_title
;
Structure prediction by ZEFSAII (Michael W. Deem and Ramdas Pophale) SiO2 
 PCOD8073321
Probable space group: P 21/M
;
_chemical_formula_sum "Si O2"
_cell_formula_units_Z 32
_cell_length_a 11.824508
_cell_length_b 9.295409
_cell_length_c 14.859503
_cell_angle_alpha 90.000000
_cell_angle_beta 86.294203
_cell_angle_gamma 90.000000
_cell_volume 1629.847021
_symmetry_space_group_name_H-M "P 21/M"
_symmetry_group_IT_number 11
_symmetry_cell_setting 'monoclinic'
loop_
_space_group_symop_operation_xyz
x,y,z
-x,1/2+y,-z
-x,-y,-z
x,1/2-y,z
loop_
_atom_site_type_symbol
_atom_site_label
_atom_site_fract_x
_atom_site_fract_y
_atom_site_fract_z
Si Si1 0.618782 0.580176 0.506956
Si Si2 0.598162 0.415802 0.823361
Si Si3 0.301338 0.591307 0.000835
Si Si4 0.342967 0.081659 0.825185
Si Si5 0.052877 0.911550 0.078294
Si Si6 0.749368 0.580528 0.681693
Si Si7 0.030503 0.579655 0.282922
Si Si8 0.218066 0.080042 0.658707
O O1 0.500000 0.500000 0.500000
O O2 0.596912 0.750000 0.497811
O O3 0.672528 0.541075 0.600059
O O4 0.709956 0.522015 0.429386
O O5 0.628628 0.250000 0.798122
O O6 0.472806 0.457128 0.797820
O O7 0.685632 0.522601 0.772366
O O8 0.600752 0.440919 0.931044
O O9 0.317849 0.750000 0.957992
O O10 0.298896 0.479479 0.920991
O O11 0.187468 0.582772 0.064745
O O12 0.324949 0.250000 0.834597
O O13 0.270222 0.014665 0.747731
O O14 0.005798 0.750000 0.071300
O O15 0.020340 0.971361 0.179040
O O16 0.000000 0.000000 0.000000
O O17 0.769250 0.750000 0.689021
O O18 0.871351 0.504085 0.668858
O O19 0.055232 0.750000 0.285189
O O20 0.914137 0.537615 0.340301
O O21 0.230735 0.250000 0.661681
#
# Coordination Sequence:
#
# PCOD8073321 Si02
#       8
#     4   4   4   4   4   4   4   4
#     4  10  22  41  63  90 119 149 188 235 289 346
#     4  10  20  37  58  80 112 153 194 230 280 351
#     4  10  20  34  51  77 114 149 184 234 287 338
#     4  10  20  34  57  84 108 145 193 236 280 341
#     4  10  20  34  53  78 110 149 194 238 280 332
#     4  11  23  37  58  88 119 148 189 246 292 332
#     4  10  20  38  60  80 112 156 196 232 280 346
#     4   9  19  37  60  84 112 148 191 234 279 340
#
# _framework density 19.633745000000001
#
# number of rings (size 3 to 8) (size 9 to 14) (size 15 to 20)
#    0.000    2.000    1.250    2.250    0.000    5.500 
#    0.000    1.875    0.000    0.000    0.000    0.000 
#    0.000    0.000    0.000    0.000    0.000    0.000 
#
# Total GULP energy -396804.810730 kJ/mol
# GULP energy per Si atom -12400.150335 kJ/mol
# Density = 1.958906 g / cm^3
# Si number density = 19.633745 Si / 1000 Ang^3
#
#
#
# Elastic Constant Matrix: (Units=GPa)
#
#
# Indices 1 2 3 4 5 6 
#
# 1 117.6928 43.3108 49.4330 0.0000 1.9449 0.0000
# 2 43.3108 48.7755 32.8571 0.0000 3.4333 0.0000
# 3 49.4330 32.8571 92.2024 0.0000 -2.8472 0.0000
# 4 0.0000 0.0000 0.0000 22.4644 0.0000 4.2891
# 5 1.9449 3.4333 -2.8472 0.0000 37.2433 0.0000
# 6 0.0000 0.0000 0.0000 4.2891 0.0000 30.6333
#
#
#
# Elastic Compliance Matrix: (Units=1/GPa)
#
#
# Indices 1 2 3 4 5 6 
#
# 1 0.013629 -0.009430 -0.003951 0.000000 -0.000144 0.000000
# 2 -0.009430 0.033897 -0.007122 0.000000 -0.003177 0.000000
# 3 -0.003951 -0.007122 0.015565 0.000000 0.002053 0.000000
# 4 0.000000 0.000000 0.000000 0.045738 0.000000 -0.006404
# 5 -0.000144 -0.003177 0.002053 0.000000 0.027308 0.000000
# 6 0.000000 0.000000 0.000000 -0.006404 0.000000 0.033541
#
#
# Mechanical properties :
#
#
# Convention : Reuss Voigt Hill
#
# Bulk Modulus (GPa) = 45.27886 56.65251 50.96569
# Shear Modulus (GPa) = 22.93113 26.93951 24.93532
#
# Velocity S-wave (km/s) = 3.42123 3.70821 3.56761
# Velocity P-wave (km/s) = 6.22240 6.87399 6.55629
#
# Compressibility (1/GPa) = 0.02208536
#
# Stress axis : x y z
#
# Youngs Moduli (GPa) = 73.37401 29.50129 64.24630
#
# Poissons Ratio (x) = 0.27821 0.25382
# Poissons Ratio (y) = 0.69194 0.45754
# Poissons Ratio (z) = 0.28988 0.21010
#
# Static dielectric constant tensor:
#      x y z
#    x 3.781200 0.000000 0.078910 
#    y 0.000000 3.384880 0.000000 
#    z 0.078910 0.000000 3.609280 
# 
# 
# High freq. dielectric constant tensor:
#      x y z
#    x 1.779530 0.000000 0.003830 
#    y 0.000000 1.740250 0.000000 
#    z 0.003830 0.000000 1.766010 
# 
# From -- ./inp_files/49374.got.cif
#   From: 2010.06.25/outbox.cif.g09.slc.cpg/sg11_25_cif.got.tgz:49374.got - 2010.06.27 23:14:04.
