data_PCOD8073628
_publ_section_title
;
Structure prediction by ZEFSAII (Michael W. Deem and Ramdas Pophale) SiO2 
 PCOD8073628
Probable space group: P 21/M
;
_chemical_formula_sum "Si O2"
_cell_formula_units_Z 28
_cell_length_a 19.738847
_cell_length_b 8.880177
_cell_length_c 12.110186
_cell_angle_alpha 90.000000
_cell_angle_beta 134.202777
_cell_angle_gamma 90.000000
_cell_volume 1521.734029
_symmetry_space_group_name_H-M "P 21/M"
_symmetry_group_IT_number 11
_symmetry_cell_setting 'monoclinic'
loop_
_space_group_symop_operation_xyz
x,y,z
-x,1/2+y,-z
-x,-y,-z
x,1/2-y,z
loop_
_atom_site_type_symbol
_atom_site_label
_atom_site_fract_x
_atom_site_fract_y
_atom_site_fract_z
Si Si1 0.664856 0.573615 0.494908
Si Si2 0.692332 0.072756 0.114466
Si Si3 0.778222 0.070989 0.433408
Si Si4 0.165425 0.924118 0.909282
Si Si5 0.028303 0.426283 0.417052
Si Si6 0.693412 0.574359 0.780832
Si Si7 0.452412 0.571332 0.223969
O O1 0.673748 0.750000 0.479577
O O2 0.738343 0.483525 0.504065
O O3 0.690559 0.534807 0.649100
O O4 0.559551 0.513665 0.348731
O O5 0.689488 0.250000 0.119485
O O6 0.708512 0.009653 0.256412
O O7 0.780941 0.021675 0.140603
O O8 0.595338 0.016036 0.946072
O O9 0.786987 0.250000 0.441851
O O10 0.881131 0.002926 0.532904
O O11 0.188073 0.750000 0.958228
O O12 0.054711 0.953081 0.766770
O O13 0.205584 0.018254 0.058100
O O14 0.045658 0.250000 0.456712
O O15 0.000000 0.500000 0.500000
O O16 0.682751 0.750000 0.790258
O O17 0.605329 0.493972 0.738905
O O18 0.448124 0.750000 0.231032
#
# Coordination Sequence:
#
# PCOD8073628 Si02
#       7
#     4   4   4   4   4   4   4
#     4  10  22  38  53  76 111 150 185 226 274 320
#     4   8  15  31  52  78 108 137 173 219 266 316
#     4  11  22  36  54  80 113 146 184 225 269 326
#     4   9  18  35  57  80 109 141 176 220 272 324
#     4  11  21  36  59  85 112 142 178 221 270 327
#     4  10  20  34  55  83 111 137 183 236 271 315
#     4   9  18  35  58  78 106 146 184 222 274 328
#
# _framework density 18.400061999999998
#
# number of rings (size 3 to 8) (size 9 to 14) (size 15 to 20)
#    0.000    2.286    1.429    2.571    0.000    3.429 
#    0.000    1.429    0.000    0.000    0.000    0.000 
#    0.000    0.000    0.000    0.000    0.000    0.000 
#
# Total GULP energy -347150.800008 kJ/mol
# GULP energy per Si atom -12398.242857 kJ/mol
# Density = 1.835818 g / cm^3
# Si number density = 18.400062 Si / 1000 Ang^3
#
#
#
# Elastic Constant Matrix: (Units=GPa)
#
#
# Indices 1 2 3 4 5 6 
#
# 1 120.2163 46.4117 63.9345 0.0000 6.9601 0.0000
# 2 46.4117 56.7131 33.2017 0.0000 3.4561 0.0000
# 3 63.9345 33.2017 99.6218 0.0000 9.1998 0.0000
# 4 0.0000 0.0000 0.0000 28.3661 0.0000 -0.8209
# 5 6.9601 3.4561 9.1998 0.0000 20.6426 0.0000
# 6 0.0000 0.0000 0.0000 -0.8209 0.0000 27.2595
#
#
#
# Elastic Compliance Matrix: (Units=1/GPa)
#
#
# Indices 1 2 3 4 5 6 
#
# 1 0.015304 -0.008411 -0.006958 0.000000 -0.000651 0.000000
# 2 -0.008411 0.026533 -0.003438 0.000000 -0.000074 0.000000
# 3 -0.006958 -0.003438 0.016040 0.000000 -0.004227 0.000000
# 4 0.000000 0.000000 0.000000 0.035284 0.000000 0.001063
# 5 -0.000651 -0.000074 -0.004227 0.000000 0.050559 0.000000
# 6 0.000000 0.000000 0.000000 0.001063 0.000000 0.036717
#
#
# Mechanical properties :
#
#
# Convention : Reuss Voigt Hill
#
# Bulk Modulus (GPa) = 49.35340 62.62744 55.99042
# Shear Modulus (GPa) = 22.24150 24.12051 23.18100
#
# Velocity S-wave (km/s) = 3.48051 3.62455 3.55326
# Velocity P-wave (km/s) = 6.55992 7.18519 6.87966
#
# Compressibility (1/GPa) = 0.02026203
#
# Stress axis : x y z
#
# Youngs Moduli (GPa) = 65.34330 37.68892 62.34470
#
# Poissons Ratio (x) = 0.31699 0.43382
# Poissons Ratio (y) = 0.54958 0.21436
# Poissons Ratio (z) = 0.45468 0.12958
#
# Static dielectric constant tensor:
#      x y z
#    x 3.911310 0.000000 0.480220 
#    y 0.000000 3.281140 0.000000 
#    z 0.480220 0.000000 4.002110 
# 
# 
# High freq. dielectric constant tensor:
#      x y z
#    x 1.695840 0.000000 0.006300 
#    y 0.000000 1.703910 0.000000 
#    z 0.006300 0.000000 1.728690 
# 
# From -- ./inp_files/42625.got.cif
#   From: 2010.06.25/outbox.cif.g09.slc.cpg/sg11_22_cif.got.tgz:42625.got - 2010.06.27 23:14:04.
