data_PCOD8073295
_publ_section_title
;
Structure prediction by ZEFSAII (Michael W. Deem and Ramdas Pophale) SiO2 
 PCOD8073295
Probable space group: P 21/M
;
_chemical_formula_sum "Si O2"
_cell_formula_units_Z 32
_cell_length_a 11.574021
_cell_length_b 9.044892
_cell_length_c 18.420150
_cell_angle_alpha 90.000000
_cell_angle_beta 66.573832
_cell_angle_gamma 90.000000
_cell_volume 1769.381608
_symmetry_space_group_name_H-M "P 21/M"
_symmetry_group_IT_number 11
_symmetry_cell_setting 'monoclinic'
loop_
_space_group_symop_operation_xyz
x,y,z
-x,1/2+y,-z
-x,-y,-z
x,1/2-y,z
loop_
_atom_site_type_symbol
_atom_site_label
_atom_site_fract_x
_atom_site_fract_y
_atom_site_fract_z
Si Si1 0.933439 0.578292 0.309394
Si Si2 0.207338 0.573808 0.221124
Si Si3 0.820401 0.074971 0.932093
Si Si4 0.102582 0.421143 0.848659
Si Si5 0.466752 0.923282 0.399332
Si Si6 0.308375 0.574544 0.891181
Si Si7 0.457993 0.574902 0.236138
Si Si8 0.307908 0.075144 0.552354
O O1 0.940731 0.750000 0.324750
O O2 0.885882 0.553159 0.239831
O O3 0.829100 0.510603 0.390216
O O4 0.073832 0.510270 0.285326
O O5 0.198248 0.750000 0.220391
O O6 0.227944 0.513478 0.133637
O O7 0.320320 0.521490 0.244261
O O8 0.816826 0.250000 0.930716
O O9 0.964915 0.027157 0.910250
O O10 0.732658 0.015630 0.018838
O O11 0.129570 0.250000 0.861485
O O12 0.205401 0.524909 0.859008
O O13 0.441552 0.750000 0.408520
O O14 0.476914 0.977971 0.313980
O O15 0.594275 0.969036 0.408518
O O16 0.347380 0.001238 0.466826
O O17 0.320343 0.750000 0.886036
O O18 0.442014 0.503034 0.840544
O O19 0.474632 0.750000 0.224270
O O20 0.306167 0.250000 0.542190
#
# Coordination Sequence:
#
# PCOD8073295 Si02
#       8
#     4   4   4   4   4   4   4   4
#     4   8  14  27  50  75  93 116 156 199 230 266
#     4   8  15  30  51  70  89 120 162 199 229 268
#     4   8  16  30  48  71  96 122 154 195 237 274
#     4   9  16  30  51  71  95 125 156 190 229 277
#     4   9  18  31  46  68  96 121 149 188 229 271
#     4  11  21  30  44  70 101 126 152 193 241 281
#     4  10  20  34  51  68  89 123 165 199 227 270
#     4   9  16  28  48  71  94 119 147 182 231 284
#
# _framework density 18.085415000000001
#
# number of rings (size 3 to 8) (size 9 to 14) (size 15 to 20)
#    0.000    3.000    0.000    3.000    0.000    3.000 
#    0.000    4.375    0.000    4.500    0.000    0.000 
#    0.000    0.000    0.000    0.000    0.000    0.000 
#
# Total GULP energy -396641.883357 kJ/mol
# GULP energy per Si atom -12395.058855 kJ/mol
# Density = 1.804425 g / cm^3
# Si number density = 18.085415 Si / 1000 Ang^3
#
#
#
# Elastic Constant Matrix: (Units=GPa)
#
#
# Indices 1 2 3 4 5 6 
#
# 1 91.1703 20.2365 50.0831 0.0000 -17.1841 0.0000
# 2 20.2365 22.8115 25.0987 0.0000 -5.8990 0.0000
# 3 50.0831 25.0987 123.0787 0.0000 -35.2582 0.0000
# 4 0.0000 0.0000 0.0000 23.9123 0.0000 -4.1012
# 5 -17.1841 -5.8990 -35.2582 0.0000 24.3687 0.0000
# 6 0.0000 0.0000 0.0000 -4.1012 0.0000 15.3001
#
#
#
# Elastic Compliance Matrix: (Units=1/GPa)
#
#
# Indices 1 2 3 4 5 6 
#
# 1 0.015573 -0.009108 -0.003357 0.000000 0.003920 0.000000
# 2 -0.009108 0.062221 -0.011114 0.000000 -0.007441 0.000000
# 3 -0.003357 -0.011114 0.017605 0.000000 0.020415 0.000000
# 4 0.000000 0.000000 0.000000 0.043835 0.000000 0.011750
# 5 0.003920 -0.007441 0.020415 0.000000 0.071538 0.000000
# 6 0.000000 0.000000 0.000000 0.011750 0.000000 0.068509
#
#
# Mechanical properties :
#
#
# Convention : Reuss Voigt Hill
#
# Bulk Modulus (GPa) = 20.72837 47.54412 34.13624
# Shear Modulus (GPa) = 14.59776 22.15904 18.37840
#
# Velocity S-wave (km/s) = 2.84413 3.50415 3.19125
# Velocity P-wave (km/s) = 4.71929 6.53588 5.70042
#
# Compressibility (1/GPa) = 0.04824306
#
# Stress axis : x y z
#
# Youngs Moduli (GPa) = 64.21398 16.07168 56.80063
#
# Poissons Ratio (x) = 0.14638 0.19065
# Poissons Ratio (y) = 0.58487 0.63126
# Poissons Ratio (z) = 0.21553 0.17861
#
# Static dielectric constant tensor:
#      x y z
#    x 3.452960 0.000000 -0.186320 
#    y 0.000000 2.911310 0.000000 
#    z -0.186320 0.000000 3.726270 
# 
# 
# High freq. dielectric constant tensor:
#      x y z
#    x 1.694120 0.000000 -0.011300 
#    y 0.000000 1.655280 0.000000 
#    z -0.011300 0.000000 1.710170 
# 
# From -- ./inp_files/64200.got.cif
#   From: 2010.06.25/outbox.cif.g09.slc.cpg/sg11_33_cif.got.tgz:64200.got - 2010.06.27 23:14:04.
