data_PCOD8073867
_publ_section_title
;
Structure prediction by ZEFSAII (Michael W. Deem and Ramdas Pophale) SiO2 
 PCOD8073867
Probable space group: P 21/M
;
_chemical_formula_sum "Si O2"
_cell_formula_units_Z 32
_cell_length_a 11.569189
_cell_length_b 8.606607
_cell_length_c 21.478013
_cell_angle_alpha 90.000000
_cell_angle_beta 56.330822
_cell_angle_gamma 90.000000
_cell_volume 1779.852800
_symmetry_space_group_name_H-M "P 21/M"
_symmetry_group_IT_number 11
_symmetry_cell_setting 'monoclinic'
loop_
_space_group_symop_operation_xyz
x,y,z
-x,1/2+y,-z
-x,-y,-z
x,1/2-y,z
loop_
_atom_site_type_symbol
_atom_site_label
_atom_site_fract_x
_atom_site_fract_y
_atom_site_fract_z
Si Si1 0.933385 0.579290 0.928506
Si Si2 0.091536 0.431044 0.417626
Si Si3 0.655387 0.433712 0.237058
Si Si4 0.082823 0.430833 0.774638
Si Si5 0.632331 0.567756 0.494742
Si Si6 0.788767 0.421243 0.075133
Si Si7 0.102154 0.570890 0.640025
Si Si8 0.372073 0.932236 0.368875
O O1 0.899218 0.750000 0.912385
O O2 0.965428 0.466215 0.861320
O O3 0.064708 0.585843 0.934080
O O4 0.800934 0.523045 0.008797
O O5 0.117223 0.250000 0.423518
O O6 0.237386 0.520356 0.369658
O O7 0.000000 0.500000 0.500000
O O8 0.017368 0.459984 0.374351
O O9 0.683608 0.250000 0.234070
O O10 0.763755 0.519595 0.249393
O O11 0.677720 0.488343 0.158397
O O12 0.501317 0.473817 0.303380
O O13 0.082849 0.250000 0.759777
O O14 0.041807 0.525236 0.725132
O O15 0.500000 0.500000 0.500000
O O16 0.612670 0.750000 0.513061
O O17 0.765878 0.538239 0.412227
O O18 0.655211 0.477177 0.551905
O O19 0.743142 0.250000 0.067237
O O20 0.149783 0.750000 0.624690
O O21 0.400483 0.750000 0.354683
#
# Coordination Sequence:
#
# PCOD8073867 Si02
#       8
#     4   4   4   4   4   4   4   4
#     4   9  16  27  45  70 103 141 177 213 255 308
#     4  11  23  40  62  81 102 133 175 225 270 316
#     4  10  20  35  53  76 109 144 179 219 265 315
#     4  11  21  33  51  77 110 144 178 217 264 316
#     4  12  24  38  56  77 106 139 175 213 261 318
#     4   8  15  27  45  70 101 138 176 214 256 307
#     4  11  23  39  57  78 104 135 175 219 267 315
#     4  12  24  38  56  79 107 138 177 219 265 315
#
# _framework density 17.979012999999998
#
# number of rings (size 3 to 8) (size 9 to 14) (size 15 to 20)
#    0.000    1.500    1.250    6.375    0.000    5.000 
#    0.000    0.000    0.000    0.000    0.000    0.875 
#    0.000    0.000    0.000    0.000    0.000    0.000 
#
# Total GULP energy -396848.766349 kJ/mol
# GULP energy per Si atom -12401.523948 kJ/mol
# Density = 1.793809 g / cm^3
# Si number density = 17.979013 Si / 1000 Ang^3
#
#
#
# Elastic Constant Matrix: (Units=GPa)
#
#
# Indices 1 2 3 4 5 6 
#
# 1 65.9682 25.5184 30.2499 0.0000 12.2425 0.0000
# 2 25.5184 79.6137 21.2770 0.0000 3.3853 0.0000
# 3 30.2499 21.2770 108.8687 0.0000 10.0593 0.0000
# 4 0.0000 0.0000 0.0000 32.5437 0.0000 0.3942
# 5 12.2425 3.3853 10.0593 0.0000 7.1973 0.0000
# 6 0.0000 0.0000 0.0000 0.3942 0.0000 23.3013
#
#
#
# Elastic Compliance Matrix: (Units=1/GPa)
#
#
# Indices 1 2 3 4 5 6 
#
# 1 0.025470 -0.005921 -0.002496 0.000000 -0.037049 0.000000
# 2 -0.005921 0.014686 -0.001742 0.000000 0.005599 0.000000
# 3 -0.002496 -0.001742 0.011198 0.000000 -0.010584 0.000000
# 4 0.000000 0.000000 0.000000 0.030734 0.000000 -0.000520
# 5 -0.037049 0.005599 -0.010584 0.000000 0.214121 0.000000
# 6 0.000000 0.000000 0.000000 -0.000520 0.000000 0.042925
#
#
# Mechanical properties :
#
#
# Convention : Reuss Voigt Hill
#
# Bulk Modulus (GPa) = 32.22328 45.39344 38.80836
# Shear Modulus (GPa) = 13.52090 24.43547 18.97819
#
# Velocity S-wave (km/s) = 2.74531 3.69061 3.25249
# Velocity P-wave (km/s) = 5.29250 6.59270 5.97805
#
# Compressibility (1/GPa) = 0.03103346
#
# Stress axis : x y z
#
# Youngs Moduli (GPa) = 39.26234 68.09155 89.30549
#
# Poissons Ratio (x) = 0.40318 0.22294
# Poissons Ratio (y) = 0.23248 0.15560
# Poissons Ratio (z) = 0.09801 0.11864
#
# Static dielectric constant tensor:
#      x y z
#    x 3.065810 0.000000 0.129530 
#    y 0.000000 3.550510 0.000000 
#    z 0.129530 0.000000 3.607330 
# 
# 
# High freq. dielectric constant tensor:
#      x y z
#    x 1.652060 0.000000 0.002320 
#    y 0.000000 1.712370 0.000000 
#    z 0.002320 0.000000 1.706510 
# 
# From -- ./inp_files/64176.got.cif
#   From: 2010.06.25/outbox.cif.g09.slc.cpg/sg11_33_cif.got.tgz:64176.got - 2010.06.27 23:14:04.
