data_PCOD8073675
_publ_section_title
;
Structure prediction by ZEFSAII (Michael W. Deem and Ramdas Pophale) SiO2 
 PCOD8073675
Probable space group: P 21/M
;
_chemical_formula_sum "Si O2"
_cell_formula_units_Z 28
_cell_length_a 11.594429
_cell_length_b 14.355462
_cell_length_c 9.023037
_cell_angle_alpha 90.000000
_cell_angle_beta 74.374632
_cell_angle_gamma 90.000000
_cell_volume 1446.322492
_symmetry_space_group_name_H-M "P 21/M"
_symmetry_group_IT_number 11
_symmetry_cell_setting 'monoclinic'
loop_
_space_group_symop_operation_xyz
x,y,z
-x,1/2+y,-z
-x,-y,-z
x,1/2-y,z
loop_
_atom_site_type_symbol
_atom_site_label
_atom_site_fract_x
_atom_site_fract_y
_atom_site_fract_z
Si Si1 0.827726 0.861339 0.607497
Si Si2 0.693693 0.142360 0.598575
Si Si3 0.764015 0.854849 0.947581
Si Si4 0.059018 0.858904 0.358674
Si Si5 0.071515 0.432183 0.871518
Si Si6 0.290133 0.473680 0.600754
Si Si7 0.564723 0.857821 0.227067
O O1 0.816559 0.750000 0.597956
O O2 0.805529 0.904022 0.780228
O O3 0.731076 0.907124 0.532755
O O4 0.960764 0.894409 0.511768
O O5 0.709847 0.250000 0.541651
O O6 0.809947 0.101230 0.644406
O O7 0.578090 0.133667 0.746323
O O8 0.673135 0.078011 0.461174
O O9 0.747286 0.750000 0.903295
O O10 0.862867 0.859163 0.043130
O O11 0.635732 0.891557 0.054358
O O12 0.070006 0.750000 0.365552
O O13 0.023292 0.883033 0.203288
O O14 0.171674 0.485397 0.741721
O O15 0.000000 0.500000 0.000000
O O16 0.397874 0.425266 0.651855
O O17 0.600937 0.750000 0.249976
#
# Coordination Sequence:
#
# PCOD8073675 Si02
#       7
#     4   4   4   4   4   4   4
#     4   9  18  32  56  84 106 132 173 221 266 308
#     4  10  21  35  55  77 105 145 181 213 258 320
#     4   9  18  33  54  78 104 135 174 222 263 305
#     4   9  19  35  53  76 106 140 174 211 264 319
#     4  10  21  32  52  78 108 136 174 216 269 317
#     4  10  20  34  56  79 107 137 180 222 264 305
#     4   9  18  36  58  78 104 138 179 219 263 311
#
# _framework density 19.359445000000001
#
# number of rings (size 3 to 8) (size 9 to 14) (size 15 to 20)
#    0.000    2.571    0.000    1.286    4.000    4.571 
#    0.000    1.429    3.143    0.000    0.000    0.000 
#    0.000    0.000    0.000    0.000    0.000    0.000 
#
# Total GULP energy -347014.306746 kJ/mol
# GULP energy per Si atom -12393.368098 kJ/mol
# Density = 1.931538 g / cm^3
# Si number density = 19.359445 Si / 1000 Ang^3
#
#
#
# Elastic Constant Matrix: (Units=GPa)
#
#
# Indices 1 2 3 4 5 6 
#
# 1 108.1682 21.9854 61.1754 0.0000 -13.7316 0.0000
# 2 21.9854 38.9531 27.6388 0.0000 -4.2499 0.0000
# 3 61.1754 27.6388 146.0618 0.0000 -0.7026 0.0000
# 4 0.0000 0.0000 0.0000 28.0799 0.0000 2.0531
# 5 -13.7316 -4.2499 -0.7026 0.0000 18.8000 0.0000
# 6 0.0000 0.0000 0.0000 2.0531 0.0000 19.1823
#
#
#
# Elastic Compliance Matrix: (Units=1/GPa)
#
#
# Indices 1 2 3 4 5 6 
#
# 1 0.014037 -0.003193 -0.005230 0.000000 0.009335 0.000000
# 2 -0.003193 0.031194 -0.004544 0.000000 0.004550 0.000000
# 3 -0.005230 -0.004544 0.009875 0.000000 -0.004478 0.000000
# 4 0.000000 0.000000 0.000000 0.035894 0.000000 -0.003842
# 5 0.009335 0.004550 -0.004478 0.000000 0.060871 0.000000
# 6 0.000000 0.000000 0.000000 -0.003842 0.000000 0.052543
#
#
# Mechanical properties :
#
#
# Convention : Reuss Voigt Hill
#
# Bulk Modulus (GPa) = 34.27826 57.19804 45.73815
# Shear Modulus (GPa) = 20.82718 25.37134 23.09926
#
# Velocity S-wave (km/s) = 3.28352 3.62407 3.45799
# Velocity P-wave (km/s) = 5.66745 6.86449 6.29449
#
# Compressibility (1/GPa) = 0.02917301
#
# Stress axis : x y z
#
# Youngs Moduli (GPa) = 71.24150 32.05717 101.26489
#
# Poissons Ratio (x) = 0.10236 0.52961
# Poissons Ratio (y) = 0.22748 0.46010
# Poissons Ratio (z) = 0.37259 0.14565
#
# Static dielectric constant tensor:
#      x y z
#    x 5.278870 0.000000 0.316670 
#    y 0.000000 3.436870 0.000000 
#    z 0.316670 0.000000 3.827910 
# 
# 
# High freq. dielectric constant tensor:
#      x y z
#    x 1.748340 0.000000 -0.011180 
#    y 0.000000 1.745360 0.000000 
#    z -0.011180 0.000000 1.750950 
# 
# From -- ./inp_files/17678.got.cif
#   From: 2010.06.25/outbox.cif.g09.slc.cpg/sg11_9_cif.got.tgz:17678.got - 2010.06.27 23:14:04.
