data_PCOD8073611
_publ_section_title
;
Structure prediction by ZEFSAII (Michael W. Deem and Ramdas Pophale) SiO2 
 PCOD8073611
Probable space group: P 21/M
;
_chemical_formula_sum "Si O2"
_cell_formula_units_Z 28
_cell_length_a 13.026222
_cell_length_b 13.696433
_cell_length_c 9.381285
_cell_angle_alpha 90.000000
_cell_angle_beta 119.733317
_cell_angle_gamma 90.000000
_cell_volume 1453.381814
_symmetry_space_group_name_H-M "P 21/M"
_symmetry_group_IT_number 11
_symmetry_cell_setting 'monoclinic'
loop_
_space_group_symop_operation_xyz
x,y,z
-x,1/2+y,-z
-x,-y,-z
x,1/2-y,z
loop_
_atom_site_type_symbol
_atom_site_label
_atom_site_fract_x
_atom_site_fract_y
_atom_site_fract_z
Si Si1 0.210031 0.363562 0.506764
Si Si2 0.167781 0.360105 0.809628
Si Si3 0.350387 0.466163 0.114166
Si Si4 0.261813 0.640430 0.871437
Si Si5 0.362396 0.003179 0.435083
Si Si6 0.404667 0.639861 0.684670
Si Si7 0.978577 0.467317 0.326096
O O1 0.202083 0.250000 0.465233
O O2 0.211179 0.381213 0.677732
O O3 0.327892 0.406996 0.515959
O O4 0.099565 0.418770 0.353837
O O5 0.122434 0.250000 0.795977
O O6 0.060861 0.432839 0.781601
O O7 0.277310 0.379792 0.988850
O O8 0.299236 0.484655 0.238493
O O9 0.485503 0.431134 0.206352
O O10 0.337401 0.568277 0.022442
O O11 0.271141 0.750000 0.940747
O O12 0.313759 0.636697 0.750033
O O13 0.124985 0.611573 0.764061
O O14 0.500000 0.000000 0.500000
O O15 0.333148 0.902006 0.497748
O O16 0.448187 0.750000 0.683069
O O17 0.000000 0.500000 0.500000
#
# Coordination Sequence:
#
# PCOD8073611 Si02
#       7
#     4   4   4   4   4   4   4
#     4  10  20  36  58  80 106 145 186 221 264 321
#     4   9  18  33  56  85 112 140 179 226 270 315
#     4  10  20  35  54  77 109 143 178 220 267 324
#     4  10  20  34  55  82 109 138 174 223 276 320
#     4  10  22  37  53  76 105 139 179 223 266 316
#     4  10  20  35  55  77 105 141 180 221 268 321
#     4   9  17  32  55  81 110 138 177 226 265 315
#
# _framework density 19.265414
#
# number of rings (size 3 to 8) (size 9 to 14) (size 15 to 20)
#    0.000    2.286    0.000    3.857    0.000    5.143 
#    0.000    8.571    0.000    1.714    0.000    0.000 
#    0.000    0.000    0.000    0.000    0.000    0.000 
#
# Total GULP energy -347001.349215 kJ/mol
# GULP energy per Si atom -12392.905329 kJ/mol
# Density = 1.922156 g / cm^3
# Si number density = 19.265414 Si / 1000 Ang^3
#
#
#
# Elastic Constant Matrix: (Units=GPa)
#
#
# Indices 1 2 3 4 5 6 
#
# 1 75.6366 52.1679 36.4130 0.0000 6.4089 0.0000
# 2 52.1679 157.6577 51.6233 0.0000 -2.9218 0.0000
# 3 36.4130 51.6233 84.1374 0.0000 -6.2334 0.0000
# 4 0.0000 0.0000 0.0000 27.8585 0.0000 3.6514
# 5 6.4089 -2.9218 -6.2334 0.0000 24.1004 0.0000
# 6 0.0000 0.0000 0.0000 3.6514 0.0000 25.0601
#
#
#
# Elastic Compliance Matrix: (Units=1/GPa)
#
#
# Indices 1 2 3 4 5 6 
#
# 1 0.020214 -0.004731 -0.006409 0.000000 -0.007607 0.000000
# 2 -0.004731 0.009047 -0.003394 0.000000 0.001477 0.000000
# 3 -0.006409 -0.003394 0.017166 0.000000 0.005733 0.000000
# 4 0.000000 0.000000 0.000000 0.036595 0.000000 -0.005332
# 5 -0.007607 0.001477 0.005733 0.000000 0.045178 0.000000
# 6 0.000000 0.000000 0.000000 -0.005332 0.000000 0.040681
#
#
# Mechanical properties :
#
#
# Convention : Reuss Voigt Hill
#
# Bulk Modulus (GPa) = 57.60636 66.42668 62.01652
# Shear Modulus (GPa) = 24.54165 27.21896 25.88030
#
# Velocity S-wave (km/s) = 3.57300 3.76285 3.66916
# Velocity P-wave (km/s) = 6.85479 7.30981 7.08596
#
# Compressibility (1/GPa) = 0.01735919
#
# Stress axis : x y z
#
# Youngs Moduli (GPa) = 49.47003 110.53332 58.25429
#
# Poissons Ratio (x) = 0.52295 0.37335
# Poissons Ratio (y) = 0.23405 0.19771
# Poissons Ratio (z) = 0.31706 0.37514
#
# Static dielectric constant tensor:
#      x y z
#    x 3.496550 0.000000 0.009570 
#    y 0.000000 3.855000 0.000000 
#    z 0.009570 0.000000 3.833240 
# 
# 
# High freq. dielectric constant tensor:
#      x y z
#    x 1.730310 0.000000 0.007020 
#    y 0.000000 1.762560 0.000000 
#    z 0.007020 0.000000 1.743280 
# 
# From -- ./inp_files/21951.got.cif
#   From: 2010.06.25/outbox.cif.g09.slc.cpg/sg11_11_cif.got.tgz:21951.got - 2010.06.27 23:14:04.
