data_PCOD8073889
_publ_section_title
;
Structure prediction by ZEFSAII (Michael W. Deem and Ramdas Pophale) SiO2 
 PCOD8073889
Probable space group: P 21/M
;
_chemical_formula_sum "Si O2"
_cell_formula_units_Z 28
_cell_length_a 9.109826
_cell_length_b 9.032563
_cell_length_c 32.137952
_cell_angle_alpha 90.000000
_cell_angle_beta 34.548632
_cell_angle_gamma 90.000000
_cell_volume 1499.695783
_symmetry_space_group_name_H-M "P 21/M"
_symmetry_group_IT_number 11
_symmetry_cell_setting 'monoclinic'
loop_
_space_group_symop_operation_xyz
x,y,z
-x,1/2+y,-z
-x,-y,-z
x,1/2-y,z
loop_
_atom_site_type_symbol
_atom_site_label
_atom_site_fract_x
_atom_site_fract_y
_atom_site_fract_z
Si Si1 0.116554 0.074451 0.513240
Si Si2 0.924026 0.924052 0.639460
Si Si3 0.102423 0.580319 0.074132
Si Si4 0.913537 0.078842 0.239503
Si Si5 0.338200 0.922235 0.786137
Si Si6 0.709435 0.425326 0.373122
Si Si7 0.611659 0.579848 0.920086
O O1 0.088016 0.250000 0.516374
O O2 0.414589 0.025342 0.448083
O O3 0.000000 0.000000 0.500000
O O4 0.960605 0.015265 0.588987
O O5 0.959890 0.750000 0.621610
O O6 0.637780 0.958195 0.723522
O O7 0.124879 0.985498 0.626726
O O8 0.023219 0.750000 0.095535
O O9 0.268704 0.534419 0.075329
O O10 0.831849 0.491254 0.136344
O O11 0.299951 0.550960 0.988702
O O12 0.837781 0.250000 0.260448
O O13 0.758002 0.012423 0.236070
O O14 0.820468 0.003363 0.304285
O O15 0.225577 0.057131 0.160756
O O16 0.281008 0.750000 0.800463
O O17 0.740082 0.250000 0.364898
O O18 0.654010 0.750000 0.925672
#
# Coordination Sequence:
#
# PCOD8073889 Si02
#       7
#     4   4   4   4   4   4   4
#     4  11  22  36  55  79 105 131 162 202 247 294
#     4  10  20  35  54  75  99 130 168 205 245 295
#     4   9  15  23  39  65  94 122 158 204 248 290
#     4   8  13  25  45  67  91 121 159 199 238 283
#     4   9  17  29  46  67  94 128 164 202 245 294
#     4   9  18  32  52  76 100 128 164 205 246 293
#     4   8  14  24  40  64  93 125 159 198 247 296
#
# _framework density 18.670453999999999
#
# number of rings (size 3 to 8) (size 9 to 14) (size 15 to 20)
#    0.000    2.857    0.000    3.000    0.000    3.429 
#    0.000    0.714    0.000    5.143    0.000    0.000 
#    0.000    0.000    0.000    0.000    0.000    1.286 
#
# Total GULP energy -346916.804722 kJ/mol
# GULP energy per Si atom -12389.885883 kJ/mol
# Density = 1.862796 g / cm^3
# Si number density = 18.670454 Si / 1000 Ang^3
#
#
#
# Elastic Constant Matrix: (Units=GPa)
#
#
# Indices 1 2 3 4 5 6 
#
# 1 87.4952 24.4615 35.7137 0.0000 -20.5625 0.0000
# 2 24.4615 42.7850 37.0728 0.0000 -11.4344 0.0000
# 3 35.7137 37.0728 108.7382 0.0000 -31.7712 0.0000
# 4 0.0000 0.0000 0.0000 27.1916 0.0000 -3.2179
# 5 -20.5625 -11.4344 -31.7712 0.0000 22.8851 0.0000
# 6 0.0000 0.0000 0.0000 -3.2179 0.0000 15.9928
#
#
#
# Elastic Compliance Matrix: (Units=1/GPa)
#
#
# Indices 1 2 3 4 5 6 
#
# 1 0.015730 -0.006182 0.000283 0.000000 0.011438 0.000000
# 2 -0.006182 0.035631 -0.011001 0.000000 -0.003025 0.000000
# 3 0.000283 -0.011001 0.019050 0.000000 0.021204 0.000000
# 4 0.000000 0.000000 0.000000 0.037673 0.000000 0.007580
# 5 0.011438 -0.003025 0.021204 0.000000 0.081900 0.000000
# 6 0.000000 0.000000 0.000000 0.007580 0.000000 0.064053
#
#
# Mechanical properties :
#
#
# Convention : Reuss Voigt Hill
#
# Bulk Modulus (GPa) = 27.31433 48.16828 37.74130
# Shear Modulus (GPa) = 16.66437 22.66525 19.66481
#
# Velocity S-wave (km/s) = 2.99080 3.48798 3.24892
# Velocity P-wave (km/s) = 5.15636 6.48664 5.85937
#
# Compressibility (1/GPa) = 0.03661082
#
# Stress axis : x y z
#
# Youngs Moduli (GPa) = 63.57288 28.06519 52.49451
#
# Poissons Ratio (x) = 0.17350 -0.01487
# Poissons Ratio (y) = 0.39301 0.57751
# Poissons Ratio (z) = -0.01801 0.30876
#
# Static dielectric constant tensor:
#      x y z
#    x 3.245230 0.000000 -0.127620 
#    y 0.000000 3.155980 0.000000 
#    z -0.127620 0.000000 3.956240 
# 
# 
# High freq. dielectric constant tensor:
#      x y z
#    x 1.683000 0.000000 -0.016940 
#    y 0.000000 1.692810 0.000000 
#    z -0.016940 0.000000 1.751230 
# 
# From -- ./inp_files/72705.got.cif
#   From: 2010.06.25/outbox.cif.g09.slc.cpg/sg11_37_cif.got.tgz:72705.got - 2010.06.27 23:14:04.
