data_PCOD8073842
_publ_section_title
;
Structure prediction by ZEFSAII (Michael W. Deem and Ramdas Pophale) SiO2 
 PCOD8073842
Probable space group: P 21/M
;
_chemical_formula_sum "Si O2"
_cell_formula_units_Z 28
_cell_length_a 13.921006
_cell_length_b 8.541243
_cell_length_c 16.212217
_cell_angle_alpha 90.000000
_cell_angle_beta 131.880448
_cell_angle_gamma 90.000000
_cell_volume 1435.230949
_symmetry_space_group_name_H-M "P 21/M"
_symmetry_group_IT_number 11
_symmetry_cell_setting 'monoclinic'
loop_
_space_group_symop_operation_xyz
x,y,z
-x,1/2+y,-z
-x,-y,-z
x,1/2-y,z
loop_
_atom_site_type_symbol
_atom_site_label
_atom_site_fract_x
_atom_site_fract_y
_atom_site_fract_z
Si Si1 0.967508 0.066981 0.235148
Si Si2 0.770385 0.064666 0.561824
Si Si3 0.668252 0.429480 0.674353
Si Si4 0.305423 0.067732 0.884184
Si Si5 0.507199 0.069006 0.136295
Si Si6 0.553660 0.565634 0.337750
Si Si7 0.950134 0.069495 0.887507
O O1 0.943606 0.250000 0.232232
O O2 0.089088 0.014093 0.360197
O O3 0.989051 0.027757 0.152045
O O4 0.843847 0.974261 0.196409
O O5 0.790973 0.250000 0.580414
O O6 0.691771 0.997955 0.596762
O O7 0.690931 0.017092 0.434895
O O8 0.632808 0.250000 0.641809
O O9 0.550757 0.507576 0.657513
O O10 0.796609 0.449815 0.801922
O O11 0.323322 0.250000 0.874458
O O12 0.366769 0.969726 0.844975
O O13 0.378232 0.024914 0.011327
O O14 0.509826 0.250000 0.162314
O O15 0.506804 0.968496 0.218990
O O16 0.569213 0.750000 0.357454
O O17 0.991179 0.250000 0.900538
O O18 0.000000 0.000000 0.000000
#
# Coordination Sequence:
#
# PCOD8073842 Si02
#       7
#     4   4   4   4   4   4   4
#     4  11  22  37  59  84 112 152 191 232 287 345
#     4  10  20  38  58  81 115 153 194 240 282 335
#     4   8  18  34  53  78 112 152 191 232 279 330
#     4  10  21  40  63  86 114 148 187 235 288 344
#     4  10  22  39  59  87 116 147 188 234 285 342
#     4  11  21  35  57  85 116 151 192 237 285 338
#     4  10  20  35  52  80 116 152 192 237 281 335
#
# _framework density 19.509056999999999
#
# number of rings (size 3 to 8) (size 9 to 14) (size 15 to 20)
#    0.000    2.000    0.000    4.714    2.000    1.714 
#    0.000    7.857    0.000    0.000    0.000    0.000 
#    0.000    0.000    0.000    0.000    0.000    0.000 
#
# Total GULP energy -347242.753228 kJ/mol
# GULP energy per Si atom -12401.526901 kJ/mol
# Density = 1.946465 g / cm^3
# Si number density = 19.509057 Si / 1000 Ang^3
#
#
#
# Elastic Constant Matrix: (Units=GPa)
#
#
# Indices 1 2 3 4 5 6 
#
# 1 86.0388 7.2171 33.4349 0.0000 19.5772 0.0000
# 2 7.2171 54.3871 21.8145 0.0000 3.8574 0.0000
# 3 33.4349 21.8145 84.5761 0.0000 6.6868 0.0000
# 4 0.0000 0.0000 0.0000 33.7602 0.0000 -0.3944
# 5 19.5772 3.8574 6.6868 0.0000 22.0942 0.0000
# 6 0.0000 0.0000 0.0000 -0.3944 0.0000 28.1341
#
#
#
# Elastic Compliance Matrix: (Units=1/GPa)
#
#
# Indices 1 2 3 4 5 6 
#
# 1 0.016855 0.001070 -0.005884 0.000000 -0.013341 0.000000
# 2 0.001070 0.020665 -0.005525 0.000000 -0.002884 0.000000
# 3 -0.005884 -0.005525 0.015456 0.000000 0.001501 0.000000
# 4 0.000000 0.000000 0.000000 0.029626 0.000000 0.000415
# 5 -0.013341 -0.002884 0.001501 0.000000 0.057131 0.000000
# 6 0.000000 0.000000 0.000000 0.000415 0.000000 0.035550
#
#
# Mechanical properties :
#
#
# Convention : Reuss Voigt Hill
#
# Bulk Modulus (GPa) = 30.96218 38.88166 34.92192
# Shear Modulus (GPa) = 24.18631 27.63340 25.90985
#
# Velocity S-wave (km/s) = 3.52482 3.76764 3.64826
# Velocity P-wave (km/s) = 5.69833 6.23700 5.97374
#
# Compressibility (1/GPa) = 0.03229746
#
# Stress axis : x y z
#
# Youngs Moduli (GPa) = 59.32891 48.39011 64.69845
#
# Poissons Ratio (x) = -0.05177 0.38071
# Poissons Ratio (y) = -0.06347 0.35746
# Poissons Ratio (z) = 0.34912 0.26736
#
# Static dielectric constant tensor:
#      x y z
#    x 3.558120 0.000000 0.093050 
#    y 0.000000 3.478480 0.000000 
#    z 0.093050 0.000000 3.529990 
# 
# 
# High freq. dielectric constant tensor:
#      x y z
#    x 1.751600 0.000000 0.010500 
#    y 0.000000 1.759390 0.000000 
#    z 0.010500 0.000000 1.762120 
# 
# From -- ./inp_files/48921.got.cif
#   From: 2010.06.25/outbox.cif.g09.slc.cpg/sg11_25_cif.got.tgz:48921.got - 2010.06.27 23:14:04.
