data_PCOD8073540
_publ_section_title
;
Structure prediction by ZEFSAII (Michael W. Deem and Ramdas Pophale) SiO2 
 PCOD8073540
Probable space group: P 21/M
;
_chemical_formula_sum "Si O2"
_cell_formula_units_Z 20
_cell_length_a 10.492754
_cell_length_b 14.901419
_cell_length_c 10.079519
_cell_angle_alpha 90.000000
_cell_angle_beta 138.253789
_cell_angle_gamma 90.000000
_cell_volume 1049.353469
_symmetry_space_group_name_H-M "P 21/M"
_symmetry_group_IT_number 11
_symmetry_cell_setting 'monoclinic'
loop_
_space_group_symop_operation_xyz
x,y,z
-x,1/2+y,-z
-x,-y,-z
x,1/2-y,z
loop_
_atom_site_type_symbol
_atom_site_label
_atom_site_fract_x
_atom_site_fract_y
_atom_site_fract_z
Si Si1 0.355994 0.646318 0.320602
Si Si2 0.824261 0.965725 0.276866
Si Si3 0.586070 0.649580 0.752808
Si Si4 0.542055 0.467824 0.854252
Si Si5 0.984003 0.649504 0.171371
O O1 0.324436 0.750000 0.255233
O O2 0.531710 0.634231 0.557805
O O3 0.395234 0.589771 0.221295
O O4 0.169809 0.603927 0.249380
O O5 0.655683 0.927354 0.241067
O O6 0.918158 0.890185 0.259455
O O7 0.000000 0.000000 0.500000
O O8 0.715423 0.037992 0.096712
O O9 0.518364 0.750000 0.747760
O O10 0.500259 0.572196 0.781487
O O11 0.815274 0.643427 0.932891
O O12 0.044796 0.750000 0.253312
#
# Coordination Sequence:
#
# PCOD8073540 Si02
#       5
#     4   4   4   4   4
#     4  10  20  34  54  81 108 134 169 214 261 307
#     4  10  21  36  52  74 105 138 174 212 256 307
#     4   9  18  33  54  77 102 134 172 214 260 308
#     4  10  21  35  53  79 105 135 175 215 256 304
#     4   9  19  35  54  76 102 136 176 212 253 309
#
# _framework density 19.059353999999999
#
# number of rings (size 3 to 8) (size 9 to 14) (size 15 to 20)
#    0.000    2.400    0.000    1.800    0.000    5.600 
#    0.000    4.000    0.000    0.000    0.000    1.400 
#    0.000    0.000    0.000    0.000    0.000    0.000 
#
# Total GULP energy -247839.183317 kJ/mol
# GULP energy per Si atom -12391.959166 kJ/mol
# Density = 1.901597 g / cm^3
# Si number density = 19.059354 Si / 1000 Ang^3
#
#
#
# Elastic Constant Matrix: (Units=GPa)
#
#
# Indices 1 2 3 4 5 6 
#
# 1 171.3065 64.8949 68.6310 0.0000 -5.0351 0.0000
# 2 64.8949 71.4161 41.6632 0.0000 -5.0914 0.0000
# 3 68.6310 41.6632 148.9390 0.0000 3.4262 0.0000
# 4 0.0000 0.0000 0.0000 18.2674 0.0000 -1.3981
# 5 -5.0351 -5.0914 3.4262 0.0000 25.1651 0.0000
# 6 0.0000 0.0000 0.0000 -1.3981 0.0000 21.4125
#
#
#
# Elastic Compliance Matrix: (Units=1/GPa)
#
#
# Indices 1 2 3 4 5 6 
#
# 1 0.009562 -0.007233 -0.002401 0.000000 0.000777 0.000000
# 2 -0.007233 0.022623 -0.003077 0.000000 0.003549 0.000000
# 3 -0.002401 -0.003077 0.008734 0.000000 -0.002292 0.000000
# 4 0.000000 0.000000 0.000000 0.055017 0.000000 0.003592
# 5 0.000777 0.003549 -0.002292 0.000000 0.040923 0.000000
# 6 0.000000 0.000000 0.000000 0.003592 0.000000 0.046936
#
#
# Mechanical properties :
#
#
# Convention : Reuss Voigt Hill
#
# Bulk Modulus (GPa) = 64.52700 82.44887 73.48793
# Shear Modulus (GPa) = 23.32269 27.40052 25.36160
#
# Velocity S-wave (km/s) = 3.50192 3.79574 3.65178
# Velocity P-wave (km/s) = 7.09088 7.90968 7.51145
#
# Compressibility (1/GPa) = 0.01549739
#
# Stress axis : x y z
#
# Youngs Moduli (GPa) = 104.57812 44.20235 114.49592
#
# Poissons Ratio (x) = 0.31972 0.27488
# Poissons Ratio (y) = 0.75643 0.35231
# Poissons Ratio (z) = 0.25107 0.13601
#
# Static dielectric constant tensor:
#      x y z
#    x 3.530040 0.000000 0.088270 
#    y 0.000000 3.496570 0.000000 
#    z 0.088270 0.000000 3.737540 
# 
# 
# High freq. dielectric constant tensor:
#      x y z
#    x 1.736270 0.000000 0.005670 
#    y 0.000000 1.720010 0.000000 
#    z 0.005670 0.000000 1.759010 
# 
# From -- ./inp_files/13065.got.cif
#   From: 2010.06.25/outbox.cif.g09.slc.cpg/sg11_7_cif.got.tgz:13065.got - 2010.06.27 23:14:04.
