data_PCOD8073082
_publ_section_title
;
Structure prediction by ZEFSAII (Michael W. Deem and Ramdas Pophale) SiO2 
 PCOD8073082
Probable space group: P 21/M
;
_chemical_formula_sum "Si O2"
_cell_formula_units_Z 24
_cell_length_a 18.070583
_cell_length_b 8.955069
_cell_length_c 24.160079
_cell_angle_alpha 90.000000
_cell_angle_beta 160.788576
_cell_angle_gamma 90.000000
_cell_volume 1286.494283
_symmetry_space_group_name_H-M "P 21/M"
_symmetry_group_IT_number 11
_symmetry_cell_setting 'monoclinic'
loop_
_space_group_symop_operation_xyz
x,y,z
-x,1/2+y,-z
-x,-y,-z
x,1/2-y,z
loop_
_atom_site_type_symbol
_atom_site_label
_atom_site_fract_x
_atom_site_fract_y
_atom_site_fract_z
Si Si1 0.341902 0.918533 0.756953
Si Si2 0.843655 0.424790 0.755186
Si Si3 0.489660 0.575232 0.578157
Si Si4 0.002221 0.081445 0.587114
Si Si5 0.314425 0.579122 0.071678
Si Si6 0.656843 0.579122 0.414043
O O1 0.408368 0.750000 0.820364
O O2 0.164752 0.917612 0.582373
O O3 0.233626 0.000054 0.733575
O O4 0.564604 0.007321 0.896175
O O5 0.856157 0.250000 0.775549
O O6 0.718032 0.499873 0.718085
O O7 0.714462 0.462256 0.607254
O O8 0.091131 0.489072 0.926493
O O9 0.533755 0.750000 0.614301
O O10 0.432143 0.511008 0.596888
O O11 0.056429 0.250000 0.644389
O O12 0.891150 0.992663 0.559491
O O13 0.256744 0.750000 0.017000
O O14 0.471847 0.566178 0.235967
O O15 0.702382 0.750000 0.462650
#
# Coordination Sequence:
#
# PCOD8073082 Si02
#       6
#     4   4   4   4   4   4
#     4   9  16  27  45  70 101 135 169 206 248 295
#     4  10  21  37  56  76  99 131 170 209 252 304
#     4  10  21  37  56  76  99 131 170 209 252 304
#     4   9  16  27  45  70 101 135 169 206 248 295
#     4  10  20  33  51  77 106 135 169 209 252 297
#     4  10  20  33  51  77 106 135 169 209 252 297
#
# _framework density 18.655348
#
# number of rings (size 3 to 8) (size 9 to 14) (size 15 to 20)
#    0.000    2.333    0.000    3.000    0.000    8.667 
#    0.000    0.000    0.000    1.000    0.000    0.000 
#    0.000    0.000    0.000    0.000    0.000    0.000 
#
# Total GULP energy -297662.887505 kJ/mol
# GULP energy per Si atom -12402.620313 kJ/mol
# Density = 1.861289 g / cm^3
# Si number density = 18.655348 Si / 1000 Ang^3
#
#
#
# Elastic Constant Matrix: (Units=GPa)
#
#
# Indices 1 2 3 4 5 6 
#
# 1 115.3530 56.4403 40.1491 0.0000 40.5766 0.0000
# 2 56.4403 126.6071 33.4371 0.0000 20.7436 0.0000
# 3 40.1491 33.4371 40.7403 0.0000 25.8318 0.0000
# 4 0.0000 0.0000 0.0000 25.3612 0.0000 11.9159
# 5 40.5766 20.7436 25.8318 0.0000 28.1291 0.0000
# 6 0.0000 0.0000 0.0000 11.9159 0.0000 38.9301
#
#
#
# Elastic Compliance Matrix: (Units=1/GPa)
#
#
# Indices 1 2 3 4 5 6 
#
# 1 0.019808 -0.004810 0.000707 0.000000 -0.025676 0.000000
# 2 -0.004810 0.011254 -0.008699 0.000000 0.006628 0.000000
# 3 0.000707 -0.008699 0.065995 0.000000 -0.055211 0.000000
# 4 0.000000 0.000000 0.000000 0.046053 0.000000 -0.014096
# 5 -0.025676 0.006628 -0.055211 0.000000 0.118402 0.000000
# 6 0.000000 0.000000 0.000000 -0.014096 0.000000 0.030002
#
#
# Mechanical properties :
#
#
# Convention : Reuss Voigt Hill
#
# Bulk Modulus (GPa) = 13.99505 60.30593 37.15049
# Shear Modulus (GPa) = 14.66549 28.66234 21.66392
#
# Velocity S-wave (km/s) = 2.80684 3.92396 3.41144
# Velocity P-wave (km/s) = 4.24531 7.27506 5.95605
#
# Compressibility (1/GPa) = 0.07145386
#
# Stress axis : x y z
#
# Youngs Moduli (GPa) = 50.48416 88.85509 15.15262
#
# Poissons Ratio (x) = 0.42742 -0.01072
# Poissons Ratio (y) = 0.24285 0.13181
# Poissons Ratio (z) = -0.03571 0.77294
#
# Static dielectric constant tensor:
#      x y z
#    x 3.481530 0.000000 0.291920 
#    y 0.000000 4.881110 0.000000 
#    z 0.291920 0.000000 3.149290 
# 
# 
# High freq. dielectric constant tensor:
#      x y z
#    x 1.725290 0.000000 0.029800 
#    y 0.000000 1.747050 0.000000 
#    z 0.029800 0.000000 1.691370 
# 
# From -- ./inp_files/44432.got.cif
#   From: 2010.06.25/outbox.cif.g09.slc.cpg/sg11_23_cif.got.tgz:44432.got - 2010.06.27 23:14:04.
