data_PCOD8073824
_publ_section_title
;
Structure prediction by ZEFSAII (Michael W. Deem and Ramdas Pophale) SiO2 
 PCOD8073824
Probable space group: P 21/M
;
_chemical_formula_sum "Si O2"
_cell_formula_units_Z 32
_cell_length_a 14.328051
_cell_length_b 8.784800
_cell_length_c 26.168730
_cell_angle_alpha 90.000000
_cell_angle_beta 144.713202
_cell_angle_gamma 90.000000
_cell_volume 1902.747341
_symmetry_space_group_name_H-M "P 21/M"
_symmetry_group_IT_number 11
_symmetry_cell_setting 'monoclinic'
loop_
_space_group_symop_operation_xyz
x,y,z
-x,1/2+y,-z
-x,-y,-z
x,1/2-y,z
loop_
_atom_site_type_symbol
_atom_site_label
_atom_site_fract_x
_atom_site_fract_y
_atom_site_fract_z
Si Si1 0.452900 0.429090 0.900495
Si Si2 0.035012 0.072890 0.359801
Si Si3 0.945725 0.424568 0.734855
Si Si4 0.723888 0.575199 0.076512
Si Si5 0.177828 0.571429 0.580553
Si Si6 0.328977 0.570965 0.540454
Si Si7 0.743924 0.929639 0.283383
Si Si8 0.577783 0.429330 0.585659
O O1 0.450312 0.250000 0.895207
O O2 0.341220 0.485209 0.897619
O O3 0.381989 0.493736 0.815286
O O4 0.636564 0.485453 0.991377
O O5 0.009583 0.250000 0.360221
O O6 0.997768 0.036973 0.284560
O O7 0.216803 0.019648 0.450790
O O8 0.924560 0.973065 0.347646
O O9 0.952873 0.250000 0.718050
O O10 0.768340 0.465343 0.675415
O O11 0.081899 0.448165 0.839795
O O12 0.675296 0.750000 0.048285
O O13 0.154404 0.750000 0.575700
O O14 0.280635 0.528444 0.576409
O O15 0.286572 0.508218 0.675682
O O16 0.000000 0.500000 0.500000
O O17 0.316999 0.750000 0.524726
O O18 0.506066 0.508792 0.604637
O O19 0.731475 0.750000 0.284622
O O20 0.500000 0.500000 0.500000
O O21 0.543861 0.250000 0.570485
#
# Coordination Sequence:
#
# PCOD8073824 Si02
#       8
#     4   4   4   4   4   4   4   4
#     4   9  18  31  48  72 101 134 166 202 252 302
#     4  12  22  30  49  75 101 135 177 212 246 300
#     4  10  20  35  51  71 103 139 171 208 256 299
#     4   9  17  31  49  70 100 135 167 203 249 300
#     4  11  23  36  53  75 100 135 174 211 253 302
#     4  11  23  38  52  69 103 138 169 215 260 294
#     4  11  21  35  52  72 104 139 170 210 257 301
#     4  11  22  34  53  76 101 135 176 212 251 303
#
# _framework density 16.817786999999999
#
# number of rings (size 3 to 8) (size 9 to 14) (size 15 to 20)
#    0.000    1.500    3.750    2.625    0.000    3.500 
#    0.000    0.000    0.000    0.000    0.000    0.875 
#    0.000    0.000    0.000    0.000    0.000    0.000 
#
# Total GULP energy -396767.173361 kJ/mol
# GULP energy per Si atom -12398.974168 kJ/mol
# Density = 1.677951 g / cm^3
# Si number density = 16.817787 Si / 1000 Ang^3
#
#
#
# Elastic Constant Matrix: (Units=GPa)
#
#
# Indices 1 2 3 4 5 6 
#
# 1 90.8261 35.9269 43.1446 0.0000 1.2342 0.0000
# 2 35.9269 57.0831 30.2102 0.0000 -3.3414 0.0000
# 3 43.1446 30.2102 115.5088 0.0000 1.4393 0.0000
# 4 0.0000 0.0000 0.0000 27.2644 0.0000 -0.7759
# 5 1.2342 -3.3414 1.4393 0.0000 23.8731 0.0000
# 6 0.0000 0.0000 0.0000 -0.7759 0.0000 26.3883
#
#
#
# Elastic Compliance Matrix: (Units=1/GPa)
#
#
# Indices 1 2 3 4 5 6 
#
# 1 0.016107 -0.008203 -0.003849 0.000000 -0.001749 0.000000
# 2 -0.008203 0.024752 -0.003461 0.000000 0.004097 0.000000
# 3 -0.003849 -0.003461 0.011012 0.000000 -0.000949 0.000000
# 4 0.000000 0.000000 0.000000 0.036709 0.000000 0.001079
# 5 -0.001749 0.004097 -0.000949 0.000000 0.042609 0.000000
# 6 0.000000 0.000000 0.000000 0.001079 0.000000 0.037927
#
#
# Mechanical properties :
#
#
# Convention : Reuss Voigt Hill
#
# Bulk Modulus (GPa) = 47.97101 53.55349 50.76225
# Shear Modulus (GPa) = 24.14406 25.78092 24.96249
#
# Velocity S-wave (km/s) = 3.79308 3.91954 3.85683
# Velocity P-wave (km/s) = 6.91152 7.23853 7.07691
#
# Compressibility (1/GPa) = 0.02084592
#
# Stress axis : x y z
#
# Youngs Moduli (GPa) = 62.08547 40.40022 90.80956
#
# Poissons Ratio (x) = 0.33139 0.34953
# Poissons Ratio (y) = 0.50926 0.31429
# Poissons Ratio (z) = 0.23897 0.13982
#
# Static dielectric constant tensor:
#      x y z
#    x 3.092500 0.000000 -0.015070 
#    y 0.000000 3.173930 0.000000 
#    z -0.015070 0.000000 3.272000 
# 
# 
# High freq. dielectric constant tensor:
#      x y z
#    x 1.617990 0.000000 0.000910 
#    y 0.000000 1.655740 0.000000 
#    z 0.000910 0.000000 1.641980 
# 
# From -- ./inp_files/71640.got.cif
#   From: 2010.06.25/outbox.cif.g09.slc.cpg/sg11_36_cif.got.tgz:71640.got - 2010.06.27 23:14:04.
