data_PCOD8073164
_publ_section_title
;
Structure prediction by ZEFSAII (Michael W. Deem and Ramdas Pophale) SiO2 
 PCOD8073164
Probable space group: P 21/M
;
_chemical_formula_sum "Si O2"
_cell_formula_units_Z 32
_cell_length_a 24.304499
_cell_length_b 9.397822
_cell_length_c 24.409041
_cell_angle_alpha 90.000000
_cell_angle_beta 161.822652
_cell_angle_gamma 90.000000
_cell_volume 1739.252239
_symmetry_space_group_name_H-M "P 21/M"
_symmetry_group_IT_number 11
_symmetry_cell_setting 'monoclinic'
loop_
_space_group_symop_operation_xyz
x,y,z
-x,1/2+y,-z
-x,-y,-z
x,1/2-y,z
loop_
_atom_site_type_symbol
_atom_site_label
_atom_site_fract_x
_atom_site_fract_y
_atom_site_fract_z
Si Si1 0.981268 0.595408 0.929677
Si Si2 0.038081 0.579959 0.865459
Si Si3 0.650123 0.919987 0.477501
Si Si4 0.574785 0.595375 0.523168
Si Si5 0.385359 0.919049 0.136250
Si Si6 0.446848 0.917614 0.070844
Si Si7 0.783315 0.084443 0.347009
Si Si8 0.880633 0.087012 0.314536
O O1 0.064615 0.750000 0.022087
O O2 0.780043 0.615646 0.724712
O O3 0.071490 0.529452 0.960223
O O4 0.000000 0.500000 0.000000
O O5 0.033965 0.750000 0.861395
O O6 0.851390 0.521375 0.665235
O O7 0.196707 0.520186 0.978133
O O8 0.653642 0.750000 0.481203
O O9 0.549697 0.970697 0.438367
O O10 0.541801 0.978863 0.322973
O O11 0.500000 0.500000 0.500000
O O12 0.481591 0.750000 0.438976
O O13 0.380658 0.750000 0.134793
O O14 0.420783 0.969740 0.108296
O O15 0.490195 0.750000 0.107472
O O16 0.605668 0.006568 0.196140
O O17 0.267972 0.955294 0.869669
O O18 0.775214 0.250000 0.355627
O O19 0.799718 0.062883 0.297747
O O20 0.950259 0.013097 0.535387
O O21 0.941683 0.250000 0.364344
#
# Coordination Sequence:
#
# PCOD8073164 Si02
#       8
#     4   4   4   4   4   4   4   4
#     4   9  18  30  45  68  94 119 152 194 240 292
#     4   8  15  28  43  63  93 123 155 197 241 291
#     4   8  15  28  44  65  94 123 156 200 245 294
#     4   9  18  30  45  69  96 121 153 194 242 296
#     4   9  17  28  47  72  95 128 166 201 255 304
#     4  10  20  33  52  81 110 134 172 225 270 309
#     4  10  20  34  54  78 108 147 181 211 258 317
#     4   9  19  35  54  79 110 142 177 220 265 305
#
# _framework density 18.398712
#
# number of rings (size 3 to 8) (size 9 to 14) (size 15 to 20)
#    0.000    3.000    0.000    2.250    1.750    2.500 
#    0.000    3.750    0.000    1.500    0.000    1.750 
#    0.000    0.000    0.000    0.000    0.000    0.000 
#
# Total GULP energy -396589.338532 kJ/mol
# GULP energy per Si atom -12393.416829 kJ/mol
# Density = 1.835684 g / cm^3
# Si number density = 18.398712 Si / 1000 Ang^3
#
#
#
# Elastic Constant Matrix: (Units=GPa)
#
#
# Indices 1 2 3 4 5 6 
#
# 1 71.2013 27.8524 47.5249 0.0000 -24.1883 0.0000
# 2 27.8524 52.9472 33.7761 0.0000 -5.2432 0.0000
# 3 47.5249 33.7761 108.3892 0.0000 -22.1571 0.0000
# 4 0.0000 0.0000 0.0000 20.4355 0.0000 4.4765
# 5 -24.1883 -5.2432 -22.1571 0.0000 25.7073 0.0000
# 6 0.0000 0.0000 0.0000 4.4765 0.0000 19.0768
#
#
#
# Elastic Compliance Matrix: (Units=1/GPa)
#
#
# Indices 1 2 3 4 5 6 
#
# 1 0.027996 -0.009386 -0.005289 0.000000 0.019869 0.000000
# 2 -0.009386 0.026792 -0.005974 0.000000 -0.008516 0.000000
# 3 -0.005289 -0.005974 0.014737 0.000000 0.006507 0.000000
# 4 0.000000 0.000000 0.000000 0.051586 0.000000 -0.012105
# 5 0.019869 -0.008516 0.006507 0.000000 0.061466 0.000000
# 6 0.000000 0.000000 0.000000 -0.012105 0.000000 0.055260
#
#
# Mechanical properties :
#
#
# Convention : Reuss Voigt Hill
#
# Bulk Modulus (GPa) = 35.42708 50.09384 42.76046
# Shear Modulus (GPa) = 17.32834 21.26953 19.29894
#
# Velocity S-wave (km/s) = 3.07224 3.40374 3.24223
# Velocity P-wave (km/s) = 5.64641 6.53706 6.10799
#
# Compressibility (1/GPa) = 0.02822699
#
# Stress axis : x y z
#
# Youngs Moduli (GPa) = 35.71900 37.32470 67.85678
#
# Poissons Ratio (x) = 0.35032 0.35889
# Poissons Ratio (y) = 0.33525 0.40541
# Poissons Ratio (z) = 0.18892 0.22299
#
# Static dielectric constant tensor:
#      x y z
#    x 2.823790 0.000000 0.116450 
#    y 0.000000 2.954250 0.000000 
#    z 0.116450 0.000000 3.740250 
# 
# 
# High freq. dielectric constant tensor:
#      x y z
#    x 1.717090 0.000000 -0.001030 
#    y 0.000000 1.661950 0.000000 
#    z -0.001030 0.000000 1.722670 
# 
# From -- ./inp_files/66585.got.cif
#   From: 2010.06.25/outbox.cif.g09.slc.cpg/sg11_34_cif.got.tgz:66585.got - 2010.06.27 23:14:04.
