data_PCOD8073285
_publ_section_title
;
Structure prediction by ZEFSAII (Michael W. Deem and Ramdas Pophale) SiO2 
 PCOD8073285
Probable space group: P 21/M
;
_chemical_formula_sum "Si O2"
_cell_formula_units_Z 32
_cell_length_a 24.768766
_cell_length_b 9.812077
_cell_length_c 19.641027
_cell_angle_alpha 90.000000
_cell_angle_beta 23.009857
_cell_angle_gamma 90.000000
_cell_volume 1865.879087
_symmetry_space_group_name_H-M "P 21/M"
_symmetry_group_IT_number 11
_symmetry_cell_setting 'monoclinic'
loop_
_space_group_symop_operation_xyz
x,y,z
-x,1/2+y,-z
-x,-y,-z
x,1/2-y,z
loop_
_atom_site_type_symbol
_atom_site_label
_atom_site_fract_x
_atom_site_fract_y
_atom_site_fract_z
Si Si1 0.933019 0.090755 0.856299
Si Si2 0.246028 0.409254 0.525940
Si Si3 0.184572 0.908385 0.375965
Si Si4 0.287796 0.094357 0.138634
Si Si5 0.815149 0.599375 0.253344
Si Si6 0.106225 0.094141 0.221407
Si Si7 0.136444 0.599240 0.914493
Si Si8 0.603813 0.407973 0.751615
O O1 0.914420 0.250000 0.861638
O O2 0.094267 0.053341 0.674747
O O3 0.863891 0.002032 0.877462
O O4 0.854409 0.051983 0.017596
O O5 0.276957 0.250000 0.478078
O O6 0.259116 0.446624 0.590687
O O7 0.357654 0.500185 0.357640
O O8 0.191670 0.750000 0.347564
O O9 0.300784 0.947498 0.295658
O O10 0.036370 0.948626 0.577550
O O11 0.206065 0.996113 0.283704
O O12 0.262861 0.250000 0.191147
O O13 0.231493 0.072454 0.128012
O O14 0.448582 0.057376 0.953134
O O15 0.764512 0.750000 0.291399
O O16 0.776527 0.499802 0.235847
O O17 0.977720 0.601699 0.077250
O O18 0.097621 0.250000 0.205953
O O19 0.199779 0.750000 0.832862
O O20 0.622056 0.250000 0.710019
#
# Coordination Sequence:
#
# PCOD8073285 Si02
#       8
#     4   4   4   4   4   4   4   4
#     4   9  17  29  46  69  96 126 160 196 234 278
#     4   9  17  29  46  69  96 126 160 196 234 278
#     4  10  20  34  52  72  93 120 159 200 233 282
#     4  10  22  36  50  70  97 126 155 194 243 286
#     4   8  14  24  38  61  93 124 154 188 228 275
#     4  10  20  34  50  71  97 124 158 197 236 281
#     4   8  14  24  38  61  93 124 154 188 228 275
#     4  10  20  34  50  71  97 124 158 197 236 281
#
# _framework density 17.150092999999998
#
# number of rings (size 3 to 8) (size 9 to 14) (size 15 to 20)
#    0.000    2.750    1.250    2.250    0.000    3.000 
#    0.000    2.500    0.000    0.000    0.000    0.875 
#    0.000    0.000    0.000    0.000    0.000    0.000 
#
# Total GULP energy -396786.127746 kJ/mol
# GULP energy per Si atom -12399.566492 kJ/mol
# Density = 1.711106 g / cm^3
# Si number density = 17.150093 Si / 1000 Ang^3
#
#
#
# Elastic Constant Matrix: (Units=GPa)
#
#
# Indices 1 2 3 4 5 6 
#
# 1 74.9948 47.6822 27.6878 0.0000 19.0200 0.0000
# 2 47.6822 72.6061 22.5538 0.0000 25.0826 0.0000
# 3 27.6878 22.5538 23.2237 0.0000 5.2145 0.0000
# 4 0.0000 0.0000 0.0000 22.8124 0.0000 12.8191
# 5 19.0200 25.0826 5.2145 0.0000 31.4764 0.0000
# 6 0.0000 0.0000 0.0000 12.8191 0.0000 33.2272
#
#
#
# Elastic Compliance Matrix: (Units=1/GPa)
#
#
# Indices 1 2 3 4 5 6 
#
# 1 0.030755 -0.010122 -0.025420 0.000000 -0.006306 0.000000
# 2 -0.010122 0.030013 -0.013588 0.000000 -0.015549 0.000000
# 3 -0.025420 -0.013588 0.083799 0.000000 0.012306 0.000000
# 4 0.000000 0.000000 0.000000 0.055970 0.000000 -0.021593
# 5 -0.006306 -0.015549 0.012306 0.000000 0.045932 0.000000
# 6 0.000000 0.000000 0.000000 -0.021593 0.000000 0.038427
#
#
# Mechanical properties :
#
#
# Convention : Reuss Voigt Hill
#
# Bulk Modulus (GPa) = 21.59556 40.74136 31.16846
# Shear Modulus (GPa) = 12.54420 22.36323 17.45372
#
# Velocity S-wave (km/s) = 2.70744 3.61497 3.19361
# Velocity P-wave (km/s) = 4.73213 6.42117 5.64023
#
# Compressibility (1/GPa) = 0.04630582
#
# Stress axis : x y z
#
# Youngs Moduli (GPa) = 32.51556 33.31898 11.93336
#
# Poissons Ratio (x) = 0.33727 0.30334
# Poissons Ratio (y) = 0.32913 0.16215
# Poissons Ratio (z) = 0.82654 0.45273
#
# Static dielectric constant tensor:
#      x y z
#    x 3.148750 0.000000 0.151310 
#    y 0.000000 3.310820 0.000000 
#    z 0.151310 0.000000 2.946540 
# 
# 
# High freq. dielectric constant tensor:
#      x y z
#    x 1.654630 0.000000 0.019430 
#    y 0.000000 1.664380 0.000000 
#    z 0.019430 0.000000 1.632730 
# 
# From -- ./inp_files/43833.got.cif
#   From: 2010.06.25/outbox.cif.g09.slc.cpg/sg11_22_cif.got.tgz:43833.got - 2010.06.27 23:14:04.
