data_PCOD8073629
_publ_section_title
;
Structure prediction by ZEFSAII (Michael W. Deem and Ramdas Pophale) SiO2 
 PCOD8073629
Probable space group: P 21/M
;
_chemical_formula_sum "Si O2"
_cell_formula_units_Z 32
_cell_length_a 19.294941
_cell_length_b 8.915667
_cell_length_c 24.760719
_cell_angle_alpha 90.000000
_cell_angle_beta 156.680533
_cell_angle_gamma 90.000000
_cell_volume 1686.162633
_symmetry_space_group_name_H-M "P 21/M"
_symmetry_group_IT_number 11
_symmetry_cell_setting 'monoclinic'
loop_
_space_group_symop_operation_xyz
x,y,z
-x,1/2+y,-z
-x,-y,-z
x,1/2-y,z
loop_
_atom_site_type_symbol
_atom_site_label
_atom_site_fract_x
_atom_site_fract_y
_atom_site_fract_z
Si Si1 0.041424 0.418835 0.677367
Si Si2 0.462919 0.421225 0.632413
Si Si3 0.500728 0.424978 0.852266
Si Si4 0.370621 0.926594 0.866233
Si Si5 0.147832 0.576325 0.071042
Si Si6 0.325273 0.916921 0.634535
Si Si7 0.112130 0.076384 0.328673
Si Si8 0.140695 0.573511 0.943912
O O1 0.113400 0.250000 0.738024
O O2 0.177900 0.521194 0.743777
O O3 0.880648 0.417016 0.521493
O O4 0.989359 0.484769 0.698168
O O5 0.439088 0.250000 0.636449
O O6 0.667275 0.448327 0.764900
O O7 0.421081 0.540219 0.648126
O O8 0.324237 0.449561 0.483787
O O9 0.498967 0.250000 0.866408
O O10 0.430033 0.523402 0.850098
O O11 0.368276 0.456576 0.708826
O O12 0.693272 0.482466 0.972239
O O13 0.379596 0.750000 0.876806
O O14 0.500000 0.000000 0.000000
O O15 0.101231 0.750000 0.033955
O O16 0.146263 0.506258 0.008839
O O17 0.000000 0.500000 0.000000
O O18 0.388308 0.750000 0.696982
O O19 0.066299 0.250000 0.305725
O O20 0.037042 0.027552 0.215927
O O21 0.158358 0.750000 0.962800
#
# Coordination Sequence:
#
# PCOD8073629 Si02
#       8
#     4   4   4   4   4   4   4   4
#     4  10  21  37  55  79 113 149 185 232 282 333
#     4   9  17  33  56  80 109 143 184 225 273 335
#     4  11  21  36  58  81 109 146 186 233 283 333
#     4  12  25  40  56  78 109 147 189 235 286 340
#     4  10  20  36  55  80 111 145 180 222 274 332
#     4  10  20  34  55  83 111 142 185 231 279 330
#     4   9  17  32  58  84 105 143 188 231 278 330
#     4   9  18  34  56  81 109 138 179 226 273 331
#
# _framework density 18.978003000000001
#
# number of rings (size 3 to 8) (size 9 to 14) (size 15 to 20)
#    0.000    2.000    1.250    3.000    0.000    3.500 
#    0.000    1.875    0.000    0.000    0.000    0.000 
#    0.000    0.000    0.000    0.000    0.000    0.000 
#
# Total GULP energy -396627.636308 kJ/mol
# GULP energy per Si atom -12394.613635 kJ/mol
# Density = 1.893481 g / cm^3
# Si number density = 18.978003 Si / 1000 Ang^3
#
#
#
# Elastic Constant Matrix: (Units=GPa)
#
#
# Indices 1 2 3 4 5 6 
#
# 1 79.2552 27.6616 66.2065 0.0000 9.9724 0.0000
# 2 27.6616 87.0370 44.8930 0.0000 8.5839 0.0000
# 3 66.2065 44.8930 131.0142 0.0000 1.2591 0.0000
# 4 0.0000 0.0000 0.0000 24.5558 0.0000 1.4042
# 5 9.9724 8.5839 1.2591 0.0000 32.3354 0.0000
# 6 0.0000 0.0000 0.0000 1.4042 0.0000 29.2072
#
#
#
# Elastic Compliance Matrix: (Units=1/GPa)
#
#
# Indices 1 2 3 4 5 6 
#
# 1 0.023254 -0.000876 -0.011389 0.000000 -0.006496 0.000000
# 2 -0.000876 0.014401 -0.004460 0.000000 -0.003379 0.000000
# 3 -0.011389 -0.004460 0.014877 0.000000 0.004117 0.000000
# 4 0.000000 0.000000 0.000000 0.040836 0.000000 -0.001963
# 5 -0.006496 -0.003379 0.004117 0.000000 0.033666 0.000000
# 6 0.000000 0.000000 0.000000 -0.001963 0.000000 0.034333
#
#
# Mechanical properties :
#
#
# Convention : Reuss Voigt Hill
#
# Bulk Modulus (GPa) = 52.40077 63.86985 58.13531
# Shear Modulus (GPa) = 24.85390 27.78935 26.32162
#
# Velocity S-wave (km/s) = 3.62279 3.83076 3.72822
# Velocity P-wave (km/s) = 6.72092 7.30028 7.01658
#
# Compressibility (1/GPa) = 0.01908369
#
# Stress axis : x y z
#
# Youngs Moduli (GPa) = 43.00318 69.43857 67.22001
#
# Poissons Ratio (x) = 0.06080 0.76555
# Poissons Ratio (y) = 0.03765 0.29978
# Poissons Ratio (z) = 0.48975 0.30968
#
# Static dielectric constant tensor:
#      x y z
#    x 3.277260 0.000000 -0.158910 
#    y 0.000000 7.174840 0.000000 
#    z -0.158910 0.000000 3.854200 
# 
# 
# High freq. dielectric constant tensor:
#      x y z
#    x 1.712280 0.000000 -0.005770 
#    y 0.000000 1.731880 0.000000 
#    z -0.005770 0.000000 1.753830 
# 
# From -- ./inp_files/72190.got.cif
#   From: 2010.06.25/outbox.cif.g09.slc.cpg/sg11_37_cif.got.tgz:72190.got - 2010.06.27 23:14:04.
