data_PCOD8073491
_publ_section_title
;
Structure prediction by ZEFSAII (Michael W. Deem and Ramdas Pophale) SiO2 
 PCOD8073491
Probable space group: P 21/M
;
_chemical_formula_sum "Si O2"
_cell_formula_units_Z 32
_cell_length_a 16.239321
_cell_length_b 8.970706
_cell_length_c 24.014791
_cell_angle_alpha 90.000000
_cell_angle_beta 29.123466
_cell_angle_gamma 90.000000
_cell_volume 1702.662538
_symmetry_space_group_name_H-M "P 21/M"
_symmetry_group_IT_number 11
_symmetry_cell_setting 'monoclinic'
loop_
_space_group_symop_operation_xyz
x,y,z
-x,1/2+y,-z
-x,-y,-z
x,1/2-y,z
loop_
_atom_site_type_symbol
_atom_site_label
_atom_site_fract_x
_atom_site_fract_y
_atom_site_fract_z
Si Si1 0.107460 0.426624 0.646837
Si Si2 0.068504 0.425765 0.144494
Si Si3 0.452686 0.923664 0.471160
Si Si4 0.024449 0.075727 0.569627
Si Si5 0.161615 0.910012 0.918997
Si Si6 0.358693 0.927819 0.907282
Si Si7 0.258911 0.074103 0.331686
Si Si8 0.752624 0.087348 0.254432
O O1 0.110999 0.250000 0.654998
O O2 0.294481 0.491840 0.539072
O O3 0.046044 0.467946 0.621257
O O4 0.988782 0.502303 0.763296
O O5 0.091226 0.250000 0.139478
O O6 0.931490 0.461339 0.176554
O O7 0.249626 0.496515 0.020973
O O8 0.411540 0.750000 0.500821
O O9 0.500000 0.000000 0.500000
O O10 0.620697 0.952701 0.336808
O O11 0.992495 0.250000 0.581608
O O12 0.187145 0.028239 0.435513
O O13 0.858196 0.991974 0.647174
O O14 0.104998 0.750000 0.976771
O O15 0.280943 0.985059 0.894591
O O16 0.255206 0.887499 0.806164
O O17 0.000000 0.000000 0.000000
O O18 0.353804 0.750000 0.917372
O O19 0.551659 0.986816 0.791410
O O20 0.258498 0.250000 0.326050
O O21 0.701657 0.250000 0.311444
#
# Coordination Sequence:
#
# PCOD8073491 Si02
#       8
#     4   4   4   4   4   4   4   4
#     4  11  23  39  61  85 115 152 193 237 287 346
#     4  11  22  37  57  81 116 155 196 240 284 333
#     4  12  24  37  55  81 113 152 196 237 282 334
#     4   9  20  39  64  90 115 146 183 231 292 348
#     4  10  20  34  54  78 111 151 191 232 277 331
#     4  10  21  36  58  85 115 153 194 233 284 345
#     4   9  19  38  63  89 117 147 182 231 290 348
#     4  10  21  36  53  76 112 154 192 237 286 332
#
# _framework density 18.794094000000001
#
# number of rings (size 3 to 8) (size 9 to 14) (size 15 to 20)
#    0.000    1.750    2.500    1.875    1.750    2.500 
#    0.000    0.625    0.000    0.000    0.000    0.000 
#    0.000    0.000    0.000    0.000    0.000    0.000 
#
# Total GULP energy -396540.039349 kJ/mol
# GULP energy per Si atom -12391.876230 kJ/mol
# Density = 1.875132 g / cm^3
# Si number density = 18.794094 Si / 1000 Ang^3
#
#
#
# Elastic Constant Matrix: (Units=GPa)
#
#
# Indices 1 2 3 4 5 6 
#
# 1 114.6874 44.1066 63.0260 0.0000 -4.1295 0.0000
# 2 44.1066 69.2457 49.1464 0.0000 -3.0850 0.0000
# 3 63.0260 49.1464 147.4465 0.0000 -14.5857 0.0000
# 4 0.0000 0.0000 0.0000 29.5452 0.0000 -2.1513
# 5 -4.1295 -3.0850 -14.5857 0.0000 29.4298 0.0000
# 6 0.0000 0.0000 0.0000 -2.1513 0.0000 27.5235
#
#
#
# Elastic Compliance Matrix: (Units=1/GPa)
#
#
# Indices 1 2 3 4 5 6 
#
# 1 0.012888 -0.005611 -0.003700 0.000000 -0.000613 0.000000
# 2 -0.005611 0.021399 -0.004827 0.000000 -0.000936 0.000000
# 3 -0.003700 -0.004827 0.010380 0.000000 0.004119 0.000000
# 4 0.000000 0.000000 0.000000 0.034040 0.000000 0.002661
# 5 -0.000613 -0.000936 0.004119 0.000000 0.035837 0.000000
# 6 0.000000 0.000000 0.000000 0.002661 0.000000 0.036541
#
#
# Mechanical properties :
#
#
# Convention : Reuss Voigt Hill
#
# Bulk Modulus (GPa) = 61.00296 71.54864 66.27580
# Shear Modulus (GPa) = 27.05279 28.97307 28.01293
#
# Velocity S-wave (km/s) = 3.79810 3.93059 3.86491
# Velocity P-wave (km/s) = 7.19466 7.66497 7.43353
#
# Compressibility (1/GPa) = 0.01639265
#
# Stress axis : x y z
#
# Youngs Moduli (GPa) = 77.59064 46.73013 96.33983
#
# Poissons Ratio (x) = 0.26220 0.35641
# Poissons Ratio (y) = 0.43535 0.46504
# Poissons Ratio (z) = 0.28705 0.22557
#
# Static dielectric constant tensor:
#      x y z
#    x 3.814380 0.000000 0.407160 
#    y 0.000000 3.376350 0.000000 
#    z 0.407160 0.000000 3.764450 
# 
# 
# High freq. dielectric constant tensor:
#      x y z
#    x 1.724170 0.000000 0.006820 
#    y 0.000000 1.731130 0.000000 
#    z 0.006820 0.000000 1.732390 
# 
# From -- ./inp_files/69038.got.cif
#   From: 2010.06.25/outbox.cif.g09.slc.cpg/sg11_35_cif.got.tgz:69038.got - 2010.06.27 23:14:04.
