data_PCOD8073132
_publ_section_title
;
Structure prediction by ZEFSAII (Michael W. Deem and Ramdas Pophale) SiO2 
 PCOD8073132
Probable space group: P 21/M
;
_chemical_formula_sum "Si O2"
_cell_formula_units_Z 24
_cell_length_a 24.358971
_cell_length_b 9.199993
_cell_length_c 17.948894
_cell_angle_alpha 90.000000
_cell_angle_beta 160.989431
_cell_angle_gamma 90.000000
_cell_volume 1310.263482
_symmetry_space_group_name_H-M "P 21/M"
_symmetry_group_IT_number 11
_symmetry_cell_setting 'monoclinic'
loop_
_space_group_symop_operation_xyz
x,y,z
-x,1/2+y,-z
-x,-y,-z
x,1/2-y,z
loop_
_atom_site_type_symbol
_atom_site_label
_atom_site_fract_x
_atom_site_fract_y
_atom_site_fract_z
Si Si1 0.748212 0.080895 0.844071
Si Si2 0.603517 0.922156 0.359959
Si Si3 0.405465 0.420493 0.484443
Si Si4 0.100350 0.422151 0.366529
Si Si5 0.761479 0.081414 0.155559
Si Si6 0.943574 0.418985 0.541156
O O1 0.753472 0.250000 0.831634
O O2 0.595654 0.041705 0.703681
O O3 0.729212 0.997325 0.741803
O O4 0.919327 0.030066 0.102856
O O5 0.605965 0.750000 0.366451
O O6 0.619933 0.982753 0.465008
O O7 0.758607 0.979368 0.509904
O O8 0.428945 0.974541 0.098967
O O9 0.371158 0.250000 0.436181
O O10 0.111624 0.250000 0.393988
O O11 0.135218 0.502382 0.488683
O O12 0.781759 0.250000 0.158689
O O13 0.811574 0.055323 0.305242
O O14 0.877261 0.989194 0.248791
O O15 0.971481 0.250000 0.593605
#
# Coordination Sequence:
#
# PCOD8073132 Si02
#       6
#     4   4   4   4   4   4
#     4   9  18  32  50  72  97 128 166 205 247 294
#     4   9  18  33  53  75  99 133 172 203 242 300
#     4   9  17  31  51  72  95 126 166 209 246 286
#     4  10  20  34  52  73 101 137 170 201 244 300
#     4   9  18  35  56  75  99 132 168 206 248 296
#     4  10  20  33  52  78 103 129 166 210 251 291
#
# _framework density 18.316927
#
# number of rings (size 3 to 8) (size 9 to 14) (size 15 to 20)
#    0.000    2.667    0.000    1.500    0.000    5.333 
#    0.000    5.833    0.000    0.000    0.000    0.000 
#    0.000    0.000    0.000    0.000    0.000    0.000 
#
# Total GULP energy -297656.454108 kJ/mol
# GULP energy per Si atom -12402.352254 kJ/mol
# Density = 1.827524 g / cm^3
# Si number density = 18.316927 Si / 1000 Ang^3
#
#
#
# Elastic Constant Matrix: (Units=GPa)
#
#
# Indices 1 2 3 4 5 6 
#
# 1 160.9631 48.0011 59.6340 0.0000 -3.2854 0.0000
# 2 48.0011 45.4286 30.0637 0.0000 -3.3299 0.0000
# 3 59.6340 30.0637 68.3132 0.0000 -4.3097 0.0000
# 4 0.0000 0.0000 0.0000 20.8485 0.0000 -6.2746
# 5 -3.2854 -3.3299 -4.3097 0.0000 21.8970 0.0000
# 6 0.0000 0.0000 0.0000 -6.2746 0.0000 30.9328
#
#
#
# Elastic Compliance Matrix: (Units=1/GPa)
#
#
# Indices 1 2 3 4 5 6 
#
# 1 0.010626 -0.007212 -0.006147 0.000000 -0.000712 0.000000
# 2 -0.007212 0.036045 -0.009406 0.000000 0.002548 0.000000
# 3 -0.006147 -0.009406 0.024297 0.000000 0.002429 0.000000
# 4 0.000000 0.000000 0.000000 0.051084 0.000000 0.010362
# 5 -0.000712 0.002548 0.002429 0.000000 0.046427 0.000000
# 6 0.000000 0.000000 0.000000 0.010362 0.000000 0.034430
#
#
# Mechanical properties :
#
#
# Convention : Reuss Voigt Hill
#
# Bulk Modulus (GPa) = 39.31224 61.12250 50.21737
# Shear Modulus (GPa) = 19.46139 23.86941 21.66540
#
# Velocity S-wave (km/s) = 3.26311 3.61381 3.44293
# Velocity P-wave (km/s) = 5.97545 7.13125 6.57878
#
# Compressibility (1/GPa) = 0.02543737
#
# Stress axis : x y z
#
# Youngs Moduli (GPa) = 94.10697 27.74339 41.15667
#
# Poissons Ratio (x) = 0.20009 0.25300
# Poissons Ratio (y) = 0.67871 0.38713
# Poissons Ratio (z) = 0.57849 0.26096
#
# Static dielectric constant tensor:
#      x y z
#    x 3.500200 0.000000 -0.023110 
#    y 0.000000 3.159260 0.000000 
#    z -0.023110 0.000000 3.456420 
# 
# 
# High freq. dielectric constant tensor:
#      x y z
#    x 1.715880 0.000000 -0.007550 
#    y 0.000000 1.686950 0.000000 
#    z -0.007550 0.000000 1.712070 
# 
# From -- ./inp_files/20592.got.cif
#   From: 2010.06.25/outbox.cif.g09.slc.cpg/sg11_11_cif.got.tgz:20592.got - 2010.06.27 23:14:04.
