data_PCOD8073251
_publ_section_title
;
Structure prediction by ZEFSAII (Michael W. Deem and Ramdas Pophale) SiO2 
 PCOD8073251
Probable space group: P 21/M
;
_chemical_formula_sum "Si O2"
_cell_formula_units_Z 32
_cell_length_a 31.284644
_cell_length_b 9.085241
_cell_length_c 12.163317
_cell_angle_alpha 90.000000
_cell_angle_beta 151.477941
_cell_angle_gamma 90.000000
_cell_volume 1650.784594
_symmetry_space_group_name_H-M "P 21/M"
_symmetry_group_IT_number 11
_symmetry_cell_setting 'monoclinic'
loop_
_space_group_symop_operation_xyz
x,y,z
-x,1/2+y,-z
-x,-y,-z
x,1/2-y,z
loop_
_atom_site_type_symbol
_atom_site_label
_atom_site_fract_x
_atom_site_fract_y
_atom_site_fract_z
Si Si1 0.225855 0.574791 0.970454
Si Si2 0.434630 0.923654 0.438952
Si Si3 0.372578 0.420703 0.721446
Si Si4 0.932395 0.414158 0.771223
Si Si5 0.912760 0.925797 0.500890
Si Si6 0.527333 0.077706 0.231127
Si Si7 0.201245 0.912119 0.341765
Si Si8 0.889279 0.076863 0.084570
O O1 0.216873 0.750000 0.938975
O O2 0.170640 0.496859 0.749944
O O3 0.181464 0.517200 0.984774
O O4 0.330158 0.526923 0.195854
O O5 0.441867 0.750000 0.437657
O O6 0.472853 0.973730 0.643432
O O7 0.500000 0.000000 0.500000
O O8 0.382481 0.250000 0.722625
O O9 0.391842 0.501400 0.650283
O O10 0.274059 0.465108 0.532073
O O11 0.436015 0.471805 0.965137
O O12 0.967200 0.250000 0.815665
O O13 0.908487 0.513915 0.613980
O O14 0.845430 0.393823 0.647882
O O15 0.000000 0.500000 0.000000
O O16 0.902867 0.750000 0.480047
O O17 0.008158 0.976184 0.662513
O O18 0.544546 0.250000 0.263498
O O19 0.239935 0.750000 0.395522
O O20 0.138669 0.973356 0.101415
O O21 0.889213 0.250000 0.090585
#
# Coordination Sequence:
#
# PCOD8073251 Si02
#       8
#     4   4   4   4   4   4   4   4
#     4  10  21  38  60  86 113 148 196 242 290 350
#     4  10  22  40  62  83 111 152 196 241 292 351
#     4  10  20  33  55  89 117 141 185 239 284 336
#     4  11  22  38  59  82 114 154 194 234 279 336
#     4  11  22  38  59  85 119 155 195 241 289 341
#     4   9  19  38  59  79 111 152 186 227 292 351
#     4  10  20  36  57  81 114 156 192 226 282 344
#     4   9  18  36  60  83 113 153 195 235 282 346
#
# _framework density 19.384723000000001
#
# number of rings (size 3 to 8) (size 9 to 14) (size 15 to 20)
#    0.000    2.000    1.250    2.250    0.000    5.500 
#    0.000    5.000    0.000    0.000    0.000    0.000 
#    0.000    0.000    0.000    0.000    0.000    0.000 
#
# Total GULP energy -396651.235666 kJ/mol
# GULP energy per Si atom -12395.351115 kJ/mol
# Density = 1.934060 g / cm^3
# Si number density = 19.384723 Si / 1000 Ang^3
#
#
#
# Elastic Constant Matrix: (Units=GPa)
#
#
# Indices 1 2 3 4 5 6 
#
# 1 134.7703 37.6397 70.9867 0.0000 -5.3359 0.0000
# 2 37.6397 44.1800 37.8876 0.0000 -2.6793 0.0000
# 3 70.9867 37.8876 118.4366 0.0000 -0.2638 0.0000
# 4 0.0000 0.0000 0.0000 34.3058 0.0000 0.5358
# 5 -5.3359 -2.6793 -0.2638 0.0000 30.4251 0.0000
# 6 0.0000 0.0000 0.0000 0.5358 0.0000 31.2287
#
#
#
# Elastic Compliance Matrix: (Units=1/GPa)
#
#
# Indices 1 2 3 4 5 6 
#
# 1 0.011800 -0.005370 -0.005351 0.000000 0.001550 0.000000
# 2 -0.005370 0.033852 -0.007606 0.000000 0.001973 0.000000
# 3 -0.005351 -0.007606 0.014080 0.000000 -0.001486 0.000000
# 4 0.000000 0.000000 0.000000 0.029157 0.000000 -0.000500
# 5 0.001550 0.001973 -0.001486 0.000000 0.033300 0.000000
# 6 0.000000 0.000000 0.000000 -0.000500 0.000000 0.032030
#
#
# Mechanical properties :
#
#
# Convention : Reuss Voigt Hill
#
# Bulk Modulus (GPa) = 43.33156 65.60166 54.46661
# Shear Modulus (GPa) = 25.18030 29.25011 27.21520
#
# Velocity S-wave (km/s) = 3.60804 3.88870 3.75100
# Velocity P-wave (km/s) = 6.30550 7.35378 6.84972
#
# Compressibility (1/GPa) = 0.02307787
#
# Stress axis : x y z
#
# Youngs Moduli (GPa) = 84.74816 29.54005 71.02033
#
# Poissons Ratio (x) = 0.15863 0.38003
# Poissons Ratio (y) = 0.45510 0.54020
# Poissons Ratio (z) = 0.45349 0.22469
#
# Static dielectric constant tensor:
#      x y z
#    x 3.181410 0.000000 0.243150 
#    y 0.000000 3.467800 0.000000 
#    z 0.243150 0.000000 3.626500 
# 
# 
# High freq. dielectric constant tensor:
#      x y z
#    x 1.757070 0.000000 -0.002480 
#    y 0.000000 1.743300 0.000000 
#    z -0.002480 0.000000 1.759630 
# 
# From -- ./inp_files/45370.got.cif
#   From: 2010.06.25/outbox.cif.g09.slc.cpg/sg11_23_cif.got.tgz:45370.got - 2010.06.27 23:14:04.
