data_PCOD8073250
_publ_section_title
;
Structure prediction by ZEFSAII (Michael W. Deem and Ramdas Pophale) SiO2 
 PCOD8073250
Probable space group: P 21/M
;
_chemical_formula_sum "Si O2"
_cell_formula_units_Z 28
_cell_length_a 5.212708
_cell_length_b 23.538235
_cell_length_c 11.822864
_cell_angle_alpha 90.000000
_cell_angle_beta 69.156326
_cell_angle_gamma 90.000000
_cell_volume 1355.703517
_symmetry_space_group_name_H-M "P 21/M"
_symmetry_group_IT_number 11
_symmetry_cell_setting 'monoclinic'
loop_
_space_group_symop_operation_xyz
x,y,z
-x,1/2+y,-z
-x,-y,-z
x,1/2-y,z
loop_
_atom_site_type_symbol
_atom_site_label
_atom_site_fract_x
_atom_site_fract_y
_atom_site_fract_z
Si Si1 0.850493 0.183993 0.155271
Si Si2 0.553103 0.115563 0.379865
Si Si3 0.773348 0.600415 0.370528
Si Si4 0.864130 0.481542 0.405514
Si Si5 0.552933 0.630307 0.957100
Si Si6 0.582199 0.402512 0.779018
Si Si7 0.395920 0.030113 0.205831
O O1 0.918809 0.250000 0.144595
O O2 0.692462 0.169110 0.297202
O O3 0.656554 0.169658 0.079777
O O4 0.135079 0.150300 0.107790
O O5 0.300627 0.134869 0.501006
O O6 0.748556 0.082137 0.437982
O O7 0.486904 0.066973 0.299297
O O8 0.664420 0.534566 0.404954
O O9 0.609475 0.625170 0.288411
O O10 0.099474 0.602658 0.303685
O O11 0.000000 0.500000 0.500000
O O12 0.071073 0.478178 0.266528
O O13 0.527117 0.565000 0.919141
O O14 0.468462 0.634180 0.100675
O O15 0.474530 0.467069 0.817243
#
# Coordination Sequence:
#
# PCOD8073250 Si02
#       7
#     4   4   4   4   4   4   4
#     4  11  25  44  69  88 109 152 211 270 313 342
#     4  11  20  36  57  90 126 157 199 249 300 352
#     4  11  22  33  56  88 132 166 198 226 291 374
#     4  11  18  31  51  87 127 167 195 227 291 373
#     4  11  23  42  62  87 122 156 205 255 305 349
#     4  11  23  36  56  89 129 166 197 230 291 380
#     4  10  20  33  55  88 126 165 197 241 295 362
#
# _framework density 20.653483999999999
#
# number of rings (size 3 to 8) (size 9 to 14) (size 15 to 20)
#    0.000    1.143    4.286    3.857    0.000    0.000 
#    0.000    4.286    0.000    5.143    0.000    0.000 
#    0.000    0.000    0.000    0.000    0.000    0.000 
#
# Total GULP energy -346997.250168 kJ/mol
# GULP energy per Si atom -12392.758935 kJ/mol
# Density = 2.060648 g / cm^3
# Si number density = 20.653484 Si / 1000 Ang^3
#
#
#
# Elastic Constant Matrix: (Units=GPa)
#
#
# Indices 1 2 3 4 5 6 
#
# 1 100.8731 16.6277 36.6889 0.0000 11.6757 0.0000
# 2 16.6277 50.7588 27.2413 0.0000 -2.9547 0.0000
# 3 36.6889 27.2413 118.4817 0.0000 6.1574 0.0000
# 4 0.0000 0.0000 0.0000 14.6057 0.0000 0.8004
# 5 11.6757 -2.9547 6.1574 0.0000 30.7496 0.0000
# 6 0.0000 0.0000 0.0000 0.8004 0.0000 17.8859
#
#
#
# Elastic Compliance Matrix: (Units=1/GPa)
#
#
# Indices 1 2 3 4 5 6 
#
# 1 0.011866 -0.002595 -0.002860 0.000000 -0.004182 0.000000
# 2 -0.002595 0.023363 -0.004786 0.000000 0.004189 0.000000
# 3 -0.002860 -0.004786 0.010503 0.000000 -0.001477 0.000000
# 4 0.000000 0.000000 0.000000 0.068635 0.000000 -0.003072
# 5 -0.004182 0.004189 -0.001477 0.000000 0.034807 0.000000
# 6 0.000000 0.000000 0.000000 -0.003072 0.000000 0.056047
#
#
# Mechanical properties :
#
#
# Convention : Reuss Voigt Hill
#
# Bulk Modulus (GPa) = 39.60503 47.91438 43.75971
# Shear Modulus (GPa) = 21.35653 25.28527 23.32090
#
# Velocity S-wave (km/s) = 3.21914 3.50274 3.36393
# Velocity P-wave (km/s) = 5.74758 6.29353 6.02674
#
# Compressibility (1/GPa) = 0.02524932
#
# Stress axis : x y z
#
# Youngs Moduli (GPa) = 84.27700 42.80182 95.21167
#
# Poissons Ratio (x) = 0.11109 0.27233
# Poissons Ratio (y) = 0.21873 0.45566
# Poissons Ratio (z) = 0.24105 0.20484
#
# Static dielectric constant tensor:
#      x y z
#    x 3.830600 0.000000 -0.009560 
#    y 0.000000 3.399480 0.000000 
#    z -0.009560 0.000000 3.960400 
# 
# 
# High freq. dielectric constant tensor:
#      x y z
#    x 1.817490 0.000000 -0.001130 
#    y 0.000000 1.749610 0.000000 
#    z -0.001130 0.000000 1.820860 
# 
# From -- ./inp_files/29978.got.cif
#   From: 2010.06.25/outbox.cif.g09.slc.cpg/sg11_15_cif.got.tgz:29978.got - 2010.06.27 23:14:04.
