data_PCOD8073621
_publ_section_title
;
Structure prediction by ZEFSAII (Michael W. Deem and Ramdas Pophale) SiO2 
 PCOD8073621
Probable space group: P 21/M
;
_chemical_formula_sum "Si O2"
_cell_formula_units_Z 32
_cell_length_a 12.190517
_cell_length_b 8.849396
_cell_length_c 28.715484
_cell_angle_alpha 90.000000
_cell_angle_beta 34.480820
_cell_angle_gamma 90.000000
_cell_volume 1753.752544
_symmetry_space_group_name_H-M "P 21/M"
_symmetry_group_IT_number 11
_symmetry_cell_setting 'monoclinic'
loop_
_space_group_symop_operation_xyz
x,y,z
-x,1/2+y,-z
-x,-y,-z
x,1/2-y,z
loop_
_atom_site_type_symbol
_atom_site_label
_atom_site_fract_x
_atom_site_fract_y
_atom_site_fract_z
Si Si1 0.446506 0.073456 0.239552
Si Si2 0.824495 0.574846 0.534138
Si Si3 0.047770 0.577971 0.367662
Si Si4 0.555699 0.571993 0.293049
Si Si5 0.504929 0.926516 0.882303
Si Si6 0.096467 0.922063 0.247923
Si Si7 0.667724 0.572090 0.972444
Si Si8 0.954636 0.924635 0.199276
O O1 0.466798 0.250000 0.241739
O O2 0.527798 0.028575 0.160218
O O3 0.221200 0.030421 0.323060
O O4 0.569660 0.985201 0.235081
O O5 0.814296 0.750000 0.551357
O O6 0.622757 0.499022 0.617014
O O7 0.000000 0.500000 0.500000
O O8 0.862550 0.550869 0.465515
O O9 0.122875 0.750000 0.346986
O O10 0.988119 0.544711 0.334889
O O11 0.529657 0.750000 0.302560
O O12 0.750272 0.520030 0.250900
O O13 0.473614 0.750000 0.901522
O O14 0.722119 0.967470 0.821921
O O15 0.352808 0.017788 0.966929
O O16 0.175296 0.750000 0.219280
O O17 0.948620 0.949780 0.257266
O O18 0.645064 0.750000 0.977430
O O19 0.878158 0.524812 0.881541
O O20 0.500000 0.500000 0.000000
O O21 0.994146 0.750000 0.172932
#
# Coordination Sequence:
#
# PCOD8073621 Si02
#       8
#     4   4   4   4   4   4   4   4
#     4  10  20  34  55  82 112 145 184 232 280 330
#     4  11  21  34  55  83 113 146 187 236 282 329
#     4   9  18  32  54  82 109 140 183 232 280 332
#     4  11  23  38  56  80 114 153 190 229 280 340
#     4  10  20  34  55  85 114 141 182 233 280 328
#     4   9  17  33  56  80 108 144 184 228 280 330
#     4  12  23  36  58  86 115 147 186 231 277 330
#     4  10  22  39  58  81 112 150 189 232 281 333
#
# _framework density 18.246589
#
# number of rings (size 3 to 8) (size 9 to 14) (size 15 to 20)
#    0.000    1.750    2.500    2.625    0.000    3.000 
#    0.000    1.250    0.000    0.000    0.000    0.000 
#    0.000    0.000    0.000    0.000    0.000    0.000 
#
# Total GULP energy -396828.544441 kJ/mol
# GULP energy per Si atom -12400.892014 kJ/mol
# Density = 1.820506 g / cm^3
# Si number density = 18.246589 Si / 1000 Ang^3
#
#
#
# Elastic Constant Matrix: (Units=GPa)
#
#
# Indices 1 2 3 4 5 6 
#
# 1 143.6959 54.1095 75.7615 0.0000 5.0226 0.0000
# 2 54.1095 98.3759 56.2550 0.0000 -0.1857 0.0000
# 3 75.7615 56.2550 117.1885 0.0000 6.9490 0.0000
# 4 0.0000 0.0000 0.0000 30.9735 0.0000 2.1811
# 5 5.0226 -0.1857 6.9490 0.0000 29.4459 0.0000
# 6 0.0000 0.0000 0.0000 2.1811 0.0000 23.1074
#
#
#
# Elastic Compliance Matrix: (Units=1/GPa)
#
#
# Indices 1 2 3 4 5 6 
#
# 1 0.011082 -0.002781 -0.005797 0.000000 -0.000540 0.000000
# 2 -0.002781 0.014794 -0.005413 0.000000 0.001845 0.000000
# 3 -0.005797 -0.005413 0.015033 0.000000 -0.002593 0.000000
# 4 0.000000 0.000000 0.000000 0.032502 0.000000 -0.003068
# 5 -0.000540 0.001845 -0.002593 0.000000 0.034676 0.000000
# 6 0.000000 0.000000 0.000000 -0.003068 0.000000 0.043566
#
#
# Mechanical properties :
#
#
# Convention : Reuss Voigt Hill
#
# Bulk Modulus (GPa) = 77.36319 81.27916 79.32117
# Shear Modulus (GPa) = 27.18227 28.24765 27.71496
#
# Velocity S-wave (km/s) = 3.86387 3.93887 3.90155
# Velocity P-wave (km/s) = 7.89916 8.08256 7.99139
#
# Compressibility (1/GPa) = 0.01292604
#
# Stress axis : x y z
#
# Youngs Moduli (GPa) = 90.23831 67.59666 66.51942
#
# Poissons Ratio (x) = 0.18801 0.38562
# Poissons Ratio (y) = 0.25098 0.36006
# Poissons Ratio (z) = 0.52312 0.36589
#
# Static dielectric constant tensor:
#      x y z
#    x 3.549990 0.000000 0.354240 
#    y 0.000000 3.452330 0.000000 
#    z 0.354240 0.000000 3.409310 
# 
# 
# High freq. dielectric constant tensor:
#      x y z
#    x 1.703930 0.000000 0.030280 
#    y 0.000000 1.716440 0.000000 
#    z 0.030280 0.000000 1.693640 
# 
# From -- ./inp_files/67418.got.cif
#   From: 2010.06.25/outbox.cif.g09.slc.cpg/sg11_34_cif.got.tgz:67418.got - 2010.06.27 23:14:04.
