data_PCOD8073202
_publ_section_title
;
Structure prediction by ZEFSAII (Michael W. Deem and Ramdas Pophale) SiO2 
 PCOD8073202
Probable space group: P 21/M
;
_chemical_formula_sum "Si O2"
_cell_formula_units_Z 32
_cell_length_a 10.458153
_cell_length_b 9.381003
_cell_length_c 24.916057
_cell_angle_alpha 90.000000
_cell_angle_beta 140.339151
_cell_angle_gamma 90.000000
_cell_volume 1560.159184
_symmetry_space_group_name_H-M "P 21/M"
_symmetry_group_IT_number 11
_symmetry_cell_setting 'monoclinic'
loop_
_space_group_symop_operation_xyz
x,y,z
-x,1/2+y,-z
-x,-y,-z
x,1/2-y,z
loop_
_atom_site_type_symbol
_atom_site_label
_atom_site_fract_x
_atom_site_fract_y
_atom_site_fract_z
Si Si1 0.977745 0.920172 0.549270
Si Si2 0.309086 0.085578 0.720010
Si Si3 0.888552 0.089373 0.035646
Si Si4 0.453466 0.088953 0.881198
Si Si5 0.819578 0.413016 0.138504
Si Si6 0.188326 0.909976 0.271656
Si Si7 0.255842 0.589853 0.167773
Si Si8 0.552211 0.583685 0.463268
O O1 0.001556 0.750000 0.549004
O O2 0.765785 0.959637 0.507515
O O3 0.000000 0.000000 0.500000
O O4 0.144780 0.980015 0.643348
O O5 0.275659 0.250000 0.689722
O O6 0.303274 0.076543 0.782504
O O7 0.525213 0.025337 0.771811
O O8 0.959866 0.250000 0.048590
O O9 0.830497 0.065056 0.078810
O O10 0.683336 0.051776 0.937164
O O11 0.075674 0.991309 0.078793
O O12 0.454873 0.250000 0.904810
O O13 0.383540 0.984880 0.905758
O O14 0.819346 0.250000 0.155943
O O15 0.007662 0.486347 0.229166
O O16 0.128176 0.750000 0.269513
O O17 0.225295 0.918107 0.220841
O O18 0.388659 0.959495 0.366176
O O19 0.250005 0.750000 0.143119
O O20 0.500000 0.500000 0.500000
O O21 0.546781 0.750000 0.475273
#
# Coordination Sequence:
#
# PCOD8073202 Si02
#       8
#     4   4   4   4   4   4   4   4
#     4  11  24  43  66  92 122 158 202 250 299 361
#     4  10  22  39  59  84 115 152 192 236 289 348
#     4   9  19  35  54  80 112 148 190 237 287 339
#     4  10  21  36  54  78 114 154 189 230 286 348
#     4  10  20  33  53  80 111 145 189 239 281 333
#     4   9  18  35  57  78 105 144 184 225 282 347
#     4   9  18  35  58  81 108 144 190 237 282 339
#     4  10  23  40  60  88 121 155 195 245 300 359
#
# _framework density 20.510726999999999
#
# number of rings (size 3 to 8) (size 9 to 14) (size 15 to 20)
#    0.000    2.250    0.000    1.875    1.750    6.000 
#    0.000    2.500    0.000    0.000    0.000    0.000 
#    0.000    0.000    0.000    0.000    0.000    0.000 
#
# Total GULP energy -396802.289098 kJ/mol
# GULP energy per Si atom -12400.071534 kJ/mol
# Density = 2.046404 g / cm^3
# Si number density = 20.510727 Si / 1000 Ang^3
#
#
#
# Elastic Constant Matrix: (Units=GPa)
#
#
# Indices 1 2 3 4 5 6 
#
# 1 50.5057 28.4096 10.5493 0.0000 19.5278 0.0000
# 2 28.4096 84.9537 42.6775 0.0000 12.2671 0.0000
# 3 10.5493 42.6775 118.2223 0.0000 10.7599 0.0000
# 4 0.0000 0.0000 0.0000 36.2612 0.0000 7.5138
# 5 19.5278 12.2671 10.7599 0.0000 29.9258 0.0000
# 6 0.0000 0.0000 0.0000 7.5138 0.0000 29.3945
#
#
#
# Elastic Compliance Matrix: (Units=1/GPa)
#
#
# Indices 1 2 3 4 5 6 
#
# 1 0.031106 -0.008909 0.002022 0.000000 -0.017373 0.000000
# 2 -0.008909 0.017451 -0.005565 0.000000 0.000661 0.000000
# 3 0.002022 -0.005565 0.010545 0.000000 -0.002830 0.000000
# 4 0.000000 0.000000 0.000000 0.029120 0.000000 -0.007444
# 5 -0.017373 0.000661 -0.002830 0.000000 0.045499 0.000000
# 6 0.000000 0.000000 0.000000 -0.007444 0.000000 0.035923
#
#
# Mechanical properties :
#
#
# Convention : Reuss Voigt Hill
#
# Bulk Modulus (GPa) = 29.24269 46.32825 37.78547
# Shear Modulus (GPa) = 24.27818 30.58599 27.43209
#
# Velocity S-wave (km/s) = 3.44420 3.86582 3.66108
# Velocity P-wave (km/s) = 5.48679 6.52399 6.02774
#
# Compressibility (1/GPa) = 0.03419658
#
# Stress axis : x y z
#
# Youngs Moduli (GPa) = 32.14803 57.30490 94.83536
#
# Poissons Ratio (x) = 0.51055 -0.19173
# Poissons Ratio (y) = 0.28642 0.52773
# Poissons Ratio (z) = -0.06499 0.31888
#
# Static dielectric constant tensor:
#      x y z
#    x 3.616290 0.000000 0.066090 
#    y 0.000000 3.781790 0.000000 
#    z 0.066090 0.000000 4.002790 
# 
# 
# High freq. dielectric constant tensor:
#      x y z
#    x 1.805710 0.000000 0.003930 
#    y 0.000000 1.791010 0.000000 
#    z 0.003930 0.000000 1.814020 
# 
# From -- ./inp_files/38096.got.cif
#   From: 2010.06.25/outbox.cif.g09.slc.cpg/sg11_20_cif.got.tgz:38096.got - 2010.06.27 23:14:04.
