data_PCOD8073906
_publ_section_title
;
Structure prediction by ZEFSAII (Michael W. Deem and Ramdas Pophale) SiO2 
 PCOD8073906
Probable space group: P 21/M
;
_chemical_formula_sum "Si O2"
_cell_formula_units_Z 32
_cell_length_a 16.034152
_cell_length_b 8.814455
_cell_length_c 28.734476
_cell_angle_alpha 90.000000
_cell_angle_beta 155.440690
_cell_angle_gamma 90.000000
_cell_volume 1687.939298
_symmetry_space_group_name_H-M "P 21/M"
_symmetry_group_IT_number 11
_symmetry_cell_setting 'monoclinic'
loop_
_space_group_symop_operation_xyz
x,y,z
-x,1/2+y,-z
-x,-y,-z
x,1/2-y,z
loop_
_atom_site_type_symbol
_atom_site_label
_atom_site_fract_x
_atom_site_fract_y
_atom_site_fract_z
Si Si1 0.292894 0.924327 0.839730
Si Si2 0.893699 0.576268 0.488626
Si Si3 0.461677 0.911248 0.278119
Si Si4 0.705418 0.075828 0.049281
Si Si5 0.084035 0.423878 0.088237
Si Si6 0.486076 0.415473 0.588406
Si Si7 0.911246 0.070631 0.598007
Si Si8 0.066676 0.569148 0.177862
O O1 0.289923 0.750000 0.822026
O O2 0.280878 0.939170 0.888778
O O3 0.103060 0.010509 0.722887
O O4 0.500390 0.998942 0.926753
O O5 0.962737 0.750000 0.531068
O O6 0.665749 0.564718 0.353947
O O7 0.928427 0.486142 0.553948
O O8 0.000000 0.500000 0.500000
O O9 0.356799 0.750000 0.209579
O O10 0.531283 0.890556 0.365972
O O11 0.322501 0.057698 0.202354
O O12 0.707078 0.250000 0.033687
O O13 0.899683 0.991288 0.127900
O O14 0.021519 0.250000 0.060350
O O15 0.015227 0.508739 0.100119
O O16 0.000000 0.500000 0.000000
O O17 0.462679 0.250000 0.551774
O O18 0.293798 0.520245 0.478435
O O19 0.709620 0.485040 0.691246
O O20 0.914426 0.250000 0.599738
O O21 0.064153 0.750000 0.174582
#
# Coordination Sequence:
#
# PCOD8073906 Si02
#       8
#     4   4   4   4   4   4   4   4
#     4  10  21  39  61  83 113 151 188 229 282 341
#     4  10  20  35  54  77 108 143 181 225 276 330
#     4   8  16  32  51  71  99 136 175 216 266 323
#     4  10  21  38  61  87 113 145 187 234 284 337
#     4  11  21  34  53  77 107 142 183 228 274 328
#     4   8  16  32  54  78 107 143 178 217 269 327
#     4  11  21  34  56  84 112 144 188 233 278 333
#     4  10  20  36  58  83 112 146 185 227 279 339
#
# _framework density 18.958029
#
# number of rings (size 3 to 8) (size 9 to 14) (size 15 to 20)
#    0.000    2.250    0.000    5.250    0.000    7.000 
#    2.250    0.625    0.000    0.000    0.000    0.000 
#    0.000    0.000    0.000    0.000    0.000    0.000 
#
# Total GULP energy -396472.623413 kJ/mol
# GULP energy per Si atom -12389.769482 kJ/mol
# Density = 1.891488 g / cm^3
# Si number density = 18.958029 Si / 1000 Ang^3
#
#
#
# Elastic Constant Matrix: (Units=GPa)
#
#
# Indices 1 2 3 4 5 6 
#
# 1 62.1023 35.3438 31.4447 0.0000 30.2341 0.0000
# 2 35.3438 140.7170 55.2460 0.0000 12.9308 0.0000
# 3 31.4447 55.2460 103.4852 0.0000 23.3173 0.0000
# 4 0.0000 0.0000 0.0000 31.0463 0.0000 1.8133
# 5 30.2341 12.9308 23.3173 0.0000 32.5432 0.0000
# 6 0.0000 0.0000 0.0000 1.8133 0.0000 29.3669
#
#
#
# Elastic Compliance Matrix: (Units=1/GPa)
#
#
# Indices 1 2 3 4 5 6 
#
# 1 0.033389 -0.005448 -0.000877 0.000000 -0.028227 0.000000
# 2 -0.005448 0.009881 -0.004621 0.000000 0.004447 0.000000
# 3 -0.000877 -0.004621 0.014071 0.000000 -0.007431 0.000000
# 4 0.000000 0.000000 0.000000 0.032327 0.000000 -0.001996
# 5 -0.028227 0.004447 -0.007431 0.000000 0.060510 0.000000
# 6 0.000000 0.000000 0.000000 -0.001996 0.000000 0.034175
#
#
# Mechanical properties :
#
#
# Convention : Reuss Voigt Hill
#
# Bulk Modulus (GPa) = 28.21016 61.15263 44.68139
# Shear Modulus (GPa) = 22.92928 30.87595 26.90262
#
# Velocity S-wave (km/s) = 3.48152 4.04003 3.77113
# Velocity P-wave (km/s) = 5.57440 7.35454 6.52546
#
# Compressibility (1/GPa) = 0.03544822
#
# Stress axis : x y z
#
# Youngs Moduli (GPa) = 29.94963 101.20844 71.06758
#
# Poissons Ratio (x) = 0.55141 0.06232
# Poissons Ratio (y) = 0.16317 0.32842
# Poissons Ratio (z) = 0.02626 0.46771
#
# Static dielectric constant tensor:
#      x y z
#    x 3.450050 0.000000 0.844270 
#    y 0.000000 3.769590 0.000000 
#    z 0.844270 0.000000 6.899280 
# 
# 
# High freq. dielectric constant tensor:
#      x y z
#    x 1.718700 0.000000 0.021200 
#    y 0.000000 1.747650 0.000000 
#    z 0.021200 0.000000 1.736080 
# 
# From -- ./inp_files/71636.got.cif
#   From: 2010.06.25/outbox.cif.g09.slc.cpg/sg11_36_cif.got.tgz:71636.got - 2010.06.27 23:14:04.
