data_PCOD8073422
_publ_section_title
;
Structure prediction by ZEFSAII (Michael W. Deem and Ramdas Pophale) SiO2 
 PCOD8073422
Probable space group: P 21/M
;
_chemical_formula_sum "Si O2"
_cell_formula_units_Z 32
_cell_length_a 22.611034
_cell_length_b 9.113667
_cell_length_c 27.572119
_cell_angle_alpha 90.000000
_cell_angle_beta 17.601470
_cell_angle_gamma 90.000000
_cell_volume 1718.135416
_symmetry_space_group_name_H-M "P 21/M"
_symmetry_group_IT_number 11
_symmetry_cell_setting 'monoclinic'
loop_
_space_group_symop_operation_xyz
x,y,z
-x,1/2+y,-z
-x,-y,-z
x,1/2-y,z
loop_
_atom_site_type_symbol
_atom_site_label
_atom_site_fract_x
_atom_site_fract_y
_atom_site_fract_z
Si Si1 0.712734 0.075552 0.601409
Si Si2 0.043837 0.424448 0.270306
Si Si3 0.046221 0.920317 0.766502
Si Si4 0.463013 0.423367 0.978298
Si Si5 0.295330 0.079683 0.891948
Si Si6 0.038919 0.581260 0.019220
Si Si7 0.802230 0.423368 0.639081
Si Si8 0.693639 0.918740 0.364500
O O1 0.710094 0.250000 0.603568
O O2 0.506830 0.017688 0.741758
O O3 0.743433 0.017859 0.631907
O O4 0.886986 0.014413 0.431507
O O5 0.044554 0.250000 0.269108
O O6 0.987520 0.482309 0.261068
O O7 0.257926 0.482142 0.117414
O O8 0.106115 0.750000 0.719569
O O9 0.846629 0.946052 0.951685
O O10 0.224639 0.009966 0.650160
O O11 0.457551 0.250000 0.990815
O O12 0.631593 0.469472 0.809204
O O13 0.500000 0.500000 0.000000
O O14 0.303378 0.250000 0.870938
O O15 0.225444 0.990037 0.899757
O O16 0.086790 0.750000 0.971286
O O17 0.848783 0.561584 0.200608
O O18 0.000000 0.500000 0.000000
O O19 0.835912 0.250000 0.612453
O O20 0.000000 0.500000 0.500000
O O21 0.645517 0.750000 0.412559
O O22 0.500000 0.000000 0.500000
#
# Coordination Sequence:
#
# PCOD8073422 Si02
#       8
#     4   4   4   4   4   4   4   4
#     4   9  17  30  50  75 101 131 170 214 258 306
#     4   9  17  30  50  75 101 131 170 214 258 306
#     4   9  17  31  51  73  98 130 168 210 257 308
#     4  10  20  34  53  77 105 138 176 216 258 306
#     4   9  17  31  51  73  98 130 168 210 257 308
#     4  10  21  36  54  77 105 137 173 212 255 305
#     4  10  20  34  53  77 105 138 176 216 258 306
#     4  10  21  36  54  77 105 137 173 212 255 305
#
# _framework density 18.624841
#
# number of rings (size 3 to 8) (size 9 to 14) (size 15 to 20)
#    0.000    2.500    0.000    2.250    0.000    7.000 
#    0.000    3.750    0.000    4.500    0.000    0.000 
#    0.000    0.000    0.000    0.000    0.000    0.000 
#
# Total GULP energy -396869.128719 kJ/mol
# GULP energy per Si atom -12402.160272 kJ/mol
# Density = 1.858245 g / cm^3
# Si number density = 18.624841 Si / 1000 Ang^3
#
#
#
# Elastic Constant Matrix: (Units=GPa)
#
#
# Indices 1 2 3 4 5 6 
#
# 1 201.4019 62.4493 92.8586 0.0000 -13.8238 0.0000
# 2 62.4493 62.7097 48.7947 0.0000 -9.4017 0.0000
# 3 92.8586 48.7947 147.3811 0.0000 -23.3678 0.0000
# 4 0.0000 0.0000 0.0000 24.6785 0.0000 -4.5700
# 5 -13.8238 -9.4017 -23.3678 0.0000 37.6607 0.0000
# 6 0.0000 0.0000 0.0000 -4.5700 0.0000 31.3153
#
#
#
# Elastic Compliance Matrix: (Units=1/GPa)
#
#
# Indices 1 2 3 4 5 6 
#
# 1 0.008252 -0.005638 -0.003411 0.000000 -0.000495 0.000000
# 2 -0.005638 0.025369 -0.004626 0.000000 0.001393 0.000000
# 3 -0.003411 -0.004626 0.011185 0.000000 0.004533 0.000000
# 4 0.000000 0.000000 0.000000 0.041647 0.000000 0.006078
# 5 -0.000495 0.001393 0.004533 0.000000 0.029532 0.000000
# 6 0.000000 0.000000 0.000000 0.006078 0.000000 0.032820
#
#
# Mechanical properties :
#
#
# Convention : Reuss Voigt Hill
#
# Bulk Modulus (GPa) = 57.28744 91.07755 74.18249
# Shear Modulus (GPa) = 27.47647 32.55692 30.01670
#
# Velocity S-wave (km/s) = 3.84508 4.18549 4.01889
# Velocity P-wave (km/s) = 7.10902 8.50676 7.83911
#
# Compressibility (1/GPa) = 0.01745583
#
# Stress axis : x y z
#
# Youngs Moduli (GPa) = 121.18067 39.41749 89.40716
#
# Poissons Ratio (x) = 0.22223 0.30499
# Poissons Ratio (y) = 0.68319 0.41362
# Poissons Ratio (z) = 0.41338 0.18235
#
# Static dielectric constant tensor:
#      x y z
#    x 3.628380 0.000000 -0.039360 
#    y 0.000000 3.116080 0.000000 
#    z -0.039360 0.000000 3.571140 
# 
# 
# High freq. dielectric constant tensor:
#      x y z
#    x 1.738130 0.000000 -0.005520 
#    y 0.000000 1.691800 0.000000 
#    z -0.005520 0.000000 1.730110 
# 
# From -- ./inp_files/71979.got.cif
#   From: 2010.06.25/outbox.cif.g09.slc.cpg/sg11_36_cif.got.tgz:71979.got - 2010.06.27 23:14:04.
