data_PCOD8073177
_publ_section_title
;
Structure prediction by ZEFSAII (Michael W. Deem and Ramdas Pophale) SiO2 
 PCOD8073177
Probable space group: P 21/M
;
_chemical_formula_sum "Si O2"
_cell_formula_units_Z 28
_cell_length_a 16.315202
_cell_length_b 9.195172
_cell_length_c 13.741016
_cell_angle_alpha 90.000000
_cell_angle_beta 48.339883
_cell_angle_gamma 90.000000
_cell_volume 1540.105640
_symmetry_space_group_name_H-M "P 21/M"
_symmetry_group_IT_number 11
_symmetry_cell_setting 'monoclinic'
loop_
_space_group_symop_operation_xyz
x,y,z
-x,1/2+y,-z
-x,-y,-z
x,1/2-y,z
loop_
_atom_site_type_symbol
_atom_site_label
_atom_site_fract_x
_atom_site_fract_y
_atom_site_fract_z
Si Si1 0.681067 0.086337 0.836293
Si Si2 0.907347 0.917613 0.190443
Si Si3 0.667165 0.919750 0.044504
Si Si4 0.426654 0.919414 0.278249
Si Si5 0.876749 0.578469 0.994949
Si Si6 0.234478 0.419966 0.514635
Si Si7 0.893465 0.082949 0.550278
O O1 0.650138 0.250000 0.890492
O O2 0.605913 0.034146 0.805663
O O3 0.808000 0.075116 0.706156
O O4 0.658147 0.985440 0.945193
O O5 0.942783 0.750000 0.162943
O O6 0.807725 0.946761 0.342724
O O7 0.866072 0.966262 0.116496
O O8 0.014797 0.007680 0.137333
O O9 0.682528 0.750000 0.016921
O O10 0.555301 0.951485 0.192563
O O11 0.769521 0.983843 0.024389
O O12 0.396801 0.750000 0.317627
O O13 0.357264 0.014803 0.409706
O O14 0.885807 0.750000 0.974675
O O15 0.235799 0.250000 0.486612
O O16 0.153251 0.504197 0.507505
O O17 0.920744 0.250000 0.502323
O O18 0.000000 0.000000 0.500000
#
# Coordination Sequence:
#
# PCOD8073177 Si02
#       7
#     4   4   4   4   4   4   4
#     4   9  19  33  49  71 102 138 171 206 253 303
#     4   9  19  36  55  75 104 135 168 213 264 313
#     4  10  20  33  53  78 103 133 174 217 259 305
#     4   9  19  36  52  73 105 139 173 212 256 309
#     4   9  19  35  54  78 103 132 170 214 263 314
#     4  10  20  34  54  76 100 137 176 212 259 308
#     4  10  21  35  50  74 107 139 172 212 255 306
#
# _framework density 18.180571
#
# number of rings (size 3 to 8) (size 9 to 14) (size 15 to 20)
#    0.000    2.571    0.000    2.143    2.000    5.143 
#    0.000    0.714    0.000    0.000    0.000    0.000 
#    0.000    0.000    0.000    0.000    0.000    0.000 
#
# Total GULP energy -347217.856275 kJ/mol
# GULP energy per Si atom -12400.637724 kJ/mol
# Density = 1.813919 g / cm^3
# Si number density = 18.180571 Si / 1000 Ang^3
#
#
#
# Elastic Constant Matrix: (Units=GPa)
#
#
# Indices 1 2 3 4 5 6 
#
# 1 87.7502 32.4219 40.2004 0.0000 -18.8083 0.0000
# 2 32.4219 69.4557 45.4411 0.0000 -6.2809 0.0000
# 3 40.2004 45.4411 100.1756 0.0000 -6.6458 0.0000
# 4 0.0000 0.0000 0.0000 32.0091 0.0000 -4.3070
# 5 -18.8083 -6.2809 -6.6458 0.0000 19.3052 0.0000
# 6 0.0000 0.0000 0.0000 -4.3070 0.0000 23.9884
#
#
#
# Elastic Compliance Matrix: (Units=1/GPa)
#
#
# Indices 1 2 3 4 5 6 
#
# 1 0.018143 -0.004281 -0.004358 0.000000 0.014783 0.000000
# 2 -0.004281 0.021724 -0.008130 0.000000 0.000098 0.000000
# 3 -0.004358 -0.008130 0.015312 0.000000 -0.001620 0.000000
# 4 0.000000 0.000000 0.000000 0.032015 0.000000 0.005748
# 5 0.014783 0.000098 -0.001620 0.000000 0.065676 0.000000
# 6 0.000000 0.000000 0.000000 0.005748 0.000000 0.042719
#
#
# Mechanical properties :
#
#
# Convention : Reuss Voigt Hill
#
# Bulk Modulus (GPa) = 46.20936 54.83425 50.52180
# Shear Modulus (GPa) = 21.15606 24.34841 22.75224
#
# Velocity S-wave (km/s) = 3.41495 3.66355 3.54143
# Velocity P-wave (km/s) = 6.40478 6.93699 6.67619
#
# Compressibility (1/GPa) = 0.02164064
#
# Stress axis : x y z
#
# Youngs Moduli (GPa) = 55.11835 46.03258 65.30981
#
# Poissons Ratio (x) = 0.19707 0.28462
# Poissons Ratio (y) = 0.23596 0.53095
# Poissons Ratio (z) = 0.24021 0.37423
#
# Static dielectric constant tensor:
#      x y z
#    x 3.478260 0.000000 -0.148590 
#    y 0.000000 3.368650 0.000000 
#    z -0.148590 0.000000 3.348400 
# 
# 
# High freq. dielectric constant tensor:
#      x y z
#    x 1.696580 0.000000 -0.012320 
#    y 0.000000 1.704830 0.000000 
#    z -0.012320 0.000000 1.701280 
# 
# From -- ./inp_files/37213.got.cif
#   From: 2010.06.25/outbox.cif.g09.slc.cpg/sg11_19_cif.got.tgz:37213.got - 2010.06.27 23:14:04.
