data_PCOD8073650
_publ_section_title
;
Structure prediction by ZEFSAII (Michael W. Deem and Ramdas Pophale) SiO2 
 PCOD8073650
Probable space group: P 21/M
;
_chemical_formula_sum "Si O2"
_cell_formula_units_Z 32
_cell_length_a 11.261843
_cell_length_b 9.539003
_cell_length_c 29.411673
_cell_angle_alpha 90.000000
_cell_angle_beta 148.111422
_cell_angle_gamma 90.000000
_cell_volume 1669.119285
_symmetry_space_group_name_H-M "P 21/M"
_symmetry_group_IT_number 11
_symmetry_cell_setting 'monoclinic'
loop_
_space_group_symop_operation_xyz
x,y,z
-x,1/2+y,-z
-x,-y,-z
x,1/2-y,z
loop_
_atom_site_type_symbol
_atom_site_label
_atom_site_fract_x
_atom_site_fract_y
_atom_site_fract_z
Si Si1 0.045694 0.093615 0.123202
Si Si2 0.217167 0.090290 0.818260
Si Si3 0.369680 0.095974 0.041451
Si Si4 0.245797 0.037203 0.096931
Si Si5 0.693766 0.908321 0.416670
Si Si6 0.194082 0.909642 0.253066
Si Si7 0.694425 0.595692 0.255301
Si Si8 0.138046 0.913258 0.609847
O O1 0.970583 0.250000 0.113821
O O2 0.213744 0.113883 0.134758
O O3 0.177885 0.016382 0.206061
O O4 0.832704 0.999026 0.041855
O O5 0.290188 0.250000 0.853302
O O6 0.188364 0.071448 0.755121
O O7 0.981875 0.050664 0.764992
O O8 0.403217 0.984399 0.898572
O O9 0.365805 0.250000 0.016714
O O10 0.355756 0.124806 0.091395
O O11 0.421447 0.910066 0.162197
O O12 0.000000 0.000000 0.000000
O O13 0.732169 0.750000 0.410739
O O14 0.443263 0.925600 0.355372
O O15 0.872783 0.940245 0.514727
O O16 0.719336 0.014552 0.383373
O O17 0.155462 0.750000 0.223177
O O18 0.752985 0.750000 0.293261
O O19 0.795493 0.477527 0.320385
O O20 0.199295 0.750000 0.630621
#
# Coordination Sequence:
#
# PCOD8073650 Si02
#       8
#     4   4   4   4   4   4   4   4
#     4  11  22  34  51  78 109 138 172 216 265 315
#     4   9  20  38  56  74 100 137 180 223 262 302
#     4  10  20  35  55  77 104 140 178 215 259 311
#     4   9  20  34  52  78 108 138 172 214 257 304
#     4   9  19  36  57  80 108 141 173 210 260 315
#     4  10  21  38  57  75 100 137 180 221 261 308
#     4  10  20  35  56  79 105 140 178 214 259 315
#     4  10  20  34  55  84 113 138 169 212 261 313
#
# _framework density 19.171787999999999
#
# number of rings (size 3 to 8) (size 9 to 14) (size 15 to 20)
#    0.000    2.250    0.000    2.250    0.000   12.000 
#    0.000    0.625    0.000    0.000    0.000    0.000 
#    0.000    0.000    0.000    0.000    0.000    0.000 
#
# Total GULP energy -396570.173953 kJ/mol
# GULP energy per Si atom -12392.817936 kJ/mol
# Density = 1.912815 g / cm^3
# Si number density = 19.171788 Si / 1000 Ang^3
#
#
#
# Elastic Constant Matrix: (Units=GPa)
#
#
# Indices 1 2 3 4 5 6 
#
# 1 84.6937 37.5653 57.2010 0.0000 17.5797 0.0000
# 2 37.5653 126.1764 52.2886 0.0000 5.4978 0.0000
# 3 57.2010 52.2886 104.4245 0.0000 11.6940 0.0000
# 4 0.0000 0.0000 0.0000 27.8349 0.0000 0.6229
# 5 17.5797 5.4978 11.6940 0.0000 29.5227 0.0000
# 6 0.0000 0.0000 0.0000 0.6229 0.0000 15.1666
#
#
#
# Elastic Compliance Matrix: (Units=1/GPa)
#
#
# Indices 1 2 3 4 5 6 
#
# 1 0.020784 -0.001884 -0.009517 0.000000 -0.008256 0.000000
# 2 -0.001884 0.010172 -0.004159 0.000000 0.000875 0.000000
# 3 -0.009517 -0.004159 0.016900 0.000000 -0.000253 0.000000
# 4 0.000000 0.000000 0.000000 0.035959 0.000000 -0.001477
# 5 -0.008256 0.000875 -0.000253 0.000000 0.038725 0.000000
# 6 0.000000 0.000000 0.000000 -0.001477 0.000000 0.065995
#
#
# Mechanical properties :
#
#
# Convention : Reuss Voigt Hill
#
# Bulk Modulus (GPa) = 59.75321 67.71161 63.73241
# Shear Modulus (GPa) = 22.19893 25.72081 23.95987
#
# Velocity S-wave (km/s) = 3.40648 3.66675 3.53901
# Velocity P-wave (km/s) = 6.83426 7.30218 7.07209
#
# Compressibility (1/GPa) = 0.01673550
#
# Stress axis : x y z
#
# Youngs Moduli (GPa) = 48.11316 98.31020 59.16988
#
# Poissons Ratio (x) = 0.18524 0.56313
# Poissons Ratio (y) = 0.09066 0.24610
# Poissons Ratio (z) = 0.45790 0.40890
#
# Static dielectric constant tensor:
#      x y z
#    x 3.545700 0.000000 0.039990 
#    y 0.000000 3.601970 0.000000 
#    z 0.039990 0.000000 3.532480 
# 
# 
# High freq. dielectric constant tensor:
#      x y z
#    x 1.731800 0.000000 0.006970 
#    y 0.000000 1.749570 0.000000 
#    z 0.006970 0.000000 1.739650 
# 
# From -- ./inp_files/73033.got.cif
#   From: 2010.06.25/outbox.cif.g09.slc.cpg/sg11_37_cif.got.tgz:73033.got - 2010.06.27 23:14:04.
