data_PCOD8073444
_publ_section_title
;
Structure prediction by ZEFSAII (Michael W. Deem and Ramdas Pophale) SiO2 
 PCOD8073444
Probable space group: P 21/M
;
_chemical_formula_sum "Si O2"
_cell_formula_units_Z 32
_cell_length_a 14.380913
_cell_length_b 9.187864
_cell_length_c 12.453318
_cell_angle_alpha 90.000000
_cell_angle_beta 91.032782
_cell_angle_gamma 90.000000
_cell_volume 1645.188013
_symmetry_space_group_name_H-M "P 21/M"
_symmetry_group_IT_number 11
_symmetry_cell_setting 'monoclinic'
loop_
_space_group_symop_operation_xyz
x,y,z
-x,1/2+y,-z
-x,-y,-z
x,1/2-y,z
loop_
_atom_site_type_symbol
_atom_site_label
_atom_site_fract_x
_atom_site_fract_y
_atom_site_fract_z
Si Si1 0.506442 0.576866 0.182583
Si Si2 0.972830 0.579736 0.608707
Si Si3 0.278147 0.588031 0.528187
Si Si4 0.712510 0.917131 0.120535
Si Si5 0.157829 0.919180 0.717370
Si Si6 0.230275 0.078397 0.328099
Si Si7 0.477223 0.914067 0.605209
Si Si8 0.667639 0.918676 0.883967
O O1 0.497727 0.750000 0.187992
O O2 0.609061 0.526683 0.148520
O O3 0.481477 0.504884 0.295938
O O4 0.426876 0.512264 0.103281
O O5 0.968545 0.750000 0.581266
O O6 0.874953 0.522494 0.654346
O O7 0.000000 0.500000 0.500000
O O8 0.047607 0.550011 0.705796
O O9 0.254906 0.750000 0.485190
O O10 0.196964 0.526284 0.602846
O O11 0.294012 0.486300 0.424844
O O12 0.366149 0.591401 0.608962
O O13 0.720719 0.750000 0.154807
O O14 0.795597 0.999556 0.181950
O O15 0.727434 0.939512 0.993599
O O16 0.180798 0.750000 0.733244
O O17 0.235734 0.250000 0.335006
O O18 0.268860 0.025198 0.213724
O O19 0.519300 0.750000 0.606350
O O20 0.500000 0.000000 0.500000
O O21 0.638866 0.750000 0.869335
#
# Coordination Sequence:
#
# PCOD8073444 Si02
#       8
#     4   4   4   4   4   4   4   4
#     4  11  22  36  56  83 110 144 191 235 275 330
#     4  10  20  35  57  85 113 144 181 224 275 334
#     4  10  20  34  53  78 110 145 179 222 274 328
#     4  10  22  39  59  82 111 148 192 236 275 326
#     4  10  20  36  57  82 111 143 181 227 279 329
#     4  10  21  36  57  83 112 146 183 226 278 334
#     4  11  22  35  51  76 112 150 185 226 277 333
#     4  10  22  40  58  80 112 150 189 233 282 326
#
# _framework density 19.450664
#
# number of rings (size 3 to 8) (size 9 to 14) (size 15 to 20)
#    0.000    1.750    2.500    1.875    0.000    5.500 
#    0.000    0.625    0.000    0.000    0.000    0.000 
#    0.000    0.000    0.000    0.000    0.000    0.000 
#
# Total GULP energy -396769.065175 kJ/mol
# GULP energy per Si atom -12399.033287 kJ/mol
# Density = 1.940639 g / cm^3
# Si number density = 19.450664 Si / 1000 Ang^3
#
#
#
# Elastic Constant Matrix: (Units=GPa)
#
#
# Indices 1 2 3 4 5 6 
#
# 1 79.4028 26.6542 29.0463 0.0000 9.9710 0.0000
# 2 26.6542 54.1539 31.7228 0.0000 7.2882 0.0000
# 3 29.0463 31.7228 102.8966 0.0000 9.1747 0.0000
# 4 0.0000 0.0000 0.0000 30.4216 0.0000 6.1281
# 5 9.9710 7.2882 9.1747 0.0000 27.5664 0.0000
# 6 0.0000 0.0000 0.0000 6.1281 0.0000 26.2671
#
#
#
# Elastic Compliance Matrix: (Units=1/GPa)
#
#
# Indices 1 2 3 4 5 6 
#
# 1 0.015886 -0.005996 -0.002334 0.000000 -0.003384 0.000000
# 2 -0.005996 0.025183 -0.005844 0.000000 -0.002544 0.000000
# 3 -0.002334 -0.005844 0.012332 0.000000 -0.001715 0.000000
# 4 0.000000 0.000000 0.000000 0.034492 0.000000 -0.008047
# 5 -0.003384 -0.002544 -0.001715 0.000000 0.038743 0.000000
# 6 0.000000 0.000000 0.000000 -0.008047 0.000000 0.039948
#
#
# Mechanical properties :
#
#
# Convention : Reuss Voigt Hill
#
# Bulk Modulus (GPa) = 39.91749 45.70001 42.80875
# Shear Modulus (GPa) = 24.59615 26.78637 25.69126
#
# Velocity S-wave (km/s) = 3.55990 3.71502 3.63828
# Velocity P-wave (km/s) = 6.12079 6.47674 6.30128
#
# Compressibility (1/GPa) = 0.02505168
#
# Stress axis : x y z
#
# Youngs Moduli (GPa) = 62.95041 39.70905 81.08931
#
# Poissons Ratio (x) = 0.23810 0.18926
# Poissons Ratio (y) = 0.37746 0.47392
# Poissons Ratio (z) = 0.14692 0.23208
#
# Static dielectric constant tensor:
#      x y z
#    x 4.027590 0.000000 0.201560 
#    y 0.000000 3.461930 0.000000 
#    z 0.201560 0.000000 3.614470 
# 
# 
# High freq. dielectric constant tensor:
#      x y z
#    x 1.758460 0.000000 0.005620 
#    y 0.000000 1.750270 0.000000 
#    z 0.005620 0.000000 1.750770 
# 
# From -- ./inp_files/38122.got.cif
#   From: 2010.06.25/outbox.cif.g09.slc.cpg/sg11_20_cif.got.tgz:38122.got - 2010.06.27 23:14:04.
