data_PCOD8073046
_publ_section_title
;
Structure prediction by ZEFSAII (Michael W. Deem and Ramdas Pophale) SiO2 
 PCOD8073046
Probable space group: P 21/M
;
_chemical_formula_sum "Si O2"
_cell_formula_units_Z 32
_cell_length_a 15.307814
_cell_length_b 8.883662
_cell_length_c 20.946082
_cell_angle_alpha 90.000000
_cell_angle_beta 138.193556
_cell_angle_gamma 90.000000
_cell_volume 1898.820610
_symmetry_space_group_name_H-M "P 21/M"
_symmetry_group_IT_number 11
_symmetry_cell_setting 'monoclinic'
loop_
_space_group_symop_operation_xyz
x,y,z
-x,1/2+y,-z
-x,-y,-z
x,1/2-y,z
loop_
_atom_site_type_symbol
_atom_site_label
_atom_site_fract_x
_atom_site_fract_y
_atom_site_fract_z
Si Si1 0.879635 0.075629 0.399374
Si Si2 0.056356 0.575694 0.711798
Si Si3 0.455269 0.921014 0.627419
Si Si4 0.300283 0.075886 0.889334
Si Si5 0.380907 0.424528 0.399427
Si Si6 0.212469 0.924961 0.402069
Si Si7 0.605868 0.926573 0.279326
Si Si8 0.508784 0.423642 0.105345
O O1 0.879121 0.250000 0.417289
O O2 0.890168 0.049249 0.329951
O O3 0.746723 0.003701 0.352315
O O4 0.000000 0.000000 0.500000
O O5 0.051746 0.750000 0.727941
O O6 0.153319 0.488998 0.813252
O O7 0.912920 0.507560 0.638340
O O8 0.446697 0.750000 0.648023
O O9 0.590097 0.943918 0.660427
O O10 0.329784 0.956383 0.515118
O O11 0.460322 0.034269 0.689278
O O12 0.299401 0.250000 0.868232
O O13 0.377592 0.981979 0.878728
O O14 0.367505 0.055165 0.995101
O O15 0.500000 0.500000 0.500000
O O16 0.373869 0.250000 0.414365
O O17 0.248703 0.506596 0.351848
O O18 0.182335 0.750000 0.377199
O O19 0.624302 0.750000 0.282842
O O20 0.509027 0.984727 0.171208
O O21 0.539534 0.250000 0.136800
#
# Coordination Sequence:
#
# PCOD8073046 Si02
#       8
#     4   4   4   4   4   4   4   4
#     4  11  23  36  49  67  97 136 173 207 245 290
#     4  11  22  34  50  72 100 135 170 206 250 298
#     4   9  19  34  51  72 101 135 169 208 250 295
#     4  10  20  34  54  75  96 126 166 210 255 299
#     4   9  17  31  51  73  98 130 167 208 254 297
#     4  10  20  33  51  74 102 135 170 210 251 295
#     4  12  23  33  50  74 100 133 170 208 249 297
#     4  10  20  35  53  73  98 128 164 209 255 300
#
# _framework density 16.852565999999999
#
# number of rings (size 3 to 8) (size 9 to 14) (size 15 to 20)
#    0.000    1.750    1.250    4.875    0.000    8.000 
#    0.000    0.000    0.000    0.000    0.000    0.875 
#    0.000    0.000    0.000    0.000    0.000    0.000 
#
# Total GULP energy -396828.494675 kJ/mol
# GULP energy per Si atom -12400.890459 kJ/mol
# Density = 1.681421 g / cm^3
# Si number density = 16.852566 Si / 1000 Ang^3
#
#
#
# Elastic Constant Matrix: (Units=GPa)
#
#
# Indices 1 2 3 4 5 6 
#
# 1 66.1796 41.1892 13.5815 0.0000 -17.1906 0.0000
# 2 41.1892 110.7808 41.4818 0.0000 -9.0682 0.0000
# 3 13.5815 41.4818 66.4662 0.0000 -12.9652 0.0000
# 4 0.0000 0.0000 0.0000 27.3537 0.0000 1.3742
# 5 -17.1906 -9.0682 -12.9652 0.0000 11.5423 0.0000
# 6 0.0000 0.0000 0.0000 1.3742 0.0000 31.0057
#
#
#
# Elastic Compliance Matrix: (Units=1/GPa)
#
#
# Indices 1 2 3 4 5 6 
#
# 1 0.035076 -0.012882 0.011638 0.000000 0.055194 0.000000
# 2 -0.012882 0.016525 -0.011386 0.000000 -0.018992 0.000000
# 3 0.011638 -0.011386 0.027417 0.000000 0.039185 0.000000
# 4 0.000000 0.000000 0.000000 0.036640 0.000000 -0.001624
# 5 0.055194 -0.018992 0.039185 0.000000 0.197934 0.000000
# 6 0.000000 0.000000 0.000000 -0.001624 0.000000 0.032324
#
#
# Mechanical properties :
#
#
# Convention : Reuss Voigt Hill
#
# Bulk Modulus (GPa) = 18.60129 48.43685 33.51907
# Shear Modulus (GPa) = 12.85036 23.79196 18.32116
#
# Velocity S-wave (km/s) = 2.76437 3.76143 3.30076
# Velocity P-wave (km/s) = 4.60984 6.90423 5.87022
#
# Compressibility (1/GPa) = 0.05375971
#
# Stress axis : x y z
#
# Youngs Moduli (GPa) = 28.50938 60.51388 36.47434
#
# Poissons Ratio (x) = 0.77952 -0.42450
# Poissons Ratio (y) = 0.36725 0.41529
# Poissons Ratio (z) = -0.33180 0.68900
#
# Static dielectric constant tensor:
#      x y z
#    x 3.305550 0.000000 -0.037930 
#    y 0.000000 3.405990 0.000000 
#    z -0.037930 0.000000 3.017880 
# 
# 
# High freq. dielectric constant tensor:
#      x y z
#    x 1.638310 0.000000 -0.002220 
#    y 0.000000 1.670540 0.000000 
#    z -0.002220 0.000000 1.626260 
# 
# From -- ./inp_files/56484.got.cif
#   From: 2010.06.25/outbox.cif.g09.slc.cpg/sg11_29_cif.got.tgz:56484.got - 2010.06.27 23:14:04.
