data_PCOD8073118
_publ_section_title
;
Structure prediction by ZEFSAII (Michael W. Deem and Ramdas Pophale) SiO2 
 PCOD8073118
Probable space group: P 21/M
;
_chemical_formula_sum "Si O2"
_cell_formula_units_Z 24
_cell_length_a 18.198541
_cell_length_b 8.827700
_cell_length_c 24.597254
_cell_angle_alpha 90.000000
_cell_angle_beta 19.433987
_cell_angle_gamma 90.000000
_cell_volume 1314.771938
_symmetry_space_group_name_H-M "P 21/M"
_symmetry_group_IT_number 11
_symmetry_cell_setting 'monoclinic'
loop_
_space_group_symop_operation_xyz
x,y,z
-x,1/2+y,-z
-x,-y,-z
x,1/2-y,z
loop_
_atom_site_type_symbol
_atom_site_label
_atom_site_fract_x
_atom_site_fract_y
_atom_site_fract_z
Si Si1 0.897435 0.916914 0.844964
Si Si2 0.948284 0.069495 0.978220
Si Si3 0.260552 0.570024 0.670797
Si Si4 0.446495 0.925899 0.980558
Si Si5 0.760673 0.929262 0.663019
Si Si6 0.583704 0.579570 0.167336
O O1 0.905944 0.750000 0.812569
O O2 0.139309 0.966087 0.697670
O O3 0.744307 0.915297 0.004339
O O4 0.799654 0.029176 0.867855
O O5 0.951237 0.250000 0.978184
O O6 0.135071 0.011160 0.807194
O O7 0.704182 0.013514 0.130976
O O8 0.000000 0.000000 0.000000
O O9 0.500000 0.500000 0.500000
O O10 0.266040 0.750000 0.677705
O O11 0.451116 0.750000 0.986652
O O12 0.626449 0.977789 0.810589
O O13 0.500000 0.000000 0.000000
O O14 0.775694 0.750000 0.646702
O O15 0.642135 0.995648 0.692073
O O16 0.000000 0.000000 0.500000
O O17 0.529428 0.750000 0.225321
#
# Coordination Sequence:
#
# PCOD8073118 Si02
#       6
#     4   4   4   4   4   4
#     4   8  16  31  51  73 100 133 169 206 249 302
#     4  11  21  35  55  79 107 139 175 217 261 311
#     4  10  20  35  55  80 107 138 175 216 261 310
#     4  10  20  33  52  76 102 132 169 209 252 301
#     4  10  20  34  53  78 104 135 173 213 257 307
#     4   9  17  32  53  76 102 135 172 211 256 311
#
# _framework density 18.254117999999998
#
# number of rings (size 3 to 8) (size 9 to 14) (size 15 to 20)
#    0.000    2.333    0.000    4.500    0.000    6.667 
#    0.000    1.667    0.000    6.000    0.000    0.000 
#    0.000    0.000    0.000    0.000    0.000    0.000 
#
# Total GULP energy -297545.438895 kJ/mol
# GULP energy per Si atom -12397.726621 kJ/mol
# Density = 1.821257 g / cm^3
# Si number density = 18.254118 Si / 1000 Ang^3
#
#
#
# Elastic Constant Matrix: (Units=GPa)
#
#
# Indices 1 2 3 4 5 6 
#
# 1 155.8789 78.4064 61.7253 0.0000 -28.9367 0.0000
# 2 78.4064 129.7250 52.1128 0.0000 -14.3638 0.0000
# 3 61.7253 52.1128 89.2105 0.0000 -33.9617 0.0000
# 4 0.0000 0.0000 0.0000 30.3528 0.0000 -6.4359
# 5 -28.9367 -14.3638 -33.9617 0.0000 32.1123 0.0000
# 6 0.0000 0.0000 0.0000 -6.4359 0.0000 37.6377
#
#
#
# Elastic Compliance Matrix: (Units=1/GPa)
#
#
# Indices 1 2 3 4 5 6 
#
# 1 0.010881 -0.004888 -0.002968 0.000000 0.004480 0.000000
# 2 -0.004888 0.012429 -0.005757 0.000000 -0.004933 0.000000
# 3 -0.002968 -0.005757 0.024485 0.000000 0.020647 0.000000
# 4 0.000000 0.000000 0.000000 0.034185 0.000000 0.005846
# 5 0.004480 -0.004933 0.020647 0.000000 0.054806 0.000000
# 6 0.000000 0.000000 0.000000 0.005846 0.000000 0.027569
#
#
# Mechanical properties :
#
#
# Convention : Reuss Voigt Hill
#
# Bulk Modulus (GPa) = 48.61240 84.36703 66.48972
# Shear Modulus (GPa) = 25.19688 32.19189 28.69439
#
# Velocity S-wave (km/s) = 3.71932 4.20401 3.96907
# Velocity P-wave (km/s) = 6.71813 8.35963 7.58342
#
# Compressibility (1/GPa) = 0.02057088
#
# Stress axis : x y z
#
# Youngs Moduli (GPa) = 91.90610 80.45493 40.84072
#
# Poissons Ratio (x) = 0.39328 0.12120
# Poissons Ratio (y) = 0.44925 0.23510
# Poissons Ratio (z) = 0.27273 0.46314
#
# Static dielectric constant tensor:
#      x y z
#    x 3.556300 0.000000 -0.354790 
#    y 0.000000 3.670670 0.000000 
#    z -0.354790 0.000000 3.260230 
# 
# 
# High freq. dielectric constant tensor:
#      x y z
#    x 1.711490 0.000000 -0.028850 
#    y 0.000000 1.723590 0.000000 
#    z -0.028850 0.000000 1.680480 
# 
# From -- ./inp_files/28956.got.cif
#   From: 2010.06.25/outbox.cif.g09.slc.cpg/sg11_15_cif.got.tgz:28956.got - 2010.06.27 23:14:04.
