data_PCOD8073246
_publ_section_title
;
Structure prediction by ZEFSAII (Michael W. Deem and Ramdas Pophale) SiO2 
 PCOD8073246
Probable space group: P 21/M
;
_chemical_formula_sum "Si O2"
_cell_formula_units_Z 24
_cell_length_a 4.964295
_cell_length_b 23.326743
_cell_length_c 12.138969
_cell_angle_alpha 90.000000
_cell_angle_beta 116.306683
_cell_angle_gamma 90.000000
_cell_volume 1260.120767
_symmetry_space_group_name_H-M "P 21/M"
_symmetry_group_IT_number 11
_symmetry_cell_setting 'monoclinic'
loop_
_space_group_symop_operation_xyz
x,y,z
-x,1/2+y,-z
-x,-y,-z
x,1/2-y,z
loop_
_atom_site_type_symbol
_atom_site_label
_atom_site_fract_x
_atom_site_fract_y
_atom_site_fract_z
Si Si1 0.471199 0.184490 0.555394
Si Si2 0.345065 0.081036 0.928651
Si Si3 0.712392 0.400131 0.774142
Si Si4 0.793977 0.184435 0.393947
Si Si5 0.957087 0.985939 0.789610
Si Si6 0.439648 0.913119 0.796446
O O1 0.497941 0.250000 0.600429
O O2 0.525157 0.145056 0.670519
O O3 0.710935 0.169547 0.504737
O O4 0.145915 0.172627 0.444366
O O5 0.547151 0.086815 0.857745
O O6 0.050599 0.122533 0.862149
O O7 0.214214 0.015147 0.915888
O O8 0.537619 0.099855 0.069067
O O9 0.749033 0.460514 0.711062
O O10 0.708373 0.250000 0.351404
O O11 0.607159 0.145787 0.276209
O O12 0.145114 0.954114 0.726230
O O13 0.752041 0.940306 0.814882
#
# Coordination Sequence:
#
# PCOD8073246 Si02
#       6
#     4   4   4   4   4   4
#     4  10  21  42  62  75 103 151 192 226 271 327
#     4  10  20  33  57  84 115 141 177 216 275 326
#     4  10  20  35  56  84 111 138 184 232 262 319
#     4  10  23  40  59  79 105 146 192 227 265 327
#     4  10  20  33  55  87 112 145 183 212 275 332
#     4  12  20  35  57  84 112 152 176 219 276 329
#
# _framework density 19.045794000000001
#
# number of rings (size 3 to 8) (size 9 to 14) (size 15 to 20)
#    1.000    0.667    1.667    4.000    0.000    0.000 
#    0.000    6.667    0.000    0.000    0.000    0.000 
#    0.000    0.000    0.000    0.000    0.000    0.000 
#
# Total GULP energy -297386.992298 kJ/mol
# GULP energy per Si atom -12391.124679 kJ/mol
# Density = 1.900244 g / cm^3
# Si number density = 19.045794 Si / 1000 Ang^3
#
#
#
# Elastic Constant Matrix: (Units=GPa)
#
#
# Indices 1 2 3 4 5 6 
#
# 1 115.9626 34.4611 22.2365 0.0000 -1.4541 0.0000
# 2 34.4611 95.8682 61.4807 0.0000 0.0872 0.0000
# 3 22.2365 61.4807 67.1685 0.0000 -0.2368 0.0000
# 4 0.0000 0.0000 0.0000 20.2425 0.0000 0.3048
# 5 -1.4541 0.0872 -0.2368 0.0000 16.1957 0.0000
# 6 0.0000 0.0000 0.0000 0.3048 0.0000 23.6988
#
#
#
# Elastic Compliance Matrix: (Units=1/GPa)
#
#
# Indices 1 2 3 4 5 6 
#
# 1 0.009668 -0.003451 -0.000038 0.000000 0.000886 0.000000
# 2 -0.003451 0.026492 -0.023109 0.000000 -0.000790 0.000000
# 3 -0.000038 -0.023109 0.036055 0.000000 0.000648 0.000000
# 4 0.000000 0.000000 0.000000 0.049411 0.000000 -0.000635
# 5 0.000886 -0.000790 0.000648 0.000000 0.061838 0.000000
# 6 0.000000 0.000000 0.000000 -0.000635 0.000000 0.042204
#
#
# Mechanical properties :
#
#
# Convention : Reuss Voigt Hill
#
# Bulk Modulus (GPa) = 52.58325 57.26177 54.92251
# Shear Modulus (GPa) = 17.53124 22.74881 20.14003
#
# Velocity S-wave (km/s) = 3.03723 3.45980 3.25538
# Velocity P-wave (km/s) = 6.32206 6.78902 6.55970
#
# Compressibility (1/GPa) = 0.01901746
#
# Stress axis : x y z
#
# Youngs Moduli (GPa) = 103.43841 37.74658 27.73520
#
# Poissons Ratio (x) = 0.13028 0.00106
# Poissons Ratio (y) = 0.35701 0.64094
# Poissons Ratio (z) = 0.00395 0.87230
#
# Static dielectric constant tensor:
#      x y z
#    x 3.786670 0.000000 0.091710 
#    y 0.000000 3.396570 0.000000 
#    z 0.091710 0.000000 3.041130 
# 
# 
# High freq. dielectric constant tensor:
#      x y z
#    x 1.773300 0.000000 0.004230 
#    y 0.000000 1.721340 0.000000 
#    z 0.004230 0.000000 1.701400 
# 
# From -- ./inp_files/30115.got.cif
#   From: 2010.06.25/outbox.cif.g09.slc.cpg/sg11_16_cif.got.tgz:30115.got - 2010.06.27 23:14:04.
