data_PCOD8073671
_publ_section_title
;
Structure prediction by ZEFSAII (Michael W. Deem and Ramdas Pophale) SiO2 
 PCOD8073671
Probable space group: P 21/M
;
_chemical_formula_sum "Si O2"
_cell_formula_units_Z 32
_cell_length_a 12.128051
_cell_length_b 13.638381
_cell_length_c 14.811324
_cell_angle_alpha 90.000000
_cell_angle_beta 40.599843
_cell_angle_gamma 90.000000
_cell_volume 1594.324300
_symmetry_space_group_name_H-M "P 21/M"
_symmetry_group_IT_number 11
_symmetry_cell_setting 'monoclinic'
loop_
_space_group_symop_operation_xyz
x,y,z
-x,1/2+y,-z
-x,-y,-z
x,1/2-y,z
loop_
_atom_site_type_symbol
_atom_site_label
_atom_site_fract_x
_atom_site_fract_y
_atom_site_fract_z
Si Si1 0.627985 0.468394 0.664055
Si Si2 0.057822 0.865101 0.595496
Si Si3 0.756310 0.963179 0.119626
Si Si4 0.864635 0.864109 0.532004
Si Si5 0.910926 0.365735 0.771709
Si Si6 0.024269 0.634782 0.066236
Si Si7 0.414390 0.863991 0.121629
Si Si8 0.789297 0.865040 0.906906
O O1 0.757496 0.414674 0.514870
O O2 0.442417 0.468037 0.735182
O O3 0.685500 0.580156 0.645965
O O4 0.629214 0.413632 0.757564
O O5 0.079041 0.750000 0.597042
O O6 0.975128 0.889153 0.550721
O O7 0.935403 0.907809 0.750624
O O8 0.839174 0.892797 0.143471
O O9 0.798191 0.919047 0.996103
O O10 0.834448 0.072889 0.076633
O O11 0.821670 0.750000 0.552043
O O12 0.966969 0.907439 0.382403
O O13 0.921618 0.250000 0.757673
O O14 0.715967 0.400677 0.875097
O O15 0.969659 0.399556 0.833503
O O16 0.062131 0.750000 0.030599
O O17 0.384632 0.750000 0.158654
O O18 0.607521 0.884921 0.971295
O O19 0.814183 0.750000 0.908716
#
# Coordination Sequence:
#
# PCOD8073671 Si02
#       8
#     4   4   4   4   4   4   4   4
#     4  11  21  34  58  86 115 153 185 233 286 333
#     4  10  20  34  55  86 121 158 191 224 279 342
#     4  10  23  40  60  89 111 143 193 240 285 337
#     4  10  21  35  52  81 123 158 189 227 279 341
#     4   9  18  34  57  82 110 151 192 230 276 334
#     4  10  22  41  64  82 108 148 192 237 286 337
#     4   9  17  32  54  86 120 149 189 234 278 332
#     4   9  19  34  56  86 122 153 183 234 286 328
#
# _framework density 20.071199
#
# number of rings (size 3 to 8) (size 9 to 14) (size 15 to 20)
#    0.000    2.250    1.250    1.125    1.750    3.000 
#    0.000    5.625    0.000    0.000    0.000    0.000 
#    0.000    0.000    0.000    0.000    0.000    0.000 
#
# Total GULP energy -396797.692507 kJ/mol
# GULP energy per Si atom -12399.927891 kJ/mol
# Density = 2.002552 g / cm^3
# Si number density = 20.071199 Si / 1000 Ang^3
#
#
#
# Elastic Constant Matrix: (Units=GPa)
#
#
# Indices 1 2 3 4 5 6 
#
# 1 137.7864 37.9539 52.9533 0.0000 -22.4351 0.0000
# 2 37.9539 60.8390 47.0299 0.0000 -12.7006 0.0000
# 3 52.9533 47.0299 117.3434 0.0000 -26.4152 0.0000
# 4 0.0000 0.0000 0.0000 27.4439 0.0000 -7.9591
# 5 -22.4351 -12.7006 -26.4152 0.0000 31.4256 0.0000
# 6 0.0000 0.0000 0.0000 -7.9591 0.0000 12.6891
#
#
#
# Elastic Compliance Matrix: (Units=1/GPa)
#
#
# Indices 1 2 3 4 5 6 
#
# 1 0.009658 -0.003663 -0.002062 0.000000 0.003682 0.000000
# 2 -0.003663 0.025304 -0.008356 0.000000 0.000587 0.000000
# 3 -0.002062 -0.008356 0.014443 0.000000 0.007291 0.000000
# 4 0.000000 0.000000 0.000000 0.044540 0.000000 0.027937
# 5 0.003682 0.000587 0.007291 0.000000 0.040816 0.000000
# 6 0.000000 0.000000 0.000000 0.027937 0.000000 0.096332
#
#
# Mechanical properties :
#
#
# Convention : Reuss Voigt Hill
#
# Bulk Modulus (GPa) = 47.07336 65.76034 56.41685
# Shear Modulus (GPa) = 18.77325 26.18049 22.47687
#
# Velocity S-wave (km/s) = 3.06164 3.61554 3.35006
# Velocity P-wave (km/s) = 6.00019 7.08972 6.56759
#
# Compressibility (1/GPa) = 0.02124344
#
# Stress axis : x y z
#
# Youngs Moduli (GPa) = 103.53650 39.51892 69.23873
#
# Poissons Ratio (x) = 0.14476 0.14274
# Poissons Ratio (y) = 0.37926 0.57859
# Poissons Ratio (z) = 0.21345 0.33024
#
# Static dielectric constant tensor:
#      x y z
#    x 3.637690 0.000000 -0.102850 
#    y 0.000000 3.735320 0.000000 
#    z -0.102850 0.000000 3.743400 
# 
# 
# High freq. dielectric constant tensor:
#      x y z
#    x 1.763280 0.000000 -0.007120 
#    y 0.000000 1.804310 0.000000 
#    z -0.007120 0.000000 1.775240 
# 
# From -- ./inp_files/47621.got.cif
#   From: 2010.06.25/outbox.cif.g09.slc.cpg/sg11_24_cif.got.tgz:47621.got - 2010.06.27 23:14:04.
