data_PCOD8073713
_publ_section_title
;
Structure prediction by ZEFSAII (Michael W. Deem and Ramdas Pophale) SiO2 
 PCOD8073713
Probable space group: P 21/M
;
_chemical_formula_sum "Si O2"
_cell_formula_units_Z 28
_cell_length_a 11.877980
_cell_length_b 8.713209
_cell_length_c 13.818341
_cell_angle_alpha 90.000000
_cell_angle_beta 109.471232
_cell_angle_gamma 90.000000
_cell_volume 1348.342846
_symmetry_space_group_name_H-M "P 21/M"
_symmetry_group_IT_number 11
_symmetry_cell_setting 'monoclinic'
loop_
_space_group_symop_operation_xyz
x,y,z
-x,1/2+y,-z
-x,-y,-z
x,1/2-y,z
loop_
_atom_site_type_symbol
_atom_site_label
_atom_site_fract_x
_atom_site_fract_y
_atom_site_fract_z
Si Si1 0.245876 0.926567 0.728229
Si Si2 0.196372 0.928358 0.314145
Si Si3 0.125726 0.930309 0.504379
Si Si4 0.531509 0.929774 0.113637
Si Si5 0.126188 0.923726 0.020680
Si Si6 0.965467 0.419492 0.203972
Si Si7 0.663892 0.570731 0.808347
O O1 0.284635 0.750000 0.756342
O O2 0.234081 0.966025 0.610757
O O3 0.108914 0.956722 0.721427
O O4 0.334238 0.035067 0.813432
O O5 0.225061 0.750000 0.324730
O O6 0.173168 0.996248 0.414897
O O7 0.307838 0.009393 0.292026
O O8 0.074191 0.961006 0.218193
O O9 0.104047 0.750000 0.488592
O O10 0.000000 0.000000 0.500000
O O11 0.512382 0.750000 0.097442
O O12 0.450901 0.991315 0.178209
O O13 0.500000 0.000000 0.000000
O O14 0.137798 0.750000 0.066646
O O15 0.136795 0.921603 0.907775
O O16 0.225920 0.034645 0.090492
O O17 0.000000 0.000000 0.000000
O O18 0.025003 0.250000 0.225868
O O19 0.639142 0.750000 0.796357
#
# Coordination Sequence:
#
# PCOD8073713 Si02
#       7
#     4   4   4   4   4   4   4
#     4  10  21  40  64  92 127 167 213 263 316 373
#     4  11  22  36  58  91 128 164 207 258 314 374
#     4  10  21  37  62  95 131 169 211 262 317 375
#     4  12  26  46  70  96 126 164 213 263 316 381
#     4  11  21  33  53  86 123 158 200 251 311 377
#     4  10  20  34  56  85 122 163 202 249 312 375
#     4  12  25  42  63  88 123 168 214 262 321 377
#
# _framework density 20.766231999999999
#
# number of rings (size 3 to 8) (size 9 to 14) (size 15 to 20)
#    0.000    1.143    2.857    4.286    0.000    3.429 
#    0.000    0.714    0.000    0.000    0.000    0.000 
#    0.000    0.000    0.000    0.000    0.000    0.000 
#
# Total GULP energy -347100.243647 kJ/mol
# GULP energy per Si atom -12396.437273 kJ/mol
# Density = 2.071897 g / cm^3
# Si number density = 20.766232 Si / 1000 Ang^3
#
#
#
# Elastic Constant Matrix: (Units=GPa)
#
#
# Indices 1 2 3 4 5 6 
#
# 1 83.7664 40.3522 31.5263 0.0000 -18.2193 0.0000
# 2 40.3522 117.5131 35.0870 0.0000 -11.1746 0.0000
# 3 31.5263 35.0870 94.4935 0.0000 -16.3782 0.0000
# 4 0.0000 0.0000 0.0000 28.5909 0.0000 -0.3868
# 5 -18.2193 -11.1746 -16.3782 0.0000 35.4200 0.0000
# 6 0.0000 0.0000 0.0000 -0.3868 0.0000 35.6642
#
#
#
# Elastic Compliance Matrix: (Units=1/GPa)
#
#
# Indices 1 2 3 4 5 6 
#
# 1 0.016286 -0.004186 -0.002887 0.000000 0.005721 0.000000
# 2 -0.004186 0.010720 -0.002578 0.000000 0.000037 0.000000
# 3 -0.002887 -0.002578 0.013159 0.000000 0.003787 0.000000
# 4 0.000000 0.000000 0.000000 0.034981 0.000000 0.000379
# 5 0.005721 0.000037 0.003787 0.000000 0.032938 0.000000
# 6 0.000000 0.000000 0.000000 0.000379 0.000000 0.028043
#
#
# Mechanical properties :
#
#
# Convention : Reuss Voigt Hill
#
# Bulk Modulus (GPa) = 47.93141 56.63379 52.28260
# Shear Modulus (GPa) = 30.79109 32.52218 31.65663
#
# Velocity S-wave (km/s) = 3.85482 3.96170 3.90863
# Velocity P-wave (km/s) = 6.55320 6.94680 6.75287
#
# Compressibility (1/GPa) = 0.02086315
#
# Stress axis : x y z
#
# Youngs Moduli (GPa) = 61.40411 93.28141 75.99079
#
# Poissons Ratio (x) = 0.39048 0.21942
# Poissons Ratio (y) = 0.25704 0.19587
# Poissons Ratio (z) = 0.17730 0.24044
#
# Static dielectric constant tensor:
#      x y z
#    x 3.562330 0.000000 -0.527910 
#    y 0.000000 3.553890 0.000000 
#    z -0.527910 0.000000 4.071620 
# 
# 
# High freq. dielectric constant tensor:
#      x y z
#    x 1.801180 0.000000 -0.023310 
#    y 0.000000 1.810090 0.000000 
#    z -0.023310 0.000000 1.820840 
# 
# From -- ./inp_files/49026.got.cif
#   From: 2010.06.25/outbox.cif.g09.slc.cpg/sg11_25_cif.got.tgz:49026.got - 2010.06.27 23:14:04.
