data_PCOD8073299
_publ_section_title
;
Structure prediction by ZEFSAII (Michael W. Deem and Ramdas Pophale) SiO2 
 PCOD8073299
Probable space group: P 21/M
;
_chemical_formula_sum "Si O2"
_cell_formula_units_Z 32
_cell_length_a 11.210912
_cell_length_b 9.087508
_cell_length_c 20.946230
_cell_angle_alpha 90.000000
_cell_angle_beta 64.111014
_cell_angle_gamma 90.000000
_cell_volume 1919.823084
_symmetry_space_group_name_H-M "P 21/M"
_symmetry_group_IT_number 11
_symmetry_cell_setting 'monoclinic'
loop_
_space_group_symop_operation_xyz
x,y,z
-x,1/2+y,-z
-x,-y,-z
x,1/2-y,z
loop_
_atom_site_type_symbol
_atom_site_label
_atom_site_fract_x
_atom_site_fract_y
_atom_site_fract_z
Si Si1 0.471640 0.925261 0.439700
Si Si2 0.772885 0.413754 0.158844
Si Si3 0.296502 0.077408 0.706971
Si Si4 0.131031 0.576772 0.994212
Si Si5 0.042231 0.581386 0.397466
Si Si6 0.994019 0.922496 0.264092
Si Si7 0.208763 0.080299 0.459152
Si Si8 0.078445 0.082862 0.126144
O O1 0.472445 0.750000 0.447758
O O2 0.584744 0.980923 0.364660
O O3 0.500000 0.000000 0.500000
O O4 0.332422 0.977627 0.444830
O O5 0.722062 0.250000 0.184679
O O6 0.686954 0.518997 0.224360
O O7 0.756371 0.450435 0.086890
O O8 0.927453 0.428117 0.139074
O O9 0.302527 0.250000 0.709945
O O10 0.157822 0.023587 0.708862
O O11 0.104719 0.750000 0.009556
O O12 0.170405 0.503446 0.052896
O O13 0.000000 0.500000 0.000000
O O14 0.087777 0.750000 0.397023
O O15 0.041486 0.537428 0.323703
O O16 0.144351 0.472871 0.408013
O O17 0.894595 0.559874 0.459116
O O18 0.004101 0.750000 0.247745
O O19 0.090956 0.006564 0.192421
O O20 0.252463 0.250000 0.442267
O O21 0.128685 0.250000 0.119174
#
# Coordination Sequence:
#
# PCOD8073299 Si02
#       8
#     4   4   4   4   4   4   4   4
#     4  11  22  35  50  69  93 121 153 188 227 270
#     4   8  15  25  37  55  80 111 147 183 217 257
#     4   9  18  30  44  63  88 118 151 185 221 266
#     4   9  15  23  35  53  78 110 146 180 216 259
#     4   9  18  33  51  69  91 119 151 187 228 273
#     4   9  16  28  45  63  87 119 151 184 223 264
#     4  10  20  34  51  71  92 116 150 189 229 272
#     4   9  16  24  35  56  84 113 146 181 217 260
#
# _framework density 16.668202000000001
#
# number of rings (size 3 to 8) (size 9 to 14) (size 15 to 20)
#    0.000    2.750    0.000    3.000    0.000    7.500 
#    0.000    2.500    0.000    0.000    0.000    0.000 
#    0.000    1.000    0.000    3.250    0.000    5.000 
#
# Total GULP energy -396661.332688 kJ/mol
# GULP energy per Si atom -12395.666646 kJ/mol
# Density = 1.663026 g / cm^3
# Si number density = 16.668202 Si / 1000 Ang^3
#
#
#
# Elastic Constant Matrix: (Units=GPa)
#
#
# Indices 1 2 3 4 5 6 
#
# 1 45.1439 26.9835 39.1404 0.0000 9.7553 0.0000
# 2 26.9835 73.8784 55.2416 0.0000 11.0683 0.0000
# 3 39.1404 55.2416 139.1386 0.0000 27.8389 0.0000
# 4 0.0000 0.0000 0.0000 31.8853 0.0000 4.9545
# 5 9.7553 11.0683 27.8389 0.0000 21.6167 0.0000
# 6 0.0000 0.0000 0.0000 4.9545 0.0000 21.1773
#
#
#
# Elastic Compliance Matrix: (Units=1/GPa)
#
#
# Indices 1 2 3 4 5 6 
#
# 1 0.031865 -0.007019 -0.005414 0.000000 -0.003814 0.000000
# 2 -0.007019 0.020797 -0.006447 0.000000 0.000821 0.000000
# 3 -0.005414 -0.006447 0.013633 0.000000 -0.011813 0.000000
# 4 0.000000 0.000000 0.000000 0.032546 0.000000 -0.007614
# 5 -0.003814 0.000821 -0.011813 0.000000 0.062775 0.000000
# 6 0.000000 0.000000 0.000000 -0.007614 0.000000 0.049002
#
#
# Mechanical properties :
#
#
# Convention : Reuss Voigt Hill
#
# Bulk Modulus (GPa) = 35.04383 55.65463 45.34923
# Shear Modulus (GPa) = 19.38830 24.05557 21.72194
#
# Velocity S-wave (km/s) = 3.41426 3.80307 3.61390
# Velocity P-wave (km/s) = 6.05086 7.26269 6.68429
#
# Compressibility (1/GPa) = 0.02853570
#
# Stress axis : x y z
#
# Youngs Moduli (GPa) = 31.38254 48.08458 73.35031
#
# Poissons Ratio (x) = 0.33749 0.39712
# Poissons Ratio (y) = 0.22026 0.47287
# Poissons Ratio (z) = 0.16991 0.30999
#
# Static dielectric constant tensor:
#      x y z
#    x 2.756030 0.000000 0.208580 
#    y 0.000000 3.206550 0.000000 
#    z 0.208580 0.000000 3.699330 
# 
# 
# High freq. dielectric constant tensor:
#      x y z
#    x 1.583720 0.000000 0.025370 
#    y 0.000000 1.650850 0.000000 
#    z 0.025370 0.000000 1.652980 
# 
# From -- ./inp_files/42567.got.cif
#   From: 2010.06.25/outbox.cif.g09.slc.cpg/sg11_22_cif.got.tgz:42567.got - 2010.06.27 23:14:04.
