data_PCOD8073387
_publ_section_title
;
Structure prediction by ZEFSAII (Michael W. Deem and Ramdas Pophale) SiO2 
 PCOD8073387
Probable space group: P 21/M
;
_chemical_formula_sum "Si O2"
_cell_formula_units_Z 28
_cell_length_a 29.265812
_cell_length_b 9.134758
_cell_length_c 5.272801
_cell_angle_alpha 90.000000
_cell_angle_beta 109.362705
_cell_angle_gamma 90.000000
_cell_volume 1329.880685
_symmetry_space_group_name_H-M "P 21/M"
_symmetry_group_IT_number 11
_symmetry_cell_setting 'monoclinic'
loop_
_space_group_symop_operation_xyz
x,y,z
-x,1/2+y,-z
-x,-y,-z
x,1/2-y,z
loop_
_atom_site_type_symbol
_atom_site_label
_atom_site_fract_x
_atom_site_fract_y
_atom_site_fract_z
Si Si1 0.527035 0.407547 0.253413
Si Si2 0.648543 0.423649 0.113486
Si Si3 0.813571 0.074853 0.906373
Si Si4 0.978431 0.074814 0.710310
Si Si5 0.704306 0.423313 0.711843
Si Si6 0.865847 0.422170 0.502525
Si Si7 0.427228 0.408785 0.295818
O O1 0.545548 0.250000 0.183767
O O2 0.484464 0.379166 0.378129
O O3 0.575008 0.486353 0.459128
O O4 0.500000 0.500000 0.000000
O O5 0.641279 0.250000 0.103916
O O6 0.678683 0.476034 0.922044
O O7 0.596444 0.504888 0.988006
O O8 0.675489 0.482221 0.413131
O O9 0.814767 0.250000 0.909310
O O10 0.758780 0.014523 0.805961
O O11 0.840562 0.012034 0.707199
O O12 0.840788 0.011978 0.204686
O O13 0.988061 0.250000 0.728009
O O14 0.921931 0.037581 0.606416
O O15 0.000000 0.000000 0.500000
O O16 0.000000 0.000000 0.000000
O O17 0.706492 0.250000 0.704833
O O18 0.857922 0.250000 0.488100
O O19 0.401647 0.250000 0.288590
#
# Coordination Sequence:
#
# PCOD8073387 Si02
#       7
#     4   4   4   4   4   4   4
#     4  10  21  37  58  81 107 138 177 223 271 319
#     4  10  20  34  52  79 110 142 175 218 273 332
#     4   9  15  27  47  74 107 139 175 231 290 336
#     4  11  22  37  56  84 121 160 203 248 301 360
#     4   9  18  31  50  78 110 139 175 224 284 337
#     4   9  17  28  48  77 108 143 186 236 289 339
#     4  10  22  38  54  78 106 141 183 221 263 323
#
# _framework density 21.05452
#
# number of rings (size 3 to 8) (size 9 to 14) (size 15 to 20)
#    0.000    2.286    0.000    3.000    2.000    7.429 
#    0.000    0.000    0.000    0.000    0.000   20.000 
#    0.000    0.000    0.000    0.000    0.000    0.000 
#
# Total GULP energy -347008.377780 kJ/mol
# GULP energy per Si atom -12393.156349 kJ/mol
# Density = 2.100660 g / cm^3
# Si number density = 21.054520 Si / 1000 Ang^3
#
#
#
# Elastic Constant Matrix: (Units=GPa)
#
#
# Indices 1 2 3 4 5 6 
#
# 1 93.1227 -2.2742 43.9038 0.0000 2.3152 0.0000
# 2 -2.2742 86.5458 35.6282 0.0000 8.5298 0.0000
# 3 43.9038 35.6282 188.1077 0.0000 7.7899 0.0000
# 4 0.0000 0.0000 0.0000 22.3374 0.0000 1.9857
# 5 2.3152 8.5298 7.7899 0.0000 40.7045 0.0000
# 6 0.0000 0.0000 0.0000 1.9857 0.0000 17.9360
#
#
#
# Elastic Compliance Matrix: (Units=1/GPa)
#
#
# Indices 1 2 3 4 5 6 
#
# 1 0.012282 0.001669 -0.003164 0.000000 -0.000443 0.000000
# 2 0.001669 0.012955 -0.002749 0.000000 -0.002284 0.000000
# 3 -0.003164 -0.002749 0.006596 0.000000 -0.000506 0.000000
# 4 0.000000 0.000000 0.000000 0.045213 0.000000 -0.005006
# 5 -0.000443 -0.002284 -0.000506 0.000000 0.025168 0.000000
# 6 0.000000 0.000000 0.000000 -0.005006 0.000000 0.056308
#
#
# Mechanical properties :
#
#
# Convention : Reuss Voigt Hill
#
# Bulk Modulus (GPa) = 42.83501 58.03242 50.43372
# Shear Modulus (GPa) = 28.60536 35.56347 32.08442
#
# Velocity S-wave (km/s) = 3.68996 4.11434 3.90792
# Velocity P-wave (km/s) = 6.20833 7.08471 6.66095
#
# Compressibility (1/GPa) = 0.02334539
#
# Stress axis : x y z
#
# Youngs Moduli (GPa) = 81.41872 77.18981 151.60109
#
# Poissons Ratio (x) = -0.12884 0.47973
# Poissons Ratio (y) = -0.13589 0.41671
# Poissons Ratio (z) = 0.25764 0.21217
#
# Static dielectric constant tensor:
#      x y z
#    x 4.273520 0.000000 0.016010 
#    y 0.000000 5.884460 0.000000 
#    z 0.016010 0.000000 4.027240 
# 
# 
# High freq. dielectric constant tensor:
#      x y z
#    x 1.826710 0.000000 -0.002380 
#    y 0.000000 1.776790 0.000000 
#    z -0.002380 0.000000 1.843760 
# 
# From -- ./inp_files/9715.got.cif
#   From: 2010.06.25/outbox.cif.g09.slc.cpg/sg11_5_cif.got.tgz:9715.got - 2010.06.27 23:14:04.
