data_PCOD8073398
_publ_section_title
;
Structure prediction by ZEFSAII (Michael W. Deem and Ramdas Pophale) SiO2 
 PCOD8073398
Probable space group: P 21/M
;
_chemical_formula_sum "Si O2"
_cell_formula_units_Z 32
_cell_length_a 20.198514
_cell_length_b 8.700945
_cell_length_c 12.331711
_cell_angle_alpha 90.000000
_cell_angle_beta 123.881272
_cell_angle_gamma 90.000000
_cell_volume 1799.239838
_symmetry_space_group_name_H-M "P 21/M"
_symmetry_group_IT_number 11
_symmetry_cell_setting 'monoclinic'
loop_
_space_group_symop_operation_xyz
x,y,z
-x,1/2+y,-z
-x,-y,-z
x,1/2-y,z
loop_
_atom_site_type_symbol
_atom_site_label
_atom_site_fract_x
_atom_site_fract_y
_atom_site_fract_z
Si Si1 0.714133 0.573154 0.947238
Si Si2 0.608867 0.430872 0.187781
Si Si3 0.170062 0.430238 0.130620
Si Si4 0.781122 0.433170 0.398268
Si Si5 0.438131 0.428178 0.078197
Si Si6 0.875126 0.068640 0.693553
Si Si7 0.832839 0.069658 0.216241
Si Si8 0.048678 0.931714 0.855005
O O1 0.735403 0.750000 0.988935
O O2 0.754709 0.476666 0.078898
O O3 0.749107 0.526991 0.861706
O O4 0.618346 0.543619 0.867751
O O5 0.617428 0.250000 0.195504
O O6 0.690068 0.498647 0.314350
O O7 0.529584 0.483026 0.183300
O O8 0.600378 0.482464 0.056614
O O9 0.163723 0.250000 0.150338
O O10 0.175270 0.525786 0.246066
O O11 0.092287 0.480552 0.992409
O O12 0.780521 0.250000 0.398717
O O13 0.825819 0.493732 0.545536
O O14 0.827911 0.497081 0.334179
O O15 0.439088 0.250000 0.046472
O O16 0.890850 0.250000 0.702610
O O17 0.957489 0.978093 0.771042
O O18 0.832551 0.250000 0.225347
O O19 0.912000 0.015326 0.223843
O O20 0.057921 0.750000 0.882277
#
# Coordination Sequence:
#
# PCOD8073398 Si02
#       8
#     4   4   4   4   4   4   4   4
#     4   9  17  29  47  73 101 124 151 195 243 281
#     4   9  16  28  47  70  99 131 157 185 226 280
#     4  10  20  35  53  71  94 124 160 201 243 282
#     4   9  18  32  49  69  97 132 163 191 228 280
#     4   9  16  26  45  75 102 123 153 191 233 278
#     4  11  22  35  50  68  93 127 166 202 236 279
#     4   9  17  31  50  71  96 126 158 190 231 286
#     4  10  20  34  53  75  96 119 154 201 246 286
#
# _framework density 17.785288000000001
#
# number of rings (size 3 to 8) (size 9 to 14) (size 15 to 20)
#    0.000    2.500    1.250    1.500    0.000    1.500 
#    0.000    2.500    0.000    0.750    0.000    0.000 
#    0.000    0.000    0.000    0.000    0.000    0.500 
#
# Total GULP energy -396577.571549 kJ/mol
# GULP energy per Si atom -12393.049111 kJ/mol
# Density = 1.774481 g / cm^3
# Si number density = 17.785288 Si / 1000 Ang^3
#
#
#
# Elastic Constant Matrix: (Units=GPa)
#
#
# Indices 1 2 3 4 5 6 
#
# 1 128.1544 9.5393 42.4900 0.0000 -12.1687 0.0000
# 2 9.5393 10.6115 8.3144 0.0000 0.1433 0.0000
# 3 42.4900 8.3144 69.1345 0.0000 -22.5429 0.0000
# 4 0.0000 0.0000 0.0000 17.5353 0.0000 -1.3515
# 5 -12.1687 0.1433 -22.5429 0.0000 20.2659 0.0000
# 6 0.0000 0.0000 0.0000 -1.3515 0.0000 16.8407
#
#
#
# Elastic Compliance Matrix: (Units=1/GPa)
#
#
# Indices 1 2 3 4 5 6 
#
# 1 0.010001 -0.004518 -0.005704 0.000000 -0.000307 0.000000
# 2 -0.004518 0.113390 -0.018839 0.000000 -0.024470 0.000000
# 3 -0.005704 -0.018839 0.030069 0.000000 0.030155 0.000000
# 4 0.000000 0.000000 0.000000 0.057383 0.000000 0.004605
# 5 -0.000307 -0.024470 0.030155 0.000000 0.082876 0.000000
# 6 0.000000 0.000000 0.000000 0.004605 0.000000 0.059750
#
#
# Mechanical properties :
#
#
# Convention : Reuss Voigt Hill
#
# Bulk Modulus (GPa) = 10.48889 36.50974 23.49932
# Shear Modulus (GPa) = 11.27728 20.76548 16.02138
#
# Velocity S-wave (km/s) = 2.52082 3.42067 3.00463
# Velocity P-wave (km/s) = 3.79250 6.01448 5.02777
#
# Compressibility (1/GPa) = 0.09533896
#
# Stress axis : x y z
#
# Youngs Moduli (GPa) = 99.98750 8.81909 33.25735
#
# Poissons Ratio (x) = 0.03984 0.18969
# Poissons Ratio (y) = 0.45171 0.62654
# Poissons Ratio (z) = 0.57029 0.16615
#
# Static dielectric constant tensor:
#      x y z
#    x 3.837090 0.000000 -0.040530 
#    y 0.000000 3.174310 0.000000 
#    z -0.040530 0.000000 3.276220 
# 
# 
# High freq. dielectric constant tensor:
#      x y z
#    x 1.709220 0.000000 0.002000 
#    y 0.000000 1.677160 0.000000 
#    z 0.002000 0.000000 1.649360 
# 
# From -- ./inp_files/40620.got.cif
#   From: 2010.06.25/outbox.cif.g09.slc.cpg/sg11_21_cif.got.tgz:40620.got - 2010.06.27 23:14:04.
