data_PCOD8073789
_publ_section_title
;
Structure prediction by ZEFSAII (Michael W. Deem and Ramdas Pophale) SiO2 
 PCOD8073789
Probable space group: P 21/M
;
_chemical_formula_sum "Si O2"
_cell_formula_units_Z 24
_cell_length_a 15.554591
_cell_length_b 17.802412
_cell_length_c 9.625734
_cell_angle_alpha 90.000000
_cell_angle_beta 149.480607
_cell_angle_gamma 90.000000
_cell_volume 1353.597764
_symmetry_space_group_name_H-M "P 21/M"
_symmetry_group_IT_number 11
_symmetry_cell_setting 'monoclinic'
loop_
_space_group_symop_operation_xyz
x,y,z
-x,1/2+y,-z
-x,-y,-z
x,1/2-y,z
loop_
_atom_site_type_symbol
_atom_site_label
_atom_site_fract_x
_atom_site_fract_y
_atom_site_fract_z
Si Si1 0.153927 0.475469 0.308150
Si Si2 0.633058 0.835753 0.388261
Si Si3 0.536808 0.434585 0.367614
Si Si4 0.641343 0.414083 0.817473
Si Si5 0.675911 0.663915 0.129604
Si Si6 0.017049 0.061491 0.406773
O O1 0.214504 0.390900 0.351426
O O2 0.306788 0.532710 0.500341
O O3 0.097948 0.481070 0.388730
O O4 0.000000 0.500000 0.000000
O O5 0.685596 0.750000 0.495155
O O6 0.461390 0.856426 0.229370
O O7 0.600548 0.847099 0.179132
O O8 0.598280 0.397647 0.597032
O O9 0.399627 0.499471 0.204623
O O10 0.454604 0.370401 0.160884
O O11 0.839151 0.400422 0.119187
O O12 0.698628 0.750000 0.122114
O O13 0.860416 0.627327 0.371146
O O14 0.000000 0.000000 0.500000
#
# Coordination Sequence:
#
# PCOD8073789 Si02
#       6
#     4   4   4   4   4   4
#     4  10  20  36  58  82 113 147 185 231 279 333
#     4   9  21  37  56  80 113 148 185 229 282 335
#     4  10  20  36  56  83 114 145 185 229 276 338
#     4  10  20  34  58  87 110 142 186 230 278 332
#     4  10  22  39  56  79 114 152 186 227 283 337
#     4  11  21  34  58  88 112 143 187 237 279 327
#
# _framework density 17.730526000000001
#
# number of rings (size 3 to 8) (size 9 to 14) (size 15 to 20)
#    0.000    2.000    3.333    0.000    2.333    3.333 
#    0.000    0.833    0.000    0.000    0.000    0.000 
#    0.000    0.000    0.000    0.000    0.000    0.000 
#
# Total GULP energy -297661.916865 kJ/mol
# GULP energy per Si atom -12402.579869 kJ/mol
# Density = 1.769017 g / cm^3
# Si number density = 17.730526 Si / 1000 Ang^3
#
#
#
# Elastic Constant Matrix: (Units=GPa)
#
#
# Indices 1 2 3 4 5 6 
#
# 1 124.5023 65.4686 62.9514 0.0000 7.8259 0.0000
# 2 65.4686 129.1767 80.6947 0.0000 -6.6806 0.0000
# 3 62.9514 80.6947 146.6729 0.0000 5.0351 0.0000
# 4 0.0000 0.0000 0.0000 23.8926 0.0000 -1.9152
# 5 7.8259 -6.6806 5.0351 0.0000 26.5676 0.0000
# 6 0.0000 0.0000 0.0000 -1.9152 0.0000 25.5460
#
#
#
# Elastic Compliance Matrix: (Units=1/GPa)
#
#
# Indices 1 2 3 4 5 6 
#
# 1 0.012048 -0.004864 -0.002346 0.000000 -0.004327 0.000000
# 2 -0.004864 0.014249 -0.005963 0.000000 0.006146 0.000000
# 3 -0.002346 -0.005963 0.011206 0.000000 -0.002932 0.000000
# 4 0.000000 0.000000 0.000000 0.042107 0.000000 0.003157
# 5 -0.004327 0.006146 -0.002932 0.000000 0.041016 0.000000
# 6 0.000000 0.000000 0.000000 0.003157 0.000000 0.039382
#
#
# Mechanical properties :
#
#
# Convention : Reuss Voigt Hill
#
# Bulk Modulus (GPa) = 89.63080 90.95349 90.29214
# Shear Modulus (GPa) = 26.30558 27.95040 27.12799
#
# Velocity S-wave (km/s) = 3.85597 3.97470 3.91579
# Velocity P-wave (km/s) = 8.39560 8.51313 8.45457
#
# Compressibility (1/GPa) = 0.01115688
#
# Stress axis : x y z
#
# Youngs Moduli (GPa) = 82.99996 70.17875 89.23725
#
# Poissons Ratio (x) = 0.34137 0.20938
# Poissons Ratio (y) = 0.40374 0.53210
# Poissons Ratio (z) = 0.19474 0.41846
#
# Static dielectric constant tensor:
#      x y z
#    x 3.653610 0.000000 0.038250 
#    y 0.000000 3.133050 0.000000 
#    z 0.038250 0.000000 3.303370 
# 
# 
# High freq. dielectric constant tensor:
#      x y z
#    x 1.700680 0.000000 0.001050 
#    y 0.000000 1.672270 0.000000 
#    z 0.001050 0.000000 1.685830 
# 
# From -- ./inp_files/13127.got.cif
#   From: 2010.06.25/outbox.cif.g09.slc.cpg/sg11_7_cif.got.tgz:13127.got - 2010.06.27 23:14:04.
