data_PCOD8073288
_publ_section_title
;
Structure prediction by ZEFSAII (Michael W. Deem and Ramdas Pophale) SiO2 
 PCOD8073288
Probable space group: P 21/M
;
_chemical_formula_sum "Si O2"
_cell_formula_units_Z 32
_cell_length_a 21.892667
_cell_length_b 9.555357
_cell_length_c 28.251469
_cell_angle_alpha 90.000000
_cell_angle_beta 17.425221
_cell_angle_gamma 90.000000
_cell_volume 1769.809893
_symmetry_space_group_name_H-M "P 21/M"
_symmetry_group_IT_number 11
_symmetry_cell_setting 'monoclinic'
loop_
_space_group_symop_operation_xyz
x,y,z
-x,1/2+y,-z
-x,-y,-z
x,1/2-y,z
loop_
_atom_site_type_symbol
_atom_site_label
_atom_site_fract_x
_atom_site_fract_y
_atom_site_fract_z
Si Si1 0.554206 0.917311 0.724330
Si Si2 0.151541 0.412378 0.028836
Si Si3 0.267875 0.597750 0.198209
Si Si4 0.026741 0.585697 0.742464
Si Si5 0.135972 0.408792 0.933461
Si Si6 0.605235 0.084602 0.594576
Si Si7 0.688057 0.587677 0.922636
Si Si8 0.899643 0.901538 0.536808
O O1 0.541467 0.750000 0.724813
O O2 0.687710 0.954998 0.671819
O O3 0.337072 0.981742 0.897469
O O4 0.653184 0.993854 0.605706
O O5 0.223802 0.250000 0.981432
O O6 0.061132 0.432892 0.043017
O O7 0.987596 0.453726 0.190997
O O8 0.328189 0.750000 0.131586
O O9 0.243783 0.481559 0.176531
O O10 0.049984 0.611315 0.381977
O O11 0.443670 0.558718 0.107633
O O12 0.027841 0.750000 0.736641
O O13 0.824403 0.525619 0.865010
O O14 0.238006 0.532351 0.562378
O O15 0.099991 0.250000 0.944875
O O16 0.373285 0.448767 0.750669
O O17 0.000000 0.500000 0.000000
O O18 0.628701 0.250000 0.588715
O O19 0.739526 0.750000 0.880366
O O20 0.867894 0.750000 0.584335
O O21 0.000000 0.000000 0.500000
#
# Coordination Sequence:
#
# PCOD8073288 Si02
#       8
#     4   4   4   4   4   4   4   4
#     4  10  20  34  50  73 104 137 174 217 263 310
#     4   9  19  35  56  80 104 136 174 211 255 307
#     4   9  18  32  45  64  93 124 162 205 253 302
#     4   9  17  31  54  79 101 127 170 219 255 297
#     4   9  18  33  54  79 106 138 172 203 244 298
#     4   9  18  34  56  81 103 132 173 210 250 305
#     4   9  17  29  49  71  90 121 161 202 251 302
#     4  10  22  34  46  66  95 130 170 215 260 303
#
# _framework density 18.081037999999999
#
# number of rings (size 3 to 8) (size 9 to 14) (size 15 to 20)
#    0.000    2.750    0.000    1.875    1.750    3.500 
#    0.000    1.875    0.000    0.000    0.000    0.000 
#    0.000    0.000    0.000    0.000    0.000    0.000 
#
# Total GULP energy -396458.594804 kJ/mol
# GULP energy per Si atom -12389.331088 kJ/mol
# Density = 1.803989 g / cm^3
# Si number density = 18.081038 Si / 1000 Ang^3
#
#
#
# Elastic Constant Matrix: (Units=GPa)
#
#
# Indices 1 2 3 4 5 6 
#
# 1 121.0834 53.3727 48.0236 0.0000 -4.9859 0.0000
# 2 53.3727 68.0065 27.2703 0.0000 -7.1397 0.0000
# 3 48.0236 27.2703 69.8748 0.0000 10.4007 0.0000
# 4 0.0000 0.0000 0.0000 20.0594 0.0000 -4.0626
# 5 -4.9859 -7.1397 10.4007 0.0000 29.2900 0.0000
# 6 0.0000 0.0000 0.0000 -4.0626 0.0000 31.8916
#
#
#
# Elastic Compliance Matrix: (Units=1/GPa)
#
#
# Indices 1 2 3 4 5 6 
#
# 1 0.015142 -0.008520 -0.007556 0.000000 0.003184 0.000000
# 2 -0.008520 0.023718 -0.004271 0.000000 0.005848 0.000000
# 3 -0.007556 -0.004271 0.022718 0.000000 -0.010395 0.000000
# 4 0.000000 0.000000 0.000000 0.051172 0.000000 0.006519
# 5 0.003184 0.005848 -0.010395 0.000000 0.039800 0.000000
# 6 0.000000 0.000000 0.000000 0.006519 0.000000 0.032187
#
#
# Mechanical properties :
#
#
# Convention : Reuss Voigt Hill
#
# Bulk Modulus (GPa) = 47.88241 57.36645 52.62443
# Shear Modulus (GPa) = 21.51542 24.93475 23.22508
#
# Velocity S-wave (km/s) = 3.45330 3.71759 3.58788
# Velocity P-wave (km/s) = 6.51460 7.08686 6.80675
#
# Compressibility (1/GPa) = 0.02088450
#
# Stress axis : x y z
#
# Youngs Moduli (GPa) = 66.04149 42.16278 44.01710
#
# Poissons Ratio (x) = 0.35921 0.33258
# Poissons Ratio (y) = 0.56265 0.18801
# Poissons Ratio (z) = 0.49899 0.18009
#
# Static dielectric constant tensor:
#      x y z
#    x 3.295900 0.000000 0.098710 
#    y 0.000000 3.355460 0.000000 
#    z 0.098710 0.000000 3.592310 
# 
# 
# High freq. dielectric constant tensor:
#      x y z
#    x 1.687460 0.000000 0.000190 
#    y 0.000000 1.689900 0.000000 
#    z 0.000190 0.000000 1.695480 
# 
# From -- ./inp_files/72018.got.cif
#   From: 2010.06.25/outbox.cif.g09.slc.cpg/sg11_37_cif.got.tgz:72018.got - 2010.06.27 23:14:04.
