data_PCOD8073445
_publ_section_title
;
Structure prediction by ZEFSAII (Michael W. Deem and Ramdas Pophale) SiO2 
 PCOD8073445
Probable space group: P 21/M
;
_chemical_formula_sum "Si O2"
_cell_formula_units_Z 28
_cell_length_a 15.678380
_cell_length_b 8.786761
_cell_length_c 20.191221
_cell_angle_alpha 90.000000
_cell_angle_beta 32.012207
_cell_angle_gamma 90.000000
_cell_volume 1474.518854
_symmetry_space_group_name_H-M "P 21/M"
_symmetry_group_IT_number 11
_symmetry_cell_setting 'monoclinic'
loop_
_space_group_symop_operation_xyz
x,y,z
-x,1/2+y,-z
-x,-y,-z
x,1/2-y,z
loop_
_atom_site_type_symbol
_atom_site_label
_atom_site_fract_x
_atom_site_fract_y
_atom_site_fract_z
Si Si1 0.327717 0.927295 0.628954
Si Si2 0.171869 0.919546 0.078626
Si Si3 0.934733 0.923319 0.450092
Si Si4 0.529913 0.573971 0.051351
Si Si5 0.145963 0.081149 0.639122
Si Si6 0.051868 0.068518 0.895297
Si Si7 0.233750 0.423695 0.303956
O O1 0.346888 0.750000 0.632860
O O2 0.500000 0.000000 0.500000
O O3 0.230853 0.950000 0.624806
O O4 0.226443 0.004870 0.755957
O O5 0.240922 0.750000 0.021179
O O6 0.043592 0.917806 0.222138
O O7 0.085599 0.977982 0.067683
O O8 0.313927 0.025647 0.010115
O O9 0.999072 0.750000 0.408964
O O10 0.830375 0.956391 0.453487
O O11 0.815011 0.954559 0.588771
O O12 0.086542 0.035526 0.352411
O O13 0.544284 0.750000 0.028162
O O14 0.380670 0.535638 0.195944
O O15 0.500000 0.500000 0.000000
O O16 0.216334 0.250000 0.610507
O O17 0.067108 0.250000 0.890375
O O18 0.000000 0.000000 0.000000
O O19 0.284471 0.250000 0.257216
#
# Coordination Sequence:
#
# PCOD8073445 Si02
#       7
#     4   4   4   4   4   4   4
#     4  11  22  38  60  87 118 152 193 244 293 346
#     4   9  19  36  58  84 115 148 186 231 279 338
#     4   9  18  34  56  80 108 145 183 224 275 331
#     4  12  24  37  55  79 110 148 190 238 284 332
#     4   9  18  35  58  82 109 143 182 227 280 338
#     4  10  21  40  65  91 120 157 196 241 297 359
#     4  10  20  34  53  78 110 146 184 228 274 329
#
# _framework density 18.989243999999999
#
# number of rings (size 3 to 8) (size 9 to 14) (size 15 to 20)
#    0.000    2.000    0.000    5.143    0.000    5.143 
#    2.571    0.000    0.000    0.000    0.000    0.000 
#    0.000    0.000    0.000    0.000    0.000    0.000 
#
# Total GULP energy -347109.628768 kJ/mol
# GULP energy per Si atom -12396.772456 kJ/mol
# Density = 1.894602 g / cm^3
# Si number density = 18.989244 Si / 1000 Ang^3
#
#
#
# Elastic Constant Matrix: (Units=GPa)
#
#
# Indices 1 2 3 4 5 6 
#
# 1 102.6146 48.9072 60.6921 0.0000 8.5146 0.0000
# 2 48.9072 114.7943 55.8662 0.0000 -2.6267 0.0000
# 3 60.6921 55.8662 112.7795 0.0000 -1.0295 0.0000
# 4 0.0000 0.0000 0.0000 33.6474 0.0000 -1.2636
# 5 8.5146 -2.6267 -1.0295 0.0000 18.2992 0.0000
# 6 0.0000 0.0000 0.0000 -1.2636 0.0000 32.5371
#
#
#
# Elastic Compliance Matrix: (Units=1/GPa)
#
#
# Indices 1 2 3 4 5 6 
#
# 1 0.016420 -0.003760 -0.007052 0.000000 -0.008577 0.000000
# 2 -0.003760 0.012372 -0.004075 0.000000 0.003296 0.000000
# 3 -0.007052 -0.004075 0.014713 0.000000 0.003524 0.000000
# 4 0.000000 0.000000 0.000000 0.029763 0.000000 0.001156
# 5 -0.008577 0.003296 0.003524 0.000000 0.059309 0.000000
# 6 0.000000 0.000000 0.000000 0.001156 0.000000 0.030779
#
#
# Mechanical properties :
#
#
# Convention : Reuss Voigt Hill
#
# Bulk Modulus (GPa) = 72.83135 73.45771 73.14453
# Shear Modulus (GPa) = 25.29003 27.87828 26.58415
#
# Velocity S-wave (km/s) = 3.65335 3.83575 3.74566
# Velocity P-wave (km/s) = 7.49888 7.64102 7.57028
#
# Compressibility (1/GPa) = 0.01373035
#
# Stress axis : x y z
#
# Youngs Moduli (GPa) = 60.90188 80.83027 67.96844
#
# Poissons Ratio (x) = 0.30390 0.47933
# Poissons Ratio (y) = 0.22898 0.27697
# Poissons Ratio (z) = 0.42949 0.32938
#
# Static dielectric constant tensor:
#      x y z
#    x 3.466120 0.000000 0.108800 
#    y 0.000000 3.592380 0.000000 
#    z 0.108800 0.000000 3.554550 
# 
# 
# High freq. dielectric constant tensor:
#      x y z
#    x 1.735800 0.000000 0.008330 
#    y 0.000000 1.741100 0.000000 
#    z 0.008330 0.000000 1.736560 
# 
# From -- ./inp_files/65349.got.cif
#   From: 2010.06.25/outbox.cif.g09.slc.cpg/sg11_33_cif.got.tgz:65349.got - 2010.06.27 23:14:04.
