data_PCOD8073493
_publ_section_title
;
Structure prediction by ZEFSAII (Michael W. Deem and Ramdas Pophale) SiO2 
 PCOD8073493
Probable space group: P 21/M
;
_chemical_formula_sum "Si O2"
_cell_formula_units_Z 32
_cell_length_a 24.705874
_cell_length_b 9.264692
_cell_length_c 8.908026
_cell_angle_alpha 90.000000
_cell_angle_beta 57.258872
_cell_angle_gamma 90.000000
_cell_volume 1715.031394
_symmetry_space_group_name_H-M "P 21/M"
_symmetry_group_IT_number 11
_symmetry_cell_setting 'monoclinic'
loop_
_space_group_symop_operation_xyz
x,y,z
-x,1/2+y,-z
-x,-y,-z
x,1/2-y,z
loop_
_atom_site_type_symbol
_atom_site_label
_atom_site_fract_x
_atom_site_fract_y
_atom_site_fract_z
Si Si1 0.559114 0.090032 0.232403
Si Si2 0.058742 0.083577 0.984730
Si Si3 0.301134 0.578665 0.631530
Si Si4 0.440886 0.590032 0.409744
Si Si5 0.173434 0.918688 0.315729
Si Si6 0.301134 0.578665 0.965068
Si Si7 0.826566 0.081312 0.336032
Si Si8 0.941258 0.916423 0.660956
O O1 0.552644 0.250000 0.174540
O O2 0.554831 0.094742 0.417754
O O3 0.500000 1.000000 0.251831
O O4 0.628897 0.021062 0.083625
O O5 0.056915 0.250000 0.936069
O O6 0.124889 0.012504 0.833655
O O7 0.052643 0.069827 0.171036
O O8 0.000000 0.000000 0.000000
O O9 0.306707 0.750000 0.631587
O O10 0.371103 0.521062 0.470317
O O11 0.245348 0.531244 0.600674
O O12 0.284901 0.518492 0.822648
O O13 0.447356 0.750000 0.332471
O O14 0.162665 0.750000 0.295118
O O15 0.245348 0.968756 0.163281
O O16 0.162185 0.950871 0.506723
O O17 0.124889 0.012504 0.291677
O O18 0.306708 0.750000 0.948290
O O19 0.837334 0.250000 0.283115
O O20 0.943085 0.750000 0.606814
O O21 0.000000 0.000000 0.500000
#
# Coordination Sequence:
#
# PCOD8073493 Si02
#       8
#     4   4   4   4   4   4   4   4
#     4   8  13  22  38  61  88 119 157 201 248 295
#     4  11  24  40  58  81 107 135 168 204 245 295
#     4   8  14  26  45  68  95 128 164 203 250 301
#     4   8  13  22  38  61  88 119 157 201 248 295
#     4  10  20  34  54  79 104 133 171 211 252 299
#     4   8  14  26  45  68  95 128 164 203 250 301
#     4  10  20  34  54  79 104 133 171 211 252 299
#     4  11  24  40  58  81 107 135 168 204 245 295
#
# _framework density 18.658550000000002
#
# number of rings (size 3 to 8) (size 9 to 14) (size 15 to 20)
#    0.000    2.750    0.000    3.750    0.000    6.500 
#    0.000    1.250    0.000    5.250    0.000    0.000 
#    0.000    0.000    0.000    0.000    0.000    0.000 
#
# Total GULP energy -396641.335945 kJ/mol
# GULP energy per Si atom -12395.041748 kJ/mol
# Density = 1.861608 g / cm^3
# Si number density = 18.658550 Si / 1000 Ang^3
#
#
#
# Elastic Constant Matrix: (Units=GPa)
#
#
# Indices 1 2 3 4 5 6 
#
# 1 123.6343 55.0290 42.6108 0.0000 -28.9196 0.0000
# 2 55.0290 80.5154 42.3240 0.0000 -13.0897 0.0000
# 3 42.6108 42.3240 74.3999 0.0000 -21.8054 0.0000
# 4 0.0000 0.0000 0.0000 22.4266 0.0000 -5.9881
# 5 -28.9196 -13.0897 -21.8054 0.0000 33.8064 0.0000
# 6 0.0000 0.0000 0.0000 -5.9881 0.0000 28.2386
#
#
#
# Elastic Compliance Matrix: (Units=1/GPa)
#
#
# Indices 1 2 3 4 5 6 
#
# 1 0.013694 -0.007373 -0.001297 0.000000 0.008023 0.000000
# 2 -0.007373 0.021694 -0.009254 0.000000 -0.003877 0.000000
# 3 -0.001297 -0.009254 0.022286 0.000000 0.009682 0.000000
# 4 0.000000 0.000000 0.000000 0.047266 0.000000 0.010023
# 5 0.008023 -0.003877 0.009682 0.000000 0.041187 0.000000
# 6 0.000000 0.000000 0.000000 0.010023 0.000000 0.037538
#
#
# Mechanical properties :
#
#
# Convention : Reuss Voigt Hill
#
# Bulk Modulus (GPa) = 45.82058 62.05303 53.93681
# Shear Modulus (GPa) = 22.04704 26.13336 24.09020
#
# Velocity S-wave (km/s) = 3.44118 3.74653 3.59710
# Velocity P-wave (km/s) = 6.35607 7.21420 6.79869
#
# Compressibility (1/GPa) = 0.02182425
#
# Stress axis : x y z
#
# Youngs Moduli (GPa) = 73.02609 46.09675 44.87157
#
# Poissons Ratio (x) = 0.33987 0.05820
# Poissons Ratio (y) = 0.53842 0.41526
# Poissons Ratio (z) = 0.09473 0.42659
#
# Static dielectric constant tensor:
#      x y z
#    x 3.728940 0.000000 -0.342400 
#    y 0.000000 3.332550 0.000000 
#    z -0.342400 0.000000 3.396600 
# 
# 
# High freq. dielectric constant tensor:
#      x y z
#    x 1.733790 0.000000 -0.023000 
#    y 0.000000 1.692420 0.000000 
#    z -0.023000 0.000000 1.711470 
# 
# From -- ./inp_files/27386.got.cif
#   From: 2010.06.25/outbox.cif.g09.slc.cpg/sg11_14_cif.got.tgz:27386.got - 2010.06.27 23:14:04.
