data_PCOD8073426
_publ_section_title
;
Structure prediction by ZEFSAII (Michael W. Deem and Ramdas Pophale) SiO2 
 PCOD8073426
Probable space group: P 21/M
;
_chemical_formula_sum "Si O2"
_cell_formula_units_Z 28
_cell_length_a 25.555962
_cell_length_b 8.839620
_cell_length_c 9.478247
_cell_angle_alpha 90.000000
_cell_angle_beta 136.433395
_cell_angle_gamma 90.000000
_cell_volume 1475.697851
_symmetry_space_group_name_H-M "P 21/M"
_symmetry_group_IT_number 11
_symmetry_cell_setting 'monoclinic'
loop_
_space_group_symop_operation_xyz
x,y,z
-x,1/2+y,-z
-x,-y,-z
x,1/2-y,z
loop_
_atom_site_type_symbol
_atom_site_label
_atom_site_fract_x
_atom_site_fract_y
_atom_site_fract_z
Si Si1 0.702649 0.074429 0.049197
Si Si2 0.421832 0.076192 0.017770
Si Si3 0.592512 0.425659 0.303177
Si Si4 0.123368 0.071827 0.892057
Si Si5 0.276886 0.574775 0.232032
Si Si6 0.986372 0.429812 0.820823
Si Si7 0.142404 0.428848 0.610048
O O1 0.719040 0.250000 0.110100
O O2 0.622995 0.027149 0.960231
O O3 0.770941 0.977136 0.249662
O O4 0.695268 0.037883 0.870244
O O5 0.399641 0.250000 0.998045
O O6 0.398776 0.029752 0.815556
O O7 0.511132 0.048364 0.217900
O O8 0.601923 0.250000 0.278729
O O9 0.657160 0.481671 0.535897
O O10 0.128241 0.250000 0.903051
O O11 0.051704 0.013385 0.841127
O O12 0.117365 0.014908 0.717962
O O13 0.198901 0.010384 0.114785
O O14 0.260287 0.750000 0.221299
O O15 0.985034 0.250000 0.831437
O O16 0.907239 0.488152 0.604558
O O17 0.000000 0.500000 0.000000
O O18 0.133577 0.250000 0.575667
#
# Coordination Sequence:
#
# PCOD8073426 Si02
#       7
#     4   4   4   4   4   4   4
#     4  10  20  35  55  80 108 138 174 217 266 319
#     4  10  20  34  53  77 106 142 181 220 265 317
#     4   9  19  36  54  75 106 142 180 222 267 315
#     4   9  20  37  57  80 107 138 174 217 265 317
#     4   9  19  35  56  80 105 136 176 219 264 316
#     4  11  23  38  55  80 112 144 178 218 264 313
#     4  10  20  37  59  81 105 137 177 220 266 316
#
# _framework density 18.974074000000002
#
# number of rings (size 3 to 8) (size 9 to 14) (size 15 to 20)
#    0.000    2.286    0.000    2.143    0.000    5.143 
#    0.000    2.857    0.000    0.000    0.000    0.000 
#    0.000    0.000    0.000    0.000    0.000    0.000 
#
# Total GULP energy -347291.029145 kJ/mol
# GULP energy per Si atom -12403.251041 kJ/mol
# Density = 1.893089 g / cm^3
# Si number density = 18.974074 Si / 1000 Ang^3
#
#
#
# Elastic Constant Matrix: (Units=GPa)
#
#
# Indices 1 2 3 4 5 6 
#
# 1 42.1360 17.3829 3.2467 0.0000 3.5683 0.0000
# 2 17.3829 47.6465 23.1705 0.0000 -0.6174 0.0000
# 3 3.2467 23.1705 117.9999 0.0000 4.3578 0.0000
# 4 0.0000 0.0000 0.0000 31.5135 0.0000 2.5407
# 5 3.5683 -0.6174 4.3578 0.0000 17.5756 0.0000
# 6 0.0000 0.0000 0.0000 2.5407 0.0000 34.0823
#
#
#
# Elastic Compliance Matrix: (Units=1/GPa)
#
#
# Indices 1 2 3 4 5 6 
#
# 1 0.028894 -0.011456 0.001701 0.000000 -0.006690 0.000000
# 2 -0.011456 0.027813 -0.005317 0.000000 0.004621 0.000000
# 3 0.001701 -0.005317 0.009579 0.000000 -0.002907 0.000000
# 4 0.000000 0.000000 0.000000 0.031924 0.000000 -0.002380
# 5 -0.006690 0.004621 -0.002907 0.000000 0.059139 0.000000
# 6 0.000000 0.000000 0.000000 -0.002380 0.000000 0.029518
#
#
# Mechanical properties :
#
#
# Convention : Reuss Voigt Hill
#
# Bulk Modulus (GPa) = 27.66696 32.82027 30.24361
# Shear Modulus (GPa) = 21.82869 27.56645 24.69757
#
# Velocity S-wave (km/s) = 3.39551 3.81576 3.61175
# Velocity P-wave (km/s) = 5.47592 6.06204 5.77642
#
# Compressibility (1/GPa) = 0.03614420
#
# Stress axis : x y z
#
# Youngs Moduli (GPa) = 34.60928 35.95493 104.39360
#
# Poissons Ratio (x) = 0.41188 -0.17762
# Poissons Ratio (y) = 0.39647 0.55503
# Poissons Ratio (z) = -0.05889 0.19116
#
# Static dielectric constant tensor:
#      x y z
#    x 3.546110 0.000000 0.066470 
#    y 0.000000 3.437990 0.000000 
#    z 0.066470 0.000000 3.515950 
# 
# 
# High freq. dielectric constant tensor:
#      x y z
#    x 1.736760 0.000000 0.007210 
#    y 0.000000 1.740310 0.000000 
#    z 0.007210 0.000000 1.739570 
# 
# From -- ./inp_files/28529.got.cif
#   From: 2010.06.25/outbox.cif.g09.slc.cpg/sg11_15_cif.got.tgz:28529.got - 2010.06.27 23:14:04.
