data_PCOD8073513
_publ_section_title
;
Structure prediction by ZEFSAII (Michael W. Deem and Ramdas Pophale) SiO2 
 PCOD8073513
Probable space group: P 21/M
;
_chemical_formula_sum "Si O2"
_cell_formula_units_Z 20
_cell_length_a 22.475148
_cell_length_b 9.014133
_cell_length_c 15.673627
_cell_angle_alpha 90.000000
_cell_angle_beta 160.011113
_cell_angle_gamma 90.000000
_cell_volume 1085.465963
_symmetry_space_group_name_H-M "P 21/M"
_symmetry_group_IT_number 11
_symmetry_cell_setting 'monoclinic'
loop_
_space_group_symop_operation_xyz
x,y,z
-x,1/2+y,-z
-x,-y,-z
x,1/2-y,z
loop_
_atom_site_type_symbol
_atom_site_label
_atom_site_fract_x
_atom_site_fract_y
_atom_site_fract_z
Si Si1 0.615384 0.577648 0.911347
Si Si2 0.153271 0.578684 0.657301
Si Si3 0.928154 0.078468 0.026975
Si Si4 0.926327 0.582039 0.199233
Si Si5 0.729423 0.577584 0.616189
O O1 0.589574 0.750000 0.895033
O O2 0.437360 0.510306 0.638995
O O3 0.667545 0.499983 0.071866
O O4 0.763078 0.547553 0.040050
O O5 0.159977 0.750000 0.693179
O O6 0.000000 0.500000 0.500000
O O7 0.108827 0.562038 0.496826
O O8 0.877522 0.250000 0.949519
O O9 0.786057 0.982580 0.784867
O O10 0.119579 0.046758 0.248652
O O11 0.924093 0.033722 0.119864
O O12 0.913904 0.750000 0.147185
O O13 0.684390 0.750000 0.564246
#
# Coordination Sequence:
#
# PCOD8073513 Si02
#       5
#     4   4   4   4   4
#     4  10  20  34  54  80 106 135 173 213 255 303
#     4   9  17  31  51  76 106 138 171 208 254 304
#     4  10  21  36  55  77 101 134 174 212 256 309
#     4   9  19  34  53  78 106 135 169 210 254 302
#     4  10  21  37  55  75 102 136 172 212 259 308
#
# _framework density 18.425267000000002
#
# number of rings (size 3 to 8) (size 9 to 14) (size 15 to 20)
#    0.000    2.400    0.000    3.600    0.000    8.000 
#    0.000    1.000    0.000    0.000    0.000    0.000 
#    0.000    0.000    0.000    0.000    0.000    0.000 
#
# Total GULP energy -247977.820239 kJ/mol
# GULP energy per Si atom -12398.891012 kJ/mol
# Density = 1.838333 g / cm^3
# Si number density = 18.425267 Si / 1000 Ang^3
#
#
#
# Elastic Constant Matrix: (Units=GPa)
#
#
# Indices 1 2 3 4 5 6 
#
# 1 398.9759 163.2757 -14.2524 0.0000 -116.6410 0.0000
# 2 163.2757 172.5643 53.7755 0.0000 -48.6805 0.0000
# 3 -14.2524 53.7755 141.7654 0.0000 -6.0657 0.0000
# 4 0.0000 0.0000 0.0000 40.3912 0.0000 -6.2578
# 5 -116.6410 -48.6805 -6.0657 0.0000 47.7442 0.0000
# 6 0.0000 0.0000 0.0000 -6.2578 0.0000 27.3625
#
#
#
# Elastic Compliance Matrix: (Units=1/GPa)
#
#
# Indices 1 2 3 4 5 6 
#
# 1 0.012411 -0.006290 0.004682 0.000000 0.024502 0.000000
# 2 -0.006290 0.012545 -0.005531 0.000000 -0.003278 0.000000
# 3 0.004682 -0.005531 0.009925 0.000000 0.007059 0.000000
# 4 0.000000 0.000000 0.000000 0.025667 0.000000 0.005870
# 5 0.024502 -0.003278 0.007059 0.000000 0.078359 0.000000
# 6 0.000000 0.000000 0.000000 0.005870 0.000000 0.037889
#
#
# Mechanical properties :
#
#
# Convention : Reuss Voigt Hill
#
# Bulk Modulus (GPa) = 48.53775 124.32257 86.43016
# Shear Modulus (GPa) = 25.25996 57.13334 41.19665
#
# Velocity S-wave (km/s) = 3.70664 5.57454 4.73364
# Velocity P-wave (km/s) = 6.68724 10.44291 8.76851
#
# Compressibility (1/GPa) = 0.02060252
#
# Stress axis : x y z
#
# Youngs Moduli (GPa) = 80.57487 79.71126 100.75711
#
# Poissons Ratio (x) = 0.50137 -0.47174
# Poissons Ratio (y) = 0.50680 0.55732
# Poissons Ratio (z) = -0.37725 0.44091
#
# Static dielectric constant tensor:
#      x y z
#    x 3.213560 0.000000 -0.281760 
#    y 0.000000 3.693860 0.000000 
#    z -0.281760 0.000000 3.558960 
# 
# 
# High freq. dielectric constant tensor:
#      x y z
#    x 1.689530 0.000000 -0.023180 
#    y 0.000000 1.732240 0.000000 
#    z -0.023180 0.000000 1.719850 
# 
# From -- ./inp_files/15911.got.cif
#   From: 2010.06.25/outbox.cif.g09.slc.cpg/sg11_8_cif.got.tgz:15911.got - 2010.06.27 23:14:04.
