data_PCOD8073793
_publ_section_title
;
Structure prediction by ZEFSAII (Michael W. Deem and Ramdas Pophale) SiO2 
 PCOD8073793
Probable space group: P 21/M
;
_chemical_formula_sum "Si O2"
_cell_formula_units_Z 28
_cell_length_a 11.603162
_cell_length_b 9.004599
_cell_length_c 15.203642
_cell_angle_alpha 90.000000
_cell_angle_beta 116.928909
_cell_angle_gamma 90.000000
_cell_volume 1416.261320
_symmetry_space_group_name_H-M "P 21/M"
_symmetry_group_IT_number 11
_symmetry_cell_setting 'monoclinic'
loop_
_space_group_symop_operation_xyz
x,y,z
-x,1/2+y,-z
-x,-y,-z
x,1/2-y,z
loop_
_atom_site_type_symbol
_atom_site_label
_atom_site_fract_x
_atom_site_fract_y
_atom_site_fract_z
Si Si1 0.543213 0.421363 0.603609
Si Si2 0.392119 0.926645 0.707137
Si Si3 0.166559 0.917967 0.338373
Si Si4 0.953712 0.577376 0.853141
Si Si5 0.133064 0.576230 0.522939
Si Si6 0.519454 0.073546 0.912781
Si Si7 0.804980 0.422254 0.950412
O O1 0.500000 0.500000 0.500000
O O2 0.496821 0.250000 0.587368
O O3 0.488962 0.506223 0.669004
O O4 0.697138 0.430948 0.663550
O O5 0.412974 0.750000 0.718876
O O6 0.245195 0.967708 0.630291
O O7 0.417708 0.001410 0.810169
O O8 0.116393 0.750000 0.321665
O O9 0.178925 0.977198 0.442290
O O10 0.060020 0.012976 0.249519
O O11 0.929747 0.750000 0.840706
O O12 0.842778 0.511190 0.876835
O O13 0.096588 0.536954 0.936849
O O14 0.109226 0.750000 0.516735
O O15 0.000000 0.500000 0.500000
O O16 0.498241 0.250000 0.910848
O O17 0.662683 0.031919 0.930487
O O18 0.500000 0.000000 0.000000
O O19 0.814088 0.250000 0.929153
#
# Coordination Sequence:
#
# PCOD8073793 Si02
#       7
#     4   4   4   4   4   4   4
#     4  11  21  36  60  89 122 157 197 243 298 358
#     4  11  23  42  63  89 124 157 196 251 306 356
#     4  10  21  38  56  82 120 156 188 234 295 348
#     4  10  20  34  58  89 115 147 192 238 289 349
#     4  10  23  42  60  82 116 157 197 241 291 349
#     4  11  24  42  63  88 118 158 204 250 301 356
#     4   9  20  39  58  81 118 154 188 238 299 349
#
# _framework density 19.770361999999999
#
# number of rings (size 3 to 8) (size 9 to 14) (size 15 to 20)
#    0.000    1.714    1.429    2.571    0.000    9.143 
#    0.000    4.286    0.000    0.000    0.000    0.000 
#    0.000    0.000    0.000    0.000    0.000    0.000 
#
# Total GULP energy -347284.053334 kJ/mol
# GULP energy per Si atom -12403.001905 kJ/mol
# Density = 1.972536 g / cm^3
# Si number density = 19.770362 Si / 1000 Ang^3
#
#
#
# Elastic Constant Matrix: (Units=GPa)
#
#
# Indices 1 2 3 4 5 6 
#
# 1 104.6514 50.1170 58.3477 0.0000 6.2834 0.0000
# 2 50.1170 85.8672 69.4474 0.0000 1.2280 0.0000
# 3 58.3477 69.4474 173.5813 0.0000 -1.1213 0.0000
# 4 0.0000 0.0000 0.0000 41.7559 0.0000 -1.9385
# 5 6.2834 1.2280 -1.1213 0.0000 27.1069 0.0000
# 6 0.0000 0.0000 0.0000 -1.9385 0.0000 33.3205
#
#
#
# Elastic Compliance Matrix: (Units=1/GPa)
#
#
# Indices 1 2 3 4 5 6 
#
# 1 0.014002 -0.006366 -0.002179 0.000000 -0.003048 0.000000
# 2 -0.006366 0.020142 -0.005917 0.000000 0.000319 0.000000
# 3 -0.002179 -0.005917 0.008868 0.000000 0.001140 0.000000
# 4 0.000000 0.000000 0.000000 0.024014 0.000000 0.001397
# 5 -0.003048 0.000319 0.001140 0.000000 0.037630 0.000000
# 6 0.000000 0.000000 0.000000 0.001397 0.000000 0.030093
#
#
# Mechanical properties :
#
#
# Convention : Reuss Voigt Hill
#
# Bulk Modulus (GPa) = 70.98187 79.99155 75.48671
# Shear Modulus (GPa) = 29.69646 32.84918 31.27282
#
# Velocity S-wave (km/s) = 3.87986 4.08062 3.98150
# Velocity P-wave (km/s) = 7.48680 7.92150 7.70721
#
# Compressibility (1/GPa) = 0.01408810
#
# Stress axis : x y z
#
# Youngs Moduli (GPa) = 71.41607 49.64668 112.76417
#
# Poissons Ratio (x) = 0.31607 0.24575
# Poissons Ratio (y) = 0.45467 0.66718
# Poissons Ratio (z) = 0.15564 0.29374
#
# Static dielectric constant tensor:
#      x y z
#    x 3.454340 0.000000 0.223550 
#    y 0.000000 3.502880 0.000000 
#    z 0.223550 0.000000 3.493190 
# 
# 
# High freq. dielectric constant tensor:
#      x y z
#    x 1.760830 0.000000 0.004620 
#    y 0.000000 1.775530 0.000000 
#    z 0.004620 0.000000 1.787920 
# 
# From -- ./inp_files/37651.got.cif
#   From: 2010.06.25/outbox.cif.g09.slc.cpg/sg11_19_cif.got.tgz:37651.got - 2010.06.27 23:14:04.
