data_PCOD8073449
_publ_section_title
;
Structure prediction by ZEFSAII (Michael W. Deem and Ramdas Pophale) SiO2 
 PCOD8073449
Probable space group: P 21/M
;
_chemical_formula_sum "Si O2"
_cell_formula_units_Z 32
_cell_length_a 25.510236
_cell_length_b 8.736666
_cell_length_c 15.836182
_cell_angle_alpha 90.000000
_cell_angle_beta 150.213956
_cell_angle_gamma 90.000000
_cell_volume 1753.313455
_symmetry_space_group_name_H-M "P 21/M"
_symmetry_group_IT_number 11
_symmetry_cell_setting 'monoclinic'
loop_
_space_group_symop_operation_xyz
x,y,z
-x,1/2+y,-z
-x,-y,-z
x,1/2-y,z
loop_
_atom_site_type_symbol
_atom_site_label
_atom_site_fract_x
_atom_site_fract_y
_atom_site_fract_z
Si Si1 0.271763 0.929881 0.023204
Si Si2 0.184922 0.928920 0.077947
Si Si3 0.979350 0.070703 0.725136
Si Si4 0.513024 0.432945 0.753895
Si Si5 0.299284 0.569742 0.410582
Si Si6 0.952337 0.431172 0.349562
Si Si7 0.220215 0.071207 0.468661
Si Si8 0.449664 0.073152 0.848167
O O1 0.279589 0.750000 0.023614
O O2 0.168610 0.989085 0.828714
O O3 0.261168 0.975948 0.106706
O O4 0.378119 0.999784 0.132097
O O5 0.157128 0.750000 0.033491
O O6 0.242889 0.973148 0.244563
O O7 0.075595 0.020262 0.919608
O O8 0.984824 0.250000 0.716517
O O9 0.871498 0.029409 0.620336
O O10 0.981035 0.986019 0.637669
O O11 0.501212 0.250000 0.729455
O O12 0.419092 0.511673 0.570437
O O13 0.506255 0.486543 0.841980
O O14 0.296339 0.750000 0.424850
O O15 0.237282 0.479514 0.396316
O O16 0.958557 0.250000 0.362267
O O17 0.000000 0.500000 0.500000
O O18 0.190788 0.250000 0.429094
O O19 0.325341 0.037157 0.669720
O O20 0.471475 0.250000 0.886922
O O21 0.500000 0.000000 0.000000
#
# Coordination Sequence:
#
# PCOD8073449 Si02
#       8
#     4   4   4   4   4   4   4   4
#     4   8  16  33  55  75 101 139 176 213 260 311
#     4   9  19  36  55  76 106 140 173 215 265 315
#     4  11  22  36  56  81 106 137 178 221 266 314
#     4   9  18  34  53  74 102 137 175 212 257 312
#     4  10  20  34  53  79 107 136 173 216 263 314
#     4  10  20  36  56  80 111 144 179 220 264 311
#     4  10  21  38  56  76 105 140 175 214 264 317
#     4   9  19  33  51  75 102 134 170 211 259 310
#
# _framework density 18.251158
#
# number of rings (size 3 to 8) (size 9 to 14) (size 15 to 20)
#    0.000    2.500    0.000    3.750    0.000    5.500 
#    0.000    4.375    0.000    0.000    0.000    0.000 
#    0.000    0.000    0.000    0.000    0.000    0.000 
#
# Total GULP energy -396799.297548 kJ/mol
# GULP energy per Si atom -12399.978048 kJ/mol
# Density = 1.820962 g / cm^3
# Si number density = 18.251158 Si / 1000 Ang^3
#
#
#
# Elastic Constant Matrix: (Units=GPa)
#
#
# Indices 1 2 3 4 5 6 
#
# 1 100.2685 28.7626 78.0516 0.0000 4.5057 0.0000
# 2 28.7626 58.7325 41.7303 0.0000 -5.9214 0.0000
# 3 78.0516 41.7303 124.5129 0.0000 -15.6616 0.0000
# 4 0.0000 0.0000 0.0000 32.6398 0.0000 -3.2323
# 5 4.5057 -5.9214 -15.6616 0.0000 39.1054 0.0000
# 6 0.0000 0.0000 0.0000 -3.2323 0.0000 26.8547
#
#
#
# Elastic Compliance Matrix: (Units=1/GPa)
#
#
# Indices 1 2 3 4 5 6 
#
# 1 0.021914 -0.001403 -0.014333 0.000000 -0.008478 0.000000
# 2 -0.001403 0.022444 -0.006524 0.000000 0.000947 0.000000
# 3 -0.014333 -0.006524 0.020309 0.000000 0.008797 0.000000
# 4 0.000000 0.000000 0.000000 0.031007 0.000000 0.003732
# 5 -0.008478 0.000947 0.008797 0.000000 0.030215 0.000000
# 6 0.000000 0.000000 0.000000 0.003732 0.000000 0.037687
#
#
# Mechanical properties :
#
#
# Convention : Reuss Voigt Hill
#
# Bulk Modulus (GPa) = 49.63244 64.51146 57.07195
# Shear Modulus (GPa) = 23.27637 28.71795 25.99716
#
# Velocity S-wave (km/s) = 3.57506 3.97102 3.77823
# Velocity P-wave (km/s) = 6.65542 7.51323 7.09729
#
# Compressibility (1/GPa) = 0.02014811
#
# Stress axis : x y z
#
# Youngs Moduli (GPa) = 45.63358 44.55555 49.23925
#
# Poissons Ratio (x) = 0.06249 0.70575
# Poissons Ratio (y) = 0.06400 0.32122
# Poissons Ratio (z) = 0.65407 0.29067
#
# Static dielectric constant tensor:
#      x y z
#    x 3.978390 0.000000 0.254760 
#    y 0.000000 3.280020 0.000000 
#    z 0.254760 0.000000 2.783930 
# 
# 
# High freq. dielectric constant tensor:
#      x y z
#    x 1.711880 0.000000 0.000940 
#    y 0.000000 1.700360 0.000000 
#    z 0.000940 0.000000 1.710790 
# 
# From -- ./inp_files/55709.got.cif
#   From: 2010.06.25/outbox.cif.g09.slc.cpg/sg11_28_cif.got.tgz:55709.got - 2010.06.27 23:14:04.
