data_PCOD8073098
_publ_section_title
;
Structure prediction by ZEFSAII (Michael W. Deem and Ramdas Pophale) SiO2 
 PCOD8073098
Probable space group: P 21/M
;
_chemical_formula_sum "Si O2"
_cell_formula_units_Z 32
_cell_length_a 22.551990
_cell_length_b 8.881832
_cell_length_c 11.296685
_cell_angle_alpha 90.000000
_cell_angle_beta 131.451230
_cell_angle_gamma 90.000000
_cell_volume 1695.982482
_symmetry_space_group_name_H-M "P 21/M"
_symmetry_group_IT_number 11
_symmetry_cell_setting 'monoclinic'
loop_
_space_group_symop_operation_xyz
x,y,z
-x,1/2+y,-z
-x,-y,-z
x,1/2-y,z
loop_
_atom_site_type_symbol
_atom_site_label
_atom_site_fract_x
_atom_site_fract_y
_atom_site_fract_z
Si Si1 0.512635 0.572734 0.142835
Si Si2 0.791510 0.573577 0.228511
Si Si3 0.868898 0.572933 0.094731
Si Si4 0.828913 0.926897 0.542908
Si Si5 0.672460 0.928593 0.471367
Si Si6 0.704386 0.928995 0.775619
Si Si7 0.357118 0.926843 0.077886
Si Si8 0.017184 0.929033 0.148517
O O1 0.518725 0.750000 0.132467
O O2 0.593108 0.507269 0.306553
O O3 0.441528 0.528856 0.135737
O O4 0.500000 0.500000 0.000000
O O5 0.771965 0.750000 0.193282
O O6 0.856038 0.524733 0.214674
O O7 0.826950 0.531231 0.402057
O O8 0.709712 0.487614 0.099269
O O9 0.874071 0.750000 0.091109
O O10 0.950403 0.506487 0.150760
O O11 0.794216 0.516304 0.918871
O O12 0.843140 0.750000 0.582554
O O13 0.747371 0.981812 0.493885
O O14 0.898165 0.020043 0.693991
O O15 0.669396 0.750000 0.471451
O O16 0.679269 0.990906 0.614067
O O17 0.697896 0.750000 0.775666
O O18 0.646848 0.998790 0.797973
O O19 0.346314 0.750000 0.077083
O O20 0.014726 0.750000 0.134639
O O21 0.000000 0.000000 0.000000
#
# Coordination Sequence:
#
# PCOD8073098 Si02
#       8
#     4   4   4   4   4   4   4   4
#     4  10  21  36  54  77 105 138 175 215 260 309
#     4   9  18  35  58  78 100 138 181 209 245 314
#     4   8  16  32  53  76 101 132 170 210 250 299
#     4  10  20  35  56  79 102 131 173 220 259 303
#     4   9  18  34  55  76 101 137 177 214 254 307
#     4   9  17  33  56  75  97 136 179 208 243 307
#     4  10  20  33  51  79 112 136 164 216 268 301
#     4  11  22  36  54  76 106 139 173 215 261 308
#
# _framework density 18.868120000000001
#
# number of rings (size 3 to 8) (size 9 to 14) (size 15 to 20)
#    0.000    2.500    0.000    3.000    0.000    5.500 
#    0.000    9.375    0.000    0.000    0.000    0.000 
#    0.000    0.000    0.000    0.000    0.000    0.000 
#
# Total GULP energy -396792.236935 kJ/mol
# GULP energy per Si atom -12399.757404 kJ/mol
# Density = 1.882518 g / cm^3
# Si number density = 18.868120 Si / 1000 Ang^3
#
#
#
# Elastic Constant Matrix: (Units=GPa)
#
#
# Indices 1 2 3 4 5 6 
#
# 1 167.1123 44.5952 97.6569 0.0000 3.5269 0.0000
# 2 44.5952 39.3638 35.1482 0.0000 -1.2080 0.0000
# 3 97.6569 35.1482 156.1040 0.0000 -9.9066 0.0000
# 4 0.0000 0.0000 0.0000 27.6298 0.0000 0.7819
# 5 3.5269 -1.2080 -9.9066 0.0000 35.9445 0.0000
# 6 0.0000 0.0000 0.0000 0.7819 0.0000 26.7735
#
#
#
# Elastic Compliance Matrix: (Units=1/GPa)
#
#
# Indices 1 2 3 4 5 6 
#
# 1 0.011431 -0.008122 -0.005507 0.000000 -0.002912 0.000000
# 2 -0.008122 0.037598 -0.003311 0.000000 0.001148 0.000000
# 3 -0.005507 -0.003311 0.010813 0.000000 0.003409 0.000000
# 4 0.000000 0.000000 0.000000 0.036223 0.000000 -0.001058
# 5 -0.002912 0.001148 0.003409 0.000000 0.029085 0.000000
# 6 0.000000 0.000000 0.000000 -0.001058 0.000000 0.037381
#
#
# Mechanical properties :
#
#
# Convention : Reuss Voigt Hill
#
# Bulk Modulus (GPa) = 38.52041 79.70897 59.11469
# Shear Modulus (GPa) = 24.38232 30.41489 27.39861
#
# Velocity S-wave (km/s) = 3.59869 4.01929 3.81479
# Velocity P-wave (km/s) = 6.14226 7.99229 7.12755
#
# Compressibility (1/GPa) = 0.02596027
#
# Stress axis : x y z
#
# Youngs Moduli (GPa) = 87.47867 26.59729 92.47912
#
# Poissons Ratio (x) = 0.21603 0.50931
# Poissons Ratio (y) = 0.71054 0.30623
# Poissons Ratio (z) = 0.48177 0.08807
#
# Static dielectric constant tensor:
#      x y z
#    x 3.860650 0.000000 -0.099680 
#    y 0.000000 3.177000 0.000000 
#    z -0.099680 0.000000 3.668750 
# 
# 
# High freq. dielectric constant tensor:
#      x y z
#    x 1.749370 0.000000 -0.005680 
#    y 0.000000 1.703290 0.000000 
#    z -0.005680 0.000000 1.737400 
# 
# From -- ./inp_files/42946.got.cif
#   From: 2010.06.25/outbox.cif.g09.slc.cpg/sg11_22_cif.got.tgz:42946.got - 2010.06.27 23:14:04.
