data_PCOD8073686
_publ_section_title
;
Structure prediction by ZEFSAII (Michael W. Deem and Ramdas Pophale) SiO2 
 PCOD8073686
Probable space group: P 21/M
;
_chemical_formula_sum "Si O2"
_cell_formula_units_Z 32
_cell_length_a 12.727948
_cell_length_b 9.296143
_cell_length_c 31.142094
_cell_angle_alpha 90.000000
_cell_angle_beta 152.450900
_cell_angle_gamma 90.000000
_cell_volume 1704.232279
_symmetry_space_group_name_H-M "P 21/M"
_symmetry_group_IT_number 11
_symmetry_cell_setting 'monoclinic'
loop_
_space_group_symop_operation_xyz
x,y,z
-x,1/2+y,-z
-x,-y,-z
x,1/2-y,z
loop_
_atom_site_type_symbol
_atom_site_label
_atom_site_fract_x
_atom_site_fract_y
_atom_site_fract_z
Si Si1 0.028905 0.417507 0.833691
Si Si2 0.939139 0.918355 0.060884
Si Si3 0.324798 0.084122 0.407591
Si Si4 0.559058 0.416350 0.876595
Si Si5 0.774366 0.415565 0.407431
Si Si6 0.545715 0.417082 0.772257
Si Si7 0.128012 0.420474 0.775575
Si Si8 0.604175 0.907733 0.663467
O O1 0.994761 0.250000 0.820032
O O2 0.146328 0.460546 0.921539
O O3 0.159589 0.466824 0.837549
O O4 0.775747 0.476841 0.744089
O O5 0.912417 0.750000 0.042385
O O6 0.200074 0.965316 0.148482
O O7 0.785662 0.999404 0.971036
O O8 0.296240 0.250000 0.412058
O O9 0.436065 0.072767 0.401325
O O10 0.500000 0.000000 0.500000
O O11 0.080967 0.006413 0.320675
O O12 0.609355 0.250000 0.903124
O O13 0.501665 0.446501 0.806462
O O14 0.351151 0.469175 0.830949
O O15 0.826396 0.250000 0.414047
O O16 0.637093 0.487240 0.318770
O O17 0.636090 0.427049 0.401298
O O18 0.000000 0.500000 0.500000
O O19 0.506474 0.250000 0.746680
O O20 0.082900 0.250000 0.754662
O O21 0.708276 0.750000 0.710753
#
# Coordination Sequence:
#
# PCOD8073686 Si02
#       8
#     4   4   4   4   4   4   4   4
#     4   9  17  32  56  80 105 139 178 224 272 317
#     4  10  20  34  56  83 109 143 188 234 278 324
#     4  10  20  35  56  81 107 140 181 223 271 327
#     4  10  22  37  55  80 114 153 186 224 275 332
#     4  11  23  38  58  84 111 143 182 227 279 331
#     4  10  21  39  58  79 111 148 187 231 277 324
#     4   9  19  36  54  77 110 145 182 224 274 326
#     4   9  19  35  54  77 105 137 176 222 269 320
#
# _framework density 18.776782999999998
#
# number of rings (size 3 to 8) (size 9 to 14) (size 15 to 20)
#    0.000    2.250    1.250    1.125    0.000    4.500 
#    0.000    5.000    0.000    0.000    0.000    0.000 
#    0.000    0.000    0.000    0.000    0.000    0.000 
#
# Total GULP energy -396724.377980 kJ/mol
# GULP energy per Si atom -12397.636812 kJ/mol
# Density = 1.873405 g / cm^3
# Si number density = 18.776783 Si / 1000 Ang^3
#
#
#
# Elastic Constant Matrix: (Units=GPa)
#
#
# Indices 1 2 3 4 5 6 
#
# 1 105.0554 42.5942 53.5021 0.0000 4.9409 0.0000
# 2 42.5942 59.6034 58.0522 0.0000 -3.2147 0.0000
# 3 53.5021 58.0522 119.2701 0.0000 -2.0874 0.0000
# 4 0.0000 0.0000 0.0000 37.0489 0.0000 -1.0999
# 5 4.9409 -3.2147 -2.0874 0.0000 20.1564 0.0000
# 6 0.0000 0.0000 0.0000 -1.0999 0.0000 23.3064
#
#
#
# Elastic Compliance Matrix: (Units=1/GPa)
#
#
# Indices 1 2 3 4 5 6 
#
# 1 0.014320 -0.007916 -0.002659 0.000000 -0.005048 0.000000
# 2 -0.007916 0.036522 -0.014115 0.000000 0.006303 0.000000
# 3 -0.002659 -0.014115 0.016449 0.000000 0.000104 0.000000
# 4 0.000000 0.000000 0.000000 0.027029 0.000000 0.001276
# 5 -0.005048 0.006303 0.000104 0.000000 0.051866 0.000000
# 6 0.000000 0.000000 0.000000 0.001276 0.000000 0.042967
#
#
# Mechanical properties :
#
#
# Convention : Reuss Voigt Hill
#
# Bulk Modulus (GPa) = 55.83111 65.80289 60.81700
# Shear Modulus (GPa) = 20.44958 24.75436 22.60197
#
# Velocity S-wave (km/s) = 3.30371 3.63485 3.47323
# Velocity P-wave (km/s) = 6.65968 7.26203 6.96737
#
# Compressibility (1/GPa) = 0.01791116
#
# Stress axis : x y z
#
# Youngs Moduli (GPa) = 69.83339 27.38053 60.79281
#
# Poissons Ratio (x) = 0.21674 0.16166
# Poissons Ratio (y) = 0.55278 0.85811
# Poissons Ratio (z) = 0.18570 0.38649
#
# Static dielectric constant tensor:
#      x y z
#    x 3.840140 0.000000 -0.121290 
#    y 0.000000 3.503390 0.000000 
#    z -0.121290 0.000000 3.280830 
# 
# 
# High freq. dielectric constant tensor:
#      x y z
#    x 1.742010 0.000000 -0.008100 
#    y 0.000000 1.730660 0.000000 
#    z -0.008100 0.000000 1.717000 
# 
# From -- ./inp_files/38112.got.cif
#   From: 2010.06.25/outbox.cif.g09.slc.cpg/sg11_20_cif.got.tgz:38112.got - 2010.06.27 23:14:04.
