data_PCOD8073022
_publ_section_title
;
Structure prediction by ZEFSAII (Michael W. Deem and Ramdas Pophale) SiO2 
 PCOD8073022
Probable space group: P 21/M
;
_chemical_formula_sum "Si O2"
_cell_formula_units_Z 32
_cell_length_a 12.492104
_cell_length_b 9.246872
_cell_length_c 22.609528
_cell_angle_alpha 90.000000
_cell_angle_beta 135.785552
_cell_angle_gamma 90.000000
_cell_volume 1821.252498
_symmetry_space_group_name_H-M "P 21/M"
_symmetry_group_IT_number 11
_symmetry_cell_setting 'monoclinic'
loop_
_space_group_symop_operation_xyz
x,y,z
-x,1/2+y,-z
-x,-y,-z
x,1/2-y,z
loop_
_atom_site_type_symbol
_atom_site_label
_atom_site_fract_x
_atom_site_fract_y
_atom_site_fract_z
Si Si1 0.789325 0.081398 0.484508
Si Si2 0.932431 0.085695 0.833746
Si Si3 0.132336 0.083981 0.019450
Si Si4 0.681343 0.916893 0.332725
Si Si5 0.669593 0.418426 0.822024
Si Si6 0.908441 0.913931 0.323981
Si Si7 0.050138 0.084034 0.279582
Si Si8 0.639678 0.917668 0.526881
O O1 0.745939 0.250000 0.468906
O O2 0.959972 0.052669 0.575735
O O3 0.776793 0.021103 0.413422
O O4 0.668224 0.991367 0.475207
O O5 0.907355 0.250000 0.802372
O O6 0.785063 0.037483 0.814639
O O7 0.949634 0.984043 0.784730
O O8 0.092148 0.072932 0.933893
O O9 0.135252 0.250000 0.041151
O O10 0.290909 0.007596 0.102218
O O11 0.000000 0.000000 0.000000
O O12 0.707811 0.750000 0.361844
O O13 0.502678 0.958603 0.264534
O O14 0.746145 0.942340 0.292052
O O15 0.687217 0.250000 0.844155
O O16 0.922541 0.750000 0.306993
O O17 0.922420 0.013253 0.271632
O O18 0.005663 0.250000 0.255375
O O19 0.216425 0.060944 0.373401
O O20 0.599321 0.750000 0.500966
O O21 0.500000 0.000000 0.500000
#
# Coordination Sequence:
#
# PCOD8073022 Si02
#       8
#     4   4   4   4   4   4   4   4
#     4  10  20  33  50  74  99 133 176 214 255 300
#     4   9  18  32  51  75 103 134 165 197 245 307
#     4   9  17  31  51  75 103 135 166 200 246 302
#     4  10  20  34  53  77 103 135 172 212 257 304
#     4   9  19  33  50  77 107 134 164 202 254 306
#     4   9  19  36  54  71  99 137 175 213 256 302
#     4  10  21  34  51  75  99 128 171 214 251 296
#     4  10  21  35  49  69 100 136 169 209 256 303
#
# _framework density 17.570325
#
# number of rings (size 3 to 8) (size 9 to 14) (size 15 to 20)
#    0.000    2.500    0.000    2.625    1.750    5.500 
#    0.000    0.000    0.000    0.750    0.000    0.000 
#    0.000    0.000    0.000    0.000    0.000    0.000 
#
# Total GULP energy -396759.773559 kJ/mol
# GULP energy per Si atom -12398.742924 kJ/mol
# Density = 1.753033 g / cm^3
# Si number density = 17.570325 Si / 1000 Ang^3
#
#
#
# Elastic Constant Matrix: (Units=GPa)
#
#
# Indices 1 2 3 4 5 6 
#
# 1 88.6449 48.8208 40.8998 0.0000 -13.6934 0.0000
# 2 48.8208 109.6456 52.6631 0.0000 -14.1322 0.0000
# 3 40.8998 52.6631 69.8501 0.0000 -11.4769 0.0000
# 4 0.0000 0.0000 0.0000 34.2555 0.0000 -6.7481
# 5 -13.6934 -14.1322 -11.4769 0.0000 16.3340 0.0000
# 6 0.0000 0.0000 0.0000 -6.7481 0.0000 26.6378
#
#
#
# Elastic Compliance Matrix: (Units=1/GPa)
#
#
# Indices 1 2 3 4 5 6 
#
# 1 0.017282 -0.003907 -0.006047 0.000000 0.006860 0.000000
# 2 -0.003907 0.015619 -0.008825 0.000000 0.004038 0.000000
# 3 -0.006047 -0.008825 0.025350 0.000000 0.005107 0.000000
# 4 0.000000 0.000000 0.000000 0.030726 0.000000 0.007784
# 5 0.006860 0.004038 0.005107 0.000000 0.074054 0.000000
# 6 0.000000 0.000000 0.000000 0.007784 0.000000 0.039513
#
#
# Mechanical properties :
#
#
# Convention : Reuss Voigt Hill
#
# Bulk Modulus (GPa) = 48.32347 61.43424 54.87886
# Shear Modulus (GPa) = 20.24312 23.82925 22.03618
#
# Velocity S-wave (km/s) = 3.39797 3.68669 3.54527
# Velocity P-wave (km/s) = 6.55420 7.29129 6.93255
#
# Compressibility (1/GPa) = 0.02069388
#
# Stress axis : x y z
#
# Youngs Moduli (GPa) = 57.86336 64.02572 39.44833
#
# Poissons Ratio (x) = 0.25012 0.23854
# Poissons Ratio (y) = 0.22605 0.34812
# Poissons Ratio (z) = 0.34990 0.56501
#
# Static dielectric constant tensor:
#      x y z
#    x 3.244630 0.000000 0.064200 
#    y 0.000000 3.473600 0.000000 
#    z 0.064200 0.000000 3.565240 
# 
# 
# High freq. dielectric constant tensor:
#      x y z
#    x 1.663310 0.000000 -0.004910 
#    y 0.000000 1.689120 0.000000 
#    z -0.004910 0.000000 1.666140 
# 
# From -- ./inp_files/38191.got.cif
#   From: 2010.06.25/outbox.cif.g09.slc.cpg/sg11_20_cif.got.tgz:38191.got - 2010.06.27 23:14:04.
