data_PCOD8073470
_publ_section_title
;
Structure prediction by ZEFSAII (Michael W. Deem and Ramdas Pophale) SiO2 
 PCOD8073470
Probable space group: P 21/M
;
_chemical_formula_sum "Si O2"
_cell_formula_units_Z 32
_cell_length_a 25.736723
_cell_length_b 8.938168
_cell_length_c 14.986260
_cell_angle_alpha 90.000000
_cell_angle_beta 26.994641
_cell_angle_gamma 90.000000
_cell_volume 1564.811604
_symmetry_space_group_name_H-M "P 21/M"
_symmetry_group_IT_number 11
_symmetry_cell_setting 'monoclinic'
loop_
_space_group_symop_operation_xyz
x,y,z
-x,1/2+y,-z
-x,-y,-z
x,1/2-y,z
loop_
_atom_site_type_symbol
_atom_site_label
_atom_site_fract_x
_atom_site_fract_y
_atom_site_fract_z
Si Si1 0.528734 0.573466 0.736982
Si Si2 0.851695 0.418698 0.649955
Si Si3 0.019941 0.427802 0.874438
Si Si4 0.114138 0.417246 0.228622
Si Si5 0.176954 0.077353 0.935073
Si Si6 0.728145 0.573378 0.554706
Si Si7 0.657525 0.924579 0.853144
Si Si8 0.564175 0.926410 0.485004
O O1 0.516826 0.750000 0.759676
O O2 0.654331 0.525096 0.581043
O O3 0.511132 0.519862 0.661356
O O4 0.434762 0.507265 0.945903
O O5 0.804334 0.250000 0.710675
O O6 0.842079 0.460103 0.768874
O O7 0.782101 0.538987 0.700485
O O8 0.979447 0.433470 0.418396
O O9 0.020973 0.250000 0.882424
O O10 0.142581 0.489576 0.650783
O O11 0.000000 0.500000 0.000000
O O12 0.918947 0.475124 0.962864
O O13 0.141803 0.250000 0.221865
O O14 0.177666 0.448562 0.039554
O O15 0.152078 0.250000 0.948045
O O16 0.302902 0.027049 0.711952
O O17 0.737473 0.750000 0.548683
O O18 0.660761 0.515099 0.746095
O O19 0.631829 0.750000 0.897573
O O20 0.552917 0.750000 0.489321
O O21 0.500000 0.000000 0.500000
#
# Coordination Sequence:
#
# PCOD8073470 Si02
#       8
#     4   4   4   4   4   4   4   4
#     4  10  21  40  61  83 115 156 199 246 299 356
#     4  10  20  34  53  81 117 154 190 235 290 349
#     4  11  22  38  62  91 122 157 195 240 294 356
#     4   9  19  35  56  82 114 150 192 241 290 344
#     4  10  21  39  61  86 116 152 193 240 294 349
#     4   9  20  39  62  87 120 157 195 240 298 356
#     4  11  22  36  58  86 116 153 198 246 293 350
#     4  10  23  41  62  86 118 157 199 247 299 355
#
# _framework density 20.449746999999999
#
# number of rings (size 3 to 8) (size 9 to 14) (size 15 to 20)
#    0.000    2.000    0.000    3.000    1.750    4.000 
#    0.000    5.000    0.000    0.000    0.000    0.000 
#    0.000    0.000    0.000    0.000    0.000    0.000 
#
# Total GULP energy -396760.345521 kJ/mol
# GULP energy per Si atom -12398.760798 kJ/mol
# Density = 2.040320 g / cm^3
# Si number density = 20.449747 Si / 1000 Ang^3
#
#
#
# Elastic Constant Matrix: (Units=GPa)
#
#
# Indices 1 2 3 4 5 6 
#
# 1 122.0263 34.9871 65.0378 0.0000 4.1531 0.0000
# 2 34.9871 42.6346 29.0080 0.0000 4.2102 0.0000
# 3 65.0378 29.0080 94.3132 0.0000 28.5346 0.0000
# 4 0.0000 0.0000 0.0000 27.3409 0.0000 -1.7363
# 5 4.1531 4.2102 28.5346 0.0000 27.5857 0.0000
# 6 0.0000 0.0000 0.0000 -1.7363 0.0000 35.6515
#
#
#
# Elastic Compliance Matrix: (Units=1/GPa)
#
#
# Indices 1 2 3 4 5 6 
#
# 1 0.016506 -0.005690 -0.013308 0.000000 0.012149 0.000000
# 2 -0.005690 0.032625 -0.007078 0.000000 0.003199 0.000000
# 3 -0.013308 -0.007078 0.030601 0.000000 -0.028570 0.000000
# 4 0.000000 0.000000 0.000000 0.036689 0.000000 0.001787
# 5 0.012149 0.003199 -0.028570 0.000000 0.063486 0.000000
# 6 0.000000 0.000000 0.000000 0.001787 0.000000 0.028136
#
#
# Mechanical properties :
#
#
# Convention : Reuss Voigt Hill
#
# Bulk Modulus (GPa) = 36.26027 57.44888 46.85457
# Shear Modulus (GPa) = 18.56059 26.77839 22.66949
#
# Velocity S-wave (km/s) = 3.01594 3.62259 3.33310
# Velocity P-wave (km/s) = 5.46788 6.75657 6.14610
#
# Compressibility (1/GPa) = 0.02757839
#
# Stress axis : x y z
#
# Youngs Moduli (GPa) = 60.58462 30.65141 32.67890
#
# Poissons Ratio (x) = 0.17442 0.43488
# Poissons Ratio (y) = 0.34475 0.23131
# Poissons Ratio (z) = 0.80625 0.21696
#
# Static dielectric constant tensor:
#      x y z
#    x 3.910430 0.000000 0.055180 
#    y 0.000000 3.589620 0.000000 
#    z 0.055180 0.000000 3.868640 
# 
# 
# High freq. dielectric constant tensor:
#      x y z
#    x 1.808810 0.000000 0.005540 
#    y 0.000000 1.779940 0.000000 
#    z 0.005540 0.000000 1.810090 
# 
# From -- ./inp_files/55536.got.cif
#   From: 2010.06.25/outbox.cif.g09.slc.cpg/sg11_28_cif.got.tgz:55536.got - 2010.06.27 23:14:04.
