data_PCOD8073834
_publ_section_title
;
Structure prediction by ZEFSAII (Michael W. Deem and Ramdas Pophale) SiO2 
 PCOD8073834
Probable space group: P 21/M
;
_chemical_formula_sum "Si O2"
_cell_formula_units_Z 32
_cell_length_a 14.466786
_cell_length_b 17.947001
_cell_length_c 12.284104
_cell_angle_alpha 90.000000
_cell_angle_beta 31.690679
_cell_angle_gamma 90.000000
_cell_volume 1675.491789
_symmetry_space_group_name_H-M "P 21/M"
_symmetry_group_IT_number 11
_symmetry_cell_setting 'monoclinic'
loop_
_space_group_symop_operation_xyz
x,y,z
-x,1/2+y,-z
-x,-y,-z
x,1/2-y,z
loop_
_atom_site_type_symbol
_atom_site_label
_atom_site_fract_x
_atom_site_fract_y
_atom_site_fract_z
Si Si1 0.397608 0.835670 0.212879
Si Si2 0.634164 0.164719 0.227134
Si Si3 0.019565 0.590357 0.599414
Si Si4 0.717452 0.661427 0.036047
Si Si5 0.998642 0.582570 0.378173
Si Si6 0.651547 0.166215 0.973806
Si Si7 0.320821 0.338909 0.680372
Si Si8 0.028640 0.338437 0.806840
O O1 0.363914 0.750000 0.277785
O O2 0.551312 0.869526 0.133985
O O3 0.463742 0.843392 0.020289
O O4 0.216316 0.878534 0.413422
O O5 0.652970 0.250000 0.242691
O O6 0.500211 0.127188 0.447420
O O7 0.831587 0.130682 0.031201
O O8 0.547170 0.157182 0.192607
O O9 0.028961 0.503795 0.618310
O O10 0.933556 0.603448 0.565560
O O11 0.899304 0.631048 0.807650
O O12 0.724344 0.750000 0.024287
O O13 0.696613 0.631365 0.179747
O O14 0.203878 0.602088 0.171891
O O15 0.903775 0.628819 0.376957
O O16 0.737822 0.250000 0.886323
O O17 0.326363 0.250000 0.672114
O O18 0.154752 0.367001 0.776521
O O19 0.030602 0.250000 0.793599
#
# Coordination Sequence:
#
# PCOD8073834 Si02
#       8
#     4   4   4   4   4   4   4   4
#     4   9  18  33  53  76 100 129 168 209 249 299
#     4   8  14  26  45  69  97 123 150 197 252 291
#     4  10  20  35  52  74 107 139 166 204 256 305
#     4  10  21  35  52  75 101 133 173 210 246 296
#     4   9  18  33  52  77 105 134 168 206 253 310
#     4   8  14  28  51  76  99 125 162 208 254 298
#     4   9  18  31  48  74 101 125 165 212 250 298
#     4   9  17  31  53  77  99 128 167 212 257 296
#
# _framework density 19.098870000000002
#
# number of rings (size 3 to 8) (size 9 to 14) (size 15 to 20)
#    0.000    3.000    0.000    1.500    0.000    3.500 
#    0.000   15.000    0.000    3.750    0.000    0.000 
#    0.000    0.000    0.000    0.000    0.000    0.000 
#
# Total GULP energy -396469.640176 kJ/mol
# GULP energy per Si atom -12389.676256 kJ/mol
# Density = 1.905540 g / cm^3
# Si number density = 19.098870 Si / 1000 Ang^3
#
#
#
# Elastic Constant Matrix: (Units=GPa)
#
#
# Indices 1 2 3 4 5 6 
#
# 1 114.0500 16.3323 35.4164 0.0000 7.9379 0.0000
# 2 16.3323 28.3052 17.3142 0.0000 4.0307 0.0000
# 3 35.4164 17.3142 99.7300 0.0000 14.6288 0.0000
# 4 0.0000 0.0000 0.0000 6.6418 0.0000 2.0911
# 5 7.9379 4.0307 14.6288 0.0000 29.1992 0.0000
# 6 0.0000 0.0000 0.0000 2.0911 0.0000 11.0462
#
#
#
# Elastic Compliance Matrix: (Units=1/GPa)
#
#
# Indices 1 2 3 4 5 6 
#
# 1 0.010288 -0.004093 -0.002823 0.000000 -0.000817 0.000000
# 2 -0.004093 0.041284 -0.005441 0.000000 -0.001860 0.000000
# 3 -0.002823 -0.005441 0.012684 0.000000 -0.004836 0.000000
# 4 0.000000 0.000000 0.000000 0.160104 0.000000 -0.030309
# 5 -0.000817 -0.001860 -0.004836 0.000000 0.037149 0.000000
# 6 0.000000 0.000000 0.000000 -0.030309 0.000000 0.096266
#
#
# Mechanical properties :
#
#
# Convention : Reuss Voigt Hill
#
# Bulk Modulus (GPa) = 25.28981 42.24566 33.76773
# Shear Modulus (GPa) = 12.63682 20.91227 16.77455
#
# Velocity S-wave (km/s) = 2.57505 3.31259 2.96683
# Velocity P-wave (km/s) = 4.70228 6.06617 5.42724
#
# Compressibility (1/GPa) = 0.03954162
#
# Stress axis : x y z
#
# Youngs Moduli (GPa) = 97.20340 24.22244 78.84240
#
# Poissons Ratio (x) = 0.09914 0.22257
# Poissons Ratio (y) = 0.39784 0.42898
# Poissons Ratio (z) = 0.27440 0.13179
#
# Static dielectric constant tensor:
#      x y z
#    x 3.753450 0.000000 0.235470 
#    y 0.000000 3.101350 0.000000 
#    z 0.235470 0.000000 3.529880 
# 
# 
# High freq. dielectric constant tensor:
#      x y z
#    x 1.746270 0.000000 0.014820 
#    y 0.000000 1.701880 0.000000 
#    z 0.014820 0.000000 1.733320 
# 
# From -- ./inp_files/39940.got.cif
#   From: 2010.06.25/outbox.cif.g09.slc.cpg/sg11_20_cif.got.tgz:39940.got - 2010.06.27 23:14:04.
