data_PCOD8073808
_publ_section_title
;
Structure prediction by ZEFSAII (Michael W. Deem and Ramdas Pophale) SiO2 
 PCOD8073808
Probable space group: P 21/M
;
_chemical_formula_sum "Si O2"
_cell_formula_units_Z 32
_cell_length_a 8.960981
_cell_length_b 14.412376
_cell_length_c 23.871567
_cell_angle_alpha 90.000000
_cell_angle_beta 147.100493
_cell_angle_gamma 90.000000
_cell_volume 1674.578941
_symmetry_space_group_name_H-M "P 21/M"
_symmetry_group_IT_number 11
_symmetry_cell_setting 'monoclinic'
loop_
_space_group_symop_operation_xyz
x,y,z
-x,1/2+y,-z
-x,-y,-z
x,1/2-y,z
loop_
_atom_site_type_symbol
_atom_site_label
_atom_site_fract_x
_atom_site_fract_y
_atom_site_fract_z
Si Si1 0.865817 0.140337 0.940183
Si Si2 0.576865 0.856684 0.294637
Si Si3 0.903701 0.033075 0.528591
Si Si4 0.880204 0.016160 0.163660
Si Si5 0.726765 0.995170 0.988310
Si Si6 0.657521 0.646374 0.644957
Si Si7 0.744054 0.353886 0.698406
Si Si8 0.373391 0.093450 0.483711
O O1 0.919077 0.250000 0.967820
O O2 0.628494 0.123891 0.820416
O O3 0.770757 0.090164 0.967326
O O4 0.140109 0.092316 0.002144
O O5 0.644760 0.750000 0.323791
O O6 0.451613 0.894145 0.313902
O O7 0.864197 0.904047 0.369843
O O8 0.617984 0.087848 0.431940
O O9 0.881787 0.939664 0.558896
O O10 0.000000 0.000000 0.500000
O O11 0.590601 0.031792 0.102957
O O12 0.085817 0.099035 0.243765
O O13 0.990011 0.918352 0.221914
O O14 0.863191 0.012363 0.091401
O O15 0.622539 0.750000 0.658382
O O16 0.719971 0.655604 0.597969
O O17 0.843041 0.250000 0.744592
O O18 0.589845 0.351828 0.590417
O O19 0.500000 0.000000 0.500000
#
# Coordination Sequence:
#
# PCOD8073808 Si02
#       8
#     4   4   4   4   4   4   4   4
#     4  10  22  42  64  90 118 151 195 250 305 354
#     4  10  20  34  59  90 118 150 196 245 298 350
#     4  11  20  36  61  87 120 157 197 242 290 352
#     4  11  22  42  61  89 116 160 203 243 300 346
#     4  10  24  40  65  88 119 152 200 256 296 350
#     4  11  24  40  58  86 127 164 196 237 293 360
#     4  11  20  36  61  88 120 155 197 247 297 348
#     4  10  20  36  57  85 120 157 192 241 289 351
#
# _framework density 19.109282
#
# number of rings (size 3 to 8) (size 9 to 14) (size 15 to 20)
#    0.000    1.500    5.000    0.750    1.750    1.500 
#    0.000    5.000    0.000    0.000    0.000    0.000 
#    0.000    0.000    0.000    0.000    0.000    0.000 
#
# Total GULP energy -396740.858092 kJ/mol
# GULP energy per Si atom -12398.151815 kJ/mol
# Density = 1.906579 g / cm^3
# Si number density = 19.109282 Si / 1000 Ang^3
#
#
#
# Elastic Constant Matrix: (Units=GPa)
#
#
# Indices 1 2 3 4 5 6 
#
# 1 94.6087 38.2941 30.5316 0.0000 1.3443 0.0000
# 2 38.2941 110.0144 44.4800 0.0000 6.4226 0.0000
# 3 30.5316 44.4800 99.5467 0.0000 6.0284 0.0000
# 4 0.0000 0.0000 0.0000 20.4441 0.0000 -4.7775
# 5 1.3443 6.4226 6.0284 0.0000 32.1291 0.0000
# 6 0.0000 0.0000 0.0000 -4.7775 0.0000 24.1907
#
#
#
# Elastic Compliance Matrix: (Units=1/GPa)
#
#
# Indices 1 2 3 4 5 6 
#
# 1 0.012750 -0.003512 -0.002378 0.000000 0.000615 0.000000
# 2 -0.003512 0.012116 -0.004247 0.000000 -0.001478 0.000000
# 3 -0.002378 -0.004247 0.012760 0.000000 -0.001446 0.000000
# 4 0.000000 0.000000 0.000000 0.051280 0.000000 0.010127
# 5 0.000615 -0.001478 -0.001446 0.000000 0.031665 0.000000
# 6 0.000000 0.000000 0.000000 0.010127 0.000000 0.043338
#
#
# Mechanical properties :
#
#
# Convention : Reuss Voigt Hill
#
# Bulk Modulus (GPa) = 57.63396 58.97567 58.30482
# Shear Modulus (GPa) = 26.32006 28.07706 27.19856
#
# Velocity S-wave (km/s) = 3.71528 3.83729 3.77678
# Velocity P-wave (km/s) = 6.97353 7.11072 7.04246
#
# Compressibility (1/GPa) = 0.01735088
#
# Stress axis : x y z
#
# Youngs Moduli (GPa) = 78.42902 82.53782 78.36915
#
# Poissons Ratio (x) = 0.28991 0.18639
# Poissons Ratio (y) = 0.27548 0.33282
# Poissons Ratio (z) = 0.18654 0.35052
#
# Static dielectric constant tensor:
#      x y z
#    x 3.835700 0.000000 -0.075550 
#    y 0.000000 3.398490 0.000000 
#    z -0.075550 0.000000 3.511530 
# 
# 
# High freq. dielectric constant tensor:
#      x y z
#    x 1.751320 0.000000 -0.006970 
#    y 0.000000 1.742690 0.000000 
#    z -0.006970 0.000000 1.739270 
# 
# From -- ./inp_files/68145.got.cif
#   From: 2010.06.25/outbox.cif.g09.slc.cpg/sg11_35_cif.got.tgz:68145.got - 2010.06.27 23:14:04.
