data_PCOD8073367
_publ_section_title
;
Structure prediction by ZEFSAII (Michael W. Deem and Ramdas Pophale) SiO2 
 PCOD8073367
Probable space group: P 21/M
;
_chemical_formula_sum "Si O2"
_cell_formula_units_Z 28
_cell_length_a 19.828586
_cell_length_b 9.198290
_cell_length_c 14.582478
_cell_angle_alpha 90.000000
_cell_angle_beta 146.858566
_cell_angle_gamma 90.000000
_cell_volume 1454.069959
_symmetry_space_group_name_H-M "P 21/M"
_symmetry_group_IT_number 11
_symmetry_cell_setting 'monoclinic'
loop_
_space_group_symop_operation_xyz
x,y,z
-x,1/2+y,-z
-x,-y,-z
x,1/2-y,z
loop_
_atom_site_type_symbol
_atom_site_label
_atom_site_fract_x
_atom_site_fract_y
_atom_site_fract_z
Si Si1 0.289386 0.417352 0.953977
Si Si2 0.564497 0.418706 0.735766
Si Si3 0.207014 0.920633 0.130297
Si Si4 0.711342 0.918672 0.605031
Si Si5 0.628256 0.918839 0.150237
Si Si6 0.810981 0.581080 0.516554
Si Si7 0.940598 0.921430 0.187487
O O1 0.316839 0.250000 0.004873
O O2 0.291082 0.453958 0.848351
O O3 0.156339 0.461121 0.842838
O O4 0.398602 0.503648 0.128146
O O5 0.560273 0.250000 0.754934
O O6 0.661350 0.455392 0.766127
O O7 0.430292 0.472089 0.551042
O O8 0.177937 0.750000 0.100596
O O9 0.208591 0.985224 0.234113
O O10 0.098462 0.999283 0.950980
O O11 0.722846 0.750000 0.645859
O O12 0.762787 0.948576 0.563176
O O13 0.597210 0.750000 0.122341
O O14 0.706013 0.970911 0.326443
O O15 0.500000 0.000000 0.000000
O O16 0.844218 0.750000 0.538959
O O17 0.929723 0.483625 0.631492
O O18 0.949492 0.750000 0.179709
#
# Coordination Sequence:
#
# PCOD8073367 Si02
#       7
#     4   4   4   4   4   4   4
#     4   9  19  35  56  81 109 141 176 219 267 312
#     4   9  18  33  54  81 110 140 176 217 265 322
#     4  10  20  34  55  81 107 138 178 222 267 318
#     4  10  20  34  52  76 108 144 179 218 267 317
#     4  10  21  38  59  84 113 142 174 214 263 318
#     4  10  22  38  55  77 108 144 180 220 263 312
#     4  10  21  38  57  78 106 140 180 223 266 313
#
# _framework density 19.256295000000001
#
# number of rings (size 3 to 8) (size 9 to 14) (size 15 to 20)
#    0.000    2.286    0.000    2.143    0.000    5.714 
#    0.000    0.000    0.000    0.000    0.000    0.000 
#    0.000    0.000    0.000    0.000    0.000    0.000 
#
# Total GULP energy -347316.604053 kJ/mol
# GULP energy per Si atom -12404.164430 kJ/mol
# Density = 1.921247 g / cm^3
# Si number density = 19.256295 Si / 1000 Ang^3
#
#
#
# Elastic Constant Matrix: (Units=GPa)
#
#
# Indices 1 2 3 4 5 6 
#
# 1 86.6233 46.4374 67.3900 0.0000 -16.7632 0.0000
# 2 46.4374 75.3558 64.7407 0.0000 -4.5200 0.0000
# 3 67.3900 64.7407 146.4347 0.0000 -4.1732 0.0000
# 4 0.0000 0.0000 0.0000 37.3677 0.0000 -0.5715
# 5 -16.7632 -4.5200 -4.1732 0.0000 29.5070 0.0000
# 6 0.0000 0.0000 0.0000 -0.5715 0.0000 26.3493
#
#
#
# Elastic Compliance Matrix: (Units=1/GPa)
#
#
# Indices 1 2 3 4 5 6 
#
# 1 0.023211 -0.007635 -0.006992 0.000000 0.011028 0.000000
# 2 -0.007635 0.024022 -0.007154 0.000000 -0.001670 0.000000
# 3 -0.006992 -0.007154 0.013118 0.000000 -0.003213 0.000000
# 4 0.000000 0.000000 0.000000 0.026770 0.000000 0.000581
# 5 0.011028 -0.001670 -0.003213 0.000000 0.039445 0.000000
# 6 0.000000 0.000000 0.000000 0.000581 0.000000 0.037964
#
#
# Mechanical properties :
#
#
# Convention : Reuss Voigt Hill
#
# Bulk Modulus (GPa) = 59.56519 73.94999 66.75759
# Shear Modulus (GPa) = 23.39857 27.30118 25.34988
#
# Velocity S-wave (km/s) = 3.48963 3.76943 3.63222
# Velocity P-wave (km/s) = 6.87289 7.57833 7.23422
#
# Compressibility (1/GPa) = 0.01678833
#
# Stress axis : x y z
#
# Youngs Moduli (GPa) = 43.08342 41.62909 76.23045
#
# Poissons Ratio (x) = 0.31784 0.53300
# Poissons Ratio (y) = 0.32894 0.54537
# Poissons Ratio (z) = 0.30124 0.29782
#
# Static dielectric constant tensor:
#      x y z
#    x 3.581880 0.000000 -0.011830 
#    y 0.000000 3.455260 0.000000 
#    z -0.011830 0.000000 3.528580 
# 
# 
# High freq. dielectric constant tensor:
#      x y z
#    x 1.751990 0.000000 -0.002440 
#    y 0.000000 1.745650 0.000000 
#    z -0.002440 0.000000 1.750540 
# 
# From -- ./inp_files/37797.got.cif
#   From: 2010.06.25/outbox.cif.g09.slc.cpg/sg11_19_cif.got.tgz:37797.got - 2010.06.27 23:14:04.
