data_PCOD8073080
_publ_section_title
;
Structure prediction by ZEFSAII (Michael W. Deem and Ramdas Pophale) SiO2 
 PCOD8073080
Probable space group: P 21/M
;
_chemical_formula_sum "Si O2"
_cell_formula_units_Z 28
_cell_length_a 18.867728
_cell_length_b 13.765952
_cell_length_c 16.355086
_cell_angle_alpha 90.000000
_cell_angle_beta 21.071905
_cell_angle_gamma 90.000000
_cell_volume 1527.302446
_symmetry_space_group_name_H-M "P 21/M"
_symmetry_group_IT_number 11
_symmetry_cell_setting 'monoclinic'
loop_
_space_group_symop_operation_xyz
x,y,z
-x,1/2+y,-z
-x,-y,-z
x,1/2-y,z
loop_
_atom_site_type_symbol
_atom_site_label
_atom_site_fract_x
_atom_site_fract_y
_atom_site_fract_z
Si Si1 0.459966 0.640670 0.377203
Si Si2 0.625673 0.521737 0.051073
Si Si3 0.607988 0.639198 0.773608
Si Si4 0.780113 0.480340 0.258388
Si Si5 0.055964 0.496775 0.534139
Si Si6 0.399424 0.640043 0.167125
Si Si7 0.519223 0.857859 0.493464
O O1 0.409776 0.750000 0.400231
O O2 0.582006 0.581714 0.179519
O O3 0.256040 0.581929 0.619064
O O4 0.587215 0.646227 0.324393
O O5 0.490959 0.424007 0.192684
O O6 0.573821 0.587323 0.028410
O O7 0.857595 0.497790 0.801486
O O8 0.636450 0.750000 0.713531
O O9 0.820417 0.599179 0.574204
O O10 0.452001 0.632707 0.015453
O O11 0.684908 0.419700 0.284655
O O12 0.678832 0.586180 0.376225
O O13 0.000000 0.500000 0.000000
O O14 0.189421 0.590457 0.411084
O O15 0.000000 0.500000 0.500000
O O16 0.383180 0.750000 0.215053
O O17 0.488593 0.750000 0.562492
#
# Coordination Sequence:
#
# PCOD8073080 Si02
#       7
#     4   4   4   4   4   4   4
#     4   9  19  36  56  83 114 140 168 217 276 319
#     4  11  20  36  54  75 113 143 175 223 277 319
#     4  10  21  36  53  72 102 143 190 233 268 314
#     4   9  17  34  59  80 107 143 180 210 256 317
#     4  11  19  34  53  77 102 139 189 229 267 319
#     4  10  20  33  51  77 105 139 183 228 270 318
#     4   8  17  34  54  82 113 138 173 212 256 314
#
# _framework density 18.332977
#
# number of rings (size 3 to 8) (size 9 to 14) (size 15 to 20)
#    0.857    1.429    2.857    1.286    0.000    3.429 
#    5.143    0.714    0.000    1.714    0.000    0.000 
#    0.000    0.000    0.000    0.000    0.000    0.000 
#
# Total GULP energy -346922.876285 kJ/mol
# GULP energy per Si atom -12390.102724 kJ/mol
# Density = 1.829125 g / cm^3
# Si number density = 18.332977 Si / 1000 Ang^3
#
#
#
# Elastic Constant Matrix: (Units=GPa)
#
#
# Indices 1 2 3 4 5 6 
#
# 1 32.1642 27.1038 29.4580 0.0000 -3.1690 0.0000
# 2 27.1038 171.2885 58.4732 0.0000 -11.9022 0.0000
# 3 29.4580 58.4732 132.5120 0.0000 -14.0363 0.0000
# 4 0.0000 0.0000 0.0000 19.5862 0.0000 8.2658
# 5 -3.1690 -11.9022 -14.0363 0.0000 28.5876 0.0000
# 6 0.0000 0.0000 0.0000 8.2658 0.0000 23.4883
#
#
#
# Elastic Compliance Matrix: (Units=1/GPa)
#
#
# Indices 1 2 3 4 5 6 
#
# 1 0.041257 -0.004030 -0.007475 0.000000 -0.000775 0.000000
# 2 -0.004030 0.007324 -0.002173 0.000000 0.001536 0.000000
# 3 -0.007475 -0.002173 0.010531 0.000000 0.003437 0.000000
# 4 0.000000 0.000000 0.000000 0.059961 0.000000 -0.021101
# 5 -0.000775 0.001536 0.003437 0.000000 0.037221 0.000000
# 6 0.000000 0.000000 0.000000 -0.021101 0.000000 0.050000
#
#
# Mechanical properties :
#
#
# Convention : Reuss Voigt Hill
#
# Bulk Modulus (GPa) = 31.49136 62.89273 47.19205
# Shear Modulus (GPa) = 20.47185 29.06107 24.76646
#
# Velocity S-wave (km/s) = 3.34528 3.98575 3.67948
# Velocity P-wave (km/s) = 5.66886 7.45398 6.62185
#
# Compressibility (1/GPa) = 0.03175474
#
# Stress axis : x y z
#
# Youngs Moduli (GPa) = 24.23858 136.52830 94.95399
#
# Poissons Ratio (x) = 0.55024 0.70980
# Poissons Ratio (y) = 0.09769 0.20638
# Poissons Ratio (z) = 0.18119 0.29674
#
# Static dielectric constant tensor:
#      x y z
#    x 3.044960 0.000000 -0.066000 
#    y 0.000000 3.707120 0.000000 
#    z -0.066000 0.000000 3.131710 
# 
# 
# High freq. dielectric constant tensor:
#      x y z
#    x 1.677700 0.000000 -0.008670 
#    y 0.000000 1.727800 0.000000 
#    z -0.008670 0.000000 1.687450 
# 
# From -- ./inp_files/61570.got.cif
#   From: 2010.06.25/outbox.cif.g09.slc.cpg/sg11_31_cif.got.tgz:61570.got - 2010.06.27 23:14:04.
