data_PCOD8073116
_publ_section_title
;
Structure prediction by ZEFSAII (Michael W. Deem and Ramdas Pophale) SiO2 
 PCOD8073116
Probable space group: P 21/M
;
_chemical_formula_sum "Si O2"
_cell_formula_units_Z 28
_cell_length_a 24.513980
_cell_length_b 9.111540
_cell_length_c 19.536676
_cell_angle_alpha 90.000000
_cell_angle_beta 21.184848
_cell_angle_gamma 90.000000
_cell_volume 1576.950279
_symmetry_space_group_name_H-M "P 21/M"
_symmetry_group_IT_number 11
_symmetry_cell_setting 'monoclinic'
loop_
_space_group_symop_operation_xyz
x,y,z
-x,1/2+y,-z
-x,-y,-z
x,1/2-y,z
loop_
_atom_site_type_symbol
_atom_site_label
_atom_site_fract_x
_atom_site_fract_y
_atom_site_fract_z
Si Si1 0.311777 0.917683 0.280849
Si Si2 0.901815 0.421874 0.672892
Si Si3 0.949471 0.918490 0.358398
Si Si4 0.123495 0.577958 0.809799
Si Si5 0.345680 0.082242 0.101784
Si Si6 0.950461 0.079619 0.906591
Si Si7 0.343255 0.579425 0.667602
O O1 0.274797 0.750000 0.304388
O O2 0.197900 0.978176 0.471378
O O3 0.294874 0.018236 0.234097
O O4 0.477465 0.931399 0.118549
O O5 0.900547 0.250000 0.659990
O O6 0.733525 0.488314 0.864967
O O7 0.000000 0.500000 0.500000
O O8 0.955366 0.460550 0.686154
O O9 0.896222 0.750000 0.422524
O O10 0.051129 0.949381 0.172799
O O11 0.090847 0.750000 0.843726
O O12 0.287047 0.550059 0.654623
O O13 0.097365 0.506185 0.765596
O O14 0.000000 0.500000 0.000000
O O15 0.290161 0.250000 0.165263
O O16 0.971995 0.250000 0.899800
O O17 0.789867 0.024651 0.125118
O O18 0.500000 0.500000 0.500000
O O19 0.373553 0.750000 0.644261
#
# Coordination Sequence:
#
# PCOD8073116 Si02
#       7
#     4   4   4   4   4   4   4
#     4  10  20  33  52  75  99 130 169 215 266 317
#     4  11  21  33  52  77 103 137 179 224 270 321
#     4  10  21  36  54  75 104 138 175 220 270 319
#     4   9  17  31  52  78 105 135 171 211 250 300
#     4  10  20  34  51  73 100 130 170 219 266 315
#     4   9  19  36  54  76 105 139 177 218 261 311
#     4   9  18  32  53  80 109 137 171 210 251 301
#
# _framework density 17.755790999999999
#
# number of rings (size 3 to 8) (size 9 to 14) (size 15 to 20)
#    0.000    2.286    1.429    2.571    0.000    5.714 
#    0.000    1.429    0.000    5.143    0.000    0.000 
#    0.000    0.000    0.000    0.000    0.000    0.000 
#
# Total GULP energy -347068.736624 kJ/mol
# GULP energy per Si atom -12395.312022 kJ/mol
# Density = 1.771538 g / cm^3
# Si number density = 17.755791 Si / 1000 Ang^3
#
#
#
# Elastic Constant Matrix: (Units=GPa)
#
#
# Indices 1 2 3 4 5 6 
#
# 1 126.4733 61.0882 59.5886 0.0000 -6.4853 0.0000
# 2 61.0882 95.0568 48.7599 0.0000 -10.7884 0.0000
# 3 59.5886 48.7599 91.8506 0.0000 -8.6702 0.0000
# 4 0.0000 0.0000 0.0000 29.9708 0.0000 -6.2718
# 5 -6.4853 -10.7884 -8.6702 0.0000 27.3868 0.0000
# 6 0.0000 0.0000 0.0000 -6.2718 0.0000 31.0262
#
#
#
# Elastic Compliance Matrix: (Units=1/GPa)
#
#
# Indices 1 2 3 4 5 6 
#
# 1 0.013306 -0.005747 -0.005667 0.000000 -0.000907 0.000000
# 2 -0.005747 0.017246 -0.005065 0.000000 0.003829 0.000000
# 3 -0.005667 -0.005065 0.017460 0.000000 0.002190 0.000000
# 4 0.000000 0.000000 0.000000 0.034840 0.000000 0.007043
# 5 -0.000907 0.003829 0.002190 0.000000 0.038501 0.000000
# 6 0.000000 0.000000 0.000000 0.007043 0.000000 0.033654
#
#
# Mechanical properties :
#
#
# Convention : Reuss Voigt Hill
#
# Bulk Modulus (GPa) = 66.43354 72.47268 69.45311
# Shear Modulus (GPa) = 25.90876 27.27303 26.59089
#
# Velocity S-wave (km/s) = 3.82406 3.92345 3.87407
# Velocity P-wave (km/s) = 7.54945 7.83770 7.69493
#
# Compressibility (1/GPa) = 0.01505264
#
# Stress axis : x y z
#
# Youngs Moduli (GPa) = 75.15147 57.98296 57.27486
#
# Poissons Ratio (x) = 0.33324 0.32459
# Poissons Ratio (y) = 0.43192 0.29012
# Poissons Ratio (z) = 0.42590 0.29371
#
# Static dielectric constant tensor:
#      x y z
#    x 3.207180 0.000000 -0.333840 
#    y 0.000000 3.523380 0.000000 
#    z -0.333840 0.000000 3.188570 
# 
# 
# High freq. dielectric constant tensor:
#      x y z
#    x 1.684190 0.000000 -0.016120 
#    y 0.000000 1.697010 0.000000 
#    z -0.016120 0.000000 1.663870 
# 
# From -- ./inp_files/66875.got.cif
#   From: 2010.06.25/outbox.cif.g09.slc.cpg/sg11_34_cif.got.tgz:66875.got - 2010.06.27 23:14:04.
