data_PCOD8073370
_publ_section_title
;
Structure prediction by ZEFSAII (Michael W. Deem and Ramdas Pophale) SiO2 
 PCOD8073370
Probable space group: P 21/M
;
_chemical_formula_sum "Si O2"
_cell_formula_units_Z 32
_cell_length_a 11.890747
_cell_length_b 9.213395
_cell_length_c 28.844149
_cell_angle_alpha 90.000000
_cell_angle_beta 31.241383
_cell_angle_gamma 90.000000
_cell_volume 1638.915209
_symmetry_space_group_name_H-M "P 21/M"
_symmetry_group_IT_number 11
_symmetry_cell_setting 'monoclinic'
loop_
_space_group_symop_operation_xyz
x,y,z
-x,1/2+y,-z
-x,-y,-z
x,1/2-y,z
loop_
_atom_site_type_symbol
_atom_site_label
_atom_site_fract_x
_atom_site_fract_y
_atom_site_fract_z
Si Si1 0.604817 0.422100 0.836768
Si Si2 0.584997 0.578838 0.424287
Si Si3 0.433301 0.088295 0.322579
Si Si4 0.036768 0.579267 0.219565
Si Si5 0.918043 0.082390 0.170576
Si Si6 0.888291 0.922349 0.995774
Si Si7 0.788356 0.421373 0.676530
Si Si8 0.744736 0.583921 0.518856
O O1 0.606493 0.250000 0.834647
O O2 0.742534 0.474147 0.832829
O O3 0.724797 0.483335 0.748963
O O4 0.358403 0.478417 0.923675
O O5 0.500000 0.500000 0.500000
O O6 0.558993 0.750000 0.440389
O O7 0.440402 0.523762 0.432986
O O8 0.833369 0.537798 0.324375
O O9 0.437224 0.250000 0.299742
O O10 0.252496 0.077095 0.426392
O O11 0.663317 0.052204 0.264696
O O12 0.386384 0.976963 0.298508
O O13 0.036729 0.750000 0.210669
O O14 0.035913 0.504427 0.169822
O O15 0.978169 0.250000 0.156511
O O16 0.992361 0.030488 0.093487
O O17 0.899878 0.750000 0.000078
O O18 0.000000 0.000000 0.000000
O O19 0.780161 0.250000 0.677414
O O20 0.027922 0.477154 0.579951
O O21 0.702920 0.750000 0.516606
#
# Coordination Sequence:
#
# PCOD8073370 Si02
#       8
#     4   4   4   4   4   4   4   4
#     4   9  19  37  57  80 111 144 181 230 280 323
#     4  11  22  35  55  81 110 148 192 235 276 330
#     4  10  20  34  52  76 112 147 179 230 285 332
#     4  10  21  38  59  82 110 147 191 231 273 333
#     4  10  21  37  57  83 115 149 184 230 287 334
#     4  10  21  38  61  86 114 148 184 226 279 336
#     4  10  20  34  55  79 107 145 189 233 276 331
#     4  10  20  35  53  76 109 148 185 228 281 331
#
# _framework density 19.525110000000002
#
# number of rings (size 3 to 8) (size 9 to 14) (size 15 to 20)
#    0.000    2.000    1.250    2.250    0.000    5.000 
#    0.000    1.250    0.000    0.000    0.000    0.000 
#    0.000    0.000    0.000    0.000    0.000    0.000 
#
# Total GULP energy -396803.056705 kJ/mol
# GULP energy per Si atom -12400.095522 kJ/mol
# Density = 1.948067 g / cm^3
# Si number density = 19.525110 Si / 1000 Ang^3
#
#
#
# Elastic Constant Matrix: (Units=GPa)
#
#
# Indices 1 2 3 4 5 6 
#
# 1 137.2941 46.0865 56.2052 0.0000 4.1299 0.0000
# 2 46.0865 44.2402 33.2098 0.0000 0.5690 0.0000
# 3 56.2052 33.2098 116.3357 0.0000 7.1516 0.0000
# 4 0.0000 0.0000 0.0000 18.1240 0.0000 0.9095
# 5 4.1299 0.5690 7.1516 0.0000 34.6012 0.0000
# 6 0.0000 0.0000 0.0000 0.9095 0.0000 36.7079
#
#
#
# Elastic Compliance Matrix: (Units=1/GPa)
#
#
# Indices 1 2 3 4 5 6 
#
# 1 0.011896 -0.010310 -0.002762 0.000000 -0.000679 0.000000
# 2 -0.010310 0.037757 -0.005910 0.000000 0.001831 0.000000
# 3 -0.002762 -0.005910 0.011740 0.000000 -0.002000 0.000000
# 4 0.000000 0.000000 0.000000 0.055244 0.000000 -0.001369
# 5 -0.000679 0.001831 -0.002000 0.000000 0.029365 0.000000
# 6 0.000000 0.000000 0.000000 -0.001369 0.000000 0.027276
#
#
# Mechanical properties :
#
#
# Convention : Reuss Voigt Hill
#
# Bulk Modulus (GPa) = 42.68236 63.20813 52.94524
# Shear Modulus (GPa) = 22.82567 28.71117 25.76842
#
# Velocity S-wave (km/s) = 3.42283 3.83884 3.63679
# Velocity P-wave (km/s) = 6.12607 7.21747 6.69405
#
# Compressibility (1/GPa) = 0.02342888
#
# Stress axis : x y z
#
# Youngs Moduli (GPa) = 84.06428 26.48532 85.17639
#
# Poissons Ratio (x) = 0.27306 0.23528
# Poissons Ratio (y) = 0.86669 0.50338
# Poissons Ratio (z) = 0.23221 0.15652
#
# Static dielectric constant tensor:
#      x y z
#    x 3.543720 0.000000 -0.021010 
#    y 0.000000 3.358700 0.000000 
#    z -0.021010 0.000000 3.828070 
# 
# 
# High freq. dielectric constant tensor:
#      x y z
#    x 1.766430 0.000000 0.002730 
#    y 0.000000 1.736120 0.000000 
#    z 0.002730 0.000000 1.770200 
# 
# From -- ./inp_files/38208.got.cif
#   From: 2010.06.25/outbox.cif.g09.slc.cpg/sg11_20_cif.got.tgz:38208.got - 2010.06.27 23:14:04.
