data_PCOD8073640
_publ_section_title
;
Structure prediction by ZEFSAII (Michael W. Deem and Ramdas Pophale) SiO2 
 PCOD8073640
Probable space group: P 21/M
;
_chemical_formula_sum "Si O2"
_cell_formula_units_Z 28
_cell_length_a 20.865214
_cell_length_b 8.949525
_cell_length_c 15.940850
_cell_angle_alpha 90.000000
_cell_angle_beta 28.060292
_cell_angle_gamma 90.000000
_cell_volume 1400.238478
_symmetry_space_group_name_H-M "P 21/M"
_symmetry_group_IT_number 11
_symmetry_cell_setting 'monoclinic'
loop_
_space_group_symop_operation_xyz
x,y,z
-x,1/2+y,-z
-x,-y,-z
x,1/2-y,z
loop_
_atom_site_type_symbol
_atom_site_label
_atom_site_fract_x
_atom_site_fract_y
_atom_site_fract_z
Si Si1 0.928700 0.572252 0.345738
Si Si2 0.189793 0.074321 0.102986
Si Si3 0.655150 0.918737 0.390473
Si Si4 0.635467 0.576280 0.938097
Si Si5 0.324634 0.923898 0.280168
Si Si6 0.072467 0.419425 0.840291
Si Si7 0.649732 0.422966 0.228569
O O1 0.927280 0.750000 0.353566
O O2 0.780274 0.512915 0.540996
O O3 0.964088 0.517948 0.209753
O O4 0.042835 0.505879 0.276046
O O5 0.165697 0.250000 0.128004
O O6 0.276857 0.026346 0.083188
O O7 0.270167 0.024450 0.928327
O O8 0.651904 0.750000 0.357569
O O9 0.764822 0.935201 0.337419
O O10 0.509944 0.957985 0.598821
O O11 0.694245 0.031910 0.270887
O O12 0.656996 0.750000 0.891218
O O13 0.476326 0.543439 0.139779
O O14 0.689134 0.478400 0.799318
O O15 0.288571 0.750000 0.325283
O O16 0.023925 0.250000 0.901852
O O17 0.000000 0.500000 0.000000
O O18 0.686563 0.250000 0.170905
#
# Coordination Sequence:
#
# PCOD8073640 Si02
#       7
#     4   4   4   4   4   4   4
#     4  11  24  40  60  88 122 158 200 244 293 352
#     4  11  23  39  59  85 119 157 195 241 293 349
#     4   9  19  36  55  77 109 151 195 241 295 349
#     4   9  21  41  64  90 120 155 195 241 294 353
#     4  10  21  40  65  93 120 151 194 242 297 354
#     4  10  22  38  56  80 112 154 198 241 290 344
#     4  10  20  34  55  83 114 147 193 245 295 350
#
# _framework density 19.996596
#
# number of rings (size 3 to 8) (size 9 to 14) (size 15 to 20)
#    0.000    2.000    0.000    2.571    2.000    6.857 
#    0.000    0.000    0.000    0.000    0.000    0.000 
#    0.000    0.000    0.000    0.000    0.000    0.000 
#
# Total GULP energy -347272.819564 kJ/mol
# GULP energy per Si atom -12402.600699 kJ/mol
# Density = 1.995108 g / cm^3
# Si number density = 19.996596 Si / 1000 Ang^3
#
#
#
# Elastic Constant Matrix: (Units=GPa)
#
#
# Indices 1 2 3 4 5 6 
#
# 1 121.9811 46.5638 47.3321 0.0000 -9.9145 0.0000
# 2 46.5638 80.0776 48.4198 0.0000 0.5246 0.0000
# 3 47.3321 48.4198 103.3116 0.0000 2.4032 0.0000
# 4 0.0000 0.0000 0.0000 39.1060 0.0000 0.6055
# 5 -9.9145 0.5246 2.4032 0.0000 18.5697 0.0000
# 6 0.0000 0.0000 0.0000 0.6055 0.0000 29.9443
#
#
#
# Elastic Compliance Matrix: (Units=1/GPa)
#
#
# Indices 1 2 3 4 5 6 
#
# 1 0.011950 -0.005004 -0.003291 0.000000 0.006947 0.000000
# 2 -0.005004 0.019528 -0.006805 0.000000 -0.002343 0.000000
# 3 -0.003291 -0.006805 0.014457 0.000000 -0.003436 0.000000
# 4 0.000000 0.000000 0.000000 0.025580 0.000000 -0.000517
# 5 0.006947 -0.002343 -0.003436 0.000000 0.058071 0.000000
# 6 0.000000 0.000000 0.000000 -0.000517 0.000000 0.033406
#
#
# Mechanical properties :
#
#
# Convention : Reuss Voigt Hill
#
# Bulk Modulus (GPa) = 63.55830 65.55575 64.55702
# Shear Modulus (GPa) = 25.19698 28.39431 26.79564
#
# Velocity S-wave (km/s) = 3.55359 3.77232 3.66459
# Velocity P-wave (km/s) = 6.97789 7.19920 7.08941
#
# Compressibility (1/GPa) = 0.01573359
#
# Stress axis : x y z
#
# Youngs Moduli (GPa) = 83.68227 51.20881 69.17252
#
# Poissons Ratio (x) = 0.25626 0.22765
# Poissons Ratio (y) = 0.41876 0.47073
# Poissons Ratio (z) = 0.27541 0.34848
#
# Static dielectric constant tensor:
#      x y z
#    x 3.806570 0.000000 -0.203090 
#    y 0.000000 3.655600 0.000000 
#    z -0.203090 0.000000 3.624740 
# 
# 
# High freq. dielectric constant tensor:
#      x y z
#    x 1.783340 0.000000 -0.013160 
#    y 0.000000 1.782940 0.000000 
#    z -0.013160 0.000000 1.782500 
# 
# From -- ./inp_files/54479.got.cif
#   From: 2010.06.25/outbox.cif.g09.slc.cpg/sg11_28_cif.got.tgz:54479.got - 2010.06.27 23:14:04.
