data_PCOD8073120
_publ_section_title
;
Structure prediction by ZEFSAII (Michael W. Deem and Ramdas Pophale) SiO2 
 PCOD8073120
Probable space group: P 21/M
;
_chemical_formula_sum "Si O2"
_cell_formula_units_Z 28
_cell_length_a 14.102519
_cell_length_b 8.887519
_cell_length_c 19.097314
_cell_angle_alpha 90.000000
_cell_angle_beta 137.331304
_cell_angle_gamma 90.000000
_cell_volume 1622.273986
_symmetry_space_group_name_H-M "P 21/M"
_symmetry_group_IT_number 11
_symmetry_cell_setting 'monoclinic'
loop_
_space_group_symop_operation_xyz
x,y,z
-x,1/2+y,-z
-x,-y,-z
x,1/2-y,z
loop_
_atom_site_type_symbol
_atom_site_label
_atom_site_fract_x
_atom_site_fract_y
_atom_site_fract_z
Si Si1 0.005109 0.576006 0.613411
Si Si2 0.998457 0.572897 0.105614
Si Si3 0.788966 0.075615 0.395351
Si Si4 0.094645 0.572177 0.309769
Si Si5 0.524995 0.573794 0.301846
Si Si6 0.787825 0.072600 0.896310
Si Si7 0.393951 0.073343 0.496157
O O1 0.981341 0.750000 0.618956
O O2 0.147734 0.549951 0.647654
O O3 0.872224 0.522805 0.496702
O O4 0.014391 0.480418 0.689751
O O5 0.979148 0.750000 0.092007
O O6 0.032443 0.518089 0.202143
O O7 0.125004 0.518986 0.124324
O O8 0.853399 0.498681 0.001933
O O9 0.799367 0.250000 0.422734
O O10 0.629813 0.018824 0.308801
O O11 0.116166 0.750000 0.323405
O O12 0.241641 0.493901 0.402738
O O13 0.543535 0.750000 0.297045
O O14 0.370471 0.516555 0.198503
O O15 0.553091 0.534669 0.397657
O O16 0.793595 0.250000 0.906767
O O17 0.389582 0.250000 0.480242
O O18 0.500000 0.000000 0.500000
#
# Coordination Sequence:
#
# PCOD8073120 Si02
#       7
#     4   4   4   4   4   4   4
#     4  10  20  34  51  75 105 136 172 214 258 308
#     4   9  19  35  53  75 103 134 173 218 256 300
#     4  10  20  33  52  76 103 136 174 213 256 310
#     4  11  21  34  53  77 105 137 173 213 260 311
#     4  10  20  34  52  75 106 138 170 213 260 307
#     4   9  18  34  54  75 101 136 174 212 256 305
#     4  11  22  34  49  73 107 142 171 207 256 309
#
# _framework density 17.259723000000001
#
# number of rings (size 3 to 8) (size 9 to 14) (size 15 to 20)
#    0.000    2.000    1.429    2.571    0.000    6.286 
#    0.000    2.857    0.000    0.857    0.000    0.000 
#    0.000    0.000    0.000    0.000    0.000    0.000 
#
# Total GULP energy -347281.631777 kJ/mol
# GULP energy per Si atom -12402.915421 kJ/mol
# Density = 1.722044 g / cm^3
# Si number density = 17.259723 Si / 1000 Ang^3
#
#
#
# Elastic Constant Matrix: (Units=GPa)
#
#
# Indices 1 2 3 4 5 6 
#
# 1 115.1382 44.9822 65.4747 0.0000 6.4954 0.0000
# 2 44.9822 58.0502 46.5995 0.0000 0.6321 0.0000
# 3 65.4747 46.5995 131.5620 0.0000 6.9522 0.0000
# 4 0.0000 0.0000 0.0000 28.9025 0.0000 0.4480
# 5 6.4954 0.6321 6.9522 0.0000 24.5525 0.0000
# 6 0.0000 0.0000 0.0000 0.4480 0.0000 32.2463
#
#
#
# Elastic Compliance Matrix: (Units=1/GPa)
#
#
# Indices 1 2 3 4 5 6 
#
# 1 0.014192 -0.007548 -0.004265 0.000000 -0.002353 0.000000
# 2 -0.007548 0.028165 -0.006383 0.000000 0.003079 0.000000
# 3 -0.004265 -0.006383 0.012097 0.000000 -0.002133 0.000000
# 4 0.000000 0.000000 0.000000 0.034607 0.000000 -0.000481
# 5 -0.002353 0.003079 -0.002133 0.000000 0.041876 0.000000
# 6 0.000000 0.000000 0.000000 -0.000481 0.000000 0.031018
#
#
# Mechanical properties :
#
#
# Convention : Reuss Voigt Hill
#
# Bulk Modulus (GPa) = 55.36109 68.76261 62.06185
# Shear Modulus (GPa) = 24.46575 26.98653 25.72614
#
# Velocity S-wave (km/s) = 3.76906 3.95847 3.86493
# Velocity P-wave (km/s) = 7.14745 7.79866 7.48014
#
# Compressibility (1/GPa) = 0.01806323
#
# Stress axis : x y z
#
# Youngs Moduli (GPa) = 70.46118 35.50489 82.66430
#
# Poissons Ratio (x) = 0.26798 0.35259
# Poissons Ratio (y) = 0.53182 0.52761
# Poissons Ratio (z) = 0.30054 0.22661
#
# Static dielectric constant tensor:
#      x y z
#    x 3.290090 0.000000 -0.010650 
#    y 0.000000 3.292060 0.000000 
#    z -0.010650 0.000000 3.178860 
# 
# 
# High freq. dielectric constant tensor:
#      x y z
#    x 1.668810 0.000000 -0.000390 
#    y 0.000000 1.673880 0.000000 
#    z -0.000390 0.000000 1.649280 
# 
# From -- ./inp_files/53293.got.cif
#   From: 2010.06.25/outbox.cif.g09.slc.cpg/sg11_27_cif.got.tgz:53293.got - 2010.06.27 23:14:04.
