data_PCOD8073904
_publ_section_title
;
Structure prediction by ZEFSAII (Michael W. Deem and Ramdas Pophale) SiO2 
 PCOD8073904
Probable space group: P 21/M
;
_chemical_formula_sum "Si O2"
_cell_formula_units_Z 32
_cell_length_a 16.194443
_cell_length_b 12.332611
_cell_length_c 7.964533
_cell_angle_alpha 90.000000
_cell_angle_beta 97.036705
_cell_angle_gamma 90.000000
_cell_volume 1578.693507
_symmetry_space_group_name_H-M "P 21/M"
_symmetry_group_IT_number 11
_symmetry_cell_setting 'monoclinic'
loop_
_space_group_symop_operation_xyz
x,y,z
-x,1/2+y,-z
-x,-y,-z
x,1/2-y,z
loop_
_atom_site_type_symbol
_atom_site_label
_atom_site_fract_x
_atom_site_fract_y
_atom_site_fract_z
Si Si1 0.888892 0.487640 0.825074
Si Si2 0.884064 0.626801 0.498788
Si Si3 0.633367 0.031119 0.082759
Si Si4 0.705650 0.629450 0.329439
Si Si5 0.942252 0.623352 0.146241
Si Si6 0.290108 0.622090 0.229159
Si Si7 0.524251 0.869742 0.864970
Si Si8 0.408963 0.038409 0.436628
O O1 0.913043 0.556303 0.664759
O O2 0.802115 0.426472 0.782493
O O3 0.960612 0.397748 0.864346
O O4 0.886804 0.562609 0.991267
O O5 0.915114 0.750000 0.535487
O O6 0.784570 0.620001 0.469888
O O7 0.918738 0.582805 0.328530
O O8 0.575066 0.105142 0.189673
O O9 0.708589 0.966604 0.191868
O O10 0.671845 0.103571 0.945588
O O11 0.565428 0.942529 0.016091
O O12 0.703014 0.750000 0.246511
O O13 0.623928 0.610412 0.419435
O O14 0.921772 0.750000 0.124633
O O15 0.287770 0.750000 0.268056
O O16 0.348062 0.562777 0.380576
O O17 0.531070 0.750000 0.937335
O O18 0.581840 0.880793 0.716409
O O19 0.500000 0.000000 0.500000
#
# Coordination Sequence:
#
# PCOD8073904 Si02
#       8
#     4   4   4   4   4   4   4   4
#     4  11  21  40  65  91 129 162 203 253 304 375
#     4  10  21  38  61  91 124 160 202 253 310 365
#     4  10  21  37  55  80 113 148 199 250 300 362
#     4  11  21  37  60  86 118 154 198 254 307 359
#     4  10  22  39  65  96 125 163 203 249 309 371
#     4  11  24  41  62  85 120 163 201 250 309 364
#     4  10  20  35  54  77 107 149 197 248 302 356
#     4  11  22  40  56  83 117 155 205 251 299 361
#
# _framework density 20.269924
#
# number of rings (size 3 to 8) (size 9 to 14) (size 15 to 20)
#    0.000    1.500    2.500    3.000    0.000    1.000 
#    0.000    1.250    0.000    3.000    0.000    0.000 
#    0.000    0.000    0.000    0.000    0.000    0.000 
#
# Total GULP energy -396656.684350 kJ/mol
# GULP energy per Si atom -12395.521386 kJ/mol
# Density = 2.022379 g / cm^3
# Si number density = 20.269924 Si / 1000 Ang^3
#
#
#
# Elastic Constant Matrix: (Units=GPa)
#
#
# Indices 1 2 3 4 5 6 
#
# 1 96.0305 32.8875 14.0957 0.0000 2.0731 0.0000
# 2 32.8875 93.8815 30.7815 0.0000 -0.8648 0.0000
# 3 14.0957 30.7815 86.0946 0.0000 -4.6244 0.0000
# 4 0.0000 0.0000 0.0000 18.7873 0.0000 3.1302
# 5 2.0731 -0.8648 -4.6244 0.0000 32.6245 0.0000
# 6 0.0000 0.0000 0.0000 3.1302 0.0000 24.9542
#
#
#
# Elastic Compliance Matrix: (Units=1/GPa)
#
#
# Indices 1 2 3 4 5 6 
#
# 1 0.011882 -0.003984 -0.000572 0.000000 -0.000942 0.000000
# 2 -0.003984 0.013405 -0.004139 0.000000 0.000022 0.000000
# 3 -0.000572 -0.004139 0.013286 0.000000 0.001810 0.000000
# 4 0.000000 0.000000 0.000000 0.054364 0.000000 -0.006819
# 5 -0.000942 0.000022 0.001810 0.000000 0.030969 0.000000
# 6 0.000000 0.000000 0.000000 -0.006819 0.000000 0.040929
#
#
# Mechanical properties :
#
#
# Convention : Reuss Voigt Hill
#
# Bulk Modulus (GPa) = 47.20676 47.94846 47.57761
# Shear Modulus (GPa) = 26.41541 28.48931 27.45236
#
# Velocity S-wave (km/s) = 3.61388 3.75306 3.68413
# Velocity P-wave (km/s) = 6.38382 6.51820 6.45136
#
# Compressibility (1/GPa) = 0.02118341
#
# Stress axis : x y z
#
# Youngs Moduli (GPa) = 84.16201 74.60165 75.26825
#
# Poissons Ratio (x) = 0.29718 0.04303
# Poissons Ratio (y) = 0.33526 0.31155
# Poissons Ratio (z) = 0.04811 0.30879
#
# Static dielectric constant tensor:
#      x y z
#    x 3.740760 0.000000 -0.118160 
#    y 0.000000 3.703610 0.000000 
#    z -0.118160 0.000000 3.804540 
# 
# 
# High freq. dielectric constant tensor:
#      x y z
#    x 1.795820 0.000000 -0.006700 
#    y 0.000000 1.787540 0.000000 
#    z -0.006700 0.000000 1.789870 
# 
# From -- ./inp_files/21539.got.cif
#   From: 2010.06.25/outbox.cif.g09.slc.cpg/sg11_11_cif.got.tgz:21539.got - 2010.06.27 23:14:04.
