data_PCOD8073976
_publ_section_title
;
Structure prediction by ZEFSAII (Michael W. Deem and Ramdas Pophale) SiO2 
 PCOD8073976
Probable space group: P 21/M
;
_chemical_formula_sum "Si O2"
_cell_formula_units_Z 32
_cell_length_a 25.680083
_cell_length_b 14.082413
_cell_length_c 8.631931
_cell_angle_alpha 90.000000
_cell_angle_beta 147.175357
_cell_angle_gamma 90.000000
_cell_volume 1692.141137
_symmetry_space_group_name_H-M "P 21/M"
_symmetry_group_IT_number 11
_symmetry_cell_setting 'monoclinic'
loop_
_space_group_symop_operation_xyz
x,y,z
-x,1/2+y,-z
-x,-y,-z
x,1/2-y,z
loop_
_atom_site_type_symbol
_atom_site_label
_atom_site_fract_x
_atom_site_fract_y
_atom_site_fract_z
Si Si1 0.846765 0.009168 0.187528
Si Si2 0.977437 0.858926 0.012996
Si Si3 0.977437 0.858926 0.374188
Si Si4 0.846765 0.490832 0.546295
Si Si5 0.357018 0.989437 0.461739
Si Si6 0.511752 0.858633 0.711059
Si Si7 0.511752 0.858633 0.347701
Si Si8 0.642982 0.010563 0.176647
O O1 0.818475 0.009072 0.296186
O O2 0.892335 0.907691 0.257820
O O3 0.921155 0.092669 0.332084
O O4 0.753170 0.029671 0.852926
O O5 0.983606 0.750000 0.977206
O O6 0.953496 0.870488 0.133740
O O7 0.892334 0.907691 0.703854
O O8 0.078845 0.907331 0.226309
O O9 0.983605 0.750000 0.440823
O O10 0.753170 0.470329 0.412922
O O11 0.418447 0.897871 0.565955
O O12 0.369948 0.007318 0.674870
O O13 0.393729 0.082910 0.463899
O O14 0.527994 0.750000 0.799875
O O15 0.493798 0.870033 0.484495
O O16 0.606272 0.917090 0.995257
O O17 0.527994 0.750000 0.340096
O O18 0.418447 0.897871 0.026280
#
# Coordination Sequence:
#
# PCOD8073976 Si02
#       8
#     4   4   4   4   4   4   4   4
#     4  10  20  35  55  79 108 141 178 219 265 317
#     4   9  19  36  56  78 105 138 177 221 268 316
#     4   9  19  36  56  78 105 138 177 221 268 316
#     4  10  20  35  55  79 108 141 178 219 265 317
#     4  11  22  36  56  81 111 144 178 220 267 317
#     4  10  21  38  59  81 107 140 179 223 269 318
#     4  10  21  38  59  81 107 140 179 223 269 318
#     4  11  22  36  56  81 111 144 178 220 267 317
#
# _framework density 18.910951000000001
#
# number of rings (size 3 to 8) (size 9 to 14) (size 15 to 20)
#    0.000    2.000    0.000    5.250    0.000    5.500 
#    0.000    2.500    0.000    0.000    0.000    0.000 
#    0.000    0.000    0.000    0.000    0.000    0.000 
#
# Total GULP energy -396954.335702 kJ/mol
# GULP energy per Si atom -12404.822991 kJ/mol
# Density = 1.886791 g / cm^3
# Si number density = 18.910951 Si / 1000 Ang^3
#
#
#
# Elastic Constant Matrix: (Units=GPa)
#
#
# Indices 1 2 3 4 5 6 
#
# 1 73.0914 9.6232 8.8659 0.0000 7.2043 0.0000
# 2 9.6232 79.0314 -3.2158 0.0000 -12.9392 0.0000
# 3 8.8659 -3.2158 75.9736 0.0000 -4.3023 0.0000
# 4 0.0000 0.0000 0.0000 15.3820 0.0000 -3.9384
# 5 7.2043 -12.9392 -4.3023 0.0000 24.0925 0.0000
# 6 0.0000 0.0000 0.0000 -3.9384 0.0000 19.2901
#
#
#
# Elastic Compliance Matrix: (Units=1/GPa)
#
#
# Indices 1 2 3 4 5 6 
#
# 1 0.014984 -0.002977 -0.002241 0.000000 -0.006479 0.000000
# 2 -0.002977 0.014543 0.001470 0.000000 0.008963 0.000000
# 3 -0.002241 0.001470 0.013708 0.000000 0.003908 0.000000
# 4 0.000000 0.000000 0.000000 0.068597 0.000000 0.014005
# 5 -0.006479 0.008963 0.003908 0.000000 0.048956 0.000000
# 6 0.000000 0.000000 0.000000 0.014005 0.000000 0.054699
#
#
# Mechanical properties :
#
#
# Convention : Reuss Voigt Hill
#
# Bulk Modulus (GPa) = 27.98035 28.73810 28.35923
# Shear Modulus (GPa) = 21.28614 25.94114 23.61364
#
# Velocity S-wave (km/s) = 3.35863 3.70774 3.53749
# Velocity P-wave (km/s) = 5.46521 5.79304 5.63151
#
# Compressibility (1/GPa) = 0.03573937
#
# Stress axis : x y z
#
# Youngs Moduli (GPa) = 66.73818 68.76194 72.95228
#
# Poissons Ratio (x) = 0.20467 0.16352
# Poissons Ratio (y) = 0.19865 -0.10728
# Poissons Ratio (z) = 0.14959 -0.10111
#
# Static dielectric constant tensor:
#      x y z
#    x 3.487220 0.000000 -0.049130 
#    y 0.000000 3.519040 0.000000 
#    z -0.049130 0.000000 3.438450 
# 
# 
# High freq. dielectric constant tensor:
#      x y z
#    x 1.741820 0.000000 -0.004090 
#    y 0.000000 1.734310 0.000000 
#    z -0.004090 0.000000 1.737750 
# 
# From -- ./inp_files/28862.got.cif
#   From: 2010.06.25/outbox.cif.g09.slc.cpg/sg11_15_cif.got.tgz:28862.got - 2010.06.27 23:14:04.
