data_PCOD8073788
_publ_section_title
;
Structure prediction by ZEFSAII (Michael W. Deem and Ramdas Pophale) SiO2 
 PCOD8073788
Probable space group: P 21/M
;
_chemical_formula_sum "Si O2"
_cell_formula_units_Z 28
_cell_length_a 11.920188
_cell_length_b 8.839463
_cell_length_c 14.014591
_cell_angle_alpha 90.000000
_cell_angle_beta 95.746185
_cell_angle_gamma 90.000000
_cell_volume 1469.270184
_symmetry_space_group_name_H-M "P 21/M"
_symmetry_group_IT_number 11
_symmetry_cell_setting 'monoclinic'
loop_
_space_group_symop_operation_xyz
x,y,z
-x,1/2+y,-z
-x,-y,-z
x,1/2-y,z
loop_
_atom_site_type_symbol
_atom_site_label
_atom_site_fract_x
_atom_site_fract_y
_atom_site_fract_z
Si Si1 0.855984 0.576786 0.217004
Si Si2 0.069049 0.074584 0.312063
Si Si3 0.882294 0.428287 0.019574
Si Si4 0.246094 0.925653 0.453526
Si Si5 0.669109 0.923161 0.353052
Si Si6 0.414856 0.926130 0.301637
Si Si7 0.241082 0.425159 0.157386
O O1 0.880431 0.750000 0.190504
O O2 0.848384 0.474997 0.122802
O O3 0.737873 0.560980 0.261282
O O4 0.954247 0.519111 0.295265
O O5 0.040419 0.250000 0.322466
O O6 0.140578 0.043709 0.222898
O O7 0.136991 0.018295 0.410098
O O8 0.895550 0.250000 0.015951
O O9 0.783904 0.482407 0.940566
O O10 0.000000 0.500000 0.000000
O O11 0.215189 0.750000 0.447339
O O12 0.352456 0.963760 0.395423
O O13 0.275106 0.972196 0.562765
O O14 0.667738 0.750000 0.389554
O O15 0.543000 0.980947 0.322199
O O16 0.406362 0.750000 0.275410
O O17 0.358989 0.018764 0.210669
O O18 0.251222 0.250000 0.132183
#
# Coordination Sequence:
#
# PCOD8073788 Si02
#       7
#     4   4   4   4   4   4   4
#     4  11  23  38  57  82 115 151 189 232 281 339
#     4  10  20  35  56  82 114 148 185 233 285 337
#     4  12  23  37  60  87 115 147 184 229 280 337
#     4  10  20  34  58  86 112 146 190 238 284 335
#     4  10  22  39  57  80 114 154 191 233 283 335
#     4   9  19  37  59  84 114 148 190 236 282 331
#     4  10  20  35  58  88 115 143 185 235 283 330
#
# _framework density 19.057082000000001
#
# number of rings (size 3 to 8) (size 9 to 14) (size 15 to 20)
#    0.000    1.714    1.429    3.429    0.000    4.000 
#    0.000    0.714    0.000    0.000    0.000    0.000 
#    0.000    0.000    0.000    0.000    0.000    0.000 
#
# Total GULP energy -347380.875968 kJ/mol
# GULP energy per Si atom -12406.459856 kJ/mol
# Density = 1.901371 g / cm^3
# Si number density = 19.057082 Si / 1000 Ang^3
#
#
#
# Elastic Constant Matrix: (Units=GPa)
#
#
# Indices 1 2 3 4 5 6 
#
# 1 53.9841 24.4691 34.3730 0.0000 2.1993 0.0000
# 2 24.4691 102.7220 48.0715 0.0000 3.8963 0.0000
# 3 34.3730 48.0715 108.6073 0.0000 10.8296 0.0000
# 4 0.0000 0.0000 0.0000 37.9433 0.0000 4.8249
# 5 2.1993 3.8963 10.8296 0.0000 21.2642 0.0000
# 6 0.0000 0.0000 0.0000 4.8249 0.0000 25.5644
#
#
#
# Elastic Compliance Matrix: (Units=1/GPa)
#
#
# Indices 1 2 3 4 5 6 
#
# 1 0.023815 -0.002692 -0.006478 0.000000 0.001329 0.000000
# 2 -0.002692 0.012588 -0.004759 0.000000 0.000396 0.000000
# 3 -0.006478 -0.004759 0.013917 0.000000 -0.005546 0.000000
# 4 0.000000 0.000000 0.000000 0.027003 0.000000 -0.005096
# 5 0.001329 0.000396 -0.005546 0.000000 0.049642 0.000000
# 6 0.000000 0.000000 0.000000 -0.005096 0.000000 0.040079
#
#
# Mechanical properties :
#
#
# Convention : Reuss Voigt Hill
#
# Bulk Modulus (GPa) = 44.51989 53.23787 48.87888
# Shear Modulus (GPa) = 24.70471 27.51435 26.10953
#
# Velocity S-wave (km/s) = 3.60440 3.80384 3.70546
# Velocity P-wave (km/s) = 6.38234 6.87669 6.63412
#
# Compressibility (1/GPa) = 0.02246187
#
# Stress axis : x y z
#
# Youngs Moduli (GPa) = 41.99084 79.43768 71.85233
#
# Poissons Ratio (x) = 0.21381 0.46548
# Poissons Ratio (y) = 0.11302 0.34198
# Poissons Ratio (z) = 0.27203 0.37808
#
# Static dielectric constant tensor:
#      x y z
#    x 3.456570 0.000000 0.122530 
#    y 0.000000 3.569050 0.000000 
#    z 0.122530 0.000000 3.466550 
# 
# 
# High freq. dielectric constant tensor:
#      x y z
#    x 1.729340 0.000000 0.012620 
#    y 0.000000 1.751060 0.000000 
#    z 0.012620 0.000000 1.741660 
# 
# From -- ./inp_files/44601.got.cif
#   From: 2010.06.25/outbox.cif.g09.slc.cpg/sg11_23_cif.got.tgz:44601.got - 2010.06.27 23:14:04.
