data_PCOD8073045
_publ_section_title
;
Structure prediction by ZEFSAII (Michael W. Deem and Ramdas Pophale) SiO2 
 PCOD8073045
Probable space group: P 21/M
;
_chemical_formula_sum "Si O2"
_cell_formula_units_Z 32
_cell_length_a 18.854001
_cell_length_b 8.914923
_cell_length_c 25.485340
_cell_angle_alpha 90.000000
_cell_angle_beta 23.943862
_cell_angle_gamma 90.000000
_cell_volume 1738.472646
_symmetry_space_group_name_H-M "P 21/M"
_symmetry_group_IT_number 11
_symmetry_cell_setting 'monoclinic'
loop_
_space_group_symop_operation_xyz
x,y,z
-x,1/2+y,-z
-x,-y,-z
x,1/2-y,z
loop_
_atom_site_type_symbol
_atom_site_label
_atom_site_fract_x
_atom_site_fract_y
_atom_site_fract_z
Si Si1 0.993039 0.081429 0.377274
Si Si2 0.840986 0.422147 0.890818
Si Si3 0.837920 0.417268 0.366247
Si Si4 0.823158 0.071405 0.099618
Si Si5 0.473560 0.084272 0.385718
Si Si6 0.684075 0.077622 0.882352
Si Si7 0.661480 0.927505 0.107874
Si Si8 0.325058 0.082050 0.369784
O O1 0.022481 0.250000 0.377906
O O2 0.907765 0.082986 0.377850
O O3 0.864821 0.996006 0.504366
O O4 0.178517 0.997916 0.250289
O O5 0.838360 0.250000 0.911672
O O6 0.745278 0.441969 0.900412
O O7 0.042142 0.475364 0.750399
O O8 0.742023 0.529451 0.997773
O O9 0.840084 0.250000 0.341053
O O10 0.637517 0.475836 0.501292
O O11 0.838665 0.250000 0.083587
O O12 0.672791 0.027786 0.243648
O O13 0.778383 0.004168 0.073420
O O14 0.000000 0.000000 0.000000
O O15 0.470843 0.250000 0.412711
O O16 0.387086 0.090408 0.387342
O O17 0.667903 0.250000 0.877244
O O18 0.500000 0.000000 0.000000
O O19 0.663194 0.750000 0.114741
O O20 0.462321 0.985729 0.243350
O O21 0.312208 0.250000 0.354900
#
# Coordination Sequence:
#
# PCOD8073045 Si02
#       8
#     4   4   4   4   4   4   4   4
#     4   9  16  27  45  70  98 126 161 204 246 289
#     4  10  20  34  51  72 100 133 166 202 247 296
#     4   9  16  26  44  70  96 123 159 203 244 284
#     4  10  20  34  52  75 103 134 168 205 247 295
#     4   8  15  27  44  67  95 126 159 198 241 285
#     4  10  20  33  51  74 101 133 167 205 249 297
#     4  11  21  33  51  75 102 132 167 206 248 294
#     4   9  16  28  46  69  97 127 162 203 246 290
#
# _framework density 18.406963000000001
#
# number of rings (size 3 to 8) (size 9 to 14) (size 15 to 20)
#    0.000    2.500    0.000    4.125    0.000    8.000 
#    0.000    0.000    0.000    1.500    0.000    0.000 
#    0.000    0.000    0.000    0.000    0.000    0.000 
#
# Total GULP energy -396755.111408 kJ/mol
# GULP energy per Si atom -12398.597232 kJ/mol
# Density = 1.836507 g / cm^3
# Si number density = 18.406963 Si / 1000 Ang^3
#
#
#
# Elastic Constant Matrix: (Units=GPa)
#
#
# Indices 1 2 3 4 5 6 
#
# 1 19.1760 27.8527 32.5558 0.0000 -6.2403 0.0000
# 2 27.8527 151.2150 79.3558 0.0000 -10.3261 0.0000
# 3 32.5558 79.3558 166.1979 0.0000 -18.8415 0.0000
# 4 0.0000 0.0000 0.0000 41.1450 0.0000 -1.3837
# 5 -6.2403 -10.3261 -18.8415 0.0000 24.7401 0.0000
# 6 0.0000 0.0000 0.0000 -1.3837 0.0000 20.4207
#
#
#
# Elastic Compliance Matrix: (Units=1/GPa)
#
#
# Indices 1 2 3 4 5 6 
#
# 1 0.089238 -0.009581 -0.011829 0.000000 0.009501 0.000000
# 2 -0.009581 0.009859 -0.002887 0.000000 -0.000501 0.000000
# 3 -0.011829 -0.002887 0.010111 0.000000 0.003511 0.000000
# 4 0.000000 0.000000 0.000000 0.024360 0.000000 0.001651
# 5 0.009501 -0.000501 0.003511 0.000000 0.045282 0.000000
# 6 0.000000 0.000000 0.000000 0.001651 0.000000 0.049082
#
#
# Mechanical properties :
#
#
# Convention : Reuss Voigt Hill
#
# Bulk Modulus (GPa) = 16.49779 68.45752 42.47766
# Shear Modulus (GPa) = 16.85033 30.38279 23.61656
#
# Velocity S-wave (km/s) = 3.02889 4.06718 3.58582
# Velocity P-wave (km/s) = 4.60592 7.70245 6.34596
#
# Compressibility (1/GPa) = 0.06061416
#
# Stress axis : x y z
#
# Youngs Moduli (GPa) = 11.20596 101.43120 98.90410
#
# Poissons Ratio (x) = 0.97177 1.16992
# Poissons Ratio (y) = 0.10736 0.28558
# Poissons Ratio (z) = 0.13255 0.29288
#
# Static dielectric constant tensor:
#      x y z
#    x 2.837550 0.000000 -0.070830 
#    y 0.000000 3.643460 0.000000 
#    z -0.070830 0.000000 3.716470 
# 
# 
# High freq. dielectric constant tensor:
#      x y z
#    x 1.645140 0.000000 -0.005900 
#    y 0.000000 1.732110 0.000000 
#    z -0.005900 0.000000 1.733500 
# 
# From -- ./inp_files/72092.got.cif
#   From: 2010.06.25/outbox.cif.g09.slc.cpg/sg11_37_cif.got.tgz:72092.got - 2010.06.27 23:14:04.
