data_PCOD8073057
_publ_section_title
;
Structure prediction by ZEFSAII (Michael W. Deem and Ramdas Pophale) SiO2 
 PCOD8073057
Probable space group: P 21/M
;
_chemical_formula_sum "Si O2"
_cell_formula_units_Z 32
_cell_length_a 16.730830
_cell_length_b 14.232361
_cell_length_c 20.051458
_cell_angle_alpha 90.000000
_cell_angle_beta 20.299799
_cell_angle_gamma 90.000000
_cell_volume 1656.476223
_symmetry_space_group_name_H-M "P 21/M"
_symmetry_group_IT_number 11
_symmetry_cell_setting 'monoclinic'
loop_
_space_group_symop_operation_xyz
x,y,z
-x,1/2+y,-z
-x,-y,-z
x,1/2-y,z
loop_
_atom_site_type_symbol
_atom_site_label
_atom_site_fract_x
_atom_site_fract_y
_atom_site_fract_z
Si Si1 0.266378 0.510131 0.771595
Si Si2 0.170249 0.143255 0.454159
Si Si3 0.133898 0.643716 0.631360
Si Si4 0.327044 0.037134 0.989997
Si Si5 0.661136 0.357344 0.818910
Si Si6 0.453767 0.501023 0.315252
Si Si7 0.454799 0.646179 0.945905
Si Si8 0.424512 0.858154 0.533731
O O1 0.413168 0.530385 0.722811
O O2 0.350316 0.415853 0.667270
O O3 0.312877 0.599504 0.688014
O O4 0.000000 0.500000 0.000000
O O5 0.163094 0.250000 0.485890
O O6 0.301191 0.134643 0.281384
O O7 0.913703 0.105710 0.641798
O O8 0.297709 0.084438 0.411631
O O9 0.126027 0.750000 0.612415
O O10 0.292676 0.589813 0.455008
O O11 0.226674 0.634708 0.633444
O O12 0.877723 0.604569 0.829991
O O13 0.562102 0.076498 0.838759
O O14 0.358236 0.032995 0.886187
O O15 0.278001 0.931830 0.055759
O O16 0.671277 0.250000 0.785028
O O17 0.500922 0.366898 0.009956
O O18 0.347460 0.750000 0.016245
O O19 0.498762 0.750000 0.488050
#
# Coordination Sequence:
#
# PCOD8073057 Si02
#       8
#     4   4   4   4   4   4   4   4
#     4  10  20  37  60  85 115 148 188 235 281 337
#     4   9  19  36  54  75 108 143 179 227 277 324
#     4  10  21  37  55  79 113 146 178 222 273 324
#     4  11  21  34  55  81 109 143 185 227 271 326
#     4  10  20  33  51  75 103 142 189 230 270 320
#     4  10  22  36  56  83 110 143 181 224 278 331
#     4   9  19  34  51  72 101 140 183 227 273 319
#     4   9  20  38  59  84 115 150 186 226 279 340
#
# _framework density 19.318117000000001
#
# number of rings (size 3 to 8) (size 9 to 14) (size 15 to 20)
#    0.000    2.250    0.000    2.250    0.000    5.000 
#    0.000    3.750    0.000   13.500    0.000    0.000 
#    0.000    0.000    0.000    0.000    0.000    0.000 
#
# Total GULP energy -396827.624400 kJ/mol
# GULP energy per Si atom -12400.863263 kJ/mol
# Density = 1.927415 g / cm^3
# Si number density = 19.318117 Si / 1000 Ang^3
#
#
#
# Elastic Constant Matrix: (Units=GPa)
#
#
# Indices 1 2 3 4 5 6 
#
# 1 66.9847 36.9925 27.4897 0.0000 7.3558 0.0000
# 2 36.9925 118.3152 43.2499 0.0000 -1.7161 0.0000
# 3 27.4897 43.2499 85.6031 0.0000 -4.5425 0.0000
# 4 0.0000 0.0000 0.0000 27.8697 0.0000 -0.2380
# 5 7.3558 -1.7161 -4.5425 0.0000 31.7561 0.0000
# 6 0.0000 0.0000 0.0000 -0.2380 0.0000 25.0633
#
#
#
# Elastic Compliance Matrix: (Units=1/GPa)
#
#
# Indices 1 2 3 4 5 6 
#
# 1 0.019907 -0.004735 -0.004291 0.000000 -0.005481 0.000000
# 2 -0.004735 0.011494 -0.004228 0.000000 0.001113 0.000000
# 3 -0.004291 -0.004228 0.015353 0.000000 0.002962 0.000000
# 4 0.000000 0.000000 0.000000 0.035884 0.000000 0.000341
# 5 -0.005481 0.001113 0.002962 0.000000 0.033243 0.000000
# 6 0.000000 0.000000 0.000000 0.000341 0.000000 0.039902
#
#
# Mechanical properties :
#
#
# Convention : Reuss Voigt Hill
#
# Bulk Modulus (GPa) = 49.39213 54.04079 51.71646
# Shear Modulus (GPa) = 26.44955 27.81587 27.13271
#
# Velocity S-wave (km/s) = 3.70423 3.79870 3.75176
# Velocity P-wave (km/s) = 6.62709 6.87568 6.75253
#
# Compressibility (1/GPa) = 0.02024614
#
# Stress axis : x y z
#
# Youngs Moduli (GPa) = 50.23483 87.00250 65.13415
#
# Poissons Ratio (x) = 0.41194 0.27950
# Poissons Ratio (y) = 0.23785 0.27536
# Poissons Ratio (z) = 0.21557 0.36781
#
# Static dielectric constant tensor:
#      x y z
#    x 3.448700 0.000000 0.136350 
#    y 0.000000 3.764060 0.000000 
#    z 0.136350 0.000000 3.508830 
# 
# 
# High freq. dielectric constant tensor:
#      x y z
#    x 1.744400 0.000000 0.013810 
#    y 0.000000 1.762160 0.000000 
#    z 0.013810 0.000000 1.752270 
# 
# From -- ./inp_files/66275.got.cif
#   From: 2010.06.25/outbox.cif.g09.slc.cpg/sg11_34_cif.got.tgz:66275.got - 2010.06.27 23:14:04.
