data_PCOD8073697
_publ_section_title
;
Structure prediction by ZEFSAII (Michael W. Deem and Ramdas Pophale) SiO2 
 PCOD8073697
Probable space group: P 21/M
;
_chemical_formula_sum "Si O2"
_cell_formula_units_Z 32
_cell_length_a 12.264974
_cell_length_b 8.753454
_cell_length_c 33.039698
_cell_angle_alpha 90.000000
_cell_angle_beta 28.701587
_cell_angle_gamma 90.000000
_cell_volume 1703.521159
_symmetry_space_group_name_H-M "P 21/M"
_symmetry_group_IT_number 11
_symmetry_cell_setting 'monoclinic'
loop_
_space_group_symop_operation_xyz
x,y,z
-x,1/2+y,-z
-x,-y,-z
x,1/2-y,z
loop_
_atom_site_type_symbol
_atom_site_label
_atom_site_fract_x
_atom_site_fract_y
_atom_site_fract_z
Si Si1 0.151536 0.073116 0.484740
Si Si2 0.846695 0.929375 0.643355
Si Si3 0.980510 0.571428 0.175703
Si Si4 0.324998 0.074599 0.003858
Si Si5 0.203462 0.430672 0.174471
Si Si6 0.525221 0.074749 0.302822
Si Si7 0.708895 0.068320 0.771763
Si Si8 0.788050 0.922095 0.049235
O O1 0.088991 0.250000 0.510499
O O2 0.409723 0.053490 0.384901
O O3 0.000000 0.000000 0.500000
O O4 0.090994 0.983949 0.545887
O O5 0.853610 0.750000 0.649244
O O6 0.645260 0.974413 0.677819
O O7 0.817833 0.018347 0.694408
O O8 0.985313 0.750000 0.182785
O O9 0.195321 0.526571 0.078620
O O10 0.994290 0.480315 0.213791
O O11 0.748548 0.528440 0.228117
O O12 0.341452 0.250000 0.013345
O O13 0.187313 0.064399 0.006888
O O14 0.575147 0.008944 0.916702
O O15 0.231742 0.250000 0.166198
O O16 0.154125 0.492328 0.235694
O O17 0.597034 0.250000 0.273025
O O18 0.717638 0.250000 0.774336
O O19 0.449897 0.005572 0.858258
O O20 0.792404 0.750000 0.062937
O O21 0.000000 0.000000 0.000000
#
# Coordination Sequence:
#
# PCOD8073697 Si02
#       8
#     4   4   4   4   4   4   4   4
#     4   9  17  32  54  79 110 145 178 218 268 322
#     4  10  20  34  56  84 113 146 182 220 265 322
#     4  12  24  36  55  81 108 142 182 228 274 321
#     4  10  21  38  55  76 105 141 183 227 271 318
#     4  11  22  39  59  78 104 141 184 229 274 321
#     4   9  20  36  53  80 114 145 178 219 269 321
#     4  10  21  37  55  79 108 142 183 224 266 318
#     4   9  20  34  50  72 104 142 175 217 266 313
#
# _framework density 18.784621000000001
#
# number of rings (size 3 to 8) (size 9 to 14) (size 15 to 20)
#    0.000    2.000    0.000    5.625    1.750    6.000 
#    0.000    0.000    0.000    0.750    0.000    0.000 
#    0.000    0.000    0.000    0.000    0.000    0.000 
#
# Total GULP energy -396764.658185 kJ/mol
# GULP energy per Si atom -12398.895568 kJ/mol
# Density = 1.874187 g / cm^3
# Si number density = 18.784621 Si / 1000 Ang^3
#
#
#
# Elastic Constant Matrix: (Units=GPa)
#
#
# Indices 1 2 3 4 5 6 
#
# 1 64.3879 26.1111 24.0498 0.0000 12.6855 0.0000
# 2 26.1111 86.3451 17.5737 0.0000 3.2149 0.0000
# 3 24.0498 17.5737 64.2050 0.0000 22.8080 0.0000
# 4 0.0000 0.0000 0.0000 32.9963 0.0000 2.8663
# 5 12.6855 3.2149 22.8080 0.0000 25.3594 0.0000
# 6 0.0000 0.0000 0.0000 2.8663 0.0000 31.1110
#
#
#
# Elastic Compliance Matrix: (Units=1/GPa)
#
#
# Indices 1 2 3 4 5 6 
#
# 1 0.020276 -0.005070 -0.004162 0.000000 -0.005756 0.000000
# 2 -0.005070 0.013613 -0.003108 0.000000 0.003605 0.000000
# 3 -0.004162 -0.003108 0.025136 0.000000 -0.020131 0.000000
# 4 0.000000 0.000000 0.000000 0.030551 0.000000 -0.002815
# 5 -0.005756 0.003605 -0.020131 0.000000 0.059961 0.000000
# 6 0.000000 0.000000 0.000000 -0.002815 0.000000 0.032402
#
#
# Mechanical properties :
#
#
# Convention : Reuss Voigt Hill
#
# Bulk Modulus (GPa) = 29.11654 38.93414 34.02534
# Shear Modulus (GPa) = 22.92873 27.70692 25.31782
#
# Velocity S-wave (km/s) = 3.49752 3.84471 3.67522
# Velocity P-wave (km/s) = 5.64305 6.36244 6.01351
#
# Compressibility (1/GPa) = 0.03434475
#
# Stress axis : x y z
#
# Youngs Moduli (GPa) = 49.32033 73.45995 39.78334
#
# Poissons Ratio (x) = 0.37244 0.16559
# Poissons Ratio (y) = 0.25005 0.12363
# Poissons Ratio (z) = 0.20529 0.22829
#
# Static dielectric constant tensor:
#      x y z
#    x 3.481400 0.000000 0.074400 
#    y 0.000000 3.456570 0.000000 
#    z 0.074400 0.000000 4.003660 
# 
# 
# High freq. dielectric constant tensor:
#      x y z
#    x 1.716030 0.000000 0.013970 
#    y 0.000000 1.740350 0.000000 
#    z 0.013970 0.000000 1.719090 
# 
# From -- ./inp_files/73121.got.cif
#   From: 2010.06.25/outbox.cif.g09.slc.cpg/sg11_37_cif.got.tgz:73121.got - 2010.06.27 23:14:04.
