data_PCOD8073102
_publ_section_title
;
Structure prediction by ZEFSAII (Michael W. Deem and Ramdas Pophale) SiO2 
 PCOD8073102
Probable space group: P 21/M
;
_chemical_formula_sum "Si O2"
_cell_formula_units_Z 28
_cell_length_a 9.898273
_cell_length_b 8.966175
_cell_length_c 27.875351
_cell_angle_alpha 90.000000
_cell_angle_beta 142.056991
_cell_angle_gamma 90.000000
_cell_volume 1521.162043
_symmetry_space_group_name_H-M "P 21/M"
_symmetry_group_IT_number 11
_symmetry_cell_setting 'monoclinic'
loop_
_space_group_symop_operation_xyz
x,y,z
-x,1/2+y,-z
-x,-y,-z
x,1/2-y,z
loop_
_atom_site_type_symbol
_atom_site_label
_atom_site_fract_x
_atom_site_fract_y
_atom_site_fract_z
Si Si1 0.810788 0.927784 0.977790
Si Si2 0.272579 0.577052 0.948513
Si Si3 0.718267 0.425918 0.322932
Si Si4 0.354489 0.927126 0.804119
Si Si5 0.879574 0.921621 0.508535
Si Si6 0.532282 0.074885 0.659140
Si Si7 0.009687 0.421617 0.224947
O O1 0.831495 0.750000 0.984174
O O2 0.579211 0.982190 0.891203
O O3 0.838805 0.991905 0.038709
O O4 0.000000 0.000000 0.000000
O O5 0.314369 0.750000 0.972461
O O6 0.106725 0.559471 0.858418
O O7 0.500000 0.500000 0.000000
O O8 0.671367 0.250000 0.312440
O O9 0.659555 0.489805 0.254000
O O10 0.563792 0.501732 0.319361
O O11 0.981491 0.461461 0.404454
O O12 0.348078 0.750000 0.802254
O O13 0.149965 0.986032 0.778298
O O14 0.907195 0.750000 0.505529
O O15 0.620970 0.963133 0.430984
O O16 0.000000 0.000000 0.500000
O O17 0.546122 0.250000 0.672541
O O18 0.769693 0.015519 0.712451
O O19 0.068862 0.250000 0.251324
#
# Coordination Sequence:
#
# PCOD8073102 Si02
#       7
#     4   4   4   4   4   4   4
#     4  11  23  40  58  83 114 145 183 229 275 324
#     4  11  22  39  61  82 107 145 187 228 274 328
#     4   9  17  33  58  80 102 141 182 218 265 321
#     4   9  19  37  57  77 105 140 180 221 262 316
#     4   8  15  29  50  76 106 137 173 216 264 314
#     4  10  20  33  51  81 113 138 173 224 269 312
#     4  10  21  38  56  76 105 144 183 217 261 324
#
# _framework density 18.406980999999998
#
# number of rings (size 3 to 8) (size 9 to 14) (size 15 to 20)
#    0.000    2.286    1.429    1.286    2.000    1.714 
#    0.000    2.143    0.000    0.000    0.000    0.000 
#    0.000    0.000    0.000    0.000    0.000    0.000 
#
# Total GULP energy -346984.158044 kJ/mol
# GULP energy per Si atom -12392.291359 kJ/mol
# Density = 1.836509 g / cm^3
# Si number density = 18.406981 Si / 1000 Ang^3
#
#
#
# Elastic Constant Matrix: (Units=GPa)
#
#
# Indices 1 2 3 4 5 6 
#
# 1 126.1393 34.8243 50.4524 0.0000 13.4130 0.0000
# 2 34.8243 58.5740 35.8161 0.0000 8.4503 0.0000
# 3 50.4524 35.8161 99.6040 0.0000 15.7391 0.0000
# 4 0.0000 0.0000 0.0000 26.8303 0.0000 4.1330
# 5 13.4130 8.4503 15.7391 0.0000 30.1967 0.0000
# 6 0.0000 0.0000 0.0000 4.1330 0.0000 28.4528
#
#
#
# Elastic Compliance Matrix: (Units=1/GPa)
#
#
# Indices 1 2 3 4 5 6 
#
# 1 0.010663 -0.003788 -0.003768 0.000000 -0.001712 0.000000
# 2 -0.003788 0.023365 -0.006229 0.000000 -0.001609 0.000000
# 3 -0.003768 -0.006229 0.014873 0.000000 -0.004335 0.000000
# 4 0.000000 0.000000 0.000000 0.038124 0.000000 -0.005538
# 5 -0.001712 -0.001609 -0.004335 0.000000 0.036587 0.000000
# 6 0.000000 0.000000 0.000000 -0.005538 0.000000 0.035950
#
#
# Mechanical properties :
#
#
# Convention : Reuss Voigt Hill
#
# Bulk Modulus (GPa) = 46.87982 58.50033 52.69008
# Shear Modulus (GPa) = 25.74083 27.97762 26.85922
#
# Velocity S-wave (km/s) = 3.74361 3.90288 3.82407
# Velocity P-wave (km/s) = 6.64906 7.22223 6.94156
#
# Compressibility (1/GPa) = 0.02133114
#
# Stress axis : x y z
#
# Youngs Moduli (GPa) = 93.78330 42.79816 67.23445
#
# Poissons Ratio (x) = 0.16213 0.25336
# Poissons Ratio (y) = 0.35527 0.41878
# Poissons Ratio (z) = 0.35341 0.26658
#
# Static dielectric constant tensor:
#      x y z
#    x 3.268900 0.000000 0.051090 
#    y 0.000000 3.308660 0.000000 
#    z 0.051090 0.000000 4.518970 
# 
# 
# High freq. dielectric constant tensor:
#      x y z
#    x 1.700150 0.000000 0.003110 
#    y 0.000000 1.705170 0.000000 
#    z 0.003110 0.000000 1.732210 
# 
# From -- ./inp_files/70831.got.cif
#   From: 2010.06.25/outbox.cif.g09.slc.cpg/sg11_36_cif.got.tgz:70831.got - 2010.06.27 23:14:04.
