data_PCOD8073985
_publ_section_title
;
Structure prediction by ZEFSAII (Michael W. Deem and Ramdas Pophale) SiO2 
 PCOD8073985
Probable space group: P 21/M
;
_chemical_formula_sum "Si O2"
_cell_formula_units_Z 32
_cell_length_a 15.709124
_cell_length_b 8.776770
_cell_length_c 23.102319
_cell_angle_alpha 90.000000
_cell_angle_beta 32.266662
_cell_angle_gamma 90.000000
_cell_volume 1700.474012
_symmetry_space_group_name_H-M "P 21/M"
_symmetry_group_IT_number 11
_symmetry_cell_setting 'monoclinic'
loop_
_space_group_symop_operation_xyz
x,y,z
-x,1/2+y,-z
-x,-y,-z
x,1/2-y,z
loop_
_atom_site_type_symbol
_atom_site_label
_atom_site_fract_x
_atom_site_fract_y
_atom_site_fract_z
Si Si1 0.825069 0.570700 0.101506
Si Si2 0.330551 0.424282 0.599636
Si Si3 0.861449 0.430390 0.905622
Si Si4 0.046592 0.078111 0.683797
Si Si5 0.754225 0.070009 0.652836
Si Si6 0.142795 0.572833 0.804859
Si Si7 0.394363 0.430937 0.877194
Si Si8 0.985465 0.428722 0.419870
O O1 0.839113 0.750000 0.090622
O O2 0.758861 0.513863 0.201338
O O3 0.705906 0.512374 0.120626
O O4 0.000000 0.500000 0.000000
O O5 0.500000 0.500000 0.500000
O O6 0.339309 0.250000 0.618004
O O7 0.236896 0.540385 0.693203
O O8 0.232394 0.426135 0.596160
O O9 0.875955 0.250000 0.904105
O O10 0.927072 0.477650 0.804179
O O11 0.963867 0.509062 0.898188
O O12 0.681187 0.489995 0.021470
O O13 0.999428 0.250000 0.693326
O O14 0.033497 0.970406 0.636171
O O15 0.754992 0.250000 0.656566
O O16 0.573867 0.009087 0.763322
O O17 0.832741 0.017502 0.546315
O O18 0.854867 0.005827 0.648304
O O19 0.130902 0.750000 0.826108
O O20 0.389779 0.250000 0.888226
O O21 0.007068 0.250000 0.412861
#
# Coordination Sequence:
#
# PCOD8073985 Si02
#       8
#     4   4   4   4   4   4   4   4
#     4  11  21  33  51  78 110 146 186 229 276 328
#     4  10  21  37  55  79 111 147 187 232 280 329
#     4  10  20  35  55  79 110 146 185 229 277 329
#     4   9  20  37  57  81 110 147 183 224 278 332
#     4   9  20  39  59  82 113 145 176 225 285 335
#     4  11  21  34  52  75 106 148 191 229 274 328
#     4  10  21  36  56  81 111 147 187 230 282 340
#     4  10  20  36  61  88 110 140 184 228 276 336
#
# _framework density 18.818282
#
# number of rings (size 3 to 8) (size 9 to 14) (size 15 to 20)
#    0.000    2.000    1.250    3.375    0.000    5.500 
#    0.000    1.875    0.000    0.000    0.000    0.000 
#    0.000    0.000    0.000    0.000    0.000    0.000 
#
# Total GULP energy -396622.280981 kJ/mol
# GULP energy per Si atom -12394.446281 kJ/mol
# Density = 1.877545 g / cm^3
# Si number density = 18.818282 Si / 1000 Ang^3
#
#
#
# Elastic Constant Matrix: (Units=GPa)
#
#
# Indices 1 2 3 4 5 6 
#
# 1 92.9466 24.1443 60.4403 0.0000 -0.3230 0.0000
# 2 24.1443 48.2594 35.4657 0.0000 -4.3675 0.0000
# 3 60.4403 35.4657 134.7062 0.0000 -17.0788 0.0000
# 4 0.0000 0.0000 0.0000 31.4280 0.0000 2.3807
# 5 -0.3230 -4.3675 -17.0788 0.0000 24.6206 0.0000
# 6 0.0000 0.0000 0.0000 2.3807 0.0000 30.5696
#
#
#
# Elastic Compliance Matrix: (Units=1/GPa)
#
#
# Indices 1 2 3 4 5 6 
#
# 1 0.016206 -0.003410 -0.007043 0.000000 -0.005278 0.000000
# 2 -0.003410 0.026410 -0.005301 0.000000 0.000963 0.000000
# 3 -0.007043 -0.005301 0.012991 0.000000 0.007979 0.000000
# 4 0.000000 0.000000 0.000000 0.032008 0.000000 -0.002493
# 5 -0.005278 0.000963 0.007979 0.000000 0.046253 0.000000
# 6 0.000000 0.000000 0.000000 -0.002493 0.000000 0.032906
#
#
# Mechanical properties :
#
#
# Convention : Reuss Voigt Hill
#
# Bulk Modulus (GPa) = 41.49490 57.33477 49.41483
# Shear Modulus (GPa) = 24.23481 27.71443 25.97462
#
# Velocity S-wave (km/s) = 3.59253 3.84179 3.71925
# Velocity P-wave (km/s) = 6.26950 7.08611 6.69027
#
# Compressibility (1/GPa) = 0.02409935
#
# Stress axis : x y z
#
# Youngs Moduli (GPa) = 61.70572 37.86384 76.97719
#
# Poissons Ratio (x) = 0.12911 0.54213
# Poissons Ratio (y) = 0.21041 0.40809
# Poissons Ratio (z) = 0.43458 0.20073
#
# Static dielectric constant tensor:
#      x y z
#    x 3.109890 0.000000 0.155810 
#    y 0.000000 3.425310 0.000000 
#    z 0.155810 0.000000 3.645310 
# 
# 
# High freq. dielectric constant tensor:
#      x y z
#    x 1.717520 0.000000 0.009090 
#    y 0.000000 1.733380 0.000000 
#    z 0.009090 0.000000 1.733750 
# 
# From -- ./inp_files/69015.got.cif
#   From: 2010.06.25/outbox.cif.g09.slc.cpg/sg11_35_cif.got.tgz:69015.got - 2010.06.27 23:14:04.
