data_PCOD8073574
_publ_section_title
;
Structure prediction by ZEFSAII (Michael W. Deem and Ramdas Pophale) SiO2 
 PCOD8073574
Probable space group: P 21/M
;
_chemical_formula_sum "Si O2"
_cell_formula_units_Z 24
_cell_length_a 11.289299
_cell_length_b 8.982477
_cell_length_c 22.545157
_cell_angle_alpha 90.000000
_cell_angle_beta 31.534072
_cell_angle_gamma 90.000000
_cell_volume 1195.701071
_symmetry_space_group_name_H-M "P 21/M"
_symmetry_group_IT_number 11
_symmetry_cell_setting 'monoclinic'
loop_
_space_group_symop_operation_xyz
x,y,z
-x,1/2+y,-z
-x,-y,-z
x,1/2-y,z
loop_
_atom_site_type_symbol
_atom_site_label
_atom_site_fract_x
_atom_site_fract_y
_atom_site_fract_z
Si Si1 0.641852 0.078102 0.177411
Si Si2 0.155359 0.580248 0.257286
Si Si3 0.818926 0.079215 0.616848
Si Si4 0.653284 0.924877 0.051878
Si Si5 0.114242 0.580575 0.805916
Si Si6 0.719075 0.927054 0.376815
O O1 0.592613 0.250000 0.185581
O O2 0.820865 0.055587 0.153476
O O3 0.415471 0.000079 0.296156
O O4 0.732657 0.003807 0.078533
O O5 0.158604 0.750000 0.235408
O O6 0.103603 0.562100 0.348513
O O7 0.406393 0.512373 0.135995
O O8 0.946285 0.505717 0.311214
O O9 0.797193 0.250000 0.607386
O O10 0.000000 0.000000 0.500000
O O11 0.629236 0.750000 0.077270
O O12 0.842675 0.953453 0.920358
O O13 0.164081 0.750000 0.764905
O O14 0.256870 0.472415 0.702389
O O15 0.696448 0.750000 0.392643
O O16 0.500000 0.000000 0.500000
#
# Coordination Sequence:
#
# PCOD8073574 Si02
#       6
#     4   4   4   4   4   4
#     4  10  20  34  54  85 121 151 183 231 285 338
#     4   8  18  37  58  79 110 146 182 234 288 330
#     4  10  20  35  56  82 111 148 190 233 285 341
#     4   9  18  37  62  86 114 149 188 233 289 344
#     4  10  22  38  58  85 118 154 189 231 286 341
#     4  11  24  41  59  81 111 151 195 238 286 340
#
# _framework density 20.071906999999999
#
# number of rings (size 3 to 8) (size 9 to 14) (size 15 to 20)
#    0.000    2.333    0.000    3.000    2.333    2.667 
#    0.000    7.500    0.000    0.000    0.000    0.000 
#    0.000    0.000    0.000    0.000    0.000    0.000 
#
# Total GULP energy -297509.810975 kJ/mol
# GULP energy per Si atom -12396.242124 kJ/mol
# Density = 2.002622 g / cm^3
# Si number density = 20.071907 Si / 1000 Ang^3
#
#
#
# Elastic Constant Matrix: (Units=GPa)
#
#
# Indices 1 2 3 4 5 6 
#
# 1 70.5525 31.9227 37.7329 0.0000 -13.3378 0.0000
# 2 31.9227 86.5504 52.7948 0.0000 -2.0667 0.0000
# 3 37.7329 52.7948 143.4631 0.0000 -1.7709 0.0000
# 4 0.0000 0.0000 0.0000 32.3772 0.0000 1.8604
# 5 -13.3378 -2.0667 -1.7709 0.0000 22.1402 0.0000
# 6 0.0000 0.0000 0.0000 1.8604 0.0000 26.6852
#
#
#
# Elastic Compliance Matrix: (Units=1/GPa)
#
#
# Indices 1 2 3 4 5 6 
#
# 1 0.020527 -0.005271 -0.003316 0.000000 0.011609 0.000000
# 2 -0.005271 0.016272 -0.004627 0.000000 -0.002027 0.000000
# 3 -0.003316 -0.004627 0.009525 0.000000 -0.001668 0.000000
# 4 0.000000 0.000000 0.000000 0.031010 0.000000 -0.002162
# 5 0.011609 -0.002027 -0.001668 0.000000 0.051837 0.000000
# 6 0.000000 0.000000 0.000000 -0.002162 0.000000 0.037625
#
#
# Mechanical properties :
#
#
# Convention : Reuss Voigt Hill
#
# Bulk Modulus (GPa) = 50.26133 60.60742 55.43438
# Shear Modulus (GPa) = 25.01815 28.11491 26.56653
#
# Velocity S-wave (km/s) = 3.53431 3.74667 3.64203
# Velocity P-wave (km/s) = 6.46143 6.99838 6.73526
#
# Compressibility (1/GPa) = 0.01989601
#
# Stress axis : x y z
#
# Youngs Moduli (GPa) = 48.71691 61.45507 104.99133
#
# Poissons Ratio (x) = 0.32394 0.34812
# Poissons Ratio (y) = 0.25680 0.48577
# Poissons Ratio (z) = 0.16153 0.28434
#
# Static dielectric constant tensor:
#      x y z
#    x 3.723670 0.000000 -0.341800 
#    y 0.000000 3.580970 0.000000 
#    z -0.341800 0.000000 3.819550 
# 
# 
# High freq. dielectric constant tensor:
#      x y z
#    x 1.774570 0.000000 -0.011160 
#    y 0.000000 1.769300 0.000000 
#    z -0.011160 0.000000 1.797480 
# 
# From -- ./inp_files/44016.got.cif
#   From: 2010.06.25/outbox.cif.g09.slc.cpg/sg11_23_cif.got.tgz:44016.got - 2010.06.27 23:14:04.
