data_PCOD8073173
_publ_section_title
;
Structure prediction by ZEFSAII (Michael W. Deem and Ramdas Pophale) SiO2 
 PCOD8073173
Probable space group: P 21/M
;
_chemical_formula_sum "Si O2"
_cell_formula_units_Z 24
_cell_length_a 14.764974
_cell_length_b 10.776024
_cell_length_c 15.143909
_cell_angle_alpha 90.000000
_cell_angle_beta 148.922047
_cell_angle_gamma 90.000000
_cell_volume 1243.799648
_symmetry_space_group_name_H-M "P 21/M"
_symmetry_group_IT_number 11
_symmetry_cell_setting 'monoclinic'
loop_
_space_group_symop_operation_xyz
x,y,z
-x,1/2+y,-z
-x,-y,-z
x,1/2-y,z
loop_
_atom_site_type_symbol
_atom_site_label
_atom_site_fract_x
_atom_site_fract_y
_atom_site_fract_z
Si Si1 0.100851 0.108371 0.944960
Si Si2 0.471768 0.386218 0.799876
Si Si3 0.867017 0.612499 0.385541
Si Si4 0.581075 0.033578 0.705451
Si Si5 0.714780 0.111640 0.635846
Si Si6 0.308892 0.111329 0.948234
O O1 0.096406 0.250000 0.973016
O O2 0.146714 0.094549 0.879870
O O3 0.907893 0.046833 0.797943
O O4 0.246948 0.044849 0.127386
O O5 0.533286 0.250000 0.888251
O O6 0.262525 0.397706 0.638701
O O7 0.520464 0.384711 0.737425
O O8 0.553531 0.502087 0.919723
O O9 0.958372 0.750000 0.462565
O O10 0.753979 0.597241 0.203292
O O11 0.000000 0.500000 0.500000
O O12 0.630328 0.116783 0.662686
O O13 0.414583 0.950031 0.542091
O O14 0.741544 0.250000 0.622969
O O15 0.391898 0.250000 0.032103
#
# Coordination Sequence:
#
# PCOD8073173 Si02
#       6
#     4   4   4   4   4   4
#     4   9  18  33  53  78 107 137 183 234 273 328
#     4  10  21  37  57  80 112 145 181 229 282 333
#     4  10  22  37  55  82 113 145 182 228 275 332
#     4  10  20  34  53  77 109 144 184 225 282 330
#     4  10  20  33  53  77 106 145 186 231 278 326
#     4   9  19  36  57  81 108 141 186 229 273 329
#
# _framework density 19.295712999999999
#
# number of rings (size 3 to 8) (size 9 to 14) (size 15 to 20)
#    0.000    2.333    0.000    2.000    2.333    2.000 
#    0.000    0.000    0.000    5.000    0.000    0.000 
#    0.000    0.000    0.000    0.000    0.000    0.000 
#
# Total GULP energy -297431.358309 kJ/mol
# GULP energy per Si atom -12392.973263 kJ/mol
# Density = 1.925180 g / cm^3
# Si number density = 19.295713 Si / 1000 Ang^3
#
#
#
# Elastic Constant Matrix: (Units=GPa)
#
#
# Indices 1 2 3 4 5 6 
#
# 1 70.4203 34.9599 26.9315 0.0000 10.8205 0.0000
# 2 34.9599 141.9571 58.2371 0.0000 17.3838 0.0000
# 3 26.9315 58.2371 107.7099 0.0000 20.5939 0.0000
# 4 0.0000 0.0000 0.0000 29.5436 0.0000 9.5400
# 5 10.8205 17.3838 20.5939 0.0000 28.3403 0.0000
# 6 0.0000 0.0000 0.0000 9.5400 0.0000 36.4997
#
#
#
# Elastic Compliance Matrix: (Units=1/GPa)
#
#
# Indices 1 2 3 4 5 6 
#
# 1 0.016929 -0.002946 -0.002032 0.000000 -0.003180 0.000000
# 2 -0.002946 0.009698 -0.004163 0.000000 -0.001799 0.000000
# 3 -0.002032 -0.004163 0.013247 0.000000 -0.006297 0.000000
# 4 0.000000 0.000000 0.000000 0.036968 0.000000 -0.009663
# 5 -0.003180 -0.001799 -0.006297 0.000000 0.042179 0.000000
# 6 0.000000 0.000000 0.000000 -0.009663 0.000000 0.029923
#
#
# Mechanical properties :
#
#
# Convention : Reuss Voigt Hill
#
# Bulk Modulus (GPa) = 46.31396 62.26047 54.28721
# Shear Modulus (GPa) = 28.66591 32.20730 30.43661
#
# Velocity S-wave (km/s) = 3.85854 4.08995 3.97593
# Velocity P-wave (km/s) = 6.62612 7.39189 7.01946
#
# Compressibility (1/GPa) = 0.02159176
#
# Stress axis : x y z
#
# Youngs Moduli (GPa) = 59.07127 103.11354 75.48833
#
# Poissons Ratio (x) = 0.30378 0.15339
# Poissons Ratio (y) = 0.17403 0.31426
# Poissons Ratio (z) = 0.12003 0.42927
#
# Static dielectric constant tensor:
#      x y z
#    x 3.717830 0.000000 0.099710 
#    y 0.000000 3.512730 0.000000 
#    z 0.099710 0.000000 3.389360 
# 
# 
# High freq. dielectric constant tensor:
#      x y z
#    x 1.767360 0.000000 0.002360 
#    y 0.000000 1.752910 0.000000 
#    z 0.002360 0.000000 1.728890 
# 
# From -- ./inp_files/52069.got.cif
#   From: 2010.06.25/outbox.cif.g09.slc.cpg/sg11_27_cif.got.tgz:52069.got - 2010.06.27 23:14:04.
