data_PCOD8073546
_publ_section_title
;
Structure prediction by ZEFSAII (Michael W. Deem and Ramdas Pophale) SiO2 
 PCOD8073546
Probable space group: P 21/M
;
_chemical_formula_sum "Si O2"
_cell_formula_units_Z 32
_cell_length_a 22.912440
_cell_length_b 13.287348
_cell_length_c 17.050462
_cell_angle_alpha 90.000000
_cell_angle_beta 162.016014
_cell_angle_gamma 90.000000
_cell_volume 1602.708005
_symmetry_space_group_name_H-M "P 21/M"
_symmetry_group_IT_number 11
_symmetry_cell_setting 'monoclinic'
loop_
_space_group_symop_operation_xyz
x,y,z
-x,1/2+y,-z
-x,-y,-z
x,1/2-y,z
loop_
_atom_site_type_symbol
_atom_site_label
_atom_site_fract_x
_atom_site_fract_y
_atom_site_fract_z
Si Si1 0.643318 0.865043 0.960864
Si Si2 0.207167 0.975326 0.739618
Si Si3 0.965384 0.548354 0.131592
Si Si4 0.249500 0.636317 0.082318
Si Si5 0.597089 0.138034 0.888434
Si Si6 0.318304 0.993034 0.484296
Si Si7 0.665894 0.635214 0.642003
Si Si8 0.050382 0.634669 0.403012
O O1 0.607776 0.750000 0.940080
O O2 0.472264 0.901636 0.685251
O O3 0.836791 0.878865 0.160367
O O4 0.657770 0.931192 0.060834
O O5 0.198018 0.940712 0.636929
O O6 0.269363 0.875346 0.866357
O O7 0.000000 0.000000 0.500000
O O8 0.116105 0.545414 0.254147
O O9 0.061115 0.605783 0.326033
O O10 0.907137 0.435365 0.080472
O O11 0.784963 0.611997 0.872132
O O12 0.168081 0.750000 0.978846
O O13 0.293076 0.599632 0.049134
O O14 0.444063 0.630218 0.380659
O O15 0.532396 0.250000 0.792470
O O16 0.403146 0.076616 0.651872
O O17 0.289433 0.046856 0.363468
O O18 0.711955 0.750000 0.671098
O O19 0.116485 0.750000 0.498185
#
# Coordination Sequence:
#
# PCOD8073546 Si02
#       8
#     4   4   4   4   4   4   4   4
#     4   9  19  36  57  81 111 145 181 217 261 316
#     4   9  16  30  54  82 107 137 180 225 261 310
#     4  12  22  35  54  81 113 141 175 224 274 319
#     4   9  19  34  55  80 106 136 176 225 271 314
#     4   9  17  34  57  78 104 142 181 219 264 317
#     4  10  21  36  55  77 104 141 178 219 266 321
#     4  10  21  39  58  76 102 142 184 221 266 322
#     4  10  20  34  54  81 110 142 180 226 271 313
#
# _framework density 19.966207000000001
#
# number of rings (size 3 to 8) (size 9 to 14) (size 15 to 20)
#    0.000    2.250    0.000    5.625    0.000    2.500 
#    0.000    5.000    0.000    1.500    0.000    0.000 
#    0.000    0.000    0.000    0.000    0.000    0.000 
#
# Total GULP energy -396480.944573 kJ/mol
# GULP energy per Si atom -12390.029518 kJ/mol
# Density = 1.992076 g / cm^3
# Si number density = 19.966207 Si / 1000 Ang^3
#
#
#
# Elastic Constant Matrix: (Units=GPa)
#
#
# Indices 1 2 3 4 5 6 
#
# 1 37.4573 23.1399 13.5918 0.0000 -15.0513 0.0000
# 2 23.1399 119.1849 20.5437 0.0000 -8.0348 0.0000
# 3 13.5918 20.5437 59.5716 0.0000 -22.1582 0.0000
# 4 0.0000 0.0000 0.0000 23.0359 0.0000 -4.4388
# 5 -15.0513 -8.0348 -22.1582 0.0000 35.6697 0.0000
# 6 0.0000 0.0000 0.0000 -4.4388 0.0000 23.2638
#
#
#
# Elastic Compliance Matrix: (Units=1/GPa)
#
#
# Indices 1 2 3 4 5 6 
#
# 1 0.036071 -0.005892 -0.001340 0.000000 0.013061 0.000000
# 2 -0.005892 0.009883 -0.002810 0.000000 -0.002005 0.000000
# 3 -0.001340 -0.002810 0.022909 0.000000 0.013033 0.000000
# 4 0.000000 0.000000 0.000000 0.045068 0.000000 0.008599
# 5 0.013061 -0.002005 0.013033 0.000000 0.041191 0.000000
# 6 0.000000 0.000000 0.000000 0.008599 0.000000 0.044626
#
#
# Mechanical properties :
#
#
# Convention : Reuss Voigt Hill
#
# Bulk Modulus (GPa) = 20.50007 36.75162 28.62585
# Shear Modulus (GPa) = 21.17821 26.98976 24.08399
#
# Velocity S-wave (km/s) = 3.26038 3.68063 3.47686
# Velocity P-wave (km/s) = 4.94602 6.04232 5.52144
#
# Compressibility (1/GPa) = 0.04878032
#
# Stress axis : x y z
#
# Youngs Moduli (GPa) = 27.72274 101.17978 43.65108
#
# Poissons Ratio (x) = 0.59614 0.05849
# Poissons Ratio (y) = 0.16334 0.12266
# Poissons Ratio (z) = 0.03714 0.28432
#
# Static dielectric constant tensor:
#      x y z
#    x 3.283590 0.000000 -0.308880 
#    y 0.000000 3.857030 0.000000 
#    z -0.308880 0.000000 3.788080 
# 
# 
# High freq. dielectric constant tensor:
#      x y z
#    x 1.733010 0.000000 -0.022450 
#    y 0.000000 1.791520 0.000000 
#    z -0.022450 0.000000 1.782210 
# 
# From -- ./inp_files/55026.got.cif
#   From: 2010.06.25/outbox.cif.g09.slc.cpg/sg11_28_cif.got.tgz:55026.got - 2010.06.27 23:14:04.
