data_PCOD8073211
_publ_section_title
;
Structure prediction by ZEFSAII (Michael W. Deem and Ramdas Pophale) SiO2 
 PCOD8073211
Probable space group: P 21/M
;
_chemical_formula_sum "Si O2"
_cell_formula_units_Z 32
_cell_length_a 9.078530
_cell_length_b 13.293902
_cell_length_c 19.769563
_cell_angle_alpha 90.000000
_cell_angle_beta 47.354644
_cell_angle_gamma 90.000000
_cell_volume 1755.026950
_symmetry_space_group_name_H-M "P 21/M"
_symmetry_group_IT_number 11
_symmetry_cell_setting 'monoclinic'
loop_
_space_group_symop_operation_xyz
x,y,z
-x,1/2+y,-z
-x,-y,-z
x,1/2-y,z
loop_
_atom_site_type_symbol
_atom_site_label
_atom_site_fract_x
_atom_site_fract_y
_atom_site_fract_z
Si Si1 0.310089 0.020366 0.357662
Si Si2 0.052673 0.367258 0.919821
Si Si3 0.249014 0.024906 0.736802
Si Si4 0.941804 0.866632 0.322502
Si Si5 0.030718 0.136443 0.533827
Si Si6 0.299821 0.490435 0.204364
Si Si7 0.090481 0.368044 0.161407
Si Si8 0.735456 0.537586 0.021531
O O1 0.203771 0.115827 0.425318
O O2 0.338846 0.041404 0.269421
O O3 0.520946 0.002533 0.327232
O O4 0.170439 0.925419 0.417058
O O5 0.995962 0.250000 0.935658
O O6 0.182444 0.395140 0.813975
O O7 0.184306 0.390599 0.944476
O O8 0.847963 0.430470 0.985528
O O9 0.220141 0.075799 0.672725
O O10 0.122495 0.922434 0.783081
O O11 0.946690 0.750000 0.301591
O O12 0.879921 0.885656 0.419456
O O13 0.163632 0.910167 0.240514
O O14 0.959743 0.250000 0.549204
O O15 0.189265 0.397555 0.202231
O O16 0.503678 0.515693 0.103326
O O17 0.051236 0.250000 0.171279
O O18 0.240505 0.402882 0.055817
#
# Coordination Sequence:
#
# PCOD8073211 Si02
#       8
#     4   4   4   4   4   4   4   4
#     4  10  20  37  59  81 110 140 177 228 276 320
#     4  10  20  33  53  81 113 144 181 227 276 323
#     4  10  20  36  57  82 112 143 183 226 272 325
#     4   9  19  35  55  81 111 141 180 226 273 327
#     4   9  20  37  56  81 110 141 177 221 276 333
#     4  10  20  37  56  79 108 146 186 228 271 324
#     4  10  22  37  53  77 112 151 187 227 272 325
#     4  10  20  36  52  78 113 146 185 232 275 317
#
# _framework density 18.233338
#
# number of rings (size 3 to 8) (size 9 to 14) (size 15 to 20)
#    0.000    2.250    1.250    1.125    0.000    4.000 
#    0.000    0.000    0.000    0.000    0.000    0.000 
#    0.000    0.000    0.000    0.000    0.000    0.000 
#
# Total GULP energy -396889.048959 kJ/mol
# GULP energy per Si atom -12402.782780 kJ/mol
# Density = 1.819184 g / cm^3
# Si number density = 18.233338 Si / 1000 Ang^3
#
#
#
# Elastic Constant Matrix: (Units=GPa)
#
#
# Indices 1 2 3 4 5 6 
#
# 1 94.8713 34.4169 53.1593 0.0000 -12.2260 0.0000
# 2 34.4169 118.0592 39.8578 0.0000 0.7992 0.0000
# 3 53.1593 39.8578 91.3796 0.0000 -5.9945 0.0000
# 4 0.0000 0.0000 0.0000 18.8532 0.0000 6.6676
# 5 -12.2260 0.7992 -5.9945 0.0000 22.6709 0.0000
# 6 0.0000 0.0000 0.0000 6.6676 0.0000 17.7946
#
#
#
# Elastic Compliance Matrix: (Units=1/GPa)
#
#
# Indices 1 2 3 4 5 6 
#
# 1 0.016966 -0.002129 -0.008483 0.000000 0.006981 0.000000
# 2 -0.002129 0.010252 -0.003391 0.000000 -0.002406 0.000000
# 3 -0.008483 -0.003391 0.017366 0.000000 0.000137 0.000000
# 4 0.000000 0.000000 0.000000 0.061144 0.000000 -0.022911
# 5 0.006981 -0.002406 0.000137 0.000000 0.047995 0.000000
# 6 0.000000 0.000000 0.000000 -0.022911 0.000000 0.064781
#
#
# Mechanical properties :
#
#
# Convention : Reuss Voigt Hill
#
# Bulk Modulus (GPa) = 60.32122 62.13090 61.22606
# Shear Modulus (GPa) = 19.83828 23.65548 21.74688
#
# Velocity S-wave (km/s) = 3.30210 3.60582 3.45729
# Velocity P-wave (km/s) = 6.90603 7.17533 7.04196
#
# Compressibility (1/GPa) = 0.01657791
#
# Stress axis : x y z
#
# Youngs Moduli (GPa) = 58.94096 97.54050 57.58245
#
# Poissons Ratio (x) = 0.20769 0.48848
# Poissons Ratio (y) = 0.12550 0.19526
# Poissons Ratio (z) = 0.50001 0.33075
#
# Static dielectric constant tensor:
#      x y z
#    x 3.407680 0.000000 0.219750 
#    y 0.000000 3.267640 0.000000 
#    z 0.219750 0.000000 3.422600 
# 
# 
# High freq. dielectric constant tensor:
#      x y z
#    x 1.712840 0.000000 0.012060 
#    y 0.000000 1.700840 0.000000 
#    z 0.012060 0.000000 1.707930 
# 
# From -- ./inp_files/26566.got.cif
#   From: 2010.06.25/outbox.cif.g09.slc.cpg/sg11_14_cif.got.tgz:26566.got - 2010.06.27 23:14:04.
