data_PCOD8073917
_publ_section_title
;
Structure prediction by ZEFSAII (Michael W. Deem and Ramdas Pophale) SiO2 
 PCOD8073917
Probable space group: P 21/M
;
_chemical_formula_sum "Si O2"
_cell_formula_units_Z 24
_cell_length_a 18.092541
_cell_length_b 8.717073
_cell_length_c 24.345976
_cell_angle_alpha 90.000000
_cell_angle_beta 19.257378
_cell_angle_gamma 90.000000
_cell_volume 1266.380376
_symmetry_space_group_name_H-M "P 21/M"
_symmetry_group_IT_number 11
_symmetry_cell_setting 'monoclinic'
loop_
_space_group_symop_operation_xyz
x,y,z
-x,1/2+y,-z
-x,-y,-z
x,1/2-y,z
loop_
_atom_site_type_symbol
_atom_site_label
_atom_site_fract_x
_atom_site_fract_y
_atom_site_fract_z
Si Si1 0.743282 0.069971 0.827062
Si Si2 0.122102 0.071410 0.641540
Si Si3 0.937202 0.431098 0.486249
Si Si4 0.933242 0.068671 0.988948
Si Si5 0.745290 0.932815 0.333619
Si Si6 0.573853 0.932121 0.669951
O O1 0.734416 0.250000 0.820092
O O2 0.871753 0.039000 0.794603
O O3 0.872734 0.983807 0.688695
O O4 0.500000 0.000000 0.000000
O O5 0.168493 0.250000 0.613823
O O6 0.150859 0.001231 0.682211
O O7 0.307498 0.005068 0.469019
O O8 0.930489 0.250000 0.494761
O O9 0.694226 0.492698 0.637969
O O10 0.000000 0.500000 0.500000
O O11 0.944314 0.250000 0.985955
O O12 0.100229 0.007059 0.824648
O O13 0.683059 0.014876 0.149320
O O14 0.000000 0.000000 0.000000
O O15 0.734745 0.750000 0.340478
O O16 0.500000 0.000000 0.500000
O O17 0.601619 0.750000 0.655293
#
# Coordination Sequence:
#
# PCOD8073917 Si02
#       6
#     4   4   4   4   4   4
#     4  10  20  36  57  83 112 146 185 227 276 332
#     4   8  16  32  53  73 102 141 179 217 265 320
#     4  11  22  37  57  82 112 147 184 229 279 334
#     4  10  21  35  55  81 111 145 183 225 273 328
#     4  10  20  35  54  79 106 139 179 219 265 320
#     4   9  18  35  55  76 105 144 184 227 276 328
#
# _framework density 18.951653
#
# number of rings (size 3 to 8) (size 9 to 14) (size 15 to 20)
#    0.000    2.333    0.000    4.000    0.000    4.000 
#    0.000    9.167    0.000    0.000    0.000    0.000 
#    0.000    0.000    0.000    0.000    0.000    0.000 
#
# Total GULP energy -297571.864933 kJ/mol
# GULP energy per Si atom -12398.827706 kJ/mol
# Density = 1.890852 g / cm^3
# Si number density = 18.951653 Si / 1000 Ang^3
#
#
#
# Elastic Constant Matrix: (Units=GPa)
#
#
# Indices 1 2 3 4 5 6 
#
# 1 190.6878 46.0087 88.5130 0.0000 -4.7495 0.0000
# 2 46.0087 61.9419 38.0543 0.0000 -7.5621 0.0000
# 3 88.5130 38.0543 157.9470 0.0000 -18.6508 0.0000
# 4 0.0000 0.0000 0.0000 30.9489 0.0000 -4.0676
# 5 -4.7495 -7.5621 -18.6508 0.0000 31.1198 0.0000
# 6 0.0000 0.0000 0.0000 -4.0676 0.0000 30.9120
#
#
#
# Elastic Compliance Matrix: (Units=1/GPa)
#
#
# Indices 1 2 3 4 5 6 
#
# 1 0.007827 -0.003774 -0.003706 0.000000 -0.001944 0.000000
# 2 -0.003774 0.020886 -0.002568 0.000000 0.002960 0.000000
# 3 -0.003706 -0.002568 0.009563 0.000000 0.004542 0.000000
# 4 0.000000 0.000000 0.000000 0.032880 0.000000 0.004327
# 5 -0.001944 0.002960 0.004542 0.000000 0.035279 0.000000
# 6 0.000000 0.000000 0.000000 0.004327 0.000000 0.032919
#
#
# Mechanical properties :
#
#
# Convention : Reuss Voigt Hill
#
# Bulk Modulus (GPa) = 55.00442 83.96985 69.48713
# Shear Modulus (GPa) = 30.20969 34.46284 32.33627
#
# Velocity S-wave (km/s) = 3.99687 4.26897 4.13516
# Velocity P-wave (km/s) = 7.09835 8.28869 7.71651
#
# Compressibility (1/GPa) = 0.01818036
#
# Stress axis : x y z
#
# Youngs Moduli (GPa) = 127.76790 47.87870 104.56709
#
# Poissons Ratio (x) = 0.18068 0.38757
# Poissons Ratio (y) = 0.48216 0.26850
# Poissons Ratio (z) = 0.47356 0.12294
#
# Static dielectric constant tensor:
#      x y z
#    x 3.840690 0.000000 0.089730 
#    y 0.000000 3.617310 0.000000 
#    z 0.089730 0.000000 3.867160 
# 
# 
# High freq. dielectric constant tensor:
#      x y z
#    x 1.750820 0.000000 -0.006380 
#    y 0.000000 1.717730 0.000000 
#    z -0.006380 0.000000 1.740480 
# 
# From -- ./inp_files/20378.got.cif
#   From: 2010.06.25/outbox.cif.g09.slc.cpg/sg11_11_cif.got.tgz:20378.got - 2010.06.27 23:14:04.
