data_PCOD8073638
_publ_section_title
;
Structure prediction by ZEFSAII (Michael W. Deem and Ramdas Pophale) SiO2 
 PCOD8073638
Probable space group: P 21/M
;
_chemical_formula_sum "Si O2"
_cell_formula_units_Z 32
_cell_length_a 24.222377
_cell_length_b 9.079032
_cell_length_c 16.180994
_cell_angle_alpha 90.000000
_cell_angle_beta 27.248183
_cell_angle_gamma 90.000000
_cell_volume 1629.223491
_symmetry_space_group_name_H-M "P 21/M"
_symmetry_group_IT_number 11
_symmetry_cell_setting 'monoclinic'
loop_
_space_group_symop_operation_xyz
x,y,z
-x,1/2+y,-z
-x,-y,-z
x,1/2-y,z
loop_
_atom_site_type_symbol
_atom_site_label
_atom_site_fract_x
_atom_site_fract_y
_atom_site_fract_z
Si Si1 0.627070 0.576655 0.314118
Si Si2 0.667729 0.081916 0.837152
Si Si3 0.272243 0.918148 0.424711
Si Si4 0.477079 0.080930 0.838030
Si Si5 0.919294 0.577750 0.219999
Si Si6 0.152185 0.420218 0.866752
Si Si7 0.687352 0.074294 0.067197
Si Si8 0.879176 0.415643 0.679308
O O1 0.500000 0.500000 0.500000
O O2 0.606461 0.750000 0.326811
O O3 0.714394 0.547034 0.275956
O O4 0.692353 0.505039 0.148422
O O5 0.619388 0.250000 0.906280
O O6 0.681013 0.026205 0.726084
O O7 0.797339 0.070953 0.707577
O O8 0.574400 0.974070 0.005916
O O9 0.228402 0.750000 0.476026
O O10 0.378691 0.933665 0.350214
O O11 0.159500 0.016203 0.600461
O O12 0.437562 0.250000 0.876429
O O13 0.431255 0.980004 0.823921
O O14 0.931184 0.750000 0.214972
O O15 0.854247 0.532931 0.220639
O O16 0.053044 0.511715 0.049187
O O17 0.118386 0.250000 0.922513
O O18 0.678326 0.250000 0.089447
O O19 0.805383 0.025688 0.857756
O O20 0.917384 0.250000 0.646908
O O21 0.000000 0.500000 0.500000
#
# Coordination Sequence:
#
# PCOD8073638 Si02
#       8
#     4   4   4   4   4   4   4   4
#     4  11  24  41  63  91 120 155 199 246 299 353
#     4   9  19  36  53  75 110 150 186 227 284 340
#     4  10  21  35  54  82 114 147 188 235 286 342
#     4  10  20  34  55  83 113 148 190 235 285 341
#     4  10  21  37  60  87 112 149 195 236 288 347
#     4   9  21  42  61  81 115 152 188 237 294 345
#     4  10  22  40  58  82 117 155 194 239 293 350
#     4   9  19  35  56  79 107 147 188 230 283 340
#
# _framework density 19.641258000000001
#
# number of rings (size 3 to 8) (size 9 to 14) (size 15 to 20)
#    0.000    2.250    0.000    2.625    1.750    6.500 
#    0.000    3.750    0.000    0.000    0.000    0.000 
#    0.000    0.000    0.000    0.000    0.000    0.000 
#
# Total GULP energy -396851.532610 kJ/mol
# GULP energy per Si atom -12401.610394 kJ/mol
# Density = 1.959655 g / cm^3
# Si number density = 19.641258 Si / 1000 Ang^3
#
#
#
# Elastic Constant Matrix: (Units=GPa)
#
#
# Indices 1 2 3 4 5 6 
#
# 1 68.0381 29.5086 27.0069 0.0000 -1.4714 0.0000
# 2 29.5086 81.6168 39.9674 0.0000 -7.3604 0.0000
# 3 27.0069 39.9674 77.3098 0.0000 -10.4464 0.0000
# 4 0.0000 0.0000 0.0000 39.2656 0.0000 0.8630
# 5 -1.4714 -7.3604 -10.4464 0.0000 25.1452 0.0000
# 6 0.0000 0.0000 0.0000 0.8630 0.0000 31.7393
#
#
#
# Elastic Compliance Matrix: (Units=1/GPa)
#
#
# Indices 1 2 3 4 5 6 
#
# 1 0.018404 -0.004761 -0.004249 0.000000 -0.002082 0.000000
# 2 -0.004761 0.017681 -0.007221 0.000000 0.001897 0.000000
# 3 -0.004249 -0.007221 0.018894 0.000000 0.005487 0.000000
# 4 0.000000 0.000000 0.000000 0.025483 0.000000 -0.000693
# 5 -0.002082 0.001897 0.005487 0.000000 0.042482 0.000000
# 6 0.000000 0.000000 0.000000 -0.000693 0.000000 0.031525
#
#
# Mechanical properties :
#
#
# Convention : Reuss Voigt Hill
#
# Bulk Modulus (GPa) = 44.41209 46.65895 45.53552
# Shear Modulus (GPa) = 25.71520 27.92880 26.82200
#
# Velocity S-wave (km/s) = 3.62227 3.77496 3.69940
# Velocity P-wave (km/s) = 6.33681 6.54275 6.44061
#
# Compressibility (1/GPa) = 0.02251639
#
# Stress axis : x y z
#
# Youngs Moduli (GPa) = 54.33555 56.55800 52.92701
#
# Poissons Ratio (x) = 0.26927 0.22490
# Poissons Ratio (y) = 0.25869 0.38219
# Poissons Ratio (z) = 0.23088 0.40841
#
# Static dielectric constant tensor:
#      x y z
#    x 3.668230 0.000000 0.093470 
#    y 0.000000 3.608410 0.000000 
#    z 0.093470 0.000000 3.490870 
# 
# 
# High freq. dielectric constant tensor:
#      x y z
#    x 1.763850 0.000000 0.000850 
#    y 0.000000 1.768650 0.000000 
#    z 0.000850 0.000000 1.762590 
# 
# From -- ./inp_files/55626.got.cif
#   From: 2010.06.25/outbox.cif.g09.slc.cpg/sg11_28_cif.got.tgz:55626.got - 2010.06.27 23:14:04.
