data_PCOD8073818
_publ_section_title
;
Structure prediction by ZEFSAII (Michael W. Deem and Ramdas Pophale) SiO2 
 PCOD8073818
Probable space group: P 21/M
;
_chemical_formula_sum "Si O2"
_cell_formula_units_Z 32
_cell_length_a 21.779399
_cell_length_b 9.090192
_cell_length_c 28.062914
_cell_angle_alpha 90.000000
_cell_angle_beta 162.138219
_cell_angle_gamma 90.000000
_cell_volume 1704.104975
_symmetry_space_group_name_H-M "P 21/M"
_symmetry_group_IT_number 11
_symmetry_cell_setting 'monoclinic'
loop_
_space_group_symop_operation_xyz
x,y,z
-x,1/2+y,-z
-x,-y,-z
x,1/2-y,z
loop_
_atom_site_type_symbol
_atom_site_label
_atom_site_fract_x
_atom_site_fract_y
_atom_site_fract_z
Si Si1 0.099328 0.082191 0.800491
Si Si2 0.567830 0.423021 0.002483
Si Si3 0.363601 0.582577 0.540997
Si Si4 0.100629 0.424227 0.908878
Si Si5 0.773483 0.086319 0.291423
Si Si6 0.348186 0.574008 0.423615
Si Si7 0.482851 0.426103 0.247279
Si Si8 0.862860 0.414341 0.468013
O O1 0.175456 0.250000 0.850938
O O2 0.142174 0.024941 0.885631
O O3 0.867818 0.071374 0.616011
O O4 0.209009 0.973824 0.845299
O O5 0.556815 0.250000 0.999150
O O6 0.419306 0.481185 0.851881
O O7 0.500000 0.500000 0.000000
O O8 0.431483 0.750000 0.586919
O O9 0.398952 0.512765 0.514585
O O10 0.489629 0.511740 0.678121
O O11 0.107008 0.250000 0.915103
O O12 0.876451 0.475594 0.757803
O O13 0.272744 0.489023 0.071009
O O14 0.725382 0.250000 0.236264
O O15 0.830879 0.095806 0.388374
O O16 0.946719 0.020900 0.384684
O O17 0.500000 0.500000 0.500000
O O18 0.366187 0.750000 0.435425
O O19 0.479869 0.250000 0.244863
O O20 0.668301 0.479383 0.351355
O O21 0.912220 0.250000 0.524122
#
# Coordination Sequence:
#
# PCOD8073818 Si02
#       8
#     4   4   4   4   4   4   4   4
#     4   9  17  33  53  73  97 129 166 212 261 313
#     4  12  25  37  50  70  97 132 175 222 270 318
#     4   8  16  29  49  76 103 130 167 208 253 304
#     4   8  15  29  51  76 103 133 168 204 249 304
#     4  10  20  35  50  70 100 133 172 217 264 315
#     4   9  17  32  53  77 104 137 170 203 242 296
#     4   9  15  26  48  76  99 126 168 213 251 299
#     4   9  18  31  52  76  99 130 168 212 264 319
#
# _framework density 18.778186999999999
#
# number of rings (size 3 to 8) (size 9 to 14) (size 15 to 20)
#    0.000    2.750    0.000    3.750    1.750    2.500 
#    0.000    3.125    0.000    1.500    0.000    0.000 
#    0.000    0.000    0.000    0.000    0.000    0.000 
#
# Total GULP energy -396547.043700 kJ/mol
# GULP energy per Si atom -12392.095116 kJ/mol
# Density = 1.873545 g / cm^3
# Si number density = 18.778187 Si / 1000 Ang^3
#
#
#
# Elastic Constant Matrix: (Units=GPa)
#
#
# Indices 1 2 3 4 5 6 
#
# 1 112.9658 30.8546 61.5857 0.0000 12.0226 0.0000
# 2 30.8546 72.0074 19.0351 0.0000 6.9989 0.0000
# 3 61.5857 19.0351 88.6525 0.0000 -5.8869 0.0000
# 4 0.0000 0.0000 0.0000 21.1859 0.0000 7.9710
# 5 12.0226 6.9989 -5.8869 0.0000 32.1179 0.0000
# 6 0.0000 0.0000 0.0000 7.9710 0.0000 23.7404
#
#
#
# Elastic Compliance Matrix: (Units=1/GPa)
#
#
# Indices 1 2 3 4 5 6 
#
# 1 0.016876 -0.003447 -0.011493 0.000000 -0.007672 0.000000
# 2 -0.003447 0.015909 -0.001180 0.000000 -0.002393 0.000000
# 3 -0.011493 -0.001180 0.020064 0.000000 0.008237 0.000000
# 4 0.000000 0.000000 0.000000 0.054026 0.000000 -0.018140
# 5 -0.007672 -0.002393 0.008237 0.000000 0.036038 0.000000
# 6 0.000000 0.000000 0.000000 -0.018140 0.000000 0.048213
#
#
# Mechanical properties :
#
#
# Convention : Reuss Voigt Hill
#
# Bulk Modulus (GPa) = 48.52247 55.17517 51.84882
# Shear Modulus (GPa) = 21.71680 26.21883 23.96782
#
# Velocity S-wave (km/s) = 3.40441 3.74068 3.57650
# Velocity P-wave (km/s) = 6.43034 6.93565 6.68777
#
# Compressibility (1/GPa) = 0.02060901
#
# Stress axis : x y z
#
# Youngs Moduli (GPa) = 59.25618 62.85702 49.84012
#
# Poissons Ratio (x) = 0.21669 0.57280
# Poissons Ratio (y) = 0.20428 0.05881
# Poissons Ratio (z) = 0.68101 0.07417
#
# Static dielectric constant tensor:
#      x y z
#    x 3.490410 0.000000 -0.136540 
#    y 0.000000 3.239520 0.000000 
#    z -0.136540 0.000000 4.011280 
# 
# 
# High freq. dielectric constant tensor:
#      x y z
#    x 1.724110 0.000000 -0.008720 
#    y 0.000000 1.681980 0.000000 
#    z -0.008720 0.000000 1.732900 
# 
# From -- ./inp_files/72199.got.cif
#   From: 2010.06.25/outbox.cif.g09.slc.cpg/sg11_37_cif.got.tgz:72199.got - 2010.06.27 23:14:04.
