data_PCOD8073839
_publ_section_title
;
Structure prediction by ZEFSAII (Michael W. Deem and Ramdas Pophale) SiO2 
 PCOD8073839
Probable space group: P 21/M
;
_chemical_formula_sum "Si O2"
_cell_formula_units_Z 22
_cell_length_a 19.258153
_cell_length_b 8.356239
_cell_length_c 16.310638
_cell_angle_alpha 90.000000
_cell_angle_beta 27.845928
_cell_angle_gamma 90.000000
_cell_volume 1226.033055
_symmetry_space_group_name_H-M "P 21/M"
_symmetry_group_IT_number 11
_symmetry_cell_setting 'monoclinic'
loop_
_space_group_symop_operation_xyz
x,y,z
-x,1/2+y,-z
-x,-y,-z
x,1/2-y,z
loop_
_atom_site_type_symbol
_atom_site_label
_atom_site_fract_x
_atom_site_fract_y
_atom_site_fract_z
Si Si1 0.492636 0.250000 0.306037
Si Si2 0.983073 0.250000 0.669411
Si Si3 0.479326 0.250000 0.130869
Si Si4 0.041615 0.428006 0.869950
Si Si5 0.214813 0.750000 0.282009
Si Si6 0.693158 0.072866 0.499897
Si Si7 0.765966 0.998806 0.602567
Si Si8 0.179934 0.750000 0.996125
O O1 0.532563 0.250000 0.168928
O O2 0.407764 0.416896 0.415410
O O3 0.643302 0.250000 0.201469
O O4 0.909542 0.250000 0.657414
O O5 0.088742 0.400233 0.573030
O O6 0.854914 0.250000 0.870917
O O7 0.377549 0.401759 0.217942
O O8 0.619710 0.250000 0.925630
O O9 0.114158 0.250000 0.804602
O O10 0.153004 0.547553 0.708441
O O11 0.891075 0.408307 0.972498
O O12 0.000000 0.500000 0.000000
O O13 0.187667 0.599871 0.367843
O O14 0.628646 0.250000 0.540153
O O15 0.721430 0.092739 0.567186
#
# Coordination Sequence:
#
# PCOD8073839 Si02
#       8
#     2   2   2   4   2   4   4   2
#     4  10  20  40  61  87 121 164 195 242 308 353
#     4  11  20  37  54  79 113 157 193 240 308 342
#     4   9  20  33  56  74 110 155 192 241 289 347
#     4  10  20  38  66  94 116 152 199 246 292 358
#     4  12  20  32  53  83 112 149 197 244 295 339
#     4  11  20  38  65  88 120 160 205 241 291 364
#     4  10  20  35  52  80 112 151 198 244 287 346
#     4  10  20  38  64  83 122 159 195 247 308 351
#
# _framework density 17.944051000000002
#
# number of rings (size 3 to 8) (size 9 to 14) (size 15 to 20)
#    0.545    1.091    4.545    2.182    0.000    0.000 
#    0.000    2.727    2.000    0.000    0.000    0.000 
#    0.000    0.000    0.000    0.000    0.000    0.000 
#
# Total GULP energy -272578.161362 kJ/mol
# GULP energy per Si atom -12389.916426 kJ/mol
# Density = 1.790321 g / cm^3
# Si number density = 17.944051 Si / 1000 Ang^3
#
#
#
# Elastic Constant Matrix: (Units=GPa)
#
#
# Indices 1 2 3 4 5 6 
#
# 1 67.5539 29.9947 36.2545 0.0000 -5.8619 0.0000
# 2 29.9947 126.2725 38.5326 0.0000 -5.6570 0.0000
# 3 36.2545 38.5326 80.2764 0.0000 -8.0582 0.0000
# 4 0.0000 0.0000 0.0000 27.5619 0.0000 5.8944
# 5 -5.8619 -5.6570 -8.0582 0.0000 30.4854 0.0000
# 6 0.0000 0.0000 0.0000 5.8944 0.0000 24.2653
#
#
#
# Elastic Compliance Matrix: (Units=1/GPa)
#
#
# Indices 1 2 3 4 5 6 
#
# 1 0.020172 -0.002334 -0.007852 0.000000 0.001370 0.000000
# 2 -0.002334 0.009558 -0.003493 0.000000 0.000401 0.000000
# 3 -0.007852 -0.003493 0.017939 0.000000 0.002584 0.000000
# 4 0.000000 0.000000 0.000000 0.038270 0.000000 -0.009296
# 5 0.001370 0.000401 0.002584 0.000000 0.033824 0.000000
# 6 0.000000 0.000000 0.000000 -0.009296 0.000000 0.043469
#
#
# Mechanical properties :
#
#
# Convention : Reuss Voigt Hill
#
# Bulk Modulus (GPa) = 49.23686 53.74071 51.48879
# Shear Modulus (GPa) = 25.33411 27.75057 26.54234
#
# Velocity S-wave (km/s) = 3.76152 3.93683 3.85017
# Velocity P-wave (km/s) = 6.80912 7.11891 6.96574
#
# Compressibility (1/GPa) = 0.02030999
#
# Stress axis : x y z
#
# Youngs Moduli (GPa) = 49.57260 104.62644 55.74328
#
# Poissons Ratio (x) = 0.24422 0.43772
# Poissons Ratio (y) = 0.11571 0.19473
# Poissons Ratio (z) = 0.38926 0.36549
#
# Static dielectric constant tensor:
#      x y z
#    x 3.170380 0.000000 0.049210 
#    y 0.000000 3.433720 0.000000 
#    z 0.049210 0.000000 3.158720 
# 
# 
# High freq. dielectric constant tensor:
#      x y z
#    x 1.682640 0.000000 0.010720 
#    y 0.000000 1.694810 0.000000 
#    z 0.010720 0.000000 1.694590 
# 
# From -- ./inp_files/23823.got.cif
#   From: 2010.06.25/outbox.cif.g09.slc.cpg/sg11_12_cif.got.tgz:23823.got - 2010.06.27 23:14:04.
