data_PCOD8073415
_publ_section_title
;
Structure prediction by ZEFSAII (Michael W. Deem and Ramdas Pophale) SiO2 
 PCOD8073415
Probable space group: P 21/M
;
_chemical_formula_sum "Si O2"
_cell_formula_units_Z 32
_cell_length_a 15.614596
_cell_length_b 9.110838
_cell_length_c 14.037207
_cell_angle_alpha 90.000000
_cell_angle_beta 116.710967
_cell_angle_gamma 90.000000
_cell_volume 1783.856853
_symmetry_space_group_name_H-M "P 21/M"
_symmetry_group_IT_number 11
_symmetry_cell_setting 'monoclinic'
loop_
_space_group_symop_operation_xyz
x,y,z
-x,1/2+y,-z
-x,-y,-z
x,1/2-y,z
loop_
_atom_site_type_symbol
_atom_site_label
_atom_site_fract_x
_atom_site_fract_y
_atom_site_fract_z
Si Si1 0.900269 0.078958 0.689526
Si Si2 0.259190 0.919118 0.020581
Si Si3 0.759115 0.919762 0.270364
Si Si4 0.600317 0.921464 0.560964
Si Si5 0.600317 0.578536 0.039354
Si Si6 0.259190 0.580882 0.238609
Si Si7 0.759115 0.919762 0.488751
Si Si8 0.099731 0.578958 0.789257
O O1 0.918177 0.250000 0.682155
O O2 0.836972 0.046202 0.751110
O O3 0.847959 0.015591 0.570056
O O4 1.000000 1.000000 0.756331
O O5 0.289509 0.750000 0.023240
O O6 0.238160 0.959499 0.119080
O O7 0.163028 0.953798 0.914139
O O8 0.346502 0.018028 0.027507
O O9 0.787066 0.750000 0.271390
O O10 0.663051 0.957598 0.164176
O O11 0.738903 0.960371 0.369452
O O12 0.847959 0.015591 0.277903
O O13 0.582840 0.750000 0.565438
O O14 0.663051 0.957598 0.498875
O O15 0.500000 0.000000 0.500000
O O16 0.653498 0.981972 0.681005
O O17 0.582840 0.750000 0.017402
O O18 0.500000 0.500000 0.000000
O O19 0.289509 0.750000 0.266269
O O20 0.787066 0.750000 0.515676
O O21 0.081823 0.750000 0.763978
#
# Coordination Sequence:
#
# PCOD8073415 Si02
#       8
#     4   4   4   4   4   4   4   4
#     4  10  20  34  53  77 104 134 168 208 254 304
#     4   9  19  36  55  75 102 136 173 213 256 301
#     4   9  19  36  55  74  99 133 172 212 253 298
#     4  10  20  34  53  78 106 136 171 211 256 306
#     4  10  20  34  53  78 106 136 171 211 256 306
#     4   9  19  36  55  75 102 136 173 213 256 301
#     4   9  19  36  55  74  99 133 172 212 253 298
#     4  10  20  34  53  77 104 134 168 208 254 304
#
# _framework density 17.938659000000001
#
# number of rings (size 3 to 8) (size 9 to 14) (size 15 to 20)
#    0.000    2.500    0.000    1.500    0.000    5.000 
#    0.000    2.500    0.000    0.000    0.000    0.000 
#    0.000    0.000    0.000    0.000    0.000    0.000 
#
# Total GULP energy -396922.177368 kJ/mol
# GULP energy per Si atom -12403.818043 kJ/mol
# Density = 1.789783 g / cm^3
# Si number density = 17.938659 Si / 1000 Ang^3
#
#
#
# Elastic Constant Matrix: (Units=GPa)
#
#
# Indices 1 2 3 4 5 6 
#
# 1 118.6547 70.7016 75.1105 0.0000 14.1961 0.0000
# 2 70.7016 98.6149 57.4198 0.0000 11.5023 0.0000
# 3 75.1105 57.4198 112.6405 0.0000 -8.9878 0.0000
# 4 0.0000 0.0000 0.0000 31.0964 0.0000 5.0492
# 5 14.1961 11.5023 -8.9878 0.0000 33.6538 0.0000
# 6 0.0000 0.0000 0.0000 5.0492 0.0000 36.9268
#
#
#
# Elastic Compliance Matrix: (Units=1/GPa)
#
#
# Indices 1 2 3 4 5 6 
#
# 1 0.020867 -0.007654 -0.010735 0.000000 -0.009054 0.000000
# 2 -0.007654 0.019070 -0.004986 0.000000 -0.004621 0.000000
# 3 -0.010735 -0.004986 0.019491 0.000000 0.011438 0.000000
# 4 0.000000 0.000000 0.000000 0.032888 0.000000 -0.004497
# 5 -0.009054 -0.004621 0.011438 0.000000 0.038167 0.000000
# 6 0.000000 0.000000 0.000000 -0.004497 0.000000 0.027696
#
#
# Mechanical properties :
#
#
# Convention : Reuss Voigt Hill
#
# Bulk Modulus (GPa) = 78.88152 81.81933 80.35043
# Shear Modulus (GPa) = 23.90555 28.78061 26.34308
#
# Velocity S-wave (km/s) = 3.65448 4.00983 3.83627
# Velocity P-wave (km/s) = 7.86609 8.19439 8.03191
#
# Compressibility (1/GPa) = 0.01267724
#
# Stress axis : x y z
#
# Youngs Moduli (GPa) = 47.92155 52.43788 51.30631
#
# Poissons Ratio (x) = 0.40136 0.55080
# Poissons Ratio (y) = 0.36679 0.25582
# Poissons Ratio (z) = 0.51446 0.26146
#
# Static dielectric constant tensor:
#      x y z
#    x 3.313270 0.000000 -0.058280 
#    y 0.000000 3.426570 0.000000 
#    z -0.058280 0.000000 3.380560 
# 
# 
# High freq. dielectric constant tensor:
#      x y z
#    x 1.694680 0.000000 -0.000140 
#    y 0.000000 1.702980 0.000000 
#    z -0.000140 0.000000 1.694850 
# 
# From -- ./inp_files/51675.got.cif
#   From: 2010.06.25/outbox.cif.g09.slc.cpg/sg11_26_cif.got.tgz:51675.got - 2010.06.27 23:14:04.
