data_PCOD8073931
_publ_section_title
;
Structure prediction by ZEFSAII (Michael W. Deem and Ramdas Pophale) SiO2 
 PCOD8073931
Probable space group: P 21/M
;
_chemical_formula_sum "Si O2"
_cell_formula_units_Z 32
_cell_length_a 11.424866
_cell_length_b 17.646142
_cell_length_c 9.954343
_cell_angle_alpha 90.000000
_cell_angle_beta 125.199982
_cell_angle_gamma 90.000000
_cell_volume 1639.882215
_symmetry_space_group_name_H-M "P 21/M"
_symmetry_group_IT_number 11
_symmetry_cell_setting 'monoclinic'
loop_
_space_group_symop_operation_xyz
x,y,z
-x,1/2+y,-z
-x,-y,-z
x,1/2-y,z
loop_
_atom_site_type_symbol
_atom_site_label
_atom_site_fract_x
_atom_site_fract_y
_atom_site_fract_z
Si Si1 0.184296 0.164551 0.379113
Si Si2 0.977526 0.625282 0.987286
Si Si3 0.905350 0.832652 0.211742
Si Si4 0.936034 0.160744 0.425133
Si Si5 0.798542 0.482130 0.895810
Si Si6 0.665232 0.056807 0.253170
Si Si7 0.652120 0.985824 0.532420
Si Si8 0.353512 0.439833 0.984606
O O1 0.241755 0.250000 0.448271
O O2 0.313846 0.103475 0.476486
O O3 0.055510 0.141720 0.392947
O O4 0.121408 0.165993 0.186962
O O5 0.994582 0.676412 0.131631
O O6 0.132127 0.600774 0.027830
O O7 0.911323 0.547985 0.004184
O O8 0.866996 0.750000 0.242955
O O9 0.754473 0.870791 0.079213
O O10 0.001979 0.870746 0.391935
O O11 0.897771 0.250000 0.402663
O O12 0.791584 0.114480 0.297720
O O13 0.765266 0.485096 0.715930
O O14 0.665695 0.497350 0.908210
O O15 0.669791 0.037085 0.413196
O O16 0.675935 0.978915 0.177555
O O17 0.512983 0.093899 0.109378
O O18 0.500000 0.000000 0.500000
#
# Coordination Sequence:
#
# PCOD8073931 Si02
#       8
#     4   4   4   4   4   4   4   4
#     4  10  21  37  58  82 112 151 193 234 284 344
#     4   9  17  30  54  82 106 141 180 228 277 329
#     4  10  20  35  54  80 112 145 188 230 280 342
#     4  10  22  39  59  85 116 150 189 234 286 341
#     4   9  17  32  52  80 111 138 181 228 278 330
#     4  11  22  37  57  84 116 145 190 237 283 336
#     4  11  21  36  57  84 115 149 192 237 280 341
#     4  10  21  35  55  83 110 149 186 233 282 336
#
# _framework density 19.513594999999999
#
# number of rings (size 3 to 8) (size 9 to 14) (size 15 to 20)
#    0.000    2.000    1.250    2.625    0.000    4.500 
#    0.000    0.625    0.000    2.250    0.000    0.000 
#    0.000    0.000    0.000    0.000    0.000    0.000 
#
# Total GULP energy -396563.754668 kJ/mol
# GULP energy per Si atom -12392.617333 kJ/mol
# Density = 1.946918 g / cm^3
# Si number density = 19.513595 Si / 1000 Ang^3
#
#
#
# Elastic Constant Matrix: (Units=GPa)
#
#
# Indices 1 2 3 4 5 6 
#
# 1 110.1743 44.2754 33.3626 0.0000 5.7820 0.0000
# 2 44.2754 72.5290 24.0928 0.0000 20.6054 0.0000
# 3 33.3626 24.0928 90.4942 0.0000 -3.8595 0.0000
# 4 0.0000 0.0000 0.0000 18.5653 0.0000 1.7248
# 5 5.7820 20.6054 -3.8595 0.0000 38.7154 0.0000
# 6 0.0000 0.0000 0.0000 1.7248 0.0000 27.7362
#
#
#
# Elastic Compliance Matrix: (Units=1/GPa)
#
#
# Indices 1 2 3 4 5 6 
#
# 1 0.012768 -0.007416 -0.002657 0.000000 0.001775 0.000000
# 2 -0.007416 0.022834 -0.003833 0.000000 -0.011428 0.000000
# 3 -0.002657 -0.003833 0.013211 0.000000 0.003754 0.000000
# 4 0.000000 0.000000 0.000000 0.054177 0.000000 -0.003369
# 5 0.001775 -0.011428 0.003754 0.000000 0.032021 0.000000
# 6 0.000000 0.000000 0.000000 -0.003369 0.000000 0.036264
#
#
# Mechanical properties :
#
#
# Convention : Reuss Voigt Hill
#
# Bulk Modulus (GPa) = 47.61564 52.96211 50.28888
# Shear Modulus (GPa) = 24.26164 28.43448 26.34806
#
# Velocity S-wave (km/s) = 3.52990 3.82142 3.67855
# Velocity P-wave (km/s) = 6.40842 6.83162 6.62340
#
# Compressibility (1/GPa) = 0.02100150
#
# Stress axis : x y z
#
# Youngs Moduli (GPa) = 78.31917 43.79342 75.69719
#
# Poissons Ratio (x) = 0.32478 0.20114
# Poissons Ratio (y) = 0.58082 0.29012
# Poissons Ratio (z) = 0.20811 0.16784
#
# Static dielectric constant tensor:
#      x y z
#    x 3.751270 0.000000 -0.178140 
#    y 0.000000 3.448930 0.000000 
#    z -0.178140 0.000000 3.668310 
# 
# 
# High freq. dielectric constant tensor:
#      x y z
#    x 1.758940 0.000000 -0.016360 
#    y 0.000000 1.736810 0.000000 
#    z -0.016360 0.000000 1.768900 
# 
# From -- ./inp_files/19440.got.cif
#   From: 2010.06.25/outbox.cif.g09.slc.cpg/sg11_10_cif.got.tgz:19440.got - 2010.06.27 23:14:04.
