data_PCOD8073863
_publ_section_title
;
Structure prediction by ZEFSAII (Michael W. Deem and Ramdas Pophale) SiO2 
 PCOD8073863
Probable space group: P 21/M
;
_chemical_formula_sum "Si O2"
_cell_formula_units_Z 32
_cell_length_a 26.161519
_cell_length_b 9.681475
_cell_length_c 19.572207
_cell_angle_alpha 90.000000
_cell_angle_beta 159.887039
_cell_angle_gamma 90.000000
_cell_volume 1704.673664
_symmetry_space_group_name_H-M "P 21/M"
_symmetry_group_IT_number 11
_symmetry_cell_setting 'monoclinic'
loop_
_space_group_symop_operation_xyz
x,y,z
-x,1/2+y,-z
-x,-y,-z
x,1/2-y,z
loop_
_atom_site_type_symbol
_atom_site_label
_atom_site_fract_x
_atom_site_fract_y
_atom_site_fract_z
Si Si1 0.905368 0.907634 0.828584
Si Si2 0.920457 0.404587 0.091072
Si Si3 0.449979 0.088585 0.038325
Si Si4 0.640184 0.404289 0.506207
Si Si5 0.354243 0.411183 0.066777
Si Si6 0.716858 0.408508 0.279023
Si Si7 0.044617 0.411152 0.738278
Si Si8 0.632187 0.401789 0.654766
O O1 0.889020 0.750000 0.836884
O O2 0.973460 0.902428 0.839943
O O3 0.747706 0.977635 0.613537
O O4 0.000000 0.000000 0.000000
O O5 0.909180 0.250000 0.108026
O O6 0.976617 0.510428 0.217517
O O7 0.763608 0.458889 0.866334
O O8 0.411262 0.250000 0.984539
O O9 0.421516 0.031747 0.079574
O O10 0.620672 0.061773 0.227721
O O11 0.336719 0.007823 0.847957
O O12 0.673293 0.250000 0.517176
O O13 0.471128 0.446559 0.274110
O O14 0.674307 0.399002 0.628838
O O15 0.333013 0.250000 0.031684
O O16 0.189729 0.470547 0.879487
O O17 0.691182 0.250000 0.224776
O O18 0.891893 0.438685 0.506479
O O19 0.065458 0.250000 0.780870
O O20 0.500000 0.500000 0.500000
O O21 0.586521 0.250000 0.622263
#
# Coordination Sequence:
#
# PCOD8073863 Si02
#       8
#     4   4   4   4   4   4   4   4
#     4  11  22  38  57  80 108 141 185 233 282 334
#     4  10  22  38  53  77 113 144 177 229 282 326
#     4   9  18  35  57  81 111 148 181 218 276 330
#     4  10  20  36  56  78 110 145 182 229 279 326
#     4   9  19  35  57  83 113 146 184 228 274 328
#     4   9  19  35  56  84 112 140 184 230 265 321
#     4  10  21  37  58  84 110 144 189 229 269 328
#     4  10  20  35  53  75 105 144 185 227 273 324
#
# _framework density 18.771920999999999
#
# number of rings (size 3 to 8) (size 9 to 14) (size 15 to 20)
#    0.000    2.250    1.250    1.125    1.750    4.000 
#    0.000    1.875    0.000    0.000    0.000    0.000 
#    0.000    0.000    0.000    0.000    0.000    0.000 
#
# Total GULP energy -396579.741817 kJ/mol
# GULP energy per Si atom -12393.116932 kJ/mol
# Density = 1.872920 g / cm^3
# Si number density = 18.771921 Si / 1000 Ang^3
#
#
#
# Elastic Constant Matrix: (Units=GPa)
#
#
# Indices 1 2 3 4 5 6 
#
# 1 51.8757 27.6854 14.8408 0.0000 -2.5506 0.0000
# 2 27.6854 72.3601 50.4472 0.0000 2.9453 0.0000
# 3 14.8408 50.4472 110.6322 0.0000 10.3669 0.0000
# 4 0.0000 0.0000 0.0000 30.4523 0.0000 -0.6096
# 5 -2.5506 2.9453 10.3669 0.0000 28.6616 0.0000
# 6 0.0000 0.0000 0.0000 -0.6096 0.0000 27.5739
#
#
#
# Elastic Compliance Matrix: (Units=1/GPa)
#
#
# Indices 1 2 3 4 5 6 
#
# 1 0.024599 -0.010323 0.001142 0.000000 0.002837 0.000000
# 2 -0.010323 0.024640 -0.009862 0.000000 0.000116 0.000000
# 3 0.001142 -0.009862 0.013744 0.000000 -0.003856 0.000000
# 4 0.000000 0.000000 0.000000 0.032853 0.000000 0.000726
# 5 0.002837 0.000116 -0.003856 0.000000 0.036525 0.000000
# 6 0.000000 0.000000 0.000000 0.000726 0.000000 0.036282
#
#
# Mechanical properties :
#
#
# Convention : Reuss Voigt Hill
#
# Bulk Modulus (GPa) = 40.16615 46.75720 43.46168
# Shear Modulus (GPa) = 23.25273 26.79720 25.02497
#
# Velocity S-wave (km/s) = 3.52333 3.78235 3.65513
# Velocity P-wave (km/s) = 6.16402 6.63604 6.40438
#
# Compressibility (1/GPa) = 0.02489659
#
# Stress axis : x y z
#
# Youngs Moduli (GPa) = 40.65201 40.58447 72.75883
#
# Poissons Ratio (x) = 0.41895 -0.08305
# Poissons Ratio (y) = 0.41965 0.71753
# Poissons Ratio (z) = -0.04640 0.40023
#
# Static dielectric constant tensor:
#      x y z
#    x 3.149060 0.000000 0.227060 
#    y 0.000000 3.526240 0.000000 
#    z 0.227060 0.000000 3.642530 
# 
# 
# High freq. dielectric constant tensor:
#      x y z
#    x 1.720170 0.000000 0.006700 
#    y 0.000000 1.719320 0.000000 
#    z 0.006700 0.000000 1.735810 
# 
# From -- ./inp_files/67209.got.cif
#   From: 2010.06.25/outbox.cif.g09.slc.cpg/sg11_34_cif.got.tgz:67209.got - 2010.06.27 23:14:04.
