data_PCOD8073163
_publ_section_title
;
Structure prediction by ZEFSAII (Michael W. Deem and Ramdas Pophale) SiO2 
 PCOD8073163
Probable space group: P 21/M
;
_chemical_formula_sum "Si O2"
_cell_formula_units_Z 32
_cell_length_a 14.341982
_cell_length_b 8.620561
_cell_length_c 19.116131
_cell_angle_alpha 90.000000
_cell_angle_beta 138.317065
_cell_angle_gamma 90.000000
_cell_volume 1571.706811
_symmetry_space_group_name_H-M "P 21/M"
_symmetry_group_IT_number 11
_symmetry_cell_setting 'monoclinic'
loop_
_space_group_symop_operation_xyz
x,y,z
-x,1/2+y,-z
-x,-y,-z
x,1/2-y,z
loop_
_atom_site_type_symbol
_atom_site_label
_atom_site_fract_x
_atom_site_fract_y
_atom_site_fract_z
Si Si1 0.130515 0.419689 0.106061
Si Si2 0.426245 0.935337 0.775875
Si Si3 0.093724 0.431786 0.821725
Si Si4 0.607792 0.566428 0.395553
Si Si5 0.635318 0.933003 0.116444
Si Si6 0.654251 0.563914 0.665943
Si Si7 0.210603 0.934675 0.390022
Si Si8 0.730531 0.577133 0.958002
O O1 0.079995 0.250000 0.099044
O O2 0.205272 0.497166 0.214603
O O3 0.247562 0.416961 0.111976
O O4 0.000000 0.500000 0.000000
O O5 0.423882 0.750000 0.766490
O O6 0.580232 0.003071 0.882885
O O7 0.377623 0.009222 0.675837
O O8 0.335568 0.992309 0.790828
O O9 0.065220 0.250000 0.807625
O O10 0.220683 0.476943 0.841900
O O11 0.943358 0.503917 0.715817
O O12 0.141855 0.498853 0.925571
O O13 0.591938 0.750000 0.387755
O O14 0.479267 0.492252 0.365957
O O15 0.749531 0.511280 0.513583
O O16 0.615016 0.750000 0.111525
O O17 0.500000 0.000000 0.000000
O O18 0.649373 0.750000 0.658796
O O19 0.669181 0.488057 0.598043
O O20 0.214338 0.750000 0.398452
O O21 0.717119 0.750000 0.982571
#
# Coordination Sequence:
#
# PCOD8073163 Si02
#       8
#     4   4   4   4   4   4   4   4
#     4  10  20  33  52  80 118 159 197 241 294 355
#     4  11  21  39  64  90 121 156 198 249 303 358
#     4   9  19  36  61  89 122 160 200 247 302 359
#     4  12  25  42  63  89 121 158 205 257 301 357
#     4  11  21  37  62  95 127 161 202 247 301 362
#     4  11  22  39  61  88 121 160 204 252 300 354
#     4  11  23  41  64  88 117 161 208 251 302 358
#     4   9  16  32  56  82 115 154 189 234 294 351
#
# _framework density 20.360032
#
# number of rings (size 3 to 8) (size 9 to 14) (size 15 to 20)
#    0.000    1.500    2.500    3.750    0.000    2.000 
#    0.000    3.125    0.000    0.000    0.000    0.000 
#    0.000    0.000    0.000    0.000    0.000    0.000 
#
# Total GULP energy -396546.574775 kJ/mol
# GULP energy per Si atom -12392.080462 kJ/mol
# Density = 2.031369 g / cm^3
# Si number density = 20.360032 Si / 1000 Ang^3
#
#
#
# Elastic Constant Matrix: (Units=GPa)
#
#
# Indices 1 2 3 4 5 6 
#
# 1 65.7741 21.6015 27.7497 0.0000 -17.5485 0.0000
# 2 21.6015 75.1917 27.5826 0.0000 -7.7308 0.0000
# 3 27.7497 27.5826 120.2142 0.0000 -22.6339 0.0000
# 4 0.0000 0.0000 0.0000 29.0837 0.0000 -4.3604
# 5 -17.5485 -7.7308 -22.6339 0.0000 35.9637 0.0000
# 6 0.0000 0.0000 0.0000 -4.3604 0.0000 27.7537
#
#
#
# Elastic Compliance Matrix: (Units=1/GPa)
#
#
# Indices 1 2 3 4 5 6 
#
# 1 0.019372 -0.004020 -0.002192 0.000000 0.007209 0.000000
# 2 -0.004020 0.015399 -0.002667 0.000000 -0.000330 0.000000
# 3 -0.002192 -0.002667 0.010354 0.000000 0.004873 0.000000
# 4 0.000000 0.000000 0.000000 0.035213 0.000000 0.005532
# 5 0.007209 -0.000330 0.004873 0.000000 0.034319 0.000000
# 6 0.000000 0.000000 0.000000 0.005532 0.000000 0.036900
#
#
# Mechanical properties :
#
#
# Convention : Reuss Voigt Hill
#
# Bulk Modulus (GPa) = 36.54188 46.11638 41.32913
# Shear Modulus (GPa) = 28.02086 30.84329 29.43207
#
# Velocity S-wave (km/s) = 3.71383 3.89639 3.80620
# Velocity P-wave (km/s) = 6.03133 6.55302 6.29758
#
# Compressibility (1/GPa) = 0.02736586
#
# Stress axis : x y z
#
# Youngs Moduli (GPa) = 51.62107 64.94027 96.58035
#
# Poissons Ratio (x) = 0.26106 0.21171
# Poissons Ratio (y) = 0.20752 0.25762
# Poissons Ratio (z) = 0.11316 0.17322
#
# Static dielectric constant tensor:
#      x y z
#    x 5.151400 0.000000 -1.921050 
#    y 0.000000 3.513150 0.000000 
#    z -1.921050 0.000000 6.587040 
# 
# 
# High freq. dielectric constant tensor:
#      x y z
#    x 1.791840 0.000000 -0.011500 
#    y 0.000000 1.775300 0.000000 
#    z -0.011500 0.000000 1.810150 
# 
# From -- ./inp_files/65246.got.cif
#   From: 2010.06.25/outbox.cif.g09.slc.cpg/sg11_33_cif.got.tgz:65246.got - 2010.06.27 23:14:04.
