data_PCOD8073293
_publ_section_title
;
Structure prediction by ZEFSAII (Michael W. Deem and Ramdas Pophale) SiO2 
 PCOD8073293
Probable space group: P 21/M
;
_chemical_formula_sum "Si O2"
_cell_formula_units_Z 28
_cell_length_a 13.819476
_cell_length_b 8.794175
_cell_length_c 20.820560
_cell_angle_alpha 90.000000
_cell_angle_beta 144.327757
_cell_angle_gamma 90.000000
_cell_volume 1475.562719
_symmetry_space_group_name_H-M "P 21/M"
_symmetry_group_IT_number 11
_symmetry_cell_setting 'monoclinic'
loop_
_space_group_symop_operation_xyz
x,y,z
-x,1/2+y,-z
-x,-y,-z
x,1/2-y,z
loop_
_atom_site_type_symbol
_atom_site_label
_atom_site_fract_x
_atom_site_fract_y
_atom_site_fract_z
Si Si1 0.317434 0.925261 0.824307
Si Si2 0.499527 0.927478 0.258321
Si Si3 0.651576 0.569031 0.942880
Si Si4 0.116648 0.569481 0.835849
Si Si5 0.828819 0.073624 0.389104
Si Si6 0.503103 0.425464 0.597055
Si Si7 0.237072 0.926705 0.370618
O O1 0.346699 0.750000 0.854239
O O2 0.496744 0.995329 0.902085
O O3 0.235181 0.998741 0.843249
O O4 0.190987 0.949318 0.697603
O O5 0.496313 0.750000 0.240643
O O6 0.446127 0.961861 0.302558
O O7 0.369572 0.011571 0.141474
O O8 0.684584 0.989174 0.349609
O O9 0.655877 0.750000 0.943724
O O10 0.821107 0.503215 0.063733
O O11 0.126131 0.750000 0.844952
O O12 0.929869 0.522791 0.720910
O O13 0.824338 0.250000 0.405806
O O14 0.000000 0.000000 0.500000
O O15 0.451848 0.250000 0.560780
O O16 0.661950 0.465969 0.639519
O O17 0.345311 0.525607 0.490793
O O18 0.192561 0.750000 0.351646
#
# Coordination Sequence:
#
# PCOD8073293 Si02
#       7
#     4   4   4   4   4   4   4
#     4   8  18  34  52  74 107 146 181 218 264 316
#     4  10  20  36  58  80 105 144 183 222 274 330
#     4  10  20  37  56  80 111 144 183 228 270 321
#     4  11  21  35  56  81 110 146 184 224 272 325
#     4  10  20  34  50  77 112 146 181 223 267 320
#     4   9  20  39  60  80 109 144 179 223 279 332
#     4  10  21  37  57  84 111 139 180 229 275 326
#
# _framework density 18.975812000000001
#
# number of rings (size 3 to 8) (size 9 to 14) (size 15 to 20)
#    0.000    2.286    0.000    3.429    2.000    1.714 
#    0.000    7.857    0.000    0.000    0.000    0.000 
#    0.000    0.000    0.000    0.000    0.000    0.000 
#
# Total GULP energy -347222.953374 kJ/mol
# GULP energy per Si atom -12400.819763 kJ/mol
# Density = 1.893262 g / cm^3
# Si number density = 18.975812 Si / 1000 Ang^3
#
#
#
# Elastic Constant Matrix: (Units=GPa)
#
#
# Indices 1 2 3 4 5 6 
#
# 1 77.0524 32.8189 37.4727 0.0000 -17.4664 0.0000
# 2 32.8189 85.5702 40.7214 0.0000 -7.4734 0.0000
# 3 37.4727 40.7214 91.3428 0.0000 -8.1644 0.0000
# 4 0.0000 0.0000 0.0000 37.5947 0.0000 0.6945
# 5 -17.4664 -7.4734 -8.1644 0.0000 21.5515 0.0000
# 6 0.0000 0.0000 0.0000 0.6945 0.0000 25.7127
#
#
#
# Elastic Compliance Matrix: (Units=1/GPa)
#
#
# Indices 1 2 3 4 5 6 
#
# 1 0.020255 -0.004103 -0.005320 0.000000 0.012977 0.000000
# 2 -0.004103 0.015821 -0.005358 0.000000 0.000131 0.000000
# 3 -0.005320 -0.005358 0.015492 0.000000 -0.000301 0.000000
# 4 0.000000 0.000000 0.000000 0.026613 0.000000 -0.000719
# 5 0.012977 0.000131 -0.000301 0.000000 0.056849 0.000000
# 6 0.000000 0.000000 0.000000 -0.000719 0.000000 0.038911
#
#
# Mechanical properties :
#
#
# Convention : Reuss Voigt Hill
#
# Bulk Modulus (GPa) = 45.44407 52.88791 49.16599
# Shear Modulus (GPa) = 23.71467 26.50193 25.10830
#
# Velocity S-wave (km/s) = 3.53899 3.74119 3.64149
# Velocity P-wave (km/s) = 6.37963 6.82596 6.60656
#
# Compressibility (1/GPa) = 0.02200507
#
# Stress axis : x y z
#
# Youngs Moduli (GPa) = 49.37064 63.20557 64.54847
#
# Poissons Ratio (x) = 0.25935 0.34341
# Poissons Ratio (y) = 0.20258 0.34587
# Poissons Ratio (z) = 0.26266 0.33867
#
# Static dielectric constant tensor:
#      x y z
#    x 3.595020 0.000000 -0.100920 
#    y 0.000000 3.437490 0.000000 
#    z -0.100920 0.000000 3.444280 
# 
# 
# High freq. dielectric constant tensor:
#      x y z
#    x 1.726590 0.000000 -0.009800 
#    y 0.000000 1.737310 0.000000 
#    z -0.009800 0.000000 1.741400 
# 
# From -- ./inp_files/37463.got.cif
#   From: 2010.06.25/outbox.cif.g09.slc.cpg/sg11_19_cif.got.tgz:37463.got - 2010.06.27 23:14:04.
