data_PCOD8073681
_publ_section_title
;
Structure prediction by ZEFSAII (Michael W. Deem and Ramdas Pophale) SiO2 
 PCOD8073681
Probable space group: P 21/M
;
_chemical_formula_sum "Si O2"
_cell_formula_units_Z 32
_cell_length_a 22.940349
_cell_length_b 8.873905
_cell_length_c 14.316189
_cell_angle_alpha 90.000000
_cell_angle_beta 143.926336
_cell_angle_gamma 90.000000
_cell_volume 1716.043877
_symmetry_space_group_name_H-M "P 21/M"
_symmetry_group_IT_number 11
_symmetry_cell_setting 'monoclinic'
loop_
_space_group_symop_operation_xyz
x,y,z
-x,1/2+y,-z
-x,-y,-z
x,1/2-y,z
loop_
_atom_site_type_symbol
_atom_site_label
_atom_site_fract_x
_atom_site_fract_y
_atom_site_fract_z
Si Si1 0.879743 0.925166 0.261286
Si Si2 0.712438 0.577878 0.899187
Si Si3 0.505791 0.076867 0.407201
Si Si4 0.819503 0.572026 0.554759
Si Si5 0.190074 0.578533 0.131225
Si Si6 0.103099 0.924922 0.521208
Si Si7 0.309383 0.923583 0.467852
Si Si8 0.996595 0.073144 0.895141
O O1 0.871726 0.750000 0.279259
O O2 0.986175 0.956274 0.350173
O O3 0.869212 0.027179 0.338731
O O4 0.789362 0.975269 0.077922
O O5 0.735195 0.750000 0.900172
O O6 0.598239 0.561350 0.783416
O O7 0.719651 0.470472 0.817911
O O8 0.534035 0.250000 0.462832
O O9 0.590905 0.008154 0.449934
O O10 0.500000 0.000000 0.500000
O O11 0.824692 0.750000 0.568138
O O12 0.825935 0.519523 0.455800
O O13 0.718943 0.515924 0.475492
O O14 0.912180 0.497443 0.724253
O O15 0.158897 0.750000 0.071032
O O16 0.219517 0.559365 0.277616
O O17 0.102072 0.466603 0.986181
O O18 0.127299 0.750000 0.538421
O O19 0.324787 0.750000 0.516253
O O20 0.979274 0.250000 0.879414
O O21 0.000000 0.000000 0.000000
#
# Coordination Sequence:
#
# PCOD8073681 Si02
#       8
#     4   4   4   4   4   4   4   4
#     4   9  19  36  57  84 113 143 181 226 275 330
#     4  10  20  34  56  82 111 146 184 231 283 331
#     4  10  20  35  55  79 109 147 189 233 281 328
#     4  12  24  37  56  80 108 147 187 227 276 334
#     4  11  21  33  51  76 109 147 184 225 270 323
#     4  10  20  36  59  84 114 148 180 223 275 332
#     4  10  21  36  52  74 109 148 187 230 273 323
#     4  12  23  35  50  72 105 143 182 222 264 320
#
# _framework density 18.647541
#
# number of rings (size 3 to 8) (size 9 to 14) (size 15 to 20)
#    0.000    1.500    2.500    3.750    0.000    3.000 
#    0.000    0.000    0.000    0.750    0.000    0.000 
#    0.000    0.000    0.000    0.000    0.000    0.000 
#
# Total GULP energy -396798.582938 kJ/mol
# GULP energy per Si atom -12399.955717 kJ/mol
# Density = 1.860510 g / cm^3
# Si number density = 18.647541 Si / 1000 Ang^3
#
#
#
# Elastic Constant Matrix: (Units=GPa)
#
#
# Indices 1 2 3 4 5 6 
#
# 1 122.8620 56.3551 31.3343 0.0000 13.7184 0.0000
# 2 56.3551 104.1543 24.5837 0.0000 0.7919 0.0000
# 3 31.3343 24.5837 63.4765 0.0000 6.7573 0.0000
# 4 0.0000 0.0000 0.0000 21.7990 0.0000 -2.1883
# 5 13.7184 0.7919 6.7573 0.0000 23.9233 0.0000
# 6 0.0000 0.0000 0.0000 -2.1883 0.0000 34.0337
#
#
#
# Elastic Compliance Matrix: (Units=1/GPa)
#
#
# Indices 1 2 3 4 5 6 
#
# 1 0.012303 -0.005864 -0.003167 0.000000 -0.005966 0.000000
# 2 -0.005864 0.013378 -0.002678 0.000000 0.003676 0.000000
# 3 -0.003167 -0.002678 0.018714 0.000000 -0.003381 0.000000
# 4 0.000000 0.000000 0.000000 0.046172 0.000000 0.002969
# 5 -0.005966 0.003676 -0.003381 0.000000 0.046055 0.000000
# 6 0.000000 0.000000 0.000000 0.002969 0.000000 0.029574
#
#
# Mechanical properties :
#
#
# Convention : Reuss Voigt Hill
#
# Bulk Modulus (GPa) = 47.66975 57.22656 52.44816
# Shear Modulus (GPa) = 25.43173 27.83252 26.63212
#
# Velocity S-wave (km/s) = 3.69699 3.86755 3.78323
# Velocity P-wave (km/s) = 6.62138 7.12033 6.87538
#
# Compressibility (1/GPa) = 0.02097766
#
# Stress axis : x y z
#
# Youngs Moduli (GPa) = 81.28284 74.74951 53.43516
#
# Poissons Ratio (x) = 0.43832 0.16923
# Poissons Ratio (y) = 0.47663 0.14309
# Poissons Ratio (z) = 0.25742 0.20017
#
# Static dielectric constant tensor:
#      x y z
#    x 3.601630 0.000000 0.193130 
#    y 0.000000 3.415620 0.000000 
#    z 0.193130 0.000000 3.420860 
# 
# 
# High freq. dielectric constant tensor:
#      x y z
#    x 1.726350 0.000000 0.011610 
#    y 0.000000 1.725970 0.000000 
#    z 0.011610 0.000000 1.699820 
# 
# From -- ./inp_files/54348.got.cif
#   From: 2010.06.25/outbox.cif.g09.slc.cpg/sg11_28_cif.got.tgz:54348.got - 2010.06.27 23:14:04.
