data_PCOD8073662
_publ_section_title
;
Structure prediction by ZEFSAII (Michael W. Deem and Ramdas Pophale) SiO2 
 PCOD8073662
Probable space group: P 21/M
;
_chemical_formula_sum "Si O2"
_cell_formula_units_Z 32
_cell_length_a 28.183261
_cell_length_b 8.796039
_cell_length_c 11.950733
_cell_angle_alpha 90.000000
_cell_angle_beta 147.009139
_cell_angle_gamma 90.000000
_cell_volume 1613.150950
_symmetry_space_group_name_H-M "P 21/M"
_symmetry_group_IT_number 11
_symmetry_cell_setting 'monoclinic'
loop_
_space_group_symop_operation_xyz
x,y,z
-x,1/2+y,-z
-x,-y,-z
x,1/2-y,z
loop_
_atom_site_type_symbol
_atom_site_label
_atom_site_fract_x
_atom_site_fract_y
_atom_site_fract_z
Si Si1 0.075747 0.069977 0.379788
Si Si2 0.741949 0.570390 0.873714
Si Si3 0.101246 0.069926 0.974925
Si Si4 0.755840 0.930864 0.152015
Si Si5 0.404537 0.072423 0.021497
Si Si6 0.599141 0.072223 0.444954
Si Si7 0.856633 0.071614 0.705701
Si Si8 0.344267 0.572597 0.684311
O O1 0.063255 0.250000 0.362858
O O2 0.156748 0.012053 0.614214
O O3 0.089085 0.021936 0.277735
O O4 0.990402 0.984874 0.258690
O O5 0.736719 0.750000 0.866730
O O6 0.822940 0.516161 0.958860
O O7 0.651302 0.509558 0.646351
O O8 0.754716 0.504619 0.023819
O O9 0.102254 0.250000 0.996109
O O10 0.113479 0.982168 0.114412
O O11 0.752556 0.750000 0.145050
O O12 0.671807 0.996692 0.051712
O O13 0.390344 0.250000 0.977465
O O14 0.497209 0.036782 0.261969
O O15 0.403857 0.002070 0.896697
O O16 0.619811 0.250000 0.492132
O O17 0.629706 0.006198 0.385368
O O18 0.875878 0.250000 0.730815
O O19 0.755593 0.032975 0.488098
O O20 0.363325 0.750000 0.723611
#
# Coordination Sequence:
#
# PCOD8073662 Si02
#       8
#     4   4   4   4   4   4   4   4
#     4  11  22  38  61  85 114 150 186 230 282 339
#     4  10  22  40  60  80 110 151 193 235 278 332
#     4  11  23  38  58  85 114 147 189 233 280 337
#     4   9  20  39  59  82 111 148 191 233 280 331
#     4  10  20  36  60  85 115 151 188 228 277 339
#     4  10  21  37  57  86 118 149 185 232 283 330
#     4  11  21  36  59  85 117 150 183 230 281 335
#     4  10  20  34  55  84 119 148 181 231 282 330
#
# _framework density 19.836953000000001
#
# number of rings (size 3 to 8) (size 9 to 14) (size 15 to 20)
#    0.000    1.750    2.500    1.875    0.000    3.000 
#    0.000    1.875    0.000    0.000    0.000    0.000 
#    0.000    0.000    0.000    0.000    0.000    0.000 
#
# Total GULP energy -396926.369722 kJ/mol
# GULP energy per Si atom -12403.949054 kJ/mol
# Density = 1.979180 g / cm^3
# Si number density = 19.836953 Si / 1000 Ang^3
#
#
#
# Elastic Constant Matrix: (Units=GPa)
#
#
# Indices 1 2 3 4 5 6 
#
# 1 84.7857 10.4756 65.7455 0.0000 -10.2204 0.0000
# 2 10.4756 21.5888 28.3503 0.0000 7.3153 0.0000
# 3 65.7455 28.3503 119.7930 0.0000 -4.3521 0.0000
# 4 0.0000 0.0000 0.0000 32.4930 0.0000 1.1852
# 5 -10.2204 7.3153 -4.3521 0.0000 34.0368 0.0000
# 6 0.0000 0.0000 0.0000 1.1852 0.0000 11.3470
#
#
#
# Elastic Compliance Matrix: (Units=1/GPa)
#
#
# Indices 1 2 3 4 5 6 
#
# 1 0.021684 0.005334 -0.013029 0.000000 0.003699 0.000000
# 2 0.005334 0.079292 -0.022358 0.000000 -0.018299 0.000000
# 3 -0.013029 -0.022358 0.020919 0.000000 0.003568 0.000000
# 4 0.000000 0.000000 0.000000 0.030894 0.000000 -0.003227
# 5 0.003699 -0.018299 0.003568 0.000000 0.034880 0.000000
# 6 0.000000 0.000000 0.000000 -0.003227 0.000000 0.088466
#
#
# Mechanical properties :
#
#
# Convention : Reuss Voigt Hill
#
# Bulk Modulus (GPa) = 16.18361 48.36780 32.27570
# Shear Modulus (GPa) = 14.01199 23.68177 18.84688
#
# Velocity S-wave (km/s) = 2.66062 3.45892 3.08570
# Velocity P-wave (km/s) = 4.19697 6.35514 5.38527
#
# Compressibility (1/GPa) = 0.06179091
#
# Stress axis : x y z
#
# Youngs Moduli (GPa) = 46.11633 12.61155 47.80312
#
# Poissons Ratio (x) = -0.06727 0.62282
# Poissons Ratio (y) = -0.24599 1.06877
# Poissons Ratio (z) = 0.60085 0.28197
#
# Static dielectric constant tensor:
#      x y z
#    x 3.819970 0.000000 0.133300 
#    y 0.000000 3.357090 0.000000 
#    z 0.133300 0.000000 3.753670 
# 
# 
# High freq. dielectric constant tensor:
#      x y z
#    x 1.775540 0.000000 0.009460 
#    y 0.000000 1.754430 0.000000 
#    z 0.009460 0.000000 1.785470 
# 
# From -- ./inp_files/38183.got.cif
#   From: 2010.06.25/outbox.cif.g09.slc.cpg/sg11_20_cif.got.tgz:38183.got - 2010.06.27 23:14:04.
