data_PCOD8073659
_publ_section_title
;
Structure prediction by ZEFSAII (Michael W. Deem and Ramdas Pophale) SiO2 
 PCOD8073659
Probable space group: P 21/M
;
_chemical_formula_sum "Si O2"
_cell_formula_units_Z 28
_cell_length_a 27.186721
_cell_length_b 8.724835
_cell_length_c 9.731512
_cell_angle_alpha 90.000000
_cell_angle_beta 141.534519
_cell_angle_gamma 90.000000
_cell_volume 1435.868938
_symmetry_space_group_name_H-M "P 21/M"
_symmetry_group_IT_number 11
_symmetry_cell_setting 'monoclinic'
loop_
_space_group_symop_operation_xyz
x,y,z
-x,1/2+y,-z
-x,-y,-z
x,1/2-y,z
loop_
_atom_site_type_symbol
_atom_site_label
_atom_site_fract_x
_atom_site_fract_y
_atom_site_fract_z
Si Si1 0.312961 0.430455 0.188442
Si Si2 0.217501 0.926370 0.477021
Si Si3 0.061530 0.070180 0.239787
Si Si4 0.018827 0.430906 0.687168
Si Si5 0.350007 0.571067 0.977349
Si Si6 0.481651 0.427852 0.603049
Si Si7 0.185568 0.573024 0.100519
O O1 0.296095 0.250000 0.160936
O O2 0.392560 0.480010 0.450037
O O3 0.239860 0.518862 0.094293
O O4 0.321140 0.475859 0.046408
O O5 0.193646 0.750000 0.453175
O O6 0.298186 0.971486 0.731318
O O7 0.230401 0.954068 0.343076
O O8 0.150033 0.036589 0.386350
O O9 0.046970 0.250000 0.216790
O O10 0.048238 0.995211 0.358765
O O11 0.000000 0.000000 0.000000
O O12 0.012682 0.250000 0.667807
O O13 0.000000 0.500000 0.500000
O O14 0.105085 0.477718 0.928755
O O15 0.342469 0.750000 0.998905
O O16 0.442012 0.531677 0.134896
O O17 0.500000 0.500000 0.500000
O O18 0.475693 0.250000 0.564436
O O19 0.163918 0.750000 0.030496
#
# Coordination Sequence:
#
# PCOD8073659 Si02
#       7
#     4   4   4   4   4   4   4
#     4  10  20  34  55  84 117 151 190 238 292 346
#     4  10  22  39  60  84 114 151 196 242 289 343
#     4  12  24  41  64  88 117 155 197 239 289 346
#     4  12  26  44  65  89 118 152 193 242 293 346
#     4   9  18  35  59  85 112 147 193 240 287 343
#     4   8  15  30  53  80 111 147 187 234 286 340
#     4  11  23  40  59  82 116 155 194 237 290 346
#
# _framework density 19.500387
#
# number of rings (size 3 to 8) (size 9 to 14) (size 15 to 20)
#    0.000    1.714    1.429    3.429    2.000    1.714 
#    0.000    0.714    0.000    0.000    0.000    0.000 
#    0.000    0.000    0.000    0.000    0.000    0.000 
#
# Total GULP energy -347058.261064 kJ/mol
# GULP energy per Si atom -12394.937895 kJ/mol
# Density = 1.945600 g / cm^3
# Si number density = 19.500387 Si / 1000 Ang^3
#
#
#
# Elastic Constant Matrix: (Units=GPa)
#
#
# Indices 1 2 3 4 5 6 
#
# 1 48.2562 19.8798 6.1391 0.0000 -7.9927 0.0000
# 2 19.8798 99.9604 26.9942 0.0000 -5.5637 0.0000
# 3 6.1391 26.9942 109.5922 0.0000 -4.3048 0.0000
# 4 0.0000 0.0000 0.0000 26.8665 0.0000 0.8748
# 5 -7.9927 -5.5637 -4.3048 0.0000 31.2933 0.0000
# 6 0.0000 0.0000 0.0000 0.8748 0.0000 24.9883
#
#
#
# Elastic Compliance Matrix: (Units=1/GPa)
#
#
# Indices 1 2 3 4 5 6 
#
# 1 0.023380 -0.004352 -0.000034 0.000000 0.005193 0.000000
# 2 -0.004352 0.011602 -0.002591 0.000000 0.000595 0.000000
# 3 -0.000034 -0.002591 0.009799 0.000000 0.000879 0.000000
# 4 0.000000 0.000000 0.000000 0.037263 0.000000 -0.001304
# 5 0.005193 0.000595 0.000879 0.000000 0.033509 0.000000
# 6 0.000000 0.000000 0.000000 -0.001304 0.000000 0.040064
#
#
# Mechanical properties :
#
#
# Convention : Reuss Voigt Hill
#
# Bulk Modulus (GPa) = 32.43677 40.42609 36.43143
# Shear Modulus (GPa) = 27.80150 30.28266 29.04208
#
# Velocity S-wave (km/s) = 3.77993 3.94499 3.86334
# Velocity P-wave (km/s) = 5.97666 6.44411 6.21478
#
# Compressibility (1/GPa) = 0.03082921
#
# Stress axis : x y z
#
# Youngs Moduli (GPa) = 42.77186 86.19139 102.04849
#
# Poissons Ratio (x) = 0.37506 0.00345
# Poissons Ratio (y) = 0.18612 0.26437
# Poissons Ratio (z) = 0.00145 0.22329
#
# Static dielectric constant tensor:
#      x y z
#    x 3.703700 0.000000 0.412970 
#    y 0.000000 3.577960 0.000000 
#    z 0.412970 0.000000 4.106620 
# 
# 
# High freq. dielectric constant tensor:
#      x y z
#    x 1.745960 0.000000 0.014610 
#    y 0.000000 1.765770 0.000000 
#    z 0.014610 0.000000 1.768600 
# 
# From -- ./inp_files/28543.got.cif
#   From: 2010.06.25/outbox.cif.g09.slc.cpg/sg11_15_cif.got.tgz:28543.got - 2010.06.27 23:14:04.
