data_PCOD8073329
_publ_section_title
;
Structure prediction by ZEFSAII (Michael W. Deem and Ramdas Pophale) SiO2 
 PCOD8073329
Probable space group: P 21/M
;
_chemical_formula_sum "Si O2"
_cell_formula_units_Z 28
_cell_length_a 11.106984
_cell_length_b 9.034031
_cell_length_c 20.876913
_cell_angle_alpha 90.000000
_cell_angle_beta 128.787151
_cell_angle_gamma 90.000000
_cell_volume 1632.856900
_symmetry_space_group_name_H-M "P 21/M"
_symmetry_group_IT_number 11
_symmetry_cell_setting 'monoclinic'
loop_
_space_group_symop_operation_xyz
x,y,z
-x,1/2+y,-z
-x,-y,-z
x,1/2-y,z
loop_
_atom_site_type_symbol
_atom_site_label
_atom_site_fract_x
_atom_site_fract_y
_atom_site_fract_z
Si Si1 0.971068 0.419234 0.403181
Si Si2 0.340760 0.074773 0.927104
Si Si3 0.518620 0.080418 0.275721
Si Si4 0.861930 0.078210 0.037626
Si Si5 0.244294 0.418810 0.572230
Si Si6 0.204338 0.078222 0.113611
Si Si7 0.733392 0.082240 0.225423
O O1 0.931624 0.250000 0.412108
O O2 0.879432 0.535051 0.415738
O O3 0.910582 0.438713 0.309942
O O4 0.156646 0.446675 0.474279
O O5 0.355591 0.250000 0.939287
O O6 0.203370 0.015115 0.925438
O O7 0.300217 0.034834 0.840851
O O8 0.500000 0.000000 0.000000
O O9 0.516459 0.250000 0.292989
O O10 0.343831 0.024545 0.205741
O O11 0.617471 0.048625 0.245046
O O12 0.594323 0.004030 0.363605
O O13 0.818216 0.250000 0.031133
O O14 0.045875 0.053436 0.098938
O O15 0.788171 0.020160 0.947428
O O16 0.288073 0.250000 0.596142
O O17 0.224896 0.250000 0.100293
O O18 0.708781 0.250000 0.191605
#
# Coordination Sequence:
#
# PCOD8073329 Si02
#       7
#     4   4   4   4   4   4   4
#     4   8  15  27  41  59  88 123 152 183 227 273
#     4  12  24  36  50  69  94 123 156 193 233 276
#     4   9  17  29  45  67  96 126 151 182 228 274
#     4  10  20  34  52  72  93 121 157 193 232 275
#     4   9  15  23  39  64  91 119 152 186 221 267
#     4   9  18  33  52  72  95 123 155 191 230 274
#     4   9  17  30  47  67  94 126 156 187 228 276
#
# _framework density 17.147859
#
# number of rings (size 3 to 8) (size 9 to 14) (size 15 to 20)
#    0.000    2.571    0.000    3.857    0.000    5.143 
#    0.000    0.000    0.000    0.000    0.000    1.000 
#    0.000    0.000    0.000    0.000    0.000    0.000 
#
# Total GULP energy -346992.301971 kJ/mol
# GULP energy per Si atom -12392.582213 kJ/mol
# Density = 1.710883 g / cm^3
# Si number density = 17.147859 Si / 1000 Ang^3
#
#
#
# Elastic Constant Matrix: (Units=GPa)
#
#
# Indices 1 2 3 4 5 6 
#
# 1 42.0640 27.2460 38.8545 0.0000 13.1055 0.0000
# 2 27.2460 86.4537 54.0981 0.0000 9.1854 0.0000
# 3 38.8545 54.0981 148.4409 0.0000 34.0139 0.0000
# 4 0.0000 0.0000 0.0000 31.5437 0.0000 1.6203
# 5 13.1055 9.1854 34.0139 0.0000 26.3967 0.0000
# 6 0.0000 0.0000 0.0000 1.6203 0.0000 21.3244
#
#
#
# Elastic Compliance Matrix: (Units=1/GPa)
#
#
# Indices 1 2 3 4 5 6 
#
# 1 0.035635 -0.007436 -0.004479 0.000000 -0.009333 0.000000
# 2 -0.007436 0.016661 -0.005169 0.000000 0.004555 0.000000
# 3 -0.004479 -0.005169 0.012588 0.000000 -0.012198 0.000000
# 4 0.000000 0.000000 0.000000 0.031826 0.000000 -0.002418
# 5 -0.009333 0.004555 -0.012198 0.000000 0.056650 0.000000
# 6 0.000000 0.000000 0.000000 -0.002418 0.000000 0.047078
#
#
# Mechanical properties :
#
#
# Convention : Reuss Voigt Hill
#
# Bulk Modulus (GPa) = 32.55711 57.48399 45.02055
# Shear Modulus (GPa) = 20.42099 26.30362 23.36230
#
# Velocity S-wave (km/s) = 3.45465 3.92079 3.69508
# Velocity P-wave (km/s) = 5.91102 7.35473 6.67204
#
# Compressibility (1/GPa) = 0.03071525
#
# Stress axis : x y z
#
# Youngs Moduli (GPa) = 28.06248 60.01982 79.44031
#
# Poissons Ratio (x) = 0.44632 0.35579
# Poissons Ratio (y) = 0.20868 0.41066
# Poissons Ratio (z) = 0.12569 0.31027
#
# Static dielectric constant tensor:
#      x y z
#    x 2.900740 0.000000 0.324030 
#    y 0.000000 3.271410 0.000000 
#    z 0.324030 0.000000 3.644620 
# 
# 
# High freq. dielectric constant tensor:
#      x y z
#    x 1.608060 0.000000 0.028030 
#    y 0.000000 1.668000 0.000000 
#    z 0.028030 0.000000 1.676680 
# 
# From -- ./inp_files/42302.got.cif
#   From: 2010.06.25/outbox.cif.g09.slc.cpg/sg11_22_cif.got.tgz:42302.got - 2010.06.27 23:14:04.
