data_PCOD8073688
_publ_section_title
;
Structure prediction by ZEFSAII (Michael W. Deem and Ramdas Pophale) SiO2 
 PCOD8073688
Probable space group: P 21/M
;
_chemical_formula_sum "Si O2"
_cell_formula_units_Z 32
_cell_length_a 13.925325
_cell_length_b 9.338200
_cell_length_c 22.750813
_cell_angle_alpha 90.000000
_cell_angle_beta 147.753809
_cell_angle_gamma 90.000000
_cell_volume 1578.509881
_symmetry_space_group_name_H-M "P 21/M"
_symmetry_group_IT_number 11
_symmetry_cell_setting 'monoclinic'
loop_
_space_group_symop_operation_xyz
x,y,z
-x,1/2+y,-z
-x,-y,-z
x,1/2-y,z
loop_
_atom_site_type_symbol
_atom_site_label
_atom_site_fract_x
_atom_site_fract_y
_atom_site_fract_z
Si Si1 0.661137 0.085798 0.553313
Si Si2 0.561238 0.087988 0.370321
Si Si3 0.185221 0.919946 0.607100
Si Si4 0.666049 0.089342 0.012769
Si Si5 0.715245 0.583735 0.226334
Si Si6 0.118248 0.589481 0.989617
Si Si7 0.215136 0.917005 0.169831
Si Si8 0.938581 0.916028 0.232484
O O1 0.636088 0.250000 0.559538
O O2 0.666033 0.072078 0.485592
O O3 0.858372 0.027607 0.675468
O O4 0.500000 0.000000 0.500000
O O5 0.492167 0.250000 0.325271
O O6 0.688958 0.042751 0.382940
O O7 0.393967 0.982593 0.289084
O O8 0.153418 0.750000 0.596729
O O9 0.276182 0.980955 0.713069
O O10 0.000000 0.000000 0.500000
O O11 0.686051 0.250000 0.047816
O O12 0.723312 0.079860 0.974732
O O13 0.791404 0.990647 0.116283
O O14 0.457293 0.041666 0.903601
O O15 0.700556 0.750000 0.239179
O O16 0.890146 0.559298 0.276108
O O17 0.039327 0.750000 0.953965
O O18 0.957092 0.484909 0.886753
O O19 0.205198 0.541839 0.096157
O O20 0.216063 0.750000 0.183244
O O21 0.927901 0.750000 0.211611
#
# Coordination Sequence:
#
# PCOD8073688 Si02
#       8
#     4   4   4   4   4   4   4   4
#     4  10  23  42  61  83 114 154 198 245 298 354
#     4  10  22  40  60  83 116 153 189 235 300 357
#     4  11  23  39  63  92 122 158 198 244 299 360
#     4  10  21  36  59  87 118 158 202 245 298 358
#     4  10  21  40  63  89 125 162 197 246 303 359
#     4   9  19  35  52  78 117 154 188 236 295 347
#     4  10  20  34  56  83 112 149 195 242 287 347
#     4  10  22  40  61  85 119 158 199 251 306 358
#
# _framework density 20.272283000000002
#
# number of rings (size 3 to 8) (size 9 to 14) (size 15 to 20)
#    0.000    2.000    0.000    2.625    1.750    7.000 
#    0.000    1.250    0.000    0.000    0.000    0.000 
#    0.000    0.000    0.000    0.000    0.000    0.000 
#
# Total GULP energy -396825.621316 kJ/mol
# GULP energy per Si atom -12400.800666 kJ/mol
# Density = 2.022614 g / cm^3
# Si number density = 20.272283 Si / 1000 Ang^3
#
#
#
# Elastic Constant Matrix: (Units=GPa)
#
#
# Indices 1 2 3 4 5 6 
#
# 1 81.7525 30.6604 37.0404 0.0000 12.3199 0.0000
# 2 30.6604 78.0448 49.6935 0.0000 10.7987 0.0000
# 3 37.0404 49.6935 113.2686 0.0000 16.4447 0.0000
# 4 0.0000 0.0000 0.0000 40.8099 0.0000 -0.6627
# 5 12.3199 10.7987 16.4447 0.0000 33.5748 0.0000
# 6 0.0000 0.0000 0.0000 -0.6627 0.0000 30.4953
#
#
#
# Elastic Compliance Matrix: (Units=1/GPa)
#
#
# Indices 1 2 3 4 5 6 
#
# 1 0.015438 -0.003764 -0.002961 0.000000 -0.003004 0.000000
# 2 -0.003764 0.018829 -0.006837 0.000000 -0.001326 0.000000
# 3 -0.002961 -0.006837 0.013263 0.000000 -0.003210 0.000000
# 4 0.000000 0.000000 0.000000 0.024513 0.000000 0.000533
# 5 -0.003004 -0.001326 -0.003210 0.000000 0.032885 0.000000
# 6 0.000000 0.000000 0.000000 0.000533 0.000000 0.032804
#
#
# Mechanical properties :
#
#
# Convention : Reuss Voigt Hill
#
# Bulk Modulus (GPa) = 49.00757 56.42827 52.71792
# Shear Modulus (GPa) = 29.12790 31.35409 30.24099
#
# Velocity S-wave (km/s) = 3.79467 3.93701 3.86650
# Velocity P-wave (km/s) = 6.58988 6.96867 6.78192
#
# Compressibility (1/GPa) = 0.02040501
#
# Stress axis : x y z
#
# Youngs Moduli (GPa) = 64.77567 53.11012 75.40000
#
# Poissons Ratio (x) = 0.19990 0.22326
# Poissons Ratio (y) = 0.24381 0.51553
# Poissons Ratio (z) = 0.19180 0.36313
#
# Static dielectric constant tensor:
#      x y z
#    x 3.804960 0.000000 0.099750 
#    y 0.000000 3.681790 0.000000 
#    z 0.099750 0.000000 3.663590 
# 
# 
# High freq. dielectric constant tensor:
#      x y z
#    x 1.799540 0.000000 0.005820 
#    y 0.000000 1.786030 0.000000 
#    z 0.005820 0.000000 1.796540 
# 
# From -- ./inp_files/69124.got.cif
#   From: 2010.06.25/outbox.cif.g09.slc.cpg/sg11_35_cif.got.tgz:69124.got - 2010.06.27 23:14:04.
