data_PCOD8073343
_publ_section_title
;
Structure prediction by ZEFSAII (Michael W. Deem and Ramdas Pophale) SiO2 
 PCOD8073343
Probable space group: P 21/M
;
_chemical_formula_sum "Si O2"
_cell_formula_units_Z 32
_cell_length_a 14.884739
_cell_length_b 8.994529
_cell_length_c 14.852624
_cell_angle_alpha 90.000000
_cell_angle_beta 61.006521
_cell_angle_gamma 90.000000
_cell_volume 1739.279951
_symmetry_space_group_name_H-M "P 21/M"
_symmetry_group_IT_number 11
_symmetry_cell_setting 'monoclinic'
loop_
_space_group_symop_operation_xyz
x,y,z
-x,1/2+y,-z
-x,-y,-z
x,1/2-y,z
loop_
_atom_site_type_symbol
_atom_site_label
_atom_site_fract_x
_atom_site_fract_y
_atom_site_fract_z
Si Si1 0.449208 0.424854 0.608479
Si Si2 0.095540 0.427080 0.503908
Si Si3 0.057204 0.426602 0.725469
Si Si4 0.173130 0.575544 0.151624
Si Si5 0.296014 0.073305 0.934507
Si Si6 0.259374 0.574804 0.303893
Si Si7 0.514360 0.425817 0.768784
Si Si8 0.228628 0.426121 0.774298
O O1 0.500000 0.500000 0.500000
O O2 0.458632 0.250000 0.592826
O O3 0.507954 0.481270 0.669065
O O4 0.330762 0.474817 0.671748
O O5 0.087641 0.250000 0.498339
O O6 0.093368 0.478495 0.609081
O O7 0.201574 0.485714 0.410432
O O8 0.000000 0.500000 0.500000
O O9 0.058272 0.250000 0.727318
O O10 0.131836 0.493705 0.766627
O O11 0.942831 0.484293 0.802656
O O12 0.181076 0.750000 0.130461
O O13 0.208844 0.533593 0.233999
O O14 0.245815 0.494770 0.046432
O O15 0.291661 0.250000 0.943103
O O16 0.414682 0.016063 0.872380
O O17 0.234488 0.017753 0.874997
O O18 0.251449 0.750000 0.328551
O O19 0.377892 0.519878 0.241919
O O20 0.507668 0.250000 0.772724
O O21 0.220946 0.250000 0.779476
#
# Coordination Sequence:
#
# PCOD8073343 Si02
#       8
#     4   4   4   4   4   4   4   4
#     4   9  17  30  49  73  99 132 170 208 252 301
#     4  11  21  35  55  78 107 141 174 212 256 305
#     4   9  18  33  51  74 103 137 171 202 252 314
#     4  10  20  34  52  74 101 135 170 213 267 310
#     4   9  18  35  56  76  98 133 176 216 254 303
#     4  10  20  36  54  75 105 142 175 208 257 313
#     4   8  17  34  53  72 102 139 172 207 257 311
#     4   8  16  32  52  71  99 136 170 204 250 308
#
# _framework density 18.398417999999999
#
# number of rings (size 3 to 8) (size 9 to 14) (size 15 to 20)
#    0.000    2.750    1.250    1.875    1.750    1.500 
#    0.000    3.125    0.000    2.250    0.000    0.000 
#    0.000    0.000    0.000    0.000    0.000    0.000 
#
# Total GULP energy -396661.678798 kJ/mol
# GULP energy per Si atom -12395.677462 kJ/mol
# Density = 1.835654 g / cm^3
# Si number density = 18.398418 Si / 1000 Ang^3
#
#
#
# Elastic Constant Matrix: (Units=GPa)
#
#
# Indices 1 2 3 4 5 6 
#
# 1 118.1848 19.0744 22.7389 0.0000 -21.5531 0.0000
# 2 19.0744 28.7252 28.9968 0.0000 -3.5841 0.0000
# 3 22.7389 28.9968 104.7463 0.0000 -23.9202 0.0000
# 4 0.0000 0.0000 0.0000 33.3024 0.0000 -4.7336
# 5 -21.5531 -3.5841 -23.9202 0.0000 20.2544 0.0000
# 6 0.0000 0.0000 0.0000 -4.7336 0.0000 13.1590
#
#
#
# Elastic Compliance Matrix: (Units=1/GPa)
#
#
# Indices 1 2 3 4 5 6 
#
# 1 0.012169 -0.009784 0.003599 0.000000 0.015468 0.000000
# 2 -0.009784 0.057681 -0.019020 0.000000 -0.022666 0.000000
# 3 0.003599 -0.019020 0.019357 0.000000 0.023325 0.000000
# 4 0.000000 0.000000 0.000000 0.031646 0.000000 0.011384
# 5 0.015468 -0.022666 0.023325 0.000000 0.089368 0.000000
# 6 0.000000 0.000000 0.000000 0.011384 0.000000 0.080088
#
#
# Mechanical properties :
#
#
# Convention : Reuss Voigt Hill
#
# Bulk Modulus (GPa) = 25.77440 43.69739 34.73590
# Shear Modulus (GPa) = 14.13822 25.39958 19.76890
#
# Velocity S-wave (km/s) = 2.77510 3.71958 3.28150
# Velocity P-wave (km/s) = 4.93028 6.49994 5.76875
#
# Compressibility (1/GPa) = 0.03879818
#
# Stress axis : x y z
#
# Youngs Moduli (GPa) = 82.17756 17.33669 51.65958
#
# Poissons Ratio (x) = 0.16961 -0.18593
# Poissons Ratio (y) = 0.80399 0.98257
# Poissons Ratio (z) = -0.29576 0.32975
#
# Static dielectric constant tensor:
#      x y z
#    x 3.958170 0.000000 0.030270 
#    y 0.000000 2.974760 0.000000 
#    z 0.030270 0.000000 3.655780 
# 
# 
# High freq. dielectric constant tensor:
#      x y z
#    x 1.726600 0.000000 -0.003100 
#    y 0.000000 1.670280 0.000000 
#    z -0.003100 0.000000 1.719330 
# 
# From -- ./inp_files/51640.got.cif
#   From: 2010.06.25/outbox.cif.g09.slc.cpg/sg11_26_cif.got.tgz:51640.got - 2010.06.27 23:14:04.
