data_PCOD8073586
_publ_section_title
;
Structure prediction by ZEFSAII (Michael W. Deem and Ramdas Pophale) SiO2 
 PCOD8073586
Probable space group: P 21/M
;
_chemical_formula_sum "Si O2"
_cell_formula_units_Z 28
_cell_length_a 8.961720
_cell_length_b 14.562260
_cell_length_c 11.749710
_cell_angle_alpha 90.000000
_cell_angle_beta 63.955134
_cell_angle_gamma 90.000000
_cell_volume 1377.658113
_symmetry_space_group_name_H-M "P 21/M"
_symmetry_group_IT_number 11
_symmetry_cell_setting 'monoclinic'
loop_
_space_group_symop_operation_xyz
x,y,z
-x,1/2+y,-z
-x,-y,-z
x,1/2-y,z
loop_
_atom_site_type_symbol
_atom_site_label
_atom_site_fract_x
_atom_site_fract_y
_atom_site_fract_z
Si Si1 0.641538 0.853765 0.758807
Si Si2 0.556395 0.975589 0.246383
Si Si3 0.484166 0.352745 0.952088
Si Si4 0.148293 0.853605 0.210179
Si Si5 0.994996 0.355859 0.310863
Si Si6 0.936940 0.997361 0.150312
Si Si7 0.269901 0.858344 0.415619
O O1 0.590669 0.750000 0.739845
O O2 0.836718 0.872018 0.672685
O O3 0.529913 0.924472 0.726396
O O4 0.619373 0.869074 0.900393
O O5 0.572114 0.930133 0.116976
O O6 0.740117 0.988440 0.231188
O O7 0.446839 0.910282 0.365411
O O8 0.451655 0.250000 0.912898
O O9 0.679125 0.362333 0.916444
O O10 0.081265 0.750000 0.234603
O O11 0.180142 0.888963 0.328294
O O12 0.010593 0.911467 0.192564
O O13 0.978270 0.250000 0.282322
O O14 0.995483 0.409939 0.192200
O O15 0.843287 0.388310 0.441007
O O16 0.000000 0.000000 0.000000
O O17 0.304280 0.750000 0.402209
#
# Coordination Sequence:
#
# PCOD8073586 Si02
#       7
#     4   4   4   4   4   4   4
#     4  10  20  34  55  80 106 146 195 235 277 332
#     4  11  21  33  55  82 115 149 184 233 284 337
#     4   9  17  33  56  80 107 144 192 238 278 324
#     4   9  19  36  59  83 110 146 189 239 282 327
#     4  10  22  41  62  82 110 148 191 240 286 332
#     4  12  25  36  53  87 125 158 187 221 284 356
#     4   9  20  41  65  85 104 140 197 247 285 327
#
# _framework density 20.324345999999998
#
# number of rings (size 3 to 8) (size 9 to 14) (size 15 to 20)
#    0.000    2.000    0.000    5.143    0.000    5.143 
#    0.000    0.000    0.000    3.429    0.000    0.000 
#    0.000    0.000    0.000    0.000    0.000    0.000 
#
# Total GULP energy -347229.724935 kJ/mol
# GULP energy per Si atom -12401.061605 kJ/mol
# Density = 2.027809 g / cm^3
# Si number density = 20.324346 Si / 1000 Ang^3
#
#
#
# Elastic Constant Matrix: (Units=GPa)
#
#
# Indices 1 2 3 4 5 6 
#
# 1 96.1620 42.4207 16.4585 0.0000 -9.9550 0.0000
# 2 42.4207 92.1789 23.2774 0.0000 -1.4841 0.0000
# 3 16.4585 23.2774 82.7140 0.0000 -11.9176 0.0000
# 4 0.0000 0.0000 0.0000 27.0663 0.0000 -6.2731
# 5 -9.9550 -1.4841 -11.9176 0.0000 23.5482 0.0000
# 6 0.0000 0.0000 0.0000 -6.2731 0.0000 25.2719
#
#
#
# Elastic Compliance Matrix: (Units=1/GPa)
#
#
# Indices 1 2 3 4 5 6 
#
# 1 0.013705 -0.006164 -0.000230 0.000000 0.005289 0.000000
# 2 -0.006164 0.014472 -0.003333 0.000000 -0.003381 0.000000
# 3 -0.000230 -0.003333 0.014054 0.000000 0.006805 0.000000
# 4 0.000000 0.000000 0.000000 0.039202 0.000000 0.009731
# 5 0.005289 -0.003381 0.006805 0.000000 0.047933 0.000000
# 6 0.000000 0.000000 0.000000 0.009731 0.000000 0.041985
#
#
# Mechanical properties :
#
#
# Convention : Reuss Voigt Hill
#
# Bulk Modulus (GPa) = 43.90478 48.37423 46.13950
# Shear Modulus (GPa) = 25.20176 27.77051 26.48613
#
# Velocity S-wave (km/s) = 3.52515 3.70045 3.61386
# Velocity P-wave (km/s) = 6.18206 6.48927 6.33753
#
# Compressibility (1/GPa) = 0.02277656
#
# Stress axis : x y z
#
# Youngs Moduli (GPa) = 72.96530 69.09715 71.15247
#
# Poissons Ratio (x) = 0.42590 0.01640
# Poissons Ratio (y) = 0.44974 0.23718
# Poissons Ratio (z) = 0.01681 0.23033
#
# Static dielectric constant tensor:
#      x y z
#    x 3.478770 0.000000 -0.263920 
#    y 0.000000 3.837700 0.000000 
#    z -0.263920 0.000000 3.740830 
# 
# 
# High freq. dielectric constant tensor:
#      x y z
#    x 1.773000 0.000000 -0.024410 
#    y 0.000000 1.808840 0.000000 
#    z -0.024410 0.000000 1.788510 
# 
# From -- ./inp_files/17703.got.cif
#   From: 2010.06.25/outbox.cif.g09.slc.cpg/sg11_9_cif.got.tgz:17703.got - 2010.06.27 23:14:04.
