data_PCOD8073539
_publ_section_title
;
Structure prediction by ZEFSAII (Michael W. Deem and Ramdas Pophale) SiO2 
 PCOD8073539
Probable space group: P 21/M
;
_chemical_formula_sum "Si O2"
_cell_formula_units_Z 32
_cell_length_a 11.728205
_cell_length_b 9.220722
_cell_length_c 29.753434
_cell_angle_alpha 90.000000
_cell_angle_beta 29.271201
_cell_angle_gamma 90.000000
_cell_volume 1573.231902
_symmetry_space_group_name_H-M "P 21/M"
_symmetry_group_IT_number 11
_symmetry_cell_setting 'monoclinic'
loop_
_space_group_symop_operation_xyz
x,y,z
-x,1/2+y,-z
-x,-y,-z
x,1/2-y,z
loop_
_atom_site_type_symbol
_atom_site_label
_atom_site_fract_x
_atom_site_fract_y
_atom_site_fract_z
Si Si1 0.876968 0.083033 0.170835
Si Si2 0.089764 0.921108 0.014201
Si Si3 0.335815 0.089191 0.590365
Si Si4 0.087167 0.914376 0.534227
Si Si5 0.372034 0.417030 0.168821
Si Si6 0.963549 0.419581 0.241740
Si Si7 0.076049 0.593110 0.331236
Si Si8 0.353032 0.087051 0.374654
O O1 0.937010 0.250000 0.138444
O O2 0.990707 0.038641 0.179725
O O3 0.601081 0.058440 0.267749
O O4 0.959446 0.979187 0.102860
O O5 0.044640 0.750000 0.024020
O O6 0.359793 0.954707 0.932222
O O7 0.000000 0.000000 0.000000
O O8 0.445113 0.250000 0.563495
O O9 0.083305 0.116942 0.656810
O O10 0.500000 0.000000 0.500000
O O11 0.268028 0.999534 0.658814
O O12 0.141344 0.750000 0.527125
O O13 0.836160 0.938278 0.598818
O O14 0.302015 0.972822 0.431253
O O15 0.088268 0.004503 0.579062
O O16 0.337475 0.250000 0.193136
O O17 0.303199 0.505167 0.237381
O O18 0.208916 0.457741 0.182066
O O19 0.905989 0.250000 0.265903
O O20 0.152146 0.750000 0.325176
O O21 0.333125 0.250000 0.401106
#
# Coordination Sequence:
#
# PCOD8073539 Si02
#       8
#     4   4   4   4   4   4   4   4
#     4  10  22  40  63  90 121 156 194 245 303 356
#     4  11  25  43  64  91 121 154 197 247 300 358
#     4  10  21  35  53  81 118 157 197 243 290 342
#     4  10  20  34  54  80 112 155 198 238 287 343
#     4   9  20  40  62  85 117 154 196 245 294 350
#     4   9  19  38  62  87 117 156 198 240 296 356
#     4  10  21  35  55  83 114 152 195 239 291 346
#     4   9  20  37  54  78 115 153 192 239 288 343
#
# _framework density 20.340294
#
# number of rings (size 3 to 8) (size 9 to 14) (size 15 to 20)
#    0.000    2.250    0.000    1.500    3.500    4.500 
#    0.000    0.000    0.000    0.000    0.000    0.000 
#    0.000    0.000    0.000    0.000    0.000    0.000 
#
# Total GULP energy -396628.074064 kJ/mol
# GULP energy per Si atom -12394.627314 kJ/mol
# Density = 2.029400 g / cm^3
# Si number density = 20.340294 Si / 1000 Ang^3
#
#
#
# Elastic Constant Matrix: (Units=GPa)
#
#
# Indices 1 2 3 4 5 6 
#
# 1 92.2564 45.3125 48.9030 0.0000 8.4550 0.0000
# 2 45.3125 121.5431 59.2891 0.0000 18.7840 0.0000
# 3 48.9030 59.2891 106.3322 0.0000 11.3701 0.0000
# 4 0.0000 0.0000 0.0000 39.1099 0.0000 9.4378
# 5 8.4550 18.7840 11.3701 0.0000 36.1433 0.0000
# 6 0.0000 0.0000 0.0000 9.4378 0.0000 24.4621
#
#
#
# Elastic Compliance Matrix: (Units=1/GPa)
#
#
# Indices 1 2 3 4 5 6 
#
# 1 0.015135 -0.003042 -0.005231 0.000000 -0.000314 0.000000
# 2 -0.003042 0.012509 -0.005129 0.000000 -0.004176 0.000000
# 3 -0.005231 -0.005129 0.014750 0.000000 -0.000751 0.000000
# 4 0.000000 0.000000 0.000000 0.028194 0.000000 -0.010878
# 5 -0.000314 -0.004176 -0.000751 0.000000 0.030148 0.000000
# 6 0.000000 0.000000 0.000000 -0.010878 0.000000 0.045076
#
#
# Mechanical properties :
#
#
# Convention : Reuss Voigt Hill
#
# Bulk Modulus (GPa) = 64.14381 69.68231 66.91306
# Shear Modulus (GPa) = 28.11930 31.05154 29.58542
#
# Velocity S-wave (km/s) = 3.72216 3.91141 3.81796
# Velocity P-wave (km/s) = 7.07647 7.39808 7.23906
#
# Compressibility (1/GPa) = 0.01558997
#
# Stress axis : x y z
#
# Youngs Moduli (GPa) = 66.07127 79.94147 67.79483
#
# Poissons Ratio (x) = 0.24322 0.35462
# Poissons Ratio (y) = 0.20102 0.34773
# Poissons Ratio (z) = 0.34561 0.41003
#
# Static dielectric constant tensor:
#      x y z
#    x 3.834320 0.000000 -0.100470 
#    y 0.000000 4.368140 0.000000 
#    z -0.100470 0.000000 3.551010 
# 
# 
# High freq. dielectric constant tensor:
#      x y z
#    x 1.795770 0.000000 -0.003910 
#    y 0.000000 1.801100 0.000000 
#    z -0.003910 0.000000 1.788400 
# 
# From -- ./inp_files/73060.got.cif
#   From: 2010.06.25/outbox.cif.g09.slc.cpg/sg11_37_cif.got.tgz:73060.got - 2010.06.27 23:14:04.
