data_PCOD8073222
_publ_section_title
;
Structure prediction by ZEFSAII (Michael W. Deem and Ramdas Pophale) SiO2 
 PCOD8073222
Probable space group: P 21/M
;
_chemical_formula_sum "Si O2"
_cell_formula_units_Z 24
_cell_length_a 11.712185
_cell_length_b 8.379110
_cell_length_c 17.170688
_cell_angle_alpha 90.000000
_cell_angle_beta 47.533803
_cell_angle_gamma 90.000000
_cell_volume 1243.051272
_symmetry_space_group_name_H-M "P 21/M"
_symmetry_group_IT_number 11
_symmetry_cell_setting 'monoclinic'
loop_
_space_group_symop_operation_xyz
x,y,z
-x,1/2+y,-z
-x,-y,-z
x,1/2-y,z
loop_
_atom_site_type_symbol
_atom_site_label
_atom_site_fract_x
_atom_site_fract_y
_atom_site_fract_z
Si Si1 0.974922 0.066438 0.394401
Si Si2 0.625811 0.933539 0.885954
Si Si3 0.072339 0.931924 0.197297
Si Si4 0.252184 0.432493 0.379827
Si Si5 0.866540 0.439841 0.005860
Si Si6 0.530688 0.566290 0.185392
O O1 0.935942 0.250000 0.426480
O O2 0.146143 0.028403 0.351653
O O3 0.846960 0.963303 0.497227
O O4 0.960292 0.028189 0.308183
O O5 0.674845 0.750000 0.880265
O O6 0.764913 0.054676 0.834624
O O7 0.552595 0.945534 0.835156
O O8 0.500000 0.000000 0.000000
O O9 0.016091 0.750000 0.218854
O O10 0.090556 0.002332 0.101152
O O11 0.303062 0.250000 0.356245
O O12 0.411714 0.538852 0.312349
O O13 0.852617 0.250000 0.011947
O O14 0.708042 0.512750 0.113592
O O15 0.000000 0.500000 0.000000
O O16 0.530784 0.750000 0.159006
#
# Coordination Sequence:
#
# PCOD8073222 Si02
#       6
#     4   4   4   4   4   4
#     4  10  20  33  53  82 119 157 193 231 279 339
#     4  12  22  33  51  81 116 151 188 229 284 345
#     4  11  22  36  57  83 116 153 189 234 286 344
#     4  10  20  34  53  81 120 157 193 232 278 338
#     4  11  25  43  62  84 113 149 196 243 292 344
#     4  12  23  36  58  84 117 154 191 235 288 344
#
# _framework density 19.307331000000001
#
# number of rings (size 3 to 8) (size 9 to 14) (size 15 to 20)
#    0.000    1.000    3.333    5.000    0.000    3.333 
#    0.000    0.000    0.000    1.000    0.000    0.000 
#    0.000    0.000    0.000    0.000    0.000    0.000 
#
# Total GULP energy -297384.200268 kJ/mol
# GULP energy per Si atom -12391.008344 kJ/mol
# Density = 1.926339 g / cm^3
# Si number density = 19.307331 Si / 1000 Ang^3
#
#
#
# Elastic Constant Matrix: (Units=GPa)
#
#
# Indices 1 2 3 4 5 6 
#
# 1 86.9219 20.8240 50.8274 0.0000 -7.4755 0.0000
# 2 20.8240 84.6610 38.7868 0.0000 -1.4577 0.0000
# 3 50.8274 38.7868 114.1551 0.0000 -4.3656 0.0000
# 4 0.0000 0.0000 0.0000 32.7875 0.0000 -2.5487
# 5 -7.4755 -1.4577 -4.3656 0.0000 18.1045 0.0000
# 6 0.0000 0.0000 0.0000 -2.5487 0.0000 24.7562
#
#
#
# Elastic Compliance Matrix: (Units=1/GPa)
#
#
# Indices 1 2 3 4 5 6 
#
# 1 0.016024 -0.000798 -0.006674 0.000000 0.004943 0.000000
# 2 -0.000798 0.014029 -0.004421 0.000000 -0.000266 0.000000
# 3 -0.006674 -0.004421 0.013237 0.000000 0.000080 0.000000
# 4 0.000000 0.000000 0.000000 0.030746 0.000000 0.003165
# 5 0.004943 -0.000266 0.000080 0.000000 0.057274 0.000000
# 6 0.000000 0.000000 0.000000 0.003165 0.000000 0.040720
#
#
# Mechanical properties :
#
#
# Convention : Reuss Voigt Hill
#
# Bulk Modulus (GPa) = 51.27739 56.29046 53.78393
# Shear Modulus (GPa) = 24.71359 26.81629 25.76494
#
# Velocity S-wave (km/s) = 3.58161 3.73086 3.65699
# Velocity P-wave (km/s) = 6.61211 6.91212 6.76378
#
# Compressibility (1/GPa) = 0.01950177
#
# Stress axis : x y z
#
# Youngs Moduli (GPa) = 62.40761 71.27955 75.54572
#
# Poissons Ratio (x) = 0.05692 0.50421
# Poissons Ratio (y) = 0.04983 0.33402
# Poissons Ratio (z) = 0.41652 0.31516
#
# Static dielectric constant tensor:
#      x y z
#    x 3.358350 0.000000 0.305610 
#    y 0.000000 3.147410 0.000000 
#    z 0.305610 0.000000 4.424900 
# 
# 
# High freq. dielectric constant tensor:
#      x y z
#    x 1.692590 0.000000 -0.003980 
#    y 0.000000 1.761430 0.000000 
#    z -0.003980 0.000000 1.777120 
# 
# From -- ./inp_files/58607.got.cif
#   From: 2010.06.25/outbox.cif.g09.slc.cpg/sg11_30_cif.got.tgz:58607.got - 2010.06.27 23:14:04.
