data_PCOD8073461
_publ_section_title
;
Structure prediction by ZEFSAII (Michael W. Deem and Ramdas Pophale) SiO2 
 PCOD8073461
Probable space group: P 21/M
;
_chemical_formula_sum "Si O2"
_cell_formula_units_Z 32
_cell_length_a 23.977791
_cell_length_b 9.127893
_cell_length_c 23.956033
_cell_angle_alpha 90.000000
_cell_angle_beta 161.531326
_cell_angle_gamma 90.000000
_cell_volume 1660.966064
_symmetry_space_group_name_H-M "P 21/M"
_symmetry_group_IT_number 11
_symmetry_cell_setting 'monoclinic'
loop_
_space_group_symop_operation_xyz
x,y,z
-x,1/2+y,-z
-x,-y,-z
x,1/2-y,z
loop_
_atom_site_type_symbol
_atom_site_label
_atom_site_fract_x
_atom_site_fract_y
_atom_site_fract_z
Si Si1 0.844401 0.582149 0.020116
Si Si2 0.339134 0.579080 0.779862
Si Si3 0.522731 0.581390 0.345532
Si Si4 0.033568 0.919373 0.407059
Si Si5 0.692612 0.078581 0.121670
Si Si6 0.551838 0.082840 0.604695
Si Si7 0.145454 0.919695 0.387773
Si Si8 0.894629 0.583879 0.946668
O O1 0.787987 0.750000 0.977951
O O2 0.974862 0.522104 0.191852
O O3 0.664960 0.489524 0.848704
O O4 0.963215 0.576131 0.075514
O O5 0.378312 0.750000 0.808451
O O6 0.178581 0.525629 0.589004
O O7 0.286504 0.541768 0.793200
O O8 0.514294 0.492433 0.928406
O O9 0.509522 0.750000 0.314899
O O10 0.575343 0.572654 0.462034
O O11 0.678596 0.505939 0.460069
O O12 0.986374 0.750000 0.372711
O O13 0.112041 0.945860 0.420808
O O14 0.857536 0.012884 0.245716
O O15 0.684086 0.250000 0.102026
O O16 0.593110 0.250000 0.627208
O O17 0.500000 0.000000 0.500000
O O18 0.715522 0.999349 0.784114
O O19 0.176557 0.750000 0.402777
O O20 0.871115 0.750000 0.903251
O O21 0.000000 0.500000 0.000000
#
# Coordination Sequence:
#
# PCOD8073461 Si02
#       8
#     4   4   4   4   4   4   4   4
#     4   9  20  39  59  79 106 144 185 225 272 330
#     4   9  19  36  57  82 114 153 191 229 279 335
#     4  10  22  39  58  82 111 144 181 228 282 331
#     4  10  21  37  57  82 112 148 192 236 277 328
#     4  10  20  34  56  85 116 150 187 232 285 333
#     4  10  21  36  54  80 108 139 175 218 275 335
#     4  10  22  39  60  83 108 148 194 232 276 331
#     4  10  20  34  53  80 108 138 174 219 274 332
#
# _framework density 19.265896000000001
#
# number of rings (size 3 to 8) (size 9 to 14) (size 15 to 20)
#    0.000    2.250    0.000    1.875    1.750    5.000 
#    0.000    5.000    0.000    0.000    0.000    0.000 
#    0.000    0.000    0.000    0.000    0.000    0.000 
#
# Total GULP energy -396629.255431 kJ/mol
# GULP energy per Si atom -12394.664232 kJ/mol
# Density = 1.922205 g / cm^3
# Si number density = 19.265896 Si / 1000 Ang^3
#
#
#
# Elastic Constant Matrix: (Units=GPa)
#
#
# Indices 1 2 3 4 5 6 
#
# 1 71.8806 41.3696 35.3393 0.0000 13.2645 0.0000
# 2 41.3696 104.6706 42.0333 0.0000 16.4579 0.0000
# 3 35.3393 42.0333 86.6929 0.0000 15.1483 0.0000
# 4 0.0000 0.0000 0.0000 28.5982 0.0000 5.7767
# 5 13.2645 16.4579 15.1483 0.0000 30.1739 0.0000
# 6 0.0000 0.0000 0.0000 5.7767 0.0000 29.6055
#
#
#
# Elastic Compliance Matrix: (Units=1/GPa)
#
#
# Indices 1 2 3 4 5 6 
#
# 1 0.020099 -0.005413 -0.004977 0.000000 -0.003384 0.000000
# 2 -0.005413 0.013762 -0.003913 0.000000 -0.003162 0.000000
# 3 -0.004977 -0.003913 0.016120 0.000000 -0.003770 0.000000
# 4 0.000000 0.000000 0.000000 0.036402 0.000000 -0.007103
# 5 -0.003384 -0.003162 -0.003770 0.000000 0.038247 0.000000
# 6 0.000000 0.000000 0.000000 -0.007103 0.000000 0.035163
#
#
# Mechanical properties :
#
#
# Convention : Reuss Voigt Hill
#
# Bulk Modulus (GPa) = 46.78658 55.63652 51.21155
# Shear Modulus (GPa) = 25.57225 27.30897 26.44061
#
# Velocity S-wave (km/s) = 3.64721 3.76902 3.70862
# Velocity P-wave (km/s) = 6.48641 6.91966 6.70654
#
# Compressibility (1/GPa) = 0.02137365
#
# Stress axis : x y z
#
# Youngs Moduli (GPa) = 49.75428 72.66446 62.03425
#
# Poissons Ratio (x) = 0.39332 0.30876
# Poissons Ratio (y) = 0.26931 0.24277
# Poissons Ratio (z) = 0.24764 0.28437
#
# Static dielectric constant tensor:
#      x y z
#    x 3.829710 0.000000 -0.338120 
#    y 0.000000 3.568220 0.000000 
#    z -0.338120 0.000000 3.313840 
# 
# 
# High freq. dielectric constant tensor:
#      x y z
#    x 1.753110 0.000000 -0.003650 
#    y 0.000000 1.753440 0.000000 
#    z -0.003650 0.000000 1.744240 
# 
# From -- ./inp_files/70015.got.cif
#   From: 2010.06.25/outbox.cif.g09.slc.cpg/sg11_36_cif.got.tgz:70015.got - 2010.06.27 23:14:04.
