data_PCOD8073162
_publ_section_title
;
Structure prediction by ZEFSAII (Michael W. Deem and Ramdas Pophale) SiO2 
 PCOD8073162
Probable space group: P 21/M
;
_chemical_formula_sum "Si O2"
_cell_formula_units_Z 32
_cell_length_a 27.939300
_cell_length_b 9.126652
_cell_length_c 10.630723
_cell_angle_alpha 90.000000
_cell_angle_beta 144.670795
_cell_angle_gamma 90.000000
_cell_volume 1567.556291
_symmetry_space_group_name_H-M "P 21/M"
_symmetry_group_IT_number 11
_symmetry_cell_setting 'monoclinic'
loop_
_space_group_symop_operation_xyz
x,y,z
-x,1/2+y,-z
-x,-y,-z
x,1/2-y,z
loop_
_atom_site_type_symbol
_atom_site_label
_atom_site_fract_x
_atom_site_fract_y
_atom_site_fract_z
Si Si1 0.466475 0.074642 0.301552
Si Si2 0.118067 0.418665 0.929199
Si Si3 0.459674 0.427734 0.790017
Si Si4 0.174238 0.417525 0.433398
Si Si5 0.860759 0.416867 0.265725
Si Si6 0.724761 0.915552 0.097403
Si Si7 0.962356 0.083787 0.735743
Si Si8 0.727049 0.580046 0.585805
O O1 0.484224 0.250000 0.337827
O O2 0.369735 0.039187 0.090401
O O3 0.500000 0.000000 0.500000
O O4 0.503273 0.996153 0.257413
O O5 0.100361 0.250000 0.858903
O O6 0.094000 0.510312 0.755665
O O7 0.058447 0.461763 0.919795
O O8 0.214121 0.447033 0.168223
O O9 0.469742 0.250000 0.812486
O O10 0.364198 0.481629 0.585432
O O11 0.500000 0.500000 0.000000
O O12 0.155549 0.250000 0.359753
O O13 0.083239 0.488139 0.255813
O O14 0.226785 0.493939 0.434533
O O15 0.230976 0.438310 0.675548
O O16 0.846175 0.250000 0.201716
O O17 0.918409 0.442918 0.508228
O O18 0.769694 0.485479 0.090200
O O19 0.732724 0.750000 0.066264
O O20 0.953656 0.250000 0.761652
O O21 0.716856 0.750000 0.532501
#
# Coordination Sequence:
#
# PCOD8073162 Si02
#       8
#     4   4   4   4   4   4   4   4
#     4  11  24  41  62  91 125 160 201 251 309 369
#     4  10  20  35  54  76 109 152 188 223 278 346
#     4  11  23  42  66  91 121 160 206 255 306 368
#     4   9  17  34  58  80 103 140 189 233 273 332
#     4  10  20  33  52  80 112 143 184 238 283 328
#     4   9  19  36  58  79 106 147 189 226 279 352
#     4   9  19  34  52  78 111 145 183 230 284 336
#     4   9  20  37  58  82 110 146 189 232 280 344
#
# _framework density 20.413938999999999
#
# number of rings (size 3 to 8) (size 9 to 14) (size 15 to 20)
#    0.000    2.250    0.000    2.250    1.750    4.500 
#    0.000    5.000    0.000    0.000    0.000    0.000 
#    0.000    0.000    0.000    0.000    0.000    0.000 
#
# Total GULP energy -396680.753111 kJ/mol
# GULP energy per Si atom -12396.273535 kJ/mol
# Density = 2.036748 g / cm^3
# Si number density = 20.413939 Si / 1000 Ang^3
#
#
#
# Elastic Constant Matrix: (Units=GPa)
#
#
# Indices 1 2 3 4 5 6 
#
# 1 100.3473 40.9502 20.3162 0.0000 3.8134 0.0000
# 2 40.9502 75.0677 26.2736 0.0000 1.7806 0.0000
# 3 20.3162 26.2736 60.9822 0.0000 27.3508 0.0000
# 4 0.0000 0.0000 0.0000 24.7712 0.0000 3.9186
# 5 3.8134 1.7806 27.3508 0.0000 29.2486 0.0000
# 6 0.0000 0.0000 0.0000 3.9186 0.0000 37.3018
#
#
#
# Elastic Compliance Matrix: (Units=1/GPa)
#
#
# Indices 1 2 3 4 5 6 
#
# 1 0.012934 -0.006500 -0.001601 0.000000 0.000207 0.000000
# 2 -0.006500 0.020551 -0.011209 0.000000 0.010078 0.000000
# 3 -0.001601 -0.011209 0.036792 0.000000 -0.033514 0.000000
# 4 0.000000 0.000000 0.000000 0.041052 0.000000 -0.004312
# 5 0.000207 0.010078 -0.033514 0.000000 0.064888 0.000000
# 6 0.000000 0.000000 0.000000 -0.004312 0.000000 0.027261
#
#
# Mechanical properties :
#
#
# Convention : Reuss Voigt Hill
#
# Bulk Modulus (GPa) = 31.58847 45.71969 38.65408
# Shear Modulus (GPa) = 19.79009 28.18814 23.98912
#
# Velocity S-wave (km/s) = 3.11696 3.71998 3.43174
# Velocity P-wave (km/s) = 5.33493 6.39499 5.88886
#
# Compressibility (1/GPa) = 0.03165712
#
# Stress axis : x y z
#
# Youngs Moduli (GPa) = 77.31320 48.65862 27.17993
#
# Poissons Ratio (x) = 0.31630 0.04352
# Poissons Ratio (y) = 0.50256 0.30465
# Poissons Ratio (z) = 0.12379 0.54540
#
# Static dielectric constant tensor:
#      x y z
#    x 3.910400 0.000000 0.232880 
#    y 0.000000 3.653050 0.000000 
#    z 0.232880 0.000000 3.800270 
# 
# 
# High freq. dielectric constant tensor:
#      x y z
#    x 1.812800 0.000000 0.007560 
#    y 0.000000 1.778090 0.000000 
#    z 0.007560 0.000000 1.804670 
# 
# From -- ./inp_files/45379.got.cif
#   From: 2010.06.25/outbox.cif.g09.slc.cpg/sg11_23_cif.got.tgz:45379.got - 2010.06.27 23:14:04.
