data_PCOD8073000
_publ_section_title
;
Structure prediction by ZEFSAII (Michael W. Deem and Ramdas Pophale) SiO2 
 PCOD8073000
Probable space group: P 21/M
;
_chemical_formula_sum "Si O2"
_cell_formula_units_Z 28
_cell_length_a 7.781083
_cell_length_b 9.367621
_cell_length_c 30.404771
_cell_angle_alpha 90.000000
_cell_angle_beta 139.442932
_cell_angle_gamma 90.000000
_cell_volume 1440.991682
_symmetry_space_group_name_H-M "P 21/M"
_symmetry_group_IT_number 11
_symmetry_cell_setting 'monoclinic'
loop_
_space_group_symop_operation_xyz
x,y,z
-x,1/2+y,-z
-x,-y,-z
x,1/2-y,z
loop_
_atom_site_type_symbol
_atom_site_label
_atom_site_fract_x
_atom_site_fract_y
_atom_site_fract_z
Si Si1 0.799318 0.416787 0.172328
Si Si2 0.805870 0.582977 0.930767
Si Si3 0.869943 0.414196 0.571083
Si Si4 0.545160 0.914603 0.577052
Si Si5 0.804762 0.092587 0.700572
Si Si6 0.439060 0.095701 0.710116
Si Si7 0.175541 0.416025 0.165601
O O1 0.840386 0.250000 0.189891
O O2 0.491892 0.458583 0.112974
O O3 0.930825 0.501311 0.238905
O O4 0.931473 0.457717 0.150608
O O5 0.852615 0.750000 0.946424
O O6 0.880589 0.536933 0.895413
O O7 0.000000 0.500000 0.000000
O O8 0.816125 0.250000 0.575814
O O9 0.756928 0.432546 0.499362
O O10 0.735123 0.529660 0.575866
O O11 0.177836 0.454775 0.633435
O O12 0.609389 0.750000 0.600234
O O13 0.597058 0.009377 0.629768
O O14 0.874156 0.250000 0.694244
O O15 0.671167 0.113422 0.720944
O O16 0.387052 0.250000 0.722592
O O17 0.542755 0.985544 0.766522
O O18 0.231854 0.250000 0.178916
#
# Coordination Sequence:
#
# PCOD8073000 Si02
#       7
#     4   4   4   4   4   4   4
#     4   9  19  37  57  79 111 145 179 223 269 317
#     4  10  22  38  57  84 112 141 179 217 263 324
#     4   9  19  35  51  72 103 139 180 226 272 319
#     4  10  20  33  50  73 104 141 180 222 271 323
#     4  10  20  34  53  78 106 137 177 223 271 323
#     4   9  19  35  54  77 104 136 177 224 272 321
#     4   9  19  36  56  80 111 144 179 222 268 318
#
# _framework density 19.431062000000001
#
# number of rings (size 3 to 8) (size 9 to 14) (size 15 to 20)
#    0.000    2.571    0.000    0.857    2.000    4.000 
#    0.000    0.000    0.000    0.000    0.000    0.000 
#    0.000    0.000    0.000    0.000    0.000    0.000 
#
# Total GULP energy -346975.767051 kJ/mol
# GULP energy per Si atom -12391.991680 kJ/mol
# Density = 1.938684 g / cm^3
# Si number density = 19.431062 Si / 1000 Ang^3
#
#
#
# Elastic Constant Matrix: (Units=GPa)
#
#
# Indices 1 2 3 4 5 6 
#
# 1 62.8767 26.4210 43.1543 0.0000 3.9536 0.0000
# 2 26.4210 85.0621 66.8378 0.0000 -1.7254 0.0000
# 3 43.1543 66.8378 152.9689 0.0000 4.5613 0.0000
# 4 0.0000 0.0000 0.0000 40.6267 0.0000 -0.9313
# 5 3.9536 -1.7254 4.5613 0.0000 31.7054 0.0000
# 6 0.0000 0.0000 0.0000 -0.9313 0.0000 18.5066
#
#
#
# Elastic Compliance Matrix: (Units=1/GPa)
#
#
# Indices 1 2 3 4 5 6 
#
# 1 0.020261 -0.002881 -0.004396 0.000000 -0.002051 0.000000
# 2 -0.002881 0.018453 -0.007322 0.000000 0.002417 0.000000
# 3 -0.004396 -0.007322 0.011020 0.000000 -0.001436 0.000000
# 4 0.000000 0.000000 0.000000 0.024643 0.000000 0.001240
# 5 -0.002051 0.002417 -0.001436 0.000000 0.032134 0.000000
# 6 0.000000 0.000000 0.000000 0.001240 0.000000 0.054097
#
#
# Mechanical properties :
#
#
# Convention : Reuss Voigt Hill
#
# Bulk Modulus (GPa) = 48.69537 63.74822 56.22179
# Shear Modulus (GPa) = 25.42571 29.13403 27.27987
#
# Velocity S-wave (km/s) = 3.62126 3.87635 3.75097
# Velocity P-wave (km/s) = 6.52684 7.27416 6.91061
#
# Compressibility (1/GPa) = 0.02053583
#
# Stress axis : x y z
#
# Youngs Moduli (GPa) = 49.35681 54.19028 90.74665
#
# Poissons Ratio (x) = 0.15610 0.39892
# Poissons Ratio (y) = 0.14218 0.66449
# Poissons Ratio (z) = 0.21697 0.39681
#
# Static dielectric constant tensor:
#      x y z
#    x 3.463640 0.000000 -0.013260 
#    y 0.000000 3.898860 0.000000 
#    z -0.013260 0.000000 3.658970 
# 
# 
# High freq. dielectric constant tensor:
#      x y z
#    x 1.740170 0.000000 0.001940 
#    y 0.000000 1.759220 0.000000 
#    z 0.001940 0.000000 1.758510 
# 
# From -- ./inp_files/72755.got.cif
#   From: 2010.06.25/outbox.cif.g09.slc.cpg/sg11_37_cif.got.tgz:72755.got - 2010.06.27 23:14:04.
