data_PCOD8073248
_publ_section_title
;
Structure prediction by ZEFSAII (Michael W. Deem and Ramdas Pophale) SiO2 
 PCOD8073248
Probable space group: P 21/M
;
_chemical_formula_sum "Si O2"
_cell_formula_units_Z 24
_cell_length_a 13.716986
_cell_length_b 13.748556
_cell_length_c 12.133190
_cell_angle_alpha 90.000000
_cell_angle_beta 31.271565
_cell_angle_gamma 90.000000
_cell_volume 1187.784411
_symmetry_space_group_name_H-M "P 21/M"
_symmetry_group_IT_number 11
_symmetry_cell_setting 'monoclinic'
loop_
_space_group_symop_operation_xyz
x,y,z
-x,1/2+y,-z
-x,-y,-z
x,1/2-y,z
loop_
_atom_site_type_symbol
_atom_site_label
_atom_site_fract_x
_atom_site_fract_y
_atom_site_fract_z
Si Si1 0.958802 0.637502 0.046986
Si Si2 0.206213 0.485594 0.346919
Si Si3 0.092886 0.358566 0.648112
Si Si4 0.687648 0.480686 0.251075
Si Si5 0.332442 0.857102 0.935839
Si Si6 0.512761 0.360193 0.976761
O O1 0.957283 0.750000 0.014594
O O2 0.891574 0.619505 0.237371
O O3 0.807989 0.580030 0.117443
O O4 0.170897 0.596586 0.826652
O O5 0.207910 0.436511 0.466223
O O6 0.315617 0.588183 0.253199
O O7 0.000000 0.500000 0.500000
O O8 0.316874 0.418243 0.149804
O O9 0.171353 0.250000 0.547389
O O10 0.878773 0.366699 0.816160
O O11 0.500000 0.500000 0.500000
O O12 0.618959 0.439537 0.200083
O O13 0.358065 0.750000 0.855682
O O14 0.462326 0.867297 0.915814
O O15 0.498162 0.250000 0.947626
#
# Coordination Sequence:
#
# PCOD8073248 Si02
#       6
#     4   4   4   4   4   4
#     4   9  20  37  56  84 117 147 187 234 276 326
#     4  11  21  34  57  88 112 144 183 233 280 327
#     4   9  17  33  58  85 111 144 186 230 275 322
#     4  10  20  33  55  88 114 145 183 233 280 328
#     4   9  18  35  58  86 114 140 183 235 276 325
#     4  10  22  37  56  86 117 145 185 232 276 330
#
# _framework density 20.205687000000001
#
# number of rings (size 3 to 8) (size 9 to 14) (size 15 to 20)
#    0.000    2.333    1.667    2.000    2.333    2.000 
#    0.000    0.000    0.000   15.000    0.000    0.000 
#    0.000    0.000    0.000    0.000    0.000    0.000 
#
# Total GULP energy -297477.068234 kJ/mol
# GULP energy per Si atom -12394.877843 kJ/mol
# Density = 2.015970 g / cm^3
# Si number density = 20.205687 Si / 1000 Ang^3
#
#
#
# Elastic Constant Matrix: (Units=GPa)
#
#
# Indices 1 2 3 4 5 6 
#
# 1 38.0222 23.4586 25.9226 0.0000 -6.1314 0.0000
# 2 23.4586 161.0113 63.0546 0.0000 -4.2337 0.0000
# 3 25.9226 63.0546 114.9873 0.0000 -13.8478 0.0000
# 4 0.0000 0.0000 0.0000 35.0470 0.0000 12.9642
# 5 -6.1314 -4.2337 -13.8478 0.0000 28.8690 0.0000
# 6 0.0000 0.0000 0.0000 12.9642 0.0000 23.9515
#
#
#
# Elastic Compliance Matrix: (Units=1/GPa)
#
#
# Indices 1 2 3 4 5 6 
#
# 1 0.032142 -0.002452 -0.005437 0.000000 0.003859 0.000000
# 2 -0.002452 0.008122 -0.004055 0.000000 -0.001275 0.000000
# 3 -0.005437 -0.004055 0.012667 0.000000 0.004327 0.000000
# 4 0.000000 0.000000 0.000000 0.035676 0.000000 -0.019310
# 5 0.003859 -0.001275 0.004327 0.000000 0.037347 0.000000
# 6 0.000000 0.000000 0.000000 -0.019310 0.000000 0.052203
#
#
# Mechanical properties :
#
#
# Convention : Reuss Voigt Hill
#
# Bulk Modulus (GPa) = 34.43037 59.87692 47.15365
# Shear Modulus (GPa) = 23.61535 31.01252 27.31393
#
# Velocity S-wave (km/s) = 3.42240 3.92195 3.68066
# Velocity P-wave (km/s) = 5.71787 7.08569 6.43821
#
# Compressibility (1/GPa) = 0.02904413
#
# Stress axis : x y z
#
# Youngs Moduli (GPa) = 31.11161 123.11640 78.94729
#
# Poissons Ratio (x) = 0.30194 0.42920
# Poissons Ratio (y) = 0.07630 0.32010
# Poissons Ratio (z) = 0.16914 0.49919
#
# Static dielectric constant tensor:
#      x y z
#    x 3.442590 0.000000 -0.240650 
#    y 0.000000 3.926680 0.000000 
#    z -0.240650 0.000000 3.615970 
# 
# 
# High freq. dielectric constant tensor:
#      x y z
#    x 1.759610 0.000000 -0.028190 
#    y 0.000000 1.794910 0.000000 
#    z -0.028190 0.000000 1.788390 
# 
# From -- ./inp_files/39552.got.cif
#   From: 2010.06.25/outbox.cif.g09.slc.cpg/sg11_20_cif.got.tgz:39552.got - 2010.06.27 23:14:04.
