data_PCOD8073674
_publ_section_title
;
Structure prediction by ZEFSAII (Michael W. Deem and Ramdas Pophale) SiO2 
 PCOD8073674
Probable space group: P 21/M
;
_chemical_formula_sum "Si O2"
_cell_formula_units_Z 32
_cell_length_a 21.465339
_cell_length_b 8.955267
_cell_length_c 27.758825
_cell_angle_alpha 90.000000
_cell_angle_beta 161.188446
_cell_angle_gamma 90.000000
_cell_volume 1720.634476
_symmetry_space_group_name_H-M "P 21/M"
_symmetry_group_IT_number 11
_symmetry_cell_setting 'monoclinic'
loop_
_space_group_symop_operation_xyz
x,y,z
-x,1/2+y,-z
-x,-y,-z
x,1/2-y,z
loop_
_atom_site_type_symbol
_atom_site_label
_atom_site_fract_x
_atom_site_fract_y
_atom_site_fract_z
Si Si1 0.337461 0.573194 0.180045
Si Si2 0.003756 0.077770 0.703451
Si Si3 0.840458 0.577527 0.673308
Si Si4 0.292423 0.925585 0.846417
Si Si5 0.919178 0.921590 0.840079
Si Si6 0.408858 0.574378 0.340162
Si Si7 0.307266 0.923276 0.604071
Si Si8 0.986318 0.573385 0.541998
O O1 0.368331 0.750000 0.197334
O O2 0.374727 0.515058 0.261265
O O3 0.480991 0.491439 0.248265
O O4 0.121679 0.522634 0.009383
O O5 0.065846 0.250000 0.749577
O O6 0.809979 0.051827 0.531017
O O7 0.968127 0.021476 0.731169
O O8 0.177610 0.982968 0.808732
O O9 0.851350 0.750000 0.664887
O O10 0.619451 0.521838 0.511473
O O11 0.927805 0.551653 0.789584
O O12 0.318166 0.750000 0.869481
O O13 0.175943 0.968818 0.712379
O O14 0.500000 0.000000 0.000000
O O15 0.883021 0.750000 0.826314
O O16 0.745898 0.011550 0.736347
O O17 0.387005 0.750000 0.325432
O O18 0.322224 0.750000 0.628994
O O19 0.204683 0.009604 0.572490
O O20 0.964749 0.750000 0.520928
O O21 0.000000 0.500000 0.500000
#
# Coordination Sequence:
#
# PCOD8073674 Si02
#       8
#     4   4   4   4   4   4   4   4
#     4  10  20  36  55  78 108 143 183 226 275 329
#     4  10  20  35  58  85 110 143 188 232 273 325
#     4  10  20  36  55  78 108 143 183 226 275 329
#     4  10  21  38  61  88 118 151 188 231 277 331
#     4  10  22  36  52  78 111 142 177 226 280 330
#     4  10  20  34  56  78 103 142 185 226 272 332
#     4  10  20  35  58  85 110 143 188 232 273 325
#     4  10  21  38  61  88 118 151 188 231 277 331
#
# _framework density 18.597791000000001
#
# number of rings (size 3 to 8) (size 9 to 14) (size 15 to 20)
#    0.000    2.000    1.250    2.250    0.000    4.500 
#    2.250    0.000    0.000    0.000    0.000    0.000 
#    0.000    0.000    0.000    0.000    0.000    0.000 
#
# Total GULP energy -396934.365341 kJ/mol
# GULP energy per Si atom -12404.198917 kJ/mol
# Density = 1.855546 g / cm^3
# Si number density = 18.597791 Si / 1000 Ang^3
#
#
#
# Elastic Constant Matrix: (Units=GPa)
#
#
# Indices 1 2 3 4 5 6 
#
# 1 91.3918 41.1968 20.0997 0.0000 10.9121 0.0000
# 2 41.1968 68.2952 29.0126 0.0000 7.8034 0.0000
# 3 20.0997 29.0126 69.8677 0.0000 9.6024 0.0000
# 4 0.0000 0.0000 0.0000 26.9315 0.0000 7.9781
# 5 10.9121 7.8034 9.6024 0.0000 28.4995 0.0000
# 6 0.0000 0.0000 0.0000 7.9781 0.0000 37.1918
#
#
#
# Elastic Compliance Matrix: (Units=1/GPa)
#
#
# Indices 1 2 3 4 5 6 
#
# 1 0.015356 -0.008739 -0.000324 0.000000 -0.003377 0.000000
# 2 -0.008739 0.022923 -0.006923 0.000000 -0.000598 0.000000
# 3 -0.000324 -0.006923 0.017829 0.000000 -0.003987 0.000000
# 4 0.000000 0.000000 0.000000 0.039651 0.000000 -0.008506
# 5 -0.003377 -0.000598 -0.003987 0.000000 0.037889 0.000000
# 6 0.000000 0.000000 0.000000 -0.008506 0.000000 0.028712
#
#
# Mechanical properties :
#
#
# Convention : Reuss Voigt Hill
#
# Bulk Modulus (GPa) = 41.43316 45.57477 43.50397
# Shear Modulus (GPa) = 24.70640 27.80762 26.25701
#
# Velocity S-wave (km/s) = 3.64876 3.87099 3.76152
# Velocity P-wave (km/s) = 6.33073 6.67369 6.50447
#
# Compressibility (1/GPa) = 0.02413526
#
# Stress axis : x y z
#
# Youngs Moduli (GPa) = 65.12168 43.62430 56.08937
#
# Poissons Ratio (x) = 0.38124 0.01820
# Poissons Ratio (y) = 0.56911 0.38828
# Poissons Ratio (z) = 0.02113 0.30199
#
# Static dielectric constant tensor:
#      x y z
#    x 3.417590 0.000000 0.004510 
#    y 0.000000 3.412250 0.000000 
#    z 0.004510 0.000000 3.485420 
# 
# 
# High freq. dielectric constant tensor:
#      x y z
#    x 1.726830 0.000000 0.005490 
#    y 0.000000 1.723920 0.000000 
#    z 0.005490 0.000000 1.719330 
# 
# From -- ./inp_files/72126.got.cif
#   From: 2010.06.25/outbox.cif.g09.slc.cpg/sg11_37_cif.got.tgz:72126.got - 2010.06.27 23:14:04.
