data_PCOD8073914
_publ_section_title
;
Structure prediction by ZEFSAII (Michael W. Deem and Ramdas Pophale) SiO2 
 PCOD8073914
Probable space group: P 21/M
;
_chemical_formula_sum "Si O2"
_cell_formula_units_Z 32
_cell_length_a 24.630708
_cell_length_b 8.977515
_cell_length_c 17.944044
_cell_angle_alpha 90.000000
_cell_angle_beta 26.027020
_cell_angle_gamma 90.000000
_cell_volume 1741.065018
_symmetry_space_group_name_H-M "P 21/M"
_symmetry_group_IT_number 11
_symmetry_cell_setting 'monoclinic'
loop_
_space_group_symop_operation_xyz
x,y,z
-x,1/2+y,-z
-x,-y,-z
x,1/2-y,z
loop_
_atom_site_type_symbol
_atom_site_label
_atom_site_fract_x
_atom_site_fract_y
_atom_site_fract_z
Si Si1 0.266774 0.924113 0.590361
Si Si2 0.456843 0.073516 0.758803
Si Si3 0.895869 0.077727 0.580753
Si Si4 0.968897 0.075855 0.207463
Si Si5 0.404518 0.579760 0.671566
Si Si6 0.742178 0.420555 0.906343
Si Si7 0.164409 0.920641 0.871605
Si Si8 0.991458 0.424963 0.685916
O O1 0.279876 0.750000 0.588410
O O2 0.402920 0.987065 0.403151
O O3 0.173968 0.958848 0.636918
O O4 0.216452 0.990520 0.730415
O O5 0.452500 0.250000 0.756844
O O6 0.397850 0.002258 0.758338
O O7 0.375006 0.022916 0.930070
O O8 0.929134 0.250000 0.529425
O O9 0.769061 0.059103 0.784479
O O10 0.894927 0.000089 0.500666
O O11 0.000000 0.000000 0.500000
O O12 0.990238 0.250000 0.195657
O O13 0.007145 0.983738 0.232304
O O14 0.050391 0.023144 0.036999
O O15 0.500000 0.500000 0.500000
O O16 0.446845 0.750000 0.629925
O O17 0.268257 0.570786 0.806515
O O18 0.709086 0.250000 0.965400
O O19 0.861149 0.468385 0.808775
O O20 0.119308 0.750000 0.916855
O O21 0.013094 0.250000 0.659209
#
# Coordination Sequence:
#
# PCOD8073914 Si02
#       8
#     4   4   4   4   4   4   4   4
#     4   9  20  38  53  70 101 140 176 219 268 305
#     4  11  21  35  54  76 105 141 177 213 257 311
#     4   9  17  31  53  80 112 142 169 205 257 311
#     4  11  22  35  54  77 101 133 180 223 259 311
#     4  11  21  34  53  75 103 136 169 211 261 311
#     4   9  19  34  52  80 112 139 165 206 259 307
#     4  10  20  37  55  72 103 137 170 218 272 312
#     4  10  20  35  54  78 111 141 170 211 264 311
#
# _framework density 18.379555
#
# number of rings (size 3 to 8) (size 9 to 14) (size 15 to 20)
#    0.000    2.000    1.250    3.750    0.000    7.000 
#    0.000    3.125    0.000    0.750    0.000    0.000 
#    0.000    0.000    0.000    0.000    0.000    0.000 
#
# Total GULP energy -396774.426649 kJ/mol
# GULP energy per Si atom -12399.200833 kJ/mol
# Density = 1.833772 g / cm^3
# Si number density = 18.379555 Si / 1000 Ang^3
#
#
#
# Elastic Constant Matrix: (Units=GPa)
#
#
# Indices 1 2 3 4 5 6 
#
# 1 53.4653 27.7015 44.7675 0.0000 8.6473 0.0000
# 2 27.7015 88.7824 49.8467 0.0000 6.6485 0.0000
# 3 44.7675 49.8467 108.6895 0.0000 16.3896 0.0000
# 4 0.0000 0.0000 0.0000 31.4584 0.0000 8.3043
# 5 8.6473 6.6485 16.3896 0.0000 27.2117 0.0000
# 6 0.0000 0.0000 0.0000 8.3043 0.0000 25.8936
#
#
#
# Elastic Compliance Matrix: (Units=1/GPa)
#
#
# Indices 1 2 3 4 5 6 
#
# 1 0.029338 -0.003222 -0.010250 0.000000 -0.002362 0.000000
# 2 -0.003222 0.015530 -0.005915 0.000000 0.000792 0.000000
# 3 -0.010250 -0.005915 0.016967 0.000000 -0.005517 0.000000
# 4 0.000000 0.000000 0.000000 0.034728 0.000000 -0.011138
# 5 -0.002362 0.000792 -0.005517 0.000000 0.040629 0.000000
# 6 0.000000 0.000000 0.000000 -0.011138 0.000000 0.042191
#
#
# Mechanical properties :
#
#
# Convention : Reuss Voigt Hill
#
# Bulk Modulus (GPa) = 43.36261 55.06318 49.21289
# Shear Modulus (GPa) = 22.13923 25.48749 23.81336
#
# Velocity S-wave (km/s) = 3.47444 3.72792 3.60341
# Velocity P-wave (km/s) = 6.30394 6.96806 6.64430
#
# Compressibility (1/GPa) = 0.02306134
#
# Stress axis : x y z
#
# Youngs Moduli (GPa) = 34.08598 64.38995 58.93896
#
# Poissons Ratio (x) = 0.20748 0.60411
# Poissons Ratio (y) = 0.10983 0.34861
# Poissons Ratio (z) = 0.34937 0.38085
#
# Static dielectric constant tensor:
#      x y z
#    x 3.492660 0.000000 0.329360 
#    y 0.000000 3.429880 0.000000 
#    z 0.329360 0.000000 3.673890 
# 
# 
# High freq. dielectric constant tensor:
#      x y z
#    x 1.695420 0.000000 0.018320 
#    y 0.000000 1.712990 0.000000 
#    z 0.018320 0.000000 1.710020 
# 
# From -- ./inp_files/67070.got.cif
#   From: 2010.06.25/outbox.cif.g09.slc.cpg/sg11_34_cif.got.tgz:67070.got - 2010.06.27 23:14:04.
