data_PCOD8073432
_publ_section_title
;
Structure prediction by ZEFSAII (Michael W. Deem and Ramdas Pophale) SiO2 
 PCOD8073432
Probable space group: P 21/M
;
_chemical_formula_sum "Si O2"
_cell_formula_units_Z 20
_cell_length_a 13.563680
_cell_length_b 8.977848
_cell_length_c 22.425834
_cell_angle_alpha 90.000000
_cell_angle_beta 24.059532
_cell_angle_gamma 90.000000
_cell_volume 1113.329672
_symmetry_space_group_name_H-M "P 21/M"
_symmetry_group_IT_number 11
_symmetry_cell_setting 'monoclinic'
loop_
_space_group_symop_operation_xyz
x,y,z
-x,1/2+y,-z
-x,-y,-z
x,1/2-y,z
loop_
_atom_site_type_symbol
_atom_site_label
_atom_site_fract_x
_atom_site_fract_y
_atom_site_fract_z
Si Si1 0.622258 0.921803 0.224076
Si Si2 0.789060 0.425201 0.784013
Si Si3 0.885968 0.573606 0.505324
Si Si4 0.760648 0.574784 0.919265
Si Si5 0.011922 0.422046 0.083063
O O1 0.551935 0.750000 0.272674
O O2 0.386699 0.022509 0.353072
O O3 0.758833 0.945453 0.086342
O O4 0.789690 0.975372 0.186024
O O5 0.805069 0.250000 0.783411
O O6 0.878313 0.498977 0.796310
O O7 0.961086 0.480524 0.636117
O O8 0.516668 0.477493 0.919350
O O9 0.897300 0.750000 0.506642
O O10 0.000000 0.500000 0.500000
O O11 0.773276 0.750000 0.903751
O O12 0.911593 0.524560 0.893564
O O13 0.929752 0.250000 0.127323
#
# Coordination Sequence:
#
# PCOD8073432 Si02
#       5
#     4   4   4   4   4
#     4  10  20  34  53  78 106 134 170 212 253 303
#     4   9  19  34  51  75 105 133 165 208 254 300
#     4  11  22  36  54  76 105 137 168 207 256 305
#     4   9  17  32  54  76 100 132 169 209 252 299
#     4   9  18  34  54  76 104 136 170 211 257 301
#
# _framework density 17.964130999999998
#
# number of rings (size 3 to 8) (size 9 to 14) (size 15 to 20)
#    0.000    2.400    0.000    2.400    0.000    6.400 
#    0.000    5.000    0.000    0.000    0.000    0.000 
#    0.000    0.000    0.000    0.000    0.000    0.000 
#
# Total GULP energy -248057.131517 kJ/mol
# GULP energy per Si atom -12402.856576 kJ/mol
# Density = 1.792324 g / cm^3
# Si number density = 17.964131 Si / 1000 Ang^3
#
#
#
# Elastic Constant Matrix: (Units=GPa)
#
#
# Indices 1 2 3 4 5 6 
#
# 1 161.7880 48.3383 64.6227 0.0000 16.1509 0.0000
# 2 48.3383 53.5157 39.0489 0.0000 5.8597 0.0000
# 3 64.6227 39.0489 96.7045 0.0000 6.6760 0.0000
# 4 0.0000 0.0000 0.0000 30.1098 0.0000 -1.0609
# 5 16.1509 5.8597 6.6760 0.0000 21.8982 0.0000
# 6 0.0000 0.0000 0.0000 -1.0609 0.0000 35.4273
#
#
#
# Elastic Compliance Matrix: (Units=1/GPa)
#
#
# Indices 1 2 3 4 5 6 
#
# 1 0.009907 -0.005453 -0.004101 0.000000 -0.004598 0.000000
# 2 -0.005453 0.029824 -0.008301 0.000000 -0.001429 0.000000
# 3 -0.004101 -0.008301 0.016417 0.000000 0.000241 0.000000
# 4 0.000000 0.000000 0.000000 0.033247 0.000000 0.000996
# 5 -0.004598 -0.001429 0.000241 0.000000 0.049366 0.000000
# 6 0.000000 0.000000 0.000000 0.000996 0.000000 0.028257
#
#
# Mechanical properties :
#
#
# Convention : Reuss Voigt Hill
#
# Bulk Modulus (GPa) = 48.92615 68.44756 58.68685
# Shear Modulus (GPa) = 23.86186 28.15361 26.00774
#
# Velocity S-wave (km/s) = 3.64855 3.96310 3.80907
# Velocity P-wave (km/s) = 6.71147 7.68938 7.21701
#
# Compressibility (1/GPa) = 0.02043897
#
# Stress axis : x y z
#
# Youngs Moduli (GPa) = 100.93664 33.52963 60.91406
#
# Poissons Ratio (x) = 0.18283 0.24983
# Poissons Ratio (y) = 0.55038 0.50562
# Poissons Ratio (z) = 0.41397 0.27832
#
# Static dielectric constant tensor:
#      x y z
#    x 3.470640 0.000000 0.022370 
#    y 0.000000 3.297210 0.000000 
#    z 0.022370 0.000000 3.325810 
# 
# 
# High freq. dielectric constant tensor:
#      x y z
#    x 1.704450 0.000000 0.001690 
#    y 0.000000 1.696310 0.000000 
#    z 0.001690 0.000000 1.684100 
# 
# From -- ./inp_files/33466.got.cif
#   From: 2010.06.25/outbox.cif.g09.slc.cpg/sg11_17_cif.got.tgz:33466.got - 2010.06.27 23:14:04.
