data_PCOD8073024
_publ_section_title
;
Structure prediction by ZEFSAII (Michael W. Deem and Ramdas Pophale) SiO2 
 PCOD8073024
Probable space group: P 21/M
;
_chemical_formula_sum "Si O2"
_cell_formula_units_Z 28
_cell_length_a 29.368804
_cell_length_b 9.156329
_cell_length_c 9.315626
_cell_angle_alpha 90.000000
_cell_angle_beta 37.929458
_cell_angle_gamma 90.000000
_cell_volume 1539.842918
_symmetry_space_group_name_H-M "P 21/M"
_symmetry_group_IT_number 11
_symmetry_cell_setting 'monoclinic'
loop_
_space_group_symop_operation_xyz
x,y,z
-x,1/2+y,-z
-x,-y,-z
x,1/2-y,z
loop_
_atom_site_type_symbol
_atom_site_label
_atom_site_fract_x
_atom_site_fract_y
_atom_site_fract_z
Si Si1 0.435739 0.081924 0.578072
Si Si2 0.005494 0.075784 0.834345
Si Si3 0.294884 0.910286 0.931716
Si Si4 0.869388 0.076912 0.979081
Si Si5 0.871069 0.422008 0.650708
Si Si6 0.565228 0.580888 0.757157
Si Si7 0.708515 0.412646 0.400503
O O1 0.440777 0.250000 0.605967
O O2 0.444441 0.053654 0.387583
O O3 0.500000 0.000000 0.500000
O O4 0.356314 0.024604 0.832325
O O5 0.007437 0.250000 0.845629
O O6 0.934753 0.022030 0.918666
O O7 0.079120 0.020163 0.575090
O O8 0.000000 0.000000 0.000000
O O9 0.316516 0.750000 0.937681
O O10 0.292573 0.903658 0.767126
O O11 0.213242 0.953571 0.189931
O O12 0.864659 0.250000 0.983042
O O13 0.883952 0.020619 0.781176
O O14 0.789776 0.022750 0.240353
O O15 0.890089 0.250000 0.588127
O O16 0.562623 0.750000 0.803766
O O17 0.643712 0.518019 0.618318
O O18 0.500000 0.500000 0.000000
O O19 0.695955 0.250000 0.496479
#
# Coordination Sequence:
#
# PCOD8073024 Si02
#       7
#     4   4   4   4   4   4   4
#     4  10  20  33  51  75 103 133 168 206 247 295
#     4  11  22  35  50  72 104 139 169 201 245 297
#     4   8  15  29  51  75  99 127 161 203 252 298
#     4   8  16  32  55  78  98 125 165 207 249 296
#     4   9  17  33  56  79  99 124 163 209 252 298
#     4  10  20  33  50  75 103 132 165 203 247 295
#     4   8  14  29  52  74  96 126 163 205 249 293
#
# _framework density 18.183672000000001
#
# number of rings (size 3 to 8) (size 9 to 14) (size 15 to 20)
#    0.000    2.857    0.000    3.429    0.000    2.286 
#    0.000    5.714    0.000    3.429    0.000    0.000 
#    0.000    0.000    0.000    0.000    0.000    0.000 
#
# Total GULP energy -347090.695836 kJ/mol
# GULP energy per Si atom -12396.096280 kJ/mol
# Density = 1.814229 g / cm^3
# Si number density = 18.183672 Si / 1000 Ang^3
#
#
#
# Elastic Constant Matrix: (Units=GPa)
#
#
# Indices 1 2 3 4 5 6 
#
# 1 95.8495 57.3150 60.2828 0.0000 -23.2451 0.0000
# 2 57.3150 106.4397 68.3058 0.0000 -17.6469 0.0000
# 3 60.2828 68.3058 134.0721 0.0000 -28.3319 0.0000
# 4 0.0000 0.0000 0.0000 34.0276 0.0000 -4.8324
# 5 -23.2451 -17.6469 -28.3319 0.0000 29.7315 0.0000
# 6 0.0000 0.0000 0.0000 -4.8324 0.0000 26.6557
#
#
#
# Elastic Compliance Matrix: (Units=1/GPa)
#
#
# Indices 1 2 3 4 5 6 
#
# 1 0.018119 -0.006408 -0.003371 0.000000 0.007150 0.000000
# 2 -0.006408 0.016310 -0.005561 0.000000 -0.000628 0.000000
# 3 -0.003371 -0.005561 0.013214 0.000000 0.006656 0.000000
# 4 0.000000 0.000000 0.000000 0.030165 0.000000 0.005469
# 5 0.007150 -0.000628 0.006656 0.000000 0.045194 0.000000
# 6 0.000000 0.000000 0.000000 0.005469 0.000000 0.038507
#
#
# Mechanical properties :
#
#
# Convention : Reuss Voigt Hill
#
# Bulk Modulus (GPa) = 58.95260 78.68538 68.81899
# Shear Modulus (GPa) = 25.27258 28.11347 26.69302
#
# Velocity S-wave (km/s) = 3.73211 3.93629 3.83556
# Velocity P-wave (km/s) = 7.14581 8.00160 7.58578
#
# Compressibility (1/GPa) = 0.01696278
#
# Stress axis : x y z
#
# Youngs Moduli (GPa) = 55.19071 61.31238 75.67598
#
# Poissons Ratio (x) = 0.39287 0.25513
# Poissons Ratio (y) = 0.35364 0.42085
# Poissons Ratio (z) = 0.18607 0.34097
#
# Static dielectric constant tensor:
#      x y z
#    x 3.514710 0.000000 -0.411720 
#    y 0.000000 3.581590 0.000000 
#    z -0.411720 0.000000 3.462800 
# 
# 
# High freq. dielectric constant tensor:
#      x y z
#    x 1.691380 0.000000 -0.027180 
#    y 0.000000 1.694160 0.000000 
#    z -0.027180 0.000000 1.701580 
# 
# From -- ./inp_files/28988.got.cif
#   From: 2010.06.25/outbox.cif.g09.slc.cpg/sg11_15_cif.got.tgz:28988.got - 2010.06.27 23:14:04.
