data_PCOD8073687
_publ_section_title
;
Structure prediction by ZEFSAII (Michael W. Deem and Ramdas Pophale) SiO2 
 PCOD8073687
Probable space group: P 21/M
;
_chemical_formula_sum "Si O2"
_cell_formula_units_Z 32
_cell_length_a 22.913258
_cell_length_b 9.297385
_cell_length_c 13.915298
_cell_angle_alpha 90.000000
_cell_angle_beta 32.469240
_cell_angle_gamma 90.000000
_cell_volume 1591.440830
_symmetry_space_group_name_H-M "P 21/M"
_symmetry_group_IT_number 11
_symmetry_cell_setting 'monoclinic'
loop_
_space_group_symop_operation_xyz
x,y,z
-x,1/2+y,-z
-x,-y,-z
x,1/2-y,z
loop_
_atom_site_type_symbol
_atom_site_label
_atom_site_fract_x
_atom_site_fract_y
_atom_site_fract_z
Si Si1 0.288107 0.584291 0.199097
Si Si2 0.898366 0.078037 0.688213
Si Si3 0.338946 0.083354 0.698539
Si Si4 0.506522 0.584858 0.139052
Si Si5 0.053507 0.581912 0.836659
Si Si6 0.504320 0.412831 0.628660
Si Si7 0.113165 0.416340 0.097324
Si Si8 0.733657 0.417354 0.557342
O O1 0.318086 0.750000 0.142944
O O2 0.207649 0.532868 0.226438
O O3 0.229449 0.557979 0.383315
O O4 0.402238 0.500607 0.045780
O O5 0.915184 0.250000 0.663848
O O6 0.885792 0.021733 0.813584
O O7 0.000000 0.000000 0.500000
O O8 0.354374 0.250000 0.657295
O O9 0.407507 0.030426 0.695713
O O10 0.384482 0.001564 0.541858
O O11 0.214589 0.043445 0.888884
O O12 0.508054 0.750000 0.101714
O O13 0.539798 0.569732 0.203388
O O14 0.386347 0.515459 0.292270
O O15 0.053388 0.750000 0.863282
O O16 0.174899 0.521500 0.643497
O O17 0.990593 0.555643 0.824440
O O18 0.000000 0.500000 0.000000
O O19 0.534772 0.250000 0.562379
O O20 0.119563 0.250000 0.123621
O O21 0.724395 0.250000 0.546555
#
# Coordination Sequence:
#
# PCOD8073687 Si02
#       8
#     4   4   4   4   4   4   4   4
#     4  10  21  38  59  85 117 152 190 236 289 344
#     4  11  23  38  60  88 117 153 194 237 292 351
#     4   9  18  32  50  73 105 143 182 228 283 335
#     4  10  20  34  56  83 111 150 194 234 285 343
#     4  10  22  40  61  85 116 154 195 242 294 349
#     4   9  18  31  48  74 106 141 183 229 277 331
#     4  10  21  38  59  83 114 150 189 237 292 344
#     4   9  19  37  58  80 113 154 192 233 290 349
#
# _framework density 20.107565000000001
#
# number of rings (size 3 to 8) (size 9 to 14) (size 15 to 20)
#    0.000    2.250    0.000    2.250    1.750    5.500 
#    0.000    3.750    0.000    0.000    0.000    0.000 
#    0.000    0.000    0.000    0.000    0.000    0.000 
#
# Total GULP energy -396718.856871 kJ/mol
# GULP energy per Si atom -12397.464277 kJ/mol
# Density = 2.006180 g / cm^3
# Si number density = 20.107565 Si / 1000 Ang^3
#
#
#
# Elastic Constant Matrix: (Units=GPa)
#
#
# Indices 1 2 3 4 5 6 
#
# 1 68.8126 26.0190 37.3520 0.0000 -5.5882 0.0000
# 2 26.0190 56.0196 48.1448 0.0000 -1.6833 0.0000
# 3 37.3520 48.1448 143.3413 0.0000 -10.3430 0.0000
# 4 0.0000 0.0000 0.0000 37.1811 0.0000 4.3536
# 5 -5.5882 -1.6833 -10.3430 0.0000 30.3807 0.0000
# 6 0.0000 0.0000 0.0000 4.3536 0.0000 24.8428
#
#
#
# Elastic Compliance Matrix: (Units=1/GPa)
#
#
# Indices 1 2 3 4 5 6 
#
# 1 0.018481 -0.006347 -0.002526 0.000000 0.002188 0.000000
# 2 -0.006347 0.027343 -0.007694 0.000000 -0.002272 0.000000
# 3 -0.002526 -0.007694 0.010410 0.000000 0.002653 0.000000
# 4 0.000000 0.000000 0.000000 0.027459 0.000000 -0.004812
# 5 0.002188 -0.002272 0.002653 0.000000 0.034095 0.000000
# 6 0.000000 0.000000 0.000000 -0.004812 0.000000 0.041096
#
#
# Mechanical properties :
#
#
# Convention : Reuss Voigt Hill
#
# Bulk Modulus (GPa) = 43.28964 54.57837 48.93400
# Shear Modulus (GPa) = 25.03523 28.92477 26.98000
#
# Velocity S-wave (km/s) = 3.53238 3.79687 3.66701
# Velocity P-wave (km/s) = 6.18164 6.81350 6.50525
#
# Compressibility (1/GPa) = 0.02310022
#
# Stress axis : x y z
#
# Youngs Moduli (GPa) = 54.10967 36.57262 96.05933
#
# Poissons Ratio (x) = 0.23212 0.24266
# Poissons Ratio (y) = 0.34343 0.73906
# Poissons Ratio (z) = 0.13669 0.28138
#
# Static dielectric constant tensor:
#      x y z
#    x 3.726690 0.000000 -0.084190 
#    y 0.000000 3.482830 0.000000 
#    z -0.084190 0.000000 3.843500 
# 
# 
# High freq. dielectric constant tensor:
#      x y z
#    x 1.789580 0.000000 -0.002420 
#    y 0.000000 1.758530 0.000000 
#    z -0.002420 0.000000 1.796840 
# 
# From -- ./inp_files/55608.got.cif
#   From: 2010.06.25/outbox.cif.g09.slc.cpg/sg11_28_cif.got.tgz:55608.got - 2010.06.27 23:14:04.
