data_PCOD8073563
_publ_section_title
;
Structure prediction by ZEFSAII (Michael W. Deem and Ramdas Pophale) SiO2 
 PCOD8073563
Probable space group: P 21/M
;
_chemical_formula_sum "Si O2"
_cell_formula_units_Z 32
_cell_length_a 6.802435
_cell_length_b 22.930011
_cell_length_c 11.132256
_cell_angle_alpha 90.000000
_cell_angle_beta 102.827487
_cell_angle_gamma 90.000000
_cell_volume 1693.072665
_symmetry_space_group_name_H-M "P 21/M"
_symmetry_group_IT_number 11
_symmetry_cell_setting 'monoclinic'
loop_
_space_group_symop_operation_xyz
x,y,z
-x,1/2+y,-z
-x,-y,-z
x,1/2-y,z
loop_
_atom_site_type_symbol
_atom_site_label
_atom_site_fract_x
_atom_site_fract_y
_atom_site_fract_z
Si Si1 0.883276 0.414135 0.703704
Si Si2 0.741693 0.369226 0.101346
Si Si3 0.933909 0.182390 0.898623
Si Si4 0.154926 0.519950 0.743988
Si Si5 0.927739 0.592289 0.517744
Si Si6 0.330401 0.183449 0.099482
Si Si7 0.540713 0.967629 0.381772
Si Si8 0.077669 0.183680 0.290440
O O1 0.915502 0.351748 0.771122
O O2 0.658335 0.437369 0.697677
O O3 0.049069 0.460603 0.776701
O O4 0.906343 0.403343 0.564379
O O5 0.810570 0.435570 0.140929
O O6 0.504815 0.361428 0.089181
O O7 0.853916 0.325740 0.208068
O O8 0.791037 0.352113 0.972054
O O9 0.863820 0.250000 0.874804
O O10 0.163234 0.180230 0.973459
O O11 0.371962 0.510277 0.710065
O O12 0.997386 0.543969 0.623274
O O13 0.713432 0.579549 0.429313
O O14 0.897702 0.653315 0.579066
O O15 0.409597 0.250000 0.120683
O O16 0.237826 0.161247 0.213154
O O17 0.500000 0.000000 0.500000
O O18 0.116261 0.250000 0.323014
#
# Coordination Sequence:
#
# PCOD8073563 Si02
#       8
#     4   4   4   4   4   4   4   4
#     4  11  22  38  56  81 115 150 187 228 274 332
#     4  10  20  35  60  83 109 144 187 233 281 334
#     4  10  23  41  58  79 111 152 191 227 274 329
#     4  10  21  35  56  88 111 141 185 231 283 329
#     4  10  20  34  54  83 112 147 184 223 277 336
#     4   9  18  35  58  78 104 144 186 230 280 331
#     4  11  19  34  58  78 110 150 184 218 276 341
#     4   9  19  33  53  84 114 139 181 236 284 331
#
# _framework density 18.900547
#
# number of rings (size 3 to 8) (size 9 to 14) (size 15 to 20)
#    0.000    2.000    2.500    2.625    1.750    4.000 
#    0.000    1.875    0.000    0.000    0.000    0.000 
#    0.000    0.000    0.000    0.000    0.000    0.000 
#
# Total GULP energy -396778.599551 kJ/mol
# GULP energy per Si atom -12399.331236 kJ/mol
# Density = 1.885753 g / cm^3
# Si number density = 18.900547 Si / 1000 Ang^3
#
#
#
# Elastic Constant Matrix: (Units=GPa)
#
#
# Indices 1 2 3 4 5 6 
#
# 1 101.4161 34.3407 20.7425 0.0000 4.1035 0.0000
# 2 34.3407 95.1781 45.4925 0.0000 -9.1464 0.0000
# 3 20.7425 45.4925 53.0660 0.0000 -7.4318 0.0000
# 4 0.0000 0.0000 0.0000 36.8478 0.0000 -5.2302
# 5 4.1035 -9.1464 -7.4318 0.0000 17.9964 0.0000
# 6 0.0000 0.0000 0.0000 -5.2302 0.0000 25.8707
#
#
#
# Elastic Compliance Matrix: (Units=1/GPa)
#
#
# Indices 1 2 3 4 5 6 
#
# 1 0.011794 -0.003748 -0.002166 0.000000 -0.005489 0.000000
# 2 -0.003748 0.019136 -0.014285 0.000000 0.004681 0.000000
# 3 -0.002166 -0.014285 0.032892 0.000000 0.006817 0.000000
# 4 0.000000 0.000000 0.000000 0.027940 0.000000 0.005649
# 5 -0.005489 0.004681 0.006817 0.000000 0.062013 0.000000
# 6 0.000000 0.000000 0.000000 0.005649 0.000000 0.039796
#
#
# Mechanical properties :
#
#
# Convention : Reuss Voigt Hill
#
# Bulk Modulus (GPa) = 42.68808 50.09015 46.38912
# Shear Modulus (GPa) = 20.68021 26.08194 23.38108
#
# Velocity S-wave (km/s) = 3.31140 3.71881 3.52100
# Velocity P-wave (km/s) = 6.10370 6.70812 6.41303
#
# Compressibility (1/GPa) = 0.02342574
#
# Stress axis : x y z
#
# Youngs Moduli (GPa) = 84.78564 52.25669 30.40254
#
# Poissons Ratio (x) = 0.19583 0.06586
# Poissons Ratio (y) = 0.31774 0.43429
# Poissons Ratio (z) = 0.18366 0.74647
#
# Static dielectric constant tensor:
#      x y z
#    x 3.626660 0.000000 -0.101860 
#    y 0.000000 3.415270 0.000000 
#    z -0.101860 0.000000 3.267540 
# 
# 
# High freq. dielectric constant tensor:
#      x y z
#    x 1.741730 0.000000 -0.004610 
#    y 0.000000 1.727740 0.000000 
#    z -0.004610 0.000000 1.713730 
# 
# From -- ./inp_files/5479.got.cif
#   From: 2010.06.25/outbox.cif.g09.slc.cpg/sg11_3_cif.got.tgz:5479.got - 2010.06.27 23:14:04.
