data_PCOD8073519
_publ_section_title
;
Structure prediction by ZEFSAII (Michael W. Deem and Ramdas Pophale) SiO2 
 PCOD8073519
Probable space group: P 21/M
;
_chemical_formula_sum "Si O2"
_cell_formula_units_Z 32
_cell_length_a 15.393422
_cell_length_b 8.924107
_cell_length_c 24.878723
_cell_angle_alpha 90.000000
_cell_angle_beta 30.610138
_cell_angle_gamma 90.000000
_cell_volume 1740.247659
_symmetry_space_group_name_H-M "P 21/M"
_symmetry_group_IT_number 11
_symmetry_cell_setting 'monoclinic'
loop_
_space_group_symop_operation_xyz
x,y,z
-x,1/2+y,-z
-x,-y,-z
x,1/2-y,z
loop_
_atom_site_type_symbol
_atom_site_label
_atom_site_fract_x
_atom_site_fract_y
_atom_site_fract_z
Si Si1 0.784196 0.423318 0.562865
Si Si2 0.038995 0.075035 0.814549
Si Si3 0.267581 0.075909 0.079937
Si Si4 0.539548 0.424832 0.314098
Si Si5 0.655603 0.077106 0.854496
Si Si6 0.878761 0.924902 0.107572
Si Si7 0.379072 0.925301 0.607641
Si Si8 0.129151 0.922482 0.363015
O O1 0.753272 0.250000 0.565630
O O2 0.640817 0.522470 0.611754
O O3 0.779521 0.454395 0.629009
O O4 0.965534 0.472749 0.442157
O O5 0.057911 0.250000 0.793001
O O6 0.047529 0.037969 0.873021
O O7 0.189684 0.991818 0.702400
O O8 0.858669 0.017341 0.889941
O O9 0.221153 0.250000 0.101055
O O10 0.252335 0.023445 0.149699
O O11 0.455672 0.040446 0.957498
O O12 0.563289 0.250000 0.290822
O O13 0.688803 0.509906 0.202755
O O14 0.546402 0.463150 0.373481
O O15 0.685426 0.250000 0.854054
O O16 0.735136 0.036028 0.754849
O O17 0.870171 0.750000 0.100398
O O18 0.000000 0.000000 0.000000
O O19 0.370026 0.750000 0.601215
O O20 0.500000 0.000000 0.500000
O O21 0.069571 0.750000 0.391252
#
# Coordination Sequence:
#
# PCOD8073519 Si02
#       8
#     4   4   4   4   4   4   4   4
#     4  10  20  34  54  80 107 137 175 219 265 313
#     4  10  21  37  56  79 108 142 179 219 264 315
#     4  10  20  34  54  80 107 137 175 219 266 314
#     4  10  21  37  56  79 108 142 178 218 266 317
#     4   9  19  36  55  75 104 140 176 216 262 314
#     4  10  21  37  57  81 109 141 178 220 264 313
#     4  10  21  37  57  80 107 140 178 221 267 316
#     4   9  19  36  55  76 104 139 177 216 262 314
#
# _framework density 18.388186999999999
#
# number of rings (size 3 to 8) (size 9 to 14) (size 15 to 20)
#    0.000    2.250    0.000    2.250    0.000    6.500 
#    0.000    2.500    0.000    0.000    0.000    0.000 
#    0.000    0.000    0.000    0.000    0.000    0.000 
#
# Total GULP energy -396957.942696 kJ/mol
# GULP energy per Si atom -12404.935709 kJ/mol
# Density = 1.834633 g / cm^3
# Si number density = 18.388187 Si / 1000 Ang^3
#
#
#
# Elastic Constant Matrix: (Units=GPa)
#
#
# Indices 1 2 3 4 5 6 
#
# 1 85.5188 43.1448 56.4596 0.0000 -10.4364 0.0000
# 2 43.1448 83.4648 56.6897 0.0000 3.7731 0.0000
# 3 56.4596 56.6897 128.6198 0.0000 13.7404 0.0000
# 4 0.0000 0.0000 0.0000 37.3906 0.0000 -3.4677
# 5 -10.4364 3.7731 13.7404 0.0000 26.5938 0.0000
# 6 0.0000 0.0000 0.0000 -3.4677 0.0000 34.8259
#
#
#
# Elastic Compliance Matrix: (Units=1/GPa)
#
#
# Indices 1 2 3 4 5 6 
#
# 1 0.022164 -0.006376 -0.008409 0.000000 0.013947 0.000000
# 2 -0.006376 0.018995 -0.005311 0.000000 -0.002453 0.000000
# 3 -0.008409 -0.005311 0.014902 0.000000 -0.010246 0.000000
# 4 0.000000 0.000000 0.000000 0.026994 0.000000 0.002688
# 5 0.013947 -0.002453 -0.010246 0.000000 0.048718 0.000000
# 6 0.000000 0.000000 0.000000 0.002688 0.000000 0.028982
#
#
# Mechanical properties :
#
#
# Convention : Reuss Voigt Hill
#
# Bulk Modulus (GPa) = 63.01915 67.79905 65.40910
# Shear Modulus (GPa) = 24.24407 29.18269 26.71338
#
# Velocity S-wave (km/s) = 3.63500 3.98808 3.81563
# Velocity P-wave (km/s) = 7.20858 7.62610 7.42028
#
# Compressibility (1/GPa) = 0.01586819
#
# Stress axis : x y z
#
# Youngs Moduli (GPa) = 45.11901 52.64423 67.10722
#
# Poissons Ratio (x) = 0.33566 0.56429
# Poissons Ratio (y) = 0.28768 0.35643
# Poissons Ratio (z) = 0.37939 0.27961
#
# Static dielectric constant tensor:
#      x y z
#    x 3.351630 0.000000 0.001870 
#    y 0.000000 3.552500 0.000000 
#    z 0.001870 0.000000 3.419270 
# 
# 
# High freq. dielectric constant tensor:
#      x y z
#    x 1.710260 0.000000 -0.001920 
#    y 0.000000 1.726260 0.000000 
#    z -0.001920 0.000000 1.717260 
# 
# From -- ./inp_files/51766.got.cif
#   From: 2010.06.25/outbox.cif.g09.slc.cpg/sg11_26_cif.got.tgz:51766.got - 2010.06.27 23:14:04.
