data_PCOD8073582
_publ_section_title
;
Structure prediction by ZEFSAII (Michael W. Deem and Ramdas Pophale) SiO2 
 PCOD8073582
Probable space group: P 21/M
;
_chemical_formula_sum "Si O2"
_cell_formula_units_Z 28
_cell_length_a 19.961171
_cell_length_b 9.476055
_cell_length_c 14.870993
_cell_angle_alpha 90.000000
_cell_angle_beta 148.273401
_cell_angle_gamma 90.000000
_cell_volume 1479.207582
_symmetry_space_group_name_H-M "P 21/M"
_symmetry_group_IT_number 11
_symmetry_cell_setting 'monoclinic'
loop_
_space_group_symop_operation_xyz
x,y,z
-x,1/2+y,-z
-x,-y,-z
x,1/2-y,z
loop_
_atom_site_type_symbol
_atom_site_label
_atom_site_fract_x
_atom_site_fract_y
_atom_site_fract_z
Si Si1 0.011113 0.589210 0.602193
Si Si2 0.545031 0.413084 0.772568
Si Si3 0.129255 0.912973 0.159670
Si Si4 0.795524 0.085234 0.406697
Si Si5 0.307659 0.909258 0.520277
Si Si6 0.287907 0.590481 0.880834
Si Si7 0.375852 0.913011 0.329661
O O1 0.962719 0.750000 0.534995
O O2 0.160074 0.586636 0.796144
O O3 0.000000 0.500000 0.500000
O O4 0.922695 0.506613 0.572674
O O5 0.513646 0.250000 0.753352
O O6 0.414031 0.490504 0.600383
O O7 0.639717 0.429913 0.795865
O O8 0.606747 0.481540 0.934165
O O9 0.097536 0.750000 0.102872
O O10 0.176098 0.934294 0.316194
O O11 0.244218 0.966248 0.225513
O O12 0.000000 0.000000 0.000000
O O13 0.832707 0.250000 0.436540
O O14 0.705554 0.060799 0.388797
O O15 0.728593 0.024268 0.238451
O O16 0.353883 0.750000 0.557101
O O17 0.330275 0.750000 0.911835
O O18 0.398985 0.750000 0.383471
O O19 0.500000 0.000000 0.500000
#
# Coordination Sequence:
#
# PCOD8073582 Si02
#       7
#     4   4   4   4   4   4   4
#     4   9  16  29  50  73 101 138 178 222 268 318
#     4  10  20  34  55  80 104 138 183 225 267 326
#     4  10  22  39  58  83 114 143 181 233 284 340
#     4   9  18  33  52  72 105 148 179 216 270 323
#     4  10  21  37  54  76 108 144 180 223 279 330
#     4   8  16  31  49  74 106 137 174 219 264 312
#     4  10  20  36  59  82 107 142 182 226 277 332
#
# _framework density 18.929054000000001
#
# number of rings (size 3 to 8) (size 9 to 14) (size 15 to 20)
#    0.000    2.571    1.429    1.286    0.000    3.429 
#    0.000    5.000    0.000    0.000    0.000    0.000 
#    0.000    0.000    0.000    0.000    0.000    0.000 
#
# Total GULP energy -346889.426523 kJ/mol
# GULP energy per Si atom -12388.908090 kJ/mol
# Density = 1.888597 g / cm^3
# Si number density = 18.929054 Si / 1000 Ang^3
#
#
#
# Elastic Constant Matrix: (Units=GPa)
#
#
# Indices 1 2 3 4 5 6 
#
# 1 109.3500 41.9183 55.5709 0.0000 1.7275 0.0000
# 2 41.9183 69.2188 40.3433 0.0000 10.2102 0.0000
# 3 55.5709 40.3433 104.4103 0.0000 2.8941 0.0000
# 4 0.0000 0.0000 0.0000 26.6653 0.0000 6.7758
# 5 1.7275 10.2102 2.8941 0.0000 29.1732 0.0000
# 6 0.0000 0.0000 0.0000 6.7758 0.0000 26.8774
#
#
#
# Elastic Compliance Matrix: (Units=1/GPa)
#
#
# Indices 1 2 3 4 5 6 
#
# 1 0.013969 -0.005607 -0.005314 0.000000 0.001662 0.000000
# 2 -0.005607 0.021940 -0.005304 0.000000 -0.006821 0.000000
# 3 -0.005314 -0.005304 0.014435 0.000000 0.000739 0.000000
# 4 0.000000 0.000000 0.000000 0.040069 0.000000 -0.010101
# 5 0.001662 -0.006821 0.000739 0.000000 0.036493 0.000000
# 6 0.000000 0.000000 0.000000 -0.010101 0.000000 0.039752
#
#
# Mechanical properties :
#
#
# Convention : Reuss Voigt Hill
#
# Bulk Modulus (GPa) = 55.88816 62.07156 58.97986
# Shear Modulus (GPa) = 24.38147 26.21963 25.30055
#
# Velocity S-wave (km/s) = 3.59283 3.72580 3.65992
# Velocity P-wave (km/s) = 6.84108 7.16740 7.00614
#
# Compressibility (1/GPa) = 0.01789288
#
# Stress axis : x y z
#
# Youngs Moduli (GPa) = 71.58811 45.57855 69.27635
#
# Poissons Ratio (x) = 0.25557 0.36815
# Poissons Ratio (y) = 0.40142 0.36744
# Poissons Ratio (z) = 0.38043 0.24175
#
# Static dielectric constant tensor:
#      x y z
#    x 3.868300 0.000000 0.053470 
#    y 0.000000 3.575920 0.000000 
#    z 0.053470 0.000000 3.594000 
# 
# 
# High freq. dielectric constant tensor:
#      x y z
#    x 1.738230 0.000000 -0.005880 
#    y 0.000000 1.718140 0.000000 
#    z -0.005880 0.000000 1.723820 
# 
# From -- ./inp_files/54623.got.cif
#   From: 2010.06.25/outbox.cif.g09.slc.cpg/sg11_28_cif.got.tgz:54623.got - 2010.06.27 23:14:04.
