data_PCOD8073407
_publ_section_title
;
Structure prediction by ZEFSAII (Michael W. Deem and Ramdas Pophale) SiO2 
 PCOD8073407
Probable space group: P 21/M
;
_chemical_formula_sum "Si O2"
_cell_formula_units_Z 32
_cell_length_a 6.962563
_cell_length_b 9.116837
_cell_length_c 28.071845
_cell_angle_alpha 90.000000
_cell_angle_beta 91.634723
_cell_angle_gamma 90.000000
_cell_volume 1781.178711
_symmetry_space_group_name_H-M "P 21/M"
_symmetry_group_IT_number 11
_symmetry_cell_setting 'monoclinic'
loop_
_space_group_symop_operation_xyz
x,y,z
-x,1/2+y,-z
-x,-y,-z
x,1/2-y,z
loop_
_atom_site_type_symbol
_atom_site_label
_atom_site_fract_x
_atom_site_fract_y
_atom_site_fract_z
Si Si1 0.491530 0.419146 0.570580
Si Si2 0.799124 0.079054 0.494205
Si Si3 0.225759 0.920195 0.743924
Si Si4 0.800748 0.920542 0.006601
Si Si5 0.172975 0.921287 0.243643
Si Si6 0.503233 0.080708 0.679715
Si Si7 0.477075 0.919799 0.928602
Si Si8 0.550804 0.919629 0.821675
O O1 0.431060 0.250000 0.564234
O O2 0.313909 0.517247 0.552194
O O3 0.680749 0.454570 0.541366
O O4 0.540048 0.459152 0.625161
O O5 0.834077 0.250000 0.486630
O O6 0.000000 0.000000 0.500000
O O7 0.184543 0.750000 0.735263
O O8 0.357133 0.948559 0.790904
O O9 0.328487 0.983297 0.697749
O O10 0.028498 0.002125 0.750668
O O11 0.838457 0.750000 0.015474
O O12 0.670234 0.949760 0.959503
O O13 0.698501 0.985382 0.052563
O O14 0.000000 0.000000 0.000000
O O15 0.139842 0.750000 0.235858
O O16 0.301468 0.955713 0.290893
O O17 0.274805 0.984892 0.197448
O O18 0.445295 0.250000 0.686159
O O19 0.416359 0.750000 0.930751
O O20 0.514244 0.971050 0.875144
O O21 0.612577 0.750000 0.819631
#
# Coordination Sequence:
#
# PCOD8073407 Si02
#       8
#     4   4   4   4   4   4   4   4
#     4   9  19  36  55  74 100 135 173 212 253 299
#     4  10  20  34  53  78 106 136 171 211 256 304
#     4  10  20  34  53  77 104 133 167 210 256 300
#     4  10  20  34  53  76 103 133 167 210 256 304
#     4  10  20  34  53  77 105 136 170 209 253 304
#     4   9  19  36  55  74  99 134 173 210 251 300
#     4   9  19  36  55  74  99 134 173 210 252 303
#     4   9  19  36  55  74 100 135 173 212 253 300
#
# _framework density 17.965630999999998
#
# number of rings (size 3 to 8) (size 9 to 14) (size 15 to 20)
#    0.000    2.500    0.000    1.500    0.000    5.000 
#    0.000    7.500    0.000    0.000    0.000    0.000 
#    0.000    0.000    0.000    0.000    0.000    0.000 
#
# Total GULP energy -396927.062658 kJ/mol
# GULP energy per Si atom -12403.970708 kJ/mol
# Density = 1.792474 g / cm^3
# Si number density = 17.965631 Si / 1000 Ang^3
#
#
#
# Elastic Constant Matrix: (Units=GPa)
#
#
# Indices 1 2 3 4 5 6 
#
# 1 135.7039 76.8593 50.5757 0.0000 -13.6608 0.0000
# 2 76.8593 100.8697 49.7684 0.0000 -10.2139 0.0000
# 3 50.5757 49.7684 130.1139 0.0000 -11.8186 0.0000
# 4 0.0000 0.0000 0.0000 30.1005 0.0000 -3.2728
# 5 -13.6608 -10.2139 -11.8186 0.0000 15.2794 0.0000
# 6 0.0000 0.0000 0.0000 -3.2728 0.0000 40.4839
#
#
#
# Elastic Compliance Matrix: (Units=1/GPa)
#
#
# Indices 1 2 3 4 5 6 
#
# 1 0.013557 -0.009182 -0.001306 0.000000 0.004973 0.000000
# 2 -0.009182 0.018789 -0.003466 0.000000 0.001670 0.000000
# 3 -0.001306 -0.003466 0.009898 0.000000 0.004172 0.000000
# 4 0.000000 0.000000 0.000000 0.033517 0.000000 0.002710
# 5 0.004973 0.001670 0.004172 0.000000 0.074237 0.000000
# 6 0.000000 0.000000 0.000000 0.002710 0.000000 0.024920
#
#
# Mechanical properties :
#
#
# Convention : Reuss Voigt Hill
#
# Bulk Modulus (GPa) = 69.75385 80.12159 74.93772
# Shear Modulus (GPa) = 24.08435 29.80502 26.94469
#
# Velocity S-wave (km/s) = 3.66536 4.07750 3.87691
# Velocity P-wave (km/s) = 7.53815 8.17692 7.86402
#
# Compressibility (1/GPa) = 0.01433613
#
# Stress axis : x y z
#
# Youngs Moduli (GPa) = 73.76465 53.22158 101.03204
#
# Poissons Ratio (x) = 0.48868 0.13192
# Poissons Ratio (y) = 0.67730 0.35020
# Poissons Ratio (z) = 0.09632 0.18448
#
# Static dielectric constant tensor:
#      x y z
#    x 3.270010 0.000000 -0.019810 
#    y 0.000000 3.433520 0.000000 
#    z -0.019810 0.000000 3.449170 
# 
# 
# High freq. dielectric constant tensor:
#      x y z
#    x 1.696130 0.000000 -0.003080 
#    y 0.000000 1.703840 0.000000 
#    z -0.003080 0.000000 1.696960 
# 
# From -- ./inp_files/72582.got.cif
#   From: 2010.06.25/outbox.cif.g09.slc.cpg/sg11_37_cif.got.tgz:72582.got - 2010.06.27 23:14:04.
