data_PCOD8073894
_publ_section_title
;
Structure prediction by ZEFSAII (Michael W. Deem and Ramdas Pophale) SiO2 
 PCOD8073894
Probable space group: P 21/M
;
_chemical_formula_sum "Si O2"
_cell_formula_units_Z 28
_cell_length_a 26.381824
_cell_length_b 9.061746
_cell_length_c 9.148848
_cell_angle_alpha 90.000000
_cell_angle_beta 42.586370
_cell_angle_gamma 90.000000
_cell_volume 1480.061741
_symmetry_space_group_name_H-M "P 21/M"
_symmetry_group_IT_number 11
_symmetry_cell_setting 'monoclinic'
loop_
_space_group_symop_operation_xyz
x,y,z
-x,1/2+y,-z
-x,-y,-z
x,1/2-y,z
loop_
_atom_site_type_symbol
_atom_site_label
_atom_site_fract_x
_atom_site_fract_y
_atom_site_fract_z
Si Si1 0.411903 0.077744 0.327878
Si Si2 0.831714 0.422017 0.473509
Si Si3 0.283587 0.920281 0.767407
Si Si4 0.438449 0.077414 0.937478
Si Si5 0.865196 0.078425 0.079160
Si Si6 0.307989 0.575942 0.051074
Si Si7 0.994500 0.077796 0.166240
O O1 0.423117 0.250000 0.333434
O O2 0.334649 0.023329 0.559517
O O3 0.479778 0.991587 0.260532
O O4 0.409031 0.041827 0.162113
O O5 0.815601 0.250000 0.496046
O O6 0.837373 0.484558 0.295980
O O7 0.761523 0.491975 0.708687
O O8 0.908822 0.450065 0.401788
O O9 0.304211 0.750000 0.692431
O O10 0.197503 0.951754 0.908838
O O11 0.293548 0.962785 0.913928
O O12 0.443806 0.250000 0.894719
O O13 0.383504 0.004368 0.937741
O O14 0.885105 0.250000 0.051213
O O15 0.941573 0.994614 0.866480
O O16 0.317309 0.750000 0.055500
O O17 0.011054 0.250000 0.115056
O O18 0.000000 0.000000 0.000000
#
# Coordination Sequence:
#
# PCOD8073894 Si02
#       7
#     4   4   4   4   4   4   4
#     4  10  21  37  58  81 104 133 170 212 258 307
#     4   8  15  29  50  72  97 131 169 209 253 300
#     4  10  21  35  53  77 106 140 175 211 255 307
#     4  10  21  37  57  81 105 131 168 213 259 306
#     4   9  17  31  50  73 101 134 171 212 257 303
#     4  10  20  35  54  76 104 140 177 211 253 306
#     4   9  16  28  48  74 100 129 168 214 261 304
#
# _framework density 18.918129
#
# number of rings (size 3 to 8) (size 9 to 14) (size 15 to 20)
#    0.000    2.571    0.000    3.000    0.000    4.571 
#    0.000    5.714    0.000    0.000    0.000    0.000 
#    0.000    0.000    0.000    0.000    0.000    0.000 
#
# Total GULP energy -347132.778855 kJ/mol
# GULP energy per Si atom -12397.599245 kJ/mol
# Density = 1.887507 g / cm^3
# Si number density = 18.918129 Si / 1000 Ang^3
#
#
#
# Elastic Constant Matrix: (Units=GPa)
#
#
# Indices 1 2 3 4 5 6 
#
# 1 137.9003 47.8811 27.7133 0.0000 -14.5022 0.0000
# 2 47.8811 65.6995 18.0605 0.0000 -6.5249 0.0000
# 3 27.7133 18.0605 25.8982 0.0000 -7.5297 0.0000
# 4 0.0000 0.0000 0.0000 24.7013 0.0000 -7.9252
# 5 -14.5022 -6.5249 -7.5297 0.0000 23.2642 0.0000
# 6 0.0000 0.0000 0.0000 -7.9252 0.0000 32.6887
#
#
#
# Elastic Compliance Matrix: (Units=1/GPa)
#
#
# Indices 1 2 3 4 5 6 
#
# 1 0.010951 -0.005817 -0.006791 0.000000 0.002997 0.000000
# 2 -0.005817 0.021947 -0.009213 0.000000 -0.000452 0.000000
# 3 -0.006791 -0.009213 0.055549 0.000000 0.011162 0.000000
# 4 0.000000 0.000000 0.000000 0.043898 0.000000 0.010643
# 5 0.002997 -0.000452 0.011162 0.000000 0.048339 0.000000
# 6 0.000000 0.000000 0.000000 0.010643 0.000000 0.033172
#
#
# Mechanical properties :
#
#
# Convention : Reuss Voigt Hill
#
# Bulk Modulus (GPa) = 22.31754 46.31198 34.31476
# Shear Modulus (GPa) = 18.35310 25.18705 21.77007
#
# Velocity S-wave (km/s) = 3.11807 3.65275 3.39595
# Velocity P-wave (km/s) = 4.97852 6.50565 5.79263
#
# Compressibility (1/GPa) = 0.04480780
#
# Stress axis : x y z
#
# Youngs Moduli (GPa) = 91.31413 45.56329 18.00199
#
# Poissons Ratio (x) = 0.26502 0.12225
# Poissons Ratio (y) = 0.53114 0.16584
# Poissons Ratio (z) = 0.62011 0.41975
#
# Static dielectric constant tensor:
#      x y z
#    x 9.988780 0.000000 -0.624550 
#    y 0.000000 3.405960 0.000000 
#    z -0.624550 0.000000 3.515160 
# 
# 
# High freq. dielectric constant tensor:
#      x y z
#    x 1.738960 0.000000 -0.023200 
#    y 0.000000 1.721030 0.000000 
#    z -0.023200 0.000000 1.720880 
# 
# From -- ./inp_files/28414.got.cif
#   From: 2010.06.25/outbox.cif.g09.slc.cpg/sg11_15_cif.got.tgz:28414.got - 2010.06.27 23:14:04.
