data_PCOD8073986
_publ_section_title
;
Structure prediction by ZEFSAII (Michael W. Deem and Ramdas Pophale) SiO2 
 PCOD8073986
Probable space group: P 21/M
;
_chemical_formula_sum "Si O2"
_cell_formula_units_Z 32
_cell_length_a 16.011287
_cell_length_b 9.391435
_cell_length_c 24.516999
_cell_angle_alpha 90.000000
_cell_angle_beta 27.096475
_cell_angle_gamma 90.000000
_cell_volume 1679.207970
_symmetry_space_group_name_H-M "P 21/M"
_symmetry_group_IT_number 11
_symmetry_cell_setting 'monoclinic'
loop_
_space_group_symop_operation_xyz
x,y,z
-x,1/2+y,-z
-x,-y,-z
x,1/2-y,z
loop_
_atom_site_type_symbol
_atom_site_label
_atom_site_fract_x
_atom_site_fract_y
_atom_site_fract_z
Si Si1 0.112327 0.086269 0.478885
Si Si2 0.464259 0.586493 0.762562
Si Si3 0.721772 0.080750 0.020364
Si Si4 0.545255 0.583149 0.919448
Si Si5 0.234675 0.587162 0.596687
Si Si6 0.870950 0.585538 0.238800
Si Si7 0.433100 0.414025 0.671351
Si Si8 0.964768 0.588370 0.660709
O O1 0.048854 0.250000 0.515203
O O2 0.325629 0.072027 0.341236
O O3 0.000000 0.000000 0.500000
O O4 0.077171 0.020410 0.558453
O O5 0.414954 0.750000 0.778906
O O6 0.344393 0.524070 0.882282
O O7 0.417007 0.499173 0.736412
O O8 0.716623 0.250000 0.024707
O O9 0.586174 0.025368 0.051978
O O10 0.925876 0.023392 0.889697
O O11 0.516752 0.750000 0.946904
O O12 0.752306 0.548539 0.781976
O O13 0.500000 0.500000 0.000000
O O14 0.274840 0.750000 0.589797
O O15 0.229471 0.496308 0.654349
O O16 0.398494 0.528900 0.463212
O O17 0.041323 0.572358 0.677551
O O18 0.880473 0.750000 0.250501
O O19 0.756723 0.564523 0.250109
O O20 0.469134 0.250000 0.665211
O O21 0.996248 0.750000 0.621349
#
# Coordination Sequence:
#
# PCOD8073986 Si02
#       8
#     4   4   4   4   4   4   4   4
#     4  11  22  35  55  82 109 142 183 225 271 330
#     4  10  21  38  59  81 109 147 188 227 274 334
#     4   9  19  37  56  78 111 147 183 229 276 321
#     4  10  20  35  56  80 111 149 187 228 274 327
#     4  10  20  35  55  80 114 145 177 232 288 329
#     4  10  21  36  57  81 108 146 189 229 275 336
#     4  10  21  37  56  82 113 145 181 229 287 330
#     4  10  20  35  55  79 110 147 182 224 279 330
#
# _framework density 19.056604
#
# number of rings (size 3 to 8) (size 9 to 14) (size 15 to 20)
#    0.000    2.000    1.250    2.250    0.000    5.000 
#    0.000    1.250    0.000    0.000    0.000    0.000 
#    0.000    0.000    0.000    0.000    0.000    0.000 
#
# Total GULP energy -396913.910614 kJ/mol
# GULP energy per Si atom -12403.559707 kJ/mol
# Density = 1.901323 g / cm^3
# Si number density = 19.056604 Si / 1000 Ang^3
#
#
#
# Elastic Constant Matrix: (Units=GPa)
#
#
# Indices 1 2 3 4 5 6 
#
# 1 108.1634 39.4063 54.4588 0.0000 11.7169 0.0000
# 2 39.4063 62.9579 34.9494 0.0000 14.2658 0.0000
# 3 54.4588 34.9494 113.1993 0.0000 8.3889 0.0000
# 4 0.0000 0.0000 0.0000 23.3835 0.0000 8.3006
# 5 11.7169 14.2658 8.3889 0.0000 41.0580 0.0000
# 6 0.0000 0.0000 0.0000 8.3006 0.0000 33.1994
#
#
#
# Elastic Compliance Matrix: (Units=1/GPa)
#
#
# Indices 1 2 3 4 5 6 
#
# 1 0.013889 -0.005799 -0.004820 0.000000 -0.000964 0.000000
# 2 -0.005799 0.022915 -0.003876 0.000000 -0.005515 0.000000
# 3 -0.004820 -0.003876 0.012335 0.000000 0.000202 0.000000
# 4 0.000000 0.000000 0.000000 0.046930 0.000000 -0.011734
# 5 -0.000964 -0.005515 0.000202 0.000000 0.026506 0.000000
# 6 0.000000 0.000000 0.000000 -0.011734 0.000000 0.033055
#
#
# Mechanical properties :
#
#
# Convention : Reuss Voigt Hill
#
# Bulk Modulus (GPa) = 49.63332 60.21661 54.92497
# Shear Modulus (GPa) = 26.13194 29.89525 28.01359
#
# Velocity S-wave (km/s) = 3.70710 3.96506 3.83824
# Velocity P-wave (km/s) = 6.66522 7.25463 6.96616
#
# Compressibility (1/GPa) = 0.02014775
#
# Stress axis : x y z
#
# Youngs Moduli (GPa) = 71.99747 43.63965 81.07304
#
# Poissons Ratio (x) = 0.25309 0.39078
# Poissons Ratio (y) = 0.41755 0.31424
# Poissons Ratio (z) = 0.34703 0.16915
#
# Static dielectric constant tensor:
#      x y z
#    x 3.495330 0.000000 -0.221710 
#    y 0.000000 3.362940 0.000000 
#    z -0.221710 0.000000 2.121430 
# 
# 
# High freq. dielectric constant tensor:
#      x y z
#    x 1.750550 0.000000 -0.005510 
#    y 0.000000 1.721760 0.000000 
#    z -0.005510 0.000000 1.747220 
# 
# From -- ./inp_files/55678.got.cif
#   From: 2010.06.25/outbox.cif.g09.slc.cpg/sg11_28_cif.got.tgz:55678.got - 2010.06.27 23:14:04.
