data_PCOD8073882
_publ_section_title
;
Structure prediction by ZEFSAII (Michael W. Deem and Ramdas Pophale) SiO2 
 PCOD8073882
Probable space group: P 21/M
;
_chemical_formula_sum "Si O2"
_cell_formula_units_Z 28
_cell_length_a 20.908454
_cell_length_b 9.101253
_cell_length_c 9.605894
_cell_angle_alpha 90.000000
_cell_angle_beta 120.023966
_cell_angle_gamma 90.000000
_cell_volume 1582.656256
_symmetry_space_group_name_H-M "P 21/M"
_symmetry_group_IT_number 11
_symmetry_cell_setting 'monoclinic'
loop_
_space_group_symop_operation_xyz
x,y,z
-x,1/2+y,-z
-x,-y,-z
x,1/2-y,z
loop_
_atom_site_type_symbol
_atom_site_label
_atom_site_fract_x
_atom_site_fract_y
_atom_site_fract_z
Si Si1 0.926879 0.581300 0.075327
Si Si2 0.796310 0.577254 0.137604
Si Si3 0.660393 0.587417 0.314905
Si Si4 0.075266 0.419864 0.249383
Si Si5 0.501095 0.921324 0.147916
Si Si6 0.364655 0.087448 0.041178
Si Si7 0.803239 0.076081 0.437474
O O1 0.949793 0.750000 0.127998
O O2 0.855549 0.535265 0.085795
O O3 0.993224 0.476354 0.194729
O O4 0.906632 0.557106 0.892755
O O5 0.797123 0.750000 0.176138
O O6 0.715209 0.533752 0.988042
O O7 0.814653 0.488134 0.296457
O O8 0.687312 0.750000 0.390365
O O9 0.582036 0.548925 0.306072
O O10 0.643296 0.587233 0.133230
O O11 0.724774 0.472149 0.419862
O O12 0.081241 0.250000 0.300424
O O13 0.131928 0.517520 0.395877
O O14 0.488302 0.750000 0.110174
O O15 0.500000 0.000000 0.000000
O O16 0.432578 0.983815 0.164960
O O17 0.382998 0.250000 0.116863
O O18 0.806230 0.250000 0.433967
#
# Coordination Sequence:
#
# PCOD8073882 Si02
#       7
#     4   4   4   4   4   4   4
#     4   9  19  36  56  74  92 120 159 196 232 280
#     4   9  18  33  50  70  98 127 156 194 237 279
#     4   8  15  27  40  58  88 124 157 191 232 273
#     4  10  20  35  54  73  95 123 154 193 239 282
#     4   9  15  22  35  56  85 120 154 187 225 270
#     4   8  14  24  39  60  88 120 150 184 228 274
#     4  11  21  31  47  72  99 127 159 194 234 280
#
# _framework density 17.691776000000001
#
# number of rings (size 3 to 8) (size 9 to 14) (size 15 to 20)
#    0.000    2.857    0.000    3.857    0.000    7.429 
#    0.000    0.000    0.000    0.000    0.000    1.000 
#    0.000    0.000    0.000    0.000    0.000    0.000 
#
# Total GULP energy -346996.220942 kJ/mol
# GULP energy per Si atom -12392.722177 kJ/mol
# Density = 1.765151 g / cm^3
# Si number density = 17.691776 Si / 1000 Ang^3
#
#
#
# Elastic Constant Matrix: (Units=GPa)
#
#
# Indices 1 2 3 4 5 6 
#
# 1 128.3285 70.0550 74.0155 0.0000 41.0190 0.0000
# 2 70.0550 108.6321 40.7854 0.0000 17.4821 0.0000
# 3 74.0155 40.7854 34.7687 0.0000 15.2066 0.0000
# 4 0.0000 0.0000 0.0000 23.7590 0.0000 11.3759
# 5 41.0190 17.4821 15.2066 0.0000 19.4292 0.0000
# 6 0.0000 0.0000 0.0000 11.3759 0.0000 26.6573
#
#
#
# Elastic Compliance Matrix: (Units=1/GPa)
#
#
# Indices 1 2 3 4 5 6 
#
# 1 -0.025264 -0.006870 0.054448 0.000000 0.016905 0.000000
# 2 -0.006870 0.014585 -0.004694 0.000000 0.005056 0.000000
# 3 0.054448 -0.004694 -0.050499 0.000000 -0.071203 0.000000
# 4 0.000000 0.000000 0.000000 0.052898 0.000000 -0.022574
# 5 0.016905 0.005056 -0.071203 0.000000 0.066958 0.000000
# 6 0.000000 0.000000 0.000000 -0.022574 0.000000 0.047147
#
#
# Mechanical properties :
#
#
# Convention : Reuss Voigt Hill
#
# Bulk Modulus (GPa) = 40.66962 71.27122 55.97042
# Shear Modulus (GPa) = 176.96617 19.76066 98.36342
#
# Velocity S-wave (km/s) = 10.01222 3.34569 7.46452
# Velocity P-wave (km/s) = 12.51787 7.43621 10.29549
#
# Compressibility (1/GPa) = 0.02458838
#
# Stress axis : x y z
#
# Youngs Moduli (GPa) = -39.58158 68.56438 -19.80249
#
# Poissons Ratio (x) = 0.47106 1.07821
# Poissons Ratio (y) = -0.27194 -0.09296
# Poissons Ratio (z) = 2.15514 0.32187
#
# Static dielectric constant tensor:
#      x y z
#    x 3.969980 0.000000 0.675810 
#    y 0.000000 3.969700 0.000000 
#    z 0.675810 0.000000 3.125540 
# 
# 
# High freq. dielectric constant tensor:
#      x y z
#    x 1.681990 0.000000 0.041560 
#    y 0.000000 1.686250 0.000000 
#    z 0.041560 0.000000 1.646880 
# 
# From -- ./inp_files/42602.got.cif
#   From: 2010.06.25/outbox.cif.g09.slc.cpg/sg11_22_cif.got.tgz:42602.got - 2010.06.27 23:14:04.
