data_PCOD8073457
_publ_section_title
;
Structure prediction by ZEFSAII (Michael W. Deem and Ramdas Pophale) SiO2 
 PCOD8073457
Probable space group: P 21/M
;
_chemical_formula_sum "Si O2"
_cell_formula_units_Z 32
_cell_length_a 14.766780
_cell_length_b 8.749406
_cell_length_c 15.122627
_cell_angle_alpha 90.000000
_cell_angle_beta 120.803228
_cell_angle_gamma 90.000000
_cell_volume 1678.223955
_symmetry_space_group_name_H-M "P 21/M"
_symmetry_group_IT_number 11
_symmetry_cell_setting 'monoclinic'
loop_
_space_group_symop_operation_xyz
x,y,z
-x,1/2+y,-z
-x,-y,-z
x,1/2-y,z
loop_
_atom_site_type_symbol
_atom_site_label
_atom_site_fract_x
_atom_site_fract_y
_atom_site_fract_z
Si Si1 0.274466 0.926925 0.998446
Si Si2 0.435134 0.568295 0.223830
Si Si3 0.217014 0.069485 0.793298
Si Si4 0.226502 0.431137 0.441146
Si Si5 0.963788 0.072316 0.072236
Si Si6 0.328684 0.068206 0.674204
Si Si7 0.983376 0.430633 0.722894
Si Si8 0.397534 0.931385 0.403006
O O1 0.296944 0.750000 0.993075
O O2 0.160355 0.955016 0.982775
O O3 0.285441 0.009460 0.909781
O O4 0.358656 0.997592 0.109418
O O5 0.434607 0.750000 0.220271
O O6 0.552357 0.504284 0.264943
O O7 0.395057 0.514436 0.299850
O O8 0.223432 0.250000 0.798233
O O9 0.266032 0.002555 0.727513
O O10 0.095607 0.015637 0.739135
O O11 0.234380 0.250000 0.435872
O O12 0.272538 0.489628 0.557236
O O13 0.105943 0.485203 0.378176
O O14 0.291350 0.507540 0.394312
O O15 0.993710 0.250000 0.091762
O O16 0.025243 0.983978 0.180197
O O17 0.000000 0.000000 0.000000
O O18 0.328977 0.250000 0.676534
O O19 0.967565 0.250000 0.709315
O O20 0.403103 0.750000 0.413747
O O21 0.500000 0.000000 0.500000
#
# Coordination Sequence:
#
# PCOD8073457 Si02
#       8
#     4   4   4   4   4   4   4   4
#     4   9  19  35  55  79 109 144 182 225 276 334
#     4   9  18  34  56  81 110 148 183 215 273 339
#     4   9  19  37  59  80 108 146 186 232 281 331
#     4  11  22  37  57  84 113 148 190 232 280 340
#     4  10  20  34  53  79 110 146 187 231 281 335
#     4   9  18  35  58  81 109 147 187 226 280 341
#     4  10  21  37  55  79 111 146 187 235 285 335
#     4  11  21  36  58  82 114 153 188 229 278 332
#
# _framework density 19.067775999999999
#
# number of rings (size 3 to 8) (size 9 to 14) (size 15 to 20)
#    0.000    2.250    1.250    1.500    1.750    2.000 
#    0.000    2.500    0.000    0.000    0.000    0.000 
#    0.000    0.000    0.000    0.000    0.000    0.000 
#
# Total GULP energy -396860.860938 kJ/mol
# GULP energy per Si atom -12401.901904 kJ/mol
# Density = 1.902438 g / cm^3
# Si number density = 19.067776 Si / 1000 Ang^3
#
#
#
# Elastic Constant Matrix: (Units=GPa)
#
#
# Indices 1 2 3 4 5 6 
#
# 1 122.9354 29.1883 87.5447 0.0000 -17.9499 0.0000
# 2 29.1883 42.7784 26.8888 0.0000 -1.1949 0.0000
# 3 87.5447 26.8888 156.5989 0.0000 5.1777 0.0000
# 4 0.0000 0.0000 0.0000 30.0042 0.0000 1.1998
# 5 -17.9499 -1.1949 5.1777 0.0000 38.2528 0.0000
# 6 0.0000 0.0000 0.0000 1.1998 0.0000 23.6762
#
#
#
# Elastic Compliance Matrix: (Units=1/GPa)
#
#
# Indices 1 2 3 4 5 6 
#
# 1 0.017202 -0.005885 -0.008907 0.000000 0.009094 0.000000
# 2 -0.005885 0.028296 -0.001514 0.000000 -0.001673 0.000000
# 3 -0.008907 -0.001514 0.011818 0.000000 -0.005826 0.000000
# 4 0.000000 0.000000 0.000000 0.033396 0.000000 -0.001692
# 5 0.009094 -0.001673 -0.005826 0.000000 0.031145 0.000000
# 6 0.000000 0.000000 0.000000 -0.001692 0.000000 0.042322
#
#
# Mechanical properties :
#
#
# Convention : Reuss Voigt Hill
#
# Bulk Modulus (GPa) = 40.47667 67.72849 54.10258
# Shear Modulus (GPa) = 24.38725 30.29936 27.34330
#
# Velocity S-wave (km/s) = 3.58016 3.99059 3.79094
# Velocity P-wave (km/s) = 6.19386 7.53857 6.89906
#
# Compressibility (1/GPa) = 0.02470559
#
# Stress axis : x y z
#
# Youngs Moduli (GPa) = 58.13250 35.34049 84.62011
#
# Poissons Ratio (x) = 0.20797 0.75370
# Poissons Ratio (y) = 0.34209 0.12807
# Poissons Ratio (z) = 0.51778 0.05349
#
# Static dielectric constant tensor:
#      x y z
#    x 3.693160 0.000000 0.002830 
#    y 0.000000 3.290050 0.000000 
#    z 0.002830 0.000000 3.756450 
# 
# 
# High freq. dielectric constant tensor:
#      x y z
#    x 1.745400 0.000000 -0.000140 
#    y 0.000000 1.720570 0.000000 
#    z -0.000140 0.000000 1.752000 
# 
# From -- ./inp_files/51641.got.cif
#   From: 2010.06.25/outbox.cif.g09.slc.cpg/sg11_26_cif.got.tgz:51641.got - 2010.06.27 23:14:04.
