data_PCOD8073614
_publ_section_title
;
Structure prediction by ZEFSAII (Michael W. Deem and Ramdas Pophale) SiO2 
 PCOD8073614
Probable space group: P 21/M
;
_chemical_formula_sum "Si O2"
_cell_formula_units_Z 28
_cell_length_a 14.432826
_cell_length_b 13.880098
_cell_length_c 14.214055
_cell_angle_alpha 90.000000
_cell_angle_beta 30.759089
_cell_angle_gamma 90.000000
_cell_volume 1456.289098
_symmetry_space_group_name_H-M "P 21/M"
_symmetry_group_IT_number 11
_symmetry_cell_setting 'monoclinic'
loop_
_space_group_symop_operation_xyz
x,y,z
-x,1/2+y,-z
-x,-y,-z
x,1/2-y,z
loop_
_atom_site_type_symbol
_atom_site_label
_atom_site_fract_x
_atom_site_fract_y
_atom_site_fract_z
Si Si1 0.038381 0.137873 0.496643
Si Si2 0.884113 0.636586 0.042655
Si Si3 0.185920 0.513926 0.042579
Si Si4 0.717097 0.000508 0.831398
Si Si5 0.256107 0.637387 0.813495
Si Si6 0.137181 0.359171 0.616998
Si Si7 0.376486 0.360772 0.574949
O O1 0.005927 0.250000 0.501504
O O2 0.155375 0.122714 0.489816
O O3 0.836182 0.089736 0.683466
O O4 0.169698 0.093221 0.302104
O O5 0.872764 0.750000 0.036824
O O6 0.737086 0.588735 0.242836
O O7 0.854235 0.590619 0.966577
O O8 0.073011 0.605024 0.923540
O O9 0.288278 0.502319 0.051351
O O10 0.998619 0.566949 0.219390
O O11 0.298953 0.579327 0.871507
O O12 0.500000 0.000000 0.000000
O O13 0.258150 0.750000 0.837658
O O14 0.413132 0.612218 0.600844
O O15 0.067725 0.250000 0.694961
O O16 0.320091 0.380374 0.515252
O O17 0.339559 0.250000 0.629450
#
# Coordination Sequence:
#
# PCOD8073614 Si02
#       7
#     4   4   4   4   4   4   4
#     4   9  20  40  62  82 114 156 193 238 299 351
#     4  10  21  38  52  74 115 150 183 225 267 329
#     4  11  21  35  57  82 109 149 186 226 286 337
#     4  10  23  40  58  89 121 147 195 252 290 343
#     4  10  20  34  55  82 109 140 182 229 279 333
#     4   9  17  33  57  83 110 140 179 231 281 332
#     4   9  18  32  51  78 111 140 174 222 269 325
#
# _framework density 19.226951
#
# number of rings (size 3 to 8) (size 9 to 14) (size 15 to 20)
#    0.000    2.286    1.429    0.857    2.000    2.286 
#    0.000    0.000    0.000    1.714    0.000    0.000 
#    0.000    0.000    0.000    0.000    0.000    0.000 
#
# Total GULP energy -346877.400811 kJ/mol
# GULP energy per Si atom -12388.478600 kJ/mol
# Density = 1.918319 g / cm^3
# Si number density = 19.226951 Si / 1000 Ang^3
#
#
#
# Elastic Constant Matrix: (Units=GPa)
#
#
# Indices 1 2 3 4 5 6 
#
# 1 100.8203 41.2322 58.8333 0.0000 0.4519 0.0000
# 2 41.2322 85.2753 46.7441 0.0000 -2.6687 0.0000
# 3 58.8333 46.7441 117.2023 0.0000 -11.0881 0.0000
# 4 0.0000 0.0000 0.0000 23.1563 0.0000 10.2249
# 5 0.4519 -2.6687 -11.0881 0.0000 19.5677 0.0000
# 6 0.0000 0.0000 0.0000 10.2249 0.0000 24.0152
#
#
#
# Elastic Compliance Matrix: (Units=1/GPa)
#
#
# Indices 1 2 3 4 5 6 
#
# 1 0.015413 -0.003988 -0.006584 0.000000 -0.004631 0.000000
# 2 -0.003988 0.016077 -0.004432 0.000000 -0.000226 0.000000
# 3 -0.006584 -0.004432 0.014330 0.000000 0.007668 0.000000
# 4 0.000000 0.000000 0.000000 0.053183 0.000000 -0.022644
# 5 -0.004631 -0.000226 0.007668 0.000000 0.055526 0.000000
# 6 0.000000 0.000000 0.000000 -0.022644 0.000000 0.051281
#
#
# Mechanical properties :
#
#
# Convention : Reuss Voigt Hill
#
# Bulk Modulus (GPa) = 63.24240 66.32412 64.78326
# Shear Modulus (GPa) = 20.73920 23.78040 22.25980
#
# Velocity S-wave (km/s) = 3.28785 3.52067 3.40625
# Velocity P-wave (km/s) = 6.88311 7.14822 7.01692
#
# Compressibility (1/GPa) = 0.01581218
#
# Stress axis : x y z
#
# Youngs Moduli (GPa) = 64.88172 62.20031 69.78143
#
# Poissons Ratio (x) = 0.24805 0.45947
# Poissons Ratio (y) = 0.25874 0.30924
# Poissons Ratio (z) = 0.42721 0.27565
#
# Static dielectric constant tensor:
#      x y z
#    x 3.591150 0.000000 0.169470 
#    y 0.000000 3.588710 0.000000 
#    z 0.169470 0.000000 3.715560 
# 
# 
# High freq. dielectric constant tensor:
#      x y z
#    x 1.733580 0.000000 0.004660 
#    y 0.000000 1.751030 0.000000 
#    z 0.004660 0.000000 1.751080 
# 
# From -- ./inp_files/52451.got.cif
#   From: 2010.06.25/outbox.cif.g09.slc.cpg/sg11_27_cif.got.tgz:52451.got - 2010.06.27 23:14:04.
