data_PCOD8073201
_publ_section_title
;
Structure prediction by ZEFSAII (Michael W. Deem and Ramdas Pophale) SiO2 
 PCOD8073201
Probable space group: P 21/M
;
_chemical_formula_sum "Si O2"
_cell_formula_units_Z 32
_cell_length_a 21.456847
_cell_length_b 9.211937
_cell_length_c 14.265706
_cell_angle_alpha 90.000000
_cell_angle_beta 35.533766
_cell_angle_gamma 90.000000
_cell_volume 1638.787955
_symmetry_space_group_name_H-M "P 21/M"
_symmetry_group_IT_number 11
_symmetry_cell_setting 'monoclinic'
loop_
_space_group_symop_operation_xyz
x,y,z
-x,1/2+y,-z
-x,-y,-z
x,1/2-y,z
loop_
_atom_site_type_symbol
_atom_site_label
_atom_site_fract_x
_atom_site_fract_y
_atom_site_fract_z
Si Si1 0.713068 0.591885 0.891448
Si Si2 0.546849 0.918667 0.651630
Si Si3 0.946444 0.578733 0.285947
Si Si4 0.337567 0.417010 0.842115
Si Si5 0.209552 0.078454 0.686399
Si Si6 0.070733 0.087620 0.484340
Si Si7 0.829231 0.077163 0.078917
Si Si8 0.474315 0.914415 0.939789
O O1 0.655239 0.750000 0.949036
O O2 0.813273 0.589304 0.701928
O O3 0.735935 0.573367 0.974318
O O4 0.644386 0.454708 0.946103
O O5 0.518341 0.750000 0.667902
O O6 0.664331 0.959623 0.471105
O O7 0.552054 0.948816 0.757151
O O8 0.456670 0.017102 0.712142
O O9 0.937923 0.750000 0.301153
O O10 0.852350 0.524239 0.331437
O O11 0.927188 0.515403 0.414432
O O12 0.063877 0.530265 0.107571
O O13 0.350948 0.250000 0.792522
O O14 0.276411 0.507803 0.838090
O O15 0.191751 0.250000 0.724239
O O16 0.157602 0.987658 0.833828
O O17 0.023505 0.250000 0.549723
O O18 0.000000 0.000000 0.500000
O O19 0.815795 0.250000 0.099386
O O20 0.479809 0.750000 0.963053
O O21 0.500000 0.000000 0.000000
#
# Coordination Sequence:
#
# PCOD8073201 Si02
#       8
#     4   4   4   4   4   4   4   4
#     4   9  19  34  54  80 110 146 185 226 272 323
#     4   9  20  37  58  83 111 147 189 232 279 335
#     4   9  20  37  59  84 112 150 189 230 280 338
#     4  10  20  36  58  84 115 150 187 233 282 333
#     4  10  21  39  61  83 109 146 191 234 283 339
#     4  10  20  35  57  83 114 149 187 228 274 330
#     4  11  22  37  58  84 112 146 189 236 288 339
#     4  10  20  33  53  80 110 146 183 222 268 327
#
# _framework density 19.526627000000001
#
# number of rings (size 3 to 8) (size 9 to 14) (size 15 to 20)
#    0.000    2.250    0.000    2.250    1.750    2.500 
#    0.000    1.875    0.000    0.000    0.000    0.000 
#    0.000    0.000    0.000    0.000    0.000    0.000 
#
# Total GULP energy -396656.104932 kJ/mol
# GULP energy per Si atom -12395.503279 kJ/mol
# Density = 1.948218 g / cm^3
# Si number density = 19.526627 Si / 1000 Ang^3
#
#
#
# Elastic Constant Matrix: (Units=GPa)
#
#
# Indices 1 2 3 4 5 6 
#
# 1 126.6762 42.9544 48.6746 0.0000 12.0899 0.0000
# 2 42.9544 65.2433 33.7968 0.0000 2.7067 0.0000
# 3 48.6746 33.7968 94.2578 0.0000 7.3111 0.0000
# 4 0.0000 0.0000 0.0000 24.2482 0.0000 2.9212
# 5 12.0899 2.7067 7.3111 0.0000 28.9483 0.0000
# 6 0.0000 0.0000 0.0000 2.9212 0.0000 35.4569
#
#
#
# Elastic Compliance Matrix: (Units=1/GPa)
#
#
# Indices 1 2 3 4 5 6 
#
# 1 0.011509 -0.005519 -0.003704 0.000000 -0.003355 0.000000
# 2 -0.005519 0.021470 -0.004969 0.000000 0.001552 0.000000
# 3 -0.003704 -0.004969 0.014430 0.000000 -0.001633 0.000000
# 4 0.000000 0.000000 0.000000 0.041654 0.000000 -0.003432
# 5 -0.003355 0.001552 -0.001633 0.000000 0.036213 0.000000
# 6 0.000000 0.000000 0.000000 -0.003432 0.000000 0.028486
#
#
# Mechanical properties :
#
#
# Convention : Reuss Voigt Hill
#
# Bulk Modulus (GPa) = 52.56053 59.66989 56.11521
# Shear Modulus (GPa) = 26.52687 28.44745 27.48716
#
# Velocity S-wave (km/s) = 3.68978 3.82102 3.75597
# Velocity P-wave (km/s) = 6.71777 7.07753 6.90000
#
# Compressibility (1/GPa) = 0.01902568
#
# Stress axis : x y z
#
# Youngs Moduli (GPa) = 86.88726 46.57568 69.29931
#
# Poissons Ratio (x) = 0.25707 0.25669
# Poissons Ratio (y) = 0.47956 0.34432
# Poissons Ratio (z) = 0.32184 0.23142
#
# Static dielectric constant tensor:
#      x y z
#    x 3.277390 0.000000 0.164650 
#    y 0.000000 3.636230 0.000000 
#    z 0.164650 0.000000 3.464690 
# 
# 
# High freq. dielectric constant tensor:
#      x y z
#    x 1.765510 0.000000 0.010790 
#    y 0.000000 1.750450 0.000000 
#    z 0.010790 0.000000 1.763330 
# 
# From -- ./inp_files/54295.got.cif
#   From: 2010.06.25/outbox.cif.g09.slc.cpg/sg11_28_cif.got.tgz:54295.got - 2010.06.27 23:14:04.
