data_PCOD8073830
_publ_section_title
;
Structure prediction by ZEFSAII (Michael W. Deem and Ramdas Pophale) SiO2 
 PCOD8073830
Probable space group: P 21/M
;
_chemical_formula_sum "Si O2"
_cell_formula_units_Z 32
_cell_length_a 25.878738
_cell_length_b 8.831006
_cell_length_c 15.337536
_cell_angle_alpha 90.000000
_cell_angle_beta 150.145329
_cell_angle_gamma 90.000000
_cell_volume 1744.878876
_symmetry_space_group_name_H-M "P 21/M"
_symmetry_group_IT_number 11
_symmetry_cell_setting 'monoclinic'
loop_
_space_group_symop_operation_xyz
x,y,z
-x,1/2+y,-z
-x,-y,-z
x,1/2-y,z
loop_
_atom_site_type_symbol
_atom_site_label
_atom_site_fract_x
_atom_site_fract_y
_atom_site_fract_z
Si Si1 0.346333 0.424886 0.728939
Si Si2 0.404984 0.570716 0.169702
Si Si3 0.625458 0.572608 0.562015
Si Si4 0.735877 0.929428 0.898525
Si Si5 0.074963 0.570941 0.912158
Si Si6 0.189172 0.572632 0.252945
Si Si7 0.464912 0.074829 0.081107
Si Si8 0.861944 0.070921 0.629237
O O1 0.327136 0.250000 0.677878
O O2 0.425492 0.492385 0.773795
O O3 0.239660 0.516621 0.570149
O O4 0.390735 0.446817 0.890183
O O5 0.394171 0.750000 0.147798
O O6 0.508008 0.520569 0.373142
O O7 0.306231 0.502006 0.074457
O O8 0.406181 0.501903 0.075298
O O9 0.638437 0.750000 0.571794
O O10 0.660638 0.518048 0.709335
O O11 0.697885 0.500002 0.594179
O O12 0.740672 0.750000 0.914976
O O13 0.850764 0.993926 0.050513
O O14 0.078053 0.750000 0.904060
O O15 0.959862 0.509283 0.727839
O O16 0.111703 0.520964 0.062708
O O17 0.206251 0.750000 0.277065
O O18 0.142941 0.517963 0.277122
O O19 0.487418 0.250000 0.133559
O O20 0.873436 0.250000 0.637164
#
# Coordination Sequence:
#
# PCOD8073830 Si02
#       8
#     4   4   4   4   4   4   4   4
#     4  10  21  37  56  79 107 137 169 208 256 308
#     4  11  21  33  52  78 105 136 175 214 256 306
#     4   9  19  32  48  73 105 139 173 211 253 301
#     4  10  20  35  52  72 102 139 177 216 257 300
#     4  10  20  35  52  72 102 139 177 216 257 300
#     4   9  19  32  48  73 105 139 173 211 253 301
#     4  10  21  37  56  79 107 137 169 208 256 308
#     4  11  21  33  52  78 105 136 175 214 256 306
#
# _framework density 18.339383000000002
#
# number of rings (size 3 to 8) (size 9 to 14) (size 15 to 20)
#    0.000    2.000    0.000    3.750    0.000    6.500 
#    0.000    0.000    0.000    0.750    0.000    0.000 
#    0.000    0.000    0.000    0.000    0.000    0.000 
#
# Total GULP energy -396961.001891 kJ/mol
# GULP energy per Si atom -12405.031309 kJ/mol
# Density = 1.829764 g / cm^3
# Si number density = 18.339383 Si / 1000 Ang^3
#
#
#
# Elastic Constant Matrix: (Units=GPa)
#
#
# Indices 1 2 3 4 5 6 
#
# 1 128.7582 46.8990 41.2666 0.0000 17.6659 0.0000
# 2 46.8990 56.7706 11.2998 0.0000 -6.3839 0.0000
# 3 41.2666 11.2998 54.4281 0.0000 7.6171 0.0000
# 4 0.0000 0.0000 0.0000 30.4454 0.0000 5.1214
# 5 17.6659 -6.3839 7.6171 0.0000 16.3799 0.0000
# 6 0.0000 0.0000 0.0000 5.1214 0.0000 34.9227
#
#
#
# Elastic Compliance Matrix: (Units=1/GPa)
#
#
# Indices 1 2 3 4 5 6 
#
# 1 0.020481 -0.018133 -0.008218 0.000000 -0.025334 0.000000
# 2 -0.018133 0.035942 0.001700 0.000000 0.032774 0.000000
# 3 -0.008218 0.001700 0.024513 0.000000 -0.001873 0.000000
# 4 0.000000 0.000000 0.000000 0.033676 0.000000 -0.004939
# 5 -0.025334 0.032774 -0.001873 0.000000 0.102018 0.000000
# 6 0.000000 0.000000 0.000000 -0.004939 0.000000 0.029359
#
#
# Mechanical properties :
#
#
# Convention : Reuss Voigt Hill
#
# Bulk Modulus (GPa) = 31.61287 48.76532 40.18909
# Shear Modulus (GPa) = 16.34855 25.71569 21.03212
#
# Velocity S-wave (km/s) = 2.98895 3.74867 3.39016
# Velocity P-wave (km/s) = 5.40249 6.73684 6.10622
#
# Compressibility (1/GPa) = 0.03163269
#
# Stress axis : x y z
#
# Youngs Moduli (GPa) = 48.82545 27.82287 40.79417
#
# Poissons Ratio (x) = 0.50451 0.33527
# Poissons Ratio (y) = 0.88534 -0.06933
# Poissons Ratio (z) = 0.40127 -0.04729
#
# Static dielectric constant tensor:
#      x y z
#    x 3.367910 0.000000 0.079150 
#    y 0.000000 3.418090 0.000000 
#    z 0.079150 0.000000 3.284220 
# 
# 
# High freq. dielectric constant tensor:
#      x y z
#    x 1.705690 0.000000 0.011150 
#    y 0.000000 1.722830 0.000000 
#    z 0.011150 0.000000 1.694910 
# 
# From -- ./inp_files/55633.got.cif
#   From: 2010.06.25/outbox.cif.g09.slc.cpg/sg11_28_cif.got.tgz:55633.got - 2010.06.27 23:14:04.
