data_PCOD8073554
_publ_section_title
;
Structure prediction by ZEFSAII (Michael W. Deem and Ramdas Pophale) SiO2 
 PCOD8073554
Probable space group: P 21/M
;
_chemical_formula_sum "Si O2"
_cell_formula_units_Z 32
_cell_length_a 22.037498
_cell_length_b 9.054857
_cell_length_c 27.900823
_cell_angle_alpha 90.000000
_cell_angle_beta 161.357113
_cell_angle_gamma 90.000000
_cell_volume 1779.757916
_symmetry_space_group_name_H-M "P 21/M"
_symmetry_group_IT_number 11
_symmetry_cell_setting 'monoclinic'
loop_
_space_group_symop_operation_xyz
x,y,z
-x,1/2+y,-z
-x,-y,-z
x,1/2-y,z
loop_
_atom_site_type_symbol
_atom_site_label
_atom_site_fract_x
_atom_site_fract_y
_atom_site_fract_z
Si Si1 0.543690 0.079312 0.602399
Si Si2 0.788669 0.422079 0.236196
Si Si3 0.824605 0.077331 0.894128
Si Si4 0.554535 0.421887 0.969717
Si Si5 0.189114 0.421980 0.016564
Si Si6 0.475495 0.079230 0.147803
Si Si7 0.226996 0.922214 0.318098
Si Si8 0.915422 0.423674 0.483487
O O1 0.502240 0.250000 0.564325
O O2 0.634921 0.044486 0.721906
O O3 0.688928 0.023454 0.669955
O O4 0.341474 0.997930 0.447132
O O5 0.814497 0.250000 0.267417
O O6 0.625479 0.483727 0.148558
O O7 0.983294 0.508058 0.393568
O O8 0.731865 0.448155 0.138259
O O9 0.870301 0.250000 0.930409
O O10 0.781838 0.016618 0.914387
O O11 0.000000 0.000000 0.000000
O O12 0.498039 0.250000 0.926271
O O13 0.610690 0.479268 0.959243
O O14 0.183036 0.250000 0.026446
O O15 0.360763 0.459717 0.109725
O O16 0.992903 0.468235 0.843989
O O17 0.449057 0.250000 0.113755
O O18 0.693620 0.040241 0.321367
O O19 0.252539 0.750000 0.343940
O O20 0.955170 0.250000 0.510855
O O21 0.000000 0.500000 0.500000
#
# Coordination Sequence:
#
# PCOD8073554 Si02
#       8
#     4   4   4   4   4   4   4   4
#     4   9  18  32  51  79 109 134 172 222 268 314
#     4  10  20  34  54  82 111 141 180 228 279 327
#     4  11  21  35  56  83 112 145 183 229 276 325
#     4  10  20  34  55  81 109 141 181 228 275 329
#     4  10  21  39  57  79 111 147 186 229 274 331
#     4  10  22  38  57  79 111 149 185 227 279 334
#     4   9  17  32  53  77 105 138 176 218 266 318
#     4  11  21  34  55  84 111 145 187 231 280 332
#
# _framework density 17.979973999999999
#
# number of rings (size 3 to 8) (size 9 to 14) (size 15 to 20)
#    0.000    2.000    2.500    1.500    0.000    4.000 
#    0.000    1.250    0.000    7.500    0.000    0.000 
#    0.000    0.000    0.000    0.000    0.000    0.000 
#
# Total GULP energy -396863.266298 kJ/mol
# GULP energy per Si atom -12401.977072 kJ/mol
# Density = 1.793905 g / cm^3
# Si number density = 17.979974 Si / 1000 Ang^3
#
#
#
# Elastic Constant Matrix: (Units=GPa)
#
#
# Indices 1 2 3 4 5 6 
#
# 1 105.3098 58.7929 72.0952 0.0000 -6.7676 0.0000
# 2 58.7929 91.7090 68.9128 0.0000 -12.3004 0.0000
# 3 72.0952 68.9128 140.9680 0.0000 -8.2696 0.0000
# 4 0.0000 0.0000 0.0000 32.6123 0.0000 -6.7922
# 5 -6.7676 -12.3004 -8.2696 0.0000 28.1908 0.0000
# 6 0.0000 0.0000 0.0000 -6.7922 0.0000 28.8534
#
#
#
# Elastic Compliance Matrix: (Units=1/GPa)
#
#
# Indices 1 2 3 4 5 6 
#
# 1 0.016991 -0.006970 -0.005313 0.000000 -0.000521 0.000000
# 2 -0.006970 0.020858 -0.006305 0.000000 0.005578 0.000000
# 3 -0.005313 -0.006305 0.012878 0.000000 -0.000248 0.000000
# 4 0.000000 0.000000 0.000000 0.032244 0.000000 0.007590
# 5 -0.000521 0.005578 -0.000248 0.000000 0.037709 0.000000
# 6 0.000000 0.000000 0.000000 0.007590 0.000000 0.036445
#
#
# Mechanical properties :
#
#
# Convention : Reuss Voigt Hill
#
# Bulk Modulus (GPa) = 73.78854 81.95427 77.87140
# Shear Modulus (GPa) = 25.14874 27.14370 26.14622
#
# Velocity S-wave (km/s) = 3.74399 3.88965 3.81752
# Velocity P-wave (km/s) = 7.73423 8.11495 7.92687
#
# Compressibility (1/GPa) = 0.01355224
#
# Stress axis : x y z
#
# Youngs Moduli (GPa) = 58.85550 47.94298 77.64970
#
# Poissons Ratio (x) = 0.33417 0.41253
# Poissons Ratio (y) = 0.41023 0.48955
# Poissons Ratio (z) = 0.31268 0.30226
#
# Static dielectric constant tensor:
#      x y z
#    x 3.214220 0.000000 -0.182790 
#    y 0.000000 3.365230 0.000000 
#    z -0.182790 0.000000 3.540710 
# 
# 
# High freq. dielectric constant tensor:
#      x y z
#    x 1.672200 0.000000 -0.017660 
#    y 0.000000 1.702800 0.000000 
#    z -0.017660 0.000000 1.702560 
# 
# From -- ./inp_files/72164.got.cif
#   From: 2010.06.25/outbox.cif.g09.slc.cpg/sg11_37_cif.got.tgz:72164.got - 2010.06.27 23:14:04.
