data_PCOD8073424
_publ_section_title
;
Structure prediction by ZEFSAII (Michael W. Deem and Ramdas Pophale) SiO2 
 PCOD8073424
Probable space group: P 21/M
;
_chemical_formula_sum "Si O2"
_cell_formula_units_Z 32
_cell_length_a 20.177009
_cell_length_b 9.060852
_cell_length_c 14.100851
_cell_angle_alpha 90.000000
_cell_angle_beta 44.168814
_cell_angle_gamma 90.000000
_cell_volume 1796.236738
_symmetry_space_group_name_H-M "P 21/M"
_symmetry_group_IT_number 11
_symmetry_cell_setting 'monoclinic'
loop_
_space_group_symop_operation_xyz
x,y,z
-x,1/2+y,-z
-x,-y,-z
x,1/2-y,z
loop_
_atom_site_type_symbol
_atom_site_label
_atom_site_fract_x
_atom_site_fract_y
_atom_site_fract_z
Si Si1 0.002364 0.578190 0.096710
Si Si2 0.492545 0.077188 0.906973
Si Si3 0.998557 0.077887 0.600820
Si Si4 0.515896 0.577740 0.583366
Si Si5 0.843776 0.920117 0.410070
Si Si6 0.638129 0.421887 0.101608
Si Si7 0.352652 0.922500 0.407387
Si Si8 0.148592 0.925499 0.097310
O O1 0.014783 0.750000 0.065753
O O2 0.905716 0.546328 0.253210
O O3 0.093182 0.515447 0.061491
O O4 0.000000 0.500000 0.000000
O O5 0.478036 0.250000 0.937498
O O6 0.586298 0.041829 0.749192
O O7 0.401313 0.013311 0.946357
O O8 0.500000 0.000000 0.000000
O O9 0.988510 0.250000 0.593166
O O10 0.094547 0.043223 0.560193
O O11 0.906878 0.018061 0.752495
O O12 0.000000 0.000000 0.500000
O O13 0.500000 0.500000 0.500000
O O14 0.535451 0.750000 0.547058
O O15 0.422104 0.549702 0.741988
O O16 0.606546 0.508536 0.543492
O O17 0.810427 0.750000 0.445344
O O18 0.753810 0.026579 0.503357
O O19 0.638016 0.250000 0.073553
O O20 0.743688 0.482911 0.013510
O O21 0.354865 0.750000 0.429092
O O22 0.144007 0.750000 0.100212
#
# Coordination Sequence:
#
# PCOD8073424 Si02
#       8
#     4   4   4   4   4   4   4   4
#     4   9  18  33  52  75 103 135 169 205 249 300
#     4  10  21  36  53  75 103 133 167 209 255 305
#     4   9  18  33  52  73 100 132 164 202 247 296
#     4  10  20  34  53  77 106 137 169 209 255 304
#     4   9  19  35  52  73 104 138 169 206 257 308
#     4   9  18  34  55  76  99 132 171 208 249 297
#     4  10  21  36  54  76 101 133 175 217 256 303
#     4   8  16  33  53  71  97 132 165 198 242 297
#
# _framework density 17.815023
#
# number of rings (size 3 to 8) (size 9 to 14) (size 15 to 20)
#    0.000    2.750    0.000    2.625    0.000    5.000 
#    0.000    8.125    0.000    0.000    0.000    0.000 
#    0.000    0.000    0.000    0.000    0.000    0.000 
#
# Total GULP energy -396796.694115 kJ/mol
# GULP energy per Si atom -12399.896691 kJ/mol
# Density = 1.777448 g / cm^3
# Si number density = 17.815023 Si / 1000 Ang^3
#
#
#
# Elastic Constant Matrix: (Units=GPa)
#
#
# Indices 1 2 3 4 5 6 
#
# 1 146.6060 67.8739 92.6482 0.0000 10.4903 0.0000
# 2 67.8739 79.2055 52.3220 0.0000 6.7706 0.0000
# 3 92.6482 52.3220 99.0936 0.0000 2.5956 0.0000
# 4 0.0000 0.0000 0.0000 29.8399 0.0000 5.3637
# 5 10.4903 6.7706 2.5956 0.0000 41.3945 0.0000
# 6 0.0000 0.0000 0.0000 5.3637 0.0000 36.4318
#
#
#
# Elastic Compliance Matrix: (Units=1/GPa)
#
#
# Indices 1 2 3 4 5 6 
#
# 1 0.019190 -0.006752 -0.014301 0.000000 -0.002862 0.000000
# 2 -0.006752 0.022033 -0.005279 0.000000 -0.001561 0.000000
# 3 -0.014301 -0.005279 0.026175 0.000000 0.002846 0.000000
# 4 0.000000 0.000000 0.000000 0.034423 0.000000 -0.005068
# 5 -0.002862 -0.001561 0.002846 0.000000 0.024960 0.000000
# 6 0.000000 0.000000 0.000000 -0.005068 0.000000 0.028195
#
#
# Mechanical properties :
#
#
# Convention : Reuss Voigt Hill
#
# Bulk Modulus (GPa) = 67.87975 83.39924 75.63950
# Shear Modulus (GPa) = 23.52369 29.00397 26.26383
#
# Velocity S-wave (km/s) = 3.63773 4.03930 3.84376
# Velocity P-wave (km/s) = 7.47190 8.28675 7.88985
#
# Compressibility (1/GPa) = 0.01473193
#
# Stress axis : x y z
#
# Youngs Moduli (GPa) = 52.11150 45.38718 38.20394
#
# Poissons Ratio (x) = 0.30648 0.54636
# Poissons Ratio (y) = 0.35188 0.20169
# Poissons Ratio (z) = 0.74525 0.23961
#
# Static dielectric constant tensor:
#      x y z
#    x 3.269030 0.000000 -0.222770 
#    y 0.000000 3.178730 0.000000 
#    z -0.222770 0.000000 3.271640 
# 
# 
# High freq. dielectric constant tensor:
#      x y z
#    x 1.696850 0.000000 -0.000190 
#    y 0.000000 1.680150 0.000000 
#    z -0.000190 0.000000 1.690200 
# 
# From -- ./inp_files/54276.got.cif
#   From: 2010.06.25/outbox.cif.g09.slc.cpg/sg11_28_cif.got.tgz:54276.got - 2010.06.27 23:14:04.
