data_PCOD8073954
_publ_section_title
;
Structure prediction by ZEFSAII (Michael W. Deem and Ramdas Pophale) SiO2 
 PCOD8073954
Probable space group: P 21/M
;
_chemical_formula_sum "Si O2"
_cell_formula_units_Z 32
_cell_length_a 12.516760
_cell_length_b 8.657968
_cell_length_c 33.069508
_cell_angle_alpha 90.000000
_cell_angle_beta 29.445849
_cell_angle_gamma 90.000000
_cell_volume 1761.765807
_symmetry_space_group_name_H-M "P 21/M"
_symmetry_group_IT_number 11
_symmetry_cell_setting 'monoclinic'
loop_
_space_group_symop_operation_xyz
x,y,z
-x,1/2+y,-z
-x,-y,-z
x,1/2-y,z
loop_
_atom_site_type_symbol
_atom_site_label
_atom_site_fract_x
_atom_site_fract_y
_atom_site_fract_z
Si Si1 0.964573 0.930980 0.681856
Si Si2 0.291588 0.432705 0.512674
Si Si3 0.361228 0.931570 0.710135
Si Si4 0.764404 0.431805 0.335117
Si Si5 0.196969 0.566989 0.459720
Si Si6 0.506210 0.069077 0.817628
Si Si7 0.791719 0.929317 0.158742
Si Si8 0.157993 0.571937 0.980183
O O1 0.915475 0.750000 0.696108
O O2 0.027606 0.986269 0.706922
O O3 0.755383 0.019151 0.734160
O O4 0.172492 0.971786 0.586578
O O5 0.269441 0.250000 0.527704
O O6 0.540297 0.493412 0.428860
O O7 0.181846 0.476161 0.506612
O O8 0.414640 0.750000 0.690771
O O9 0.218632 0.982001 0.717610
O O10 0.583450 0.027561 0.636961
O O11 0.229748 0.970678 0.793827
O O12 0.749765 0.250000 0.342719
O O13 0.177509 0.750000 0.472623
O O14 0.000000 0.500000 0.500000
O O15 0.489757 0.250000 0.825104
O O16 0.379174 0.011350 0.819172
O O17 0.394722 0.004626 0.895740
O O18 0.747588 0.750000 0.182768
O O19 0.042657 0.954342 0.061631
O O20 0.185669 0.750000 0.961579
O O21 0.000000 0.500000 0.000000
#
# Coordination Sequence:
#
# PCOD8073954 Si02
#       8
#     4   4   4   4   4   4   4   4
#     4  11  21  34  54  78 105 138 178 219 265 315
#     4  10  20  36  54  75 103 135 176 221 265 311
#     4  10  20  35  55  78 103 135 177 217 258 310
#     4   8  18  36  54  74 102 137 177 223 265 305
#     4  11  22  36  52  72 103 140 175 214 263 311
#     4  10  21  35  51  77 111 140 172 214 265 312
#     4   9  19  34  53  78 108 138 169 209 258 314
#     4   9  17  32  53  77 107 139 171 208 258 314
#
# _framework density 18.163595000000001
#
# number of rings (size 3 to 8) (size 9 to 14) (size 15 to 20)
#    0.000    2.250    0.000    4.875    1.750    3.000 
#    0.000    6.875    0.000    0.750    0.000    0.000 
#    0.000    0.000    0.000    0.000    0.000    0.000 
#
# Total GULP energy -396624.681325 kJ/mol
# GULP energy per Si atom -12394.521291 kJ/mol
# Density = 1.812225 g / cm^3
# Si number density = 18.163595 Si / 1000 Ang^3
#
#
#
# Elastic Constant Matrix: (Units=GPa)
#
#
# Indices 1 2 3 4 5 6 
#
# 1 77.2659 12.4245 43.5711 0.0000 7.4636 0.0000
# 2 12.4245 44.6530 23.1291 0.0000 2.9480 0.0000
# 3 43.5711 23.1291 82.5229 0.0000 16.1262 0.0000
# 4 0.0000 0.0000 0.0000 34.6285 0.0000 2.5325
# 5 7.4636 2.9480 16.1262 0.0000 19.2700 0.0000
# 6 0.0000 0.0000 0.0000 2.5325 0.0000 20.0341
#
#
#
# Elastic Compliance Matrix: (Units=1/GPa)
#
#
# Indices 1 2 3 4 5 6 
#
# 1 0.018453 -0.000053 -0.009962 0.000000 0.001198 0.000000
# 2 -0.000053 0.026304 -0.007845 0.000000 0.002561 0.000000
# 3 -0.009962 -0.007845 0.022222 0.000000 -0.013538 0.000000
# 4 0.000000 0.000000 0.000000 0.029147 0.000000 -0.003684
# 5 0.001198 0.002561 -0.013538 0.000000 0.062368 0.000000
# 6 0.000000 0.000000 0.000000 -0.003684 0.000000 0.050381
#
#
# Mechanical properties :
#
#
# Convention : Reuss Voigt Hill
#
# Bulk Modulus (GPa) = 31.99134 40.29905 36.14520
# Shear Modulus (GPa) = 19.60676 23.14099 21.37388
#
# Velocity S-wave (km/s) = 3.28907 3.57323 3.43409
# Velocity P-wave (km/s) = 5.66349 6.26569 5.97218
#
# Compressibility (1/GPa) = 0.03125845
#
# Stress axis : x y z
#
# Youngs Moduli (GPa) = 54.19205 38.01704 45.00077
#
# Poissons Ratio (x) = 0.00203 0.44830
# Poissons Ratio (y) = 0.00290 0.35302
# Poissons Ratio (z) = 0.53986 0.29823
#
# Static dielectric constant tensor:
#      x y z
#    x 3.446620 0.000000 0.036880 
#    y 0.000000 3.424370 0.000000 
#    z 0.036880 0.000000 3.560240 
# 
# 
# High freq. dielectric constant tensor:
#      x y z
#    x 1.689730 0.000000 0.007210 
#    y 0.000000 1.706420 0.000000 
#    z 0.007210 0.000000 1.696970 
# 
# From -- ./inp_files/54281.got.cif
#   From: 2010.06.25/outbox.cif.g09.slc.cpg/sg11_28_cif.got.tgz:54281.got - 2010.06.27 23:14:04.
