data_PCOD8073168
_publ_section_title
;
Structure prediction by ZEFSAII (Michael W. Deem and Ramdas Pophale) SiO2 
 PCOD8073168
Probable space group: P 21/M
;
_chemical_formula_sum "Si O2"
_cell_formula_units_Z 28
_cell_length_a 19.721017
_cell_length_b 10.806084
_cell_length_c 16.642795
_cell_angle_alpha 90.000000
_cell_angle_beta 23.948859
_cell_angle_gamma 90.000000
_cell_volume 1439.678453
_symmetry_space_group_name_H-M "P 21/M"
_symmetry_group_IT_number 11
_symmetry_cell_setting 'monoclinic'
loop_
_space_group_symop_operation_xyz
x,y,z
-x,1/2+y,-z
-x,-y,-z
x,1/2-y,z
loop_
_atom_site_type_symbol
_atom_site_label
_atom_site_fract_x
_atom_site_fract_y
_atom_site_fract_z
Si Si1 0.482350 0.886760 0.199635
Si Si2 0.136305 0.389340 0.939882
Si Si3 0.453916 0.391468 0.688873
Si Si4 0.993985 0.613463 0.397810
Si Si5 0.192074 0.113178 0.241114
Si Si6 0.204183 0.030074 0.692445
Si Si7 0.257376 0.116016 0.462921
O O1 0.394190 0.750000 0.295849
O O2 0.575798 0.906383 0.183579
O O3 0.355017 0.997748 0.323791
O O4 0.610263 0.891373 0.987152
O O5 0.119326 0.250000 0.988815
O O6 0.293175 0.452526 0.817588
O O7 0.170668 0.389728 0.807516
O O8 0.959674 0.450778 0.151456
O O9 0.465999 0.250000 0.648437
O O10 0.629841 0.449824 0.471558
O O11 0.078401 0.750000 0.320420
O O12 0.846420 0.593790 0.623236
O O13 0.920672 0.609716 0.387952
O O14 0.120231 0.499778 0.266949
O O15 0.125047 0.250000 0.285656
O O16 0.234362 0.116873 0.583422
O O17 0.342457 0.250000 0.349803
#
# Coordination Sequence:
#
# PCOD8073168 Si02
#       7
#     4   4   4   4   4   4   4
#     4   9  19  34  53  77 105 134 175 221 264 313
#     4  10  20  33  53  76 100 138 179 223 274 317
#     4   9  18  33  51  75 104 134 174 224 271 316
#     4   9  19  34  52  76 106 140 174 214 264 314
#     4   9  18  34  54  77 105 136 176 221 259 309
#     4  10  20  34  52  74 106 137 178 219 267 323
#     4  10  21  36  53  75 108 142 172 214 269 321
#
# _framework density 19.448786999999999
#
# number of rings (size 3 to 8) (size 9 to 14) (size 15 to 20)
#    0.000    2.571    0.000    1.286    2.000    2.286 
#    0.000    0.000    0.000    4.286    0.000    0.000 
#    0.000    0.000    0.000    0.000    0.000    0.000 
#
# Total GULP energy -346927.205700 kJ/mol
# GULP energy per Si atom -12390.257346 kJ/mol
# Density = 1.940452 g / cm^3
# Si number density = 19.448787 Si / 1000 Ang^3
#
#
#
# Elastic Constant Matrix: (Units=GPa)
#
#
# Indices 1 2 3 4 5 6 
#
# 1 47.6415 22.2014 5.4265 0.0000 -18.3946 0.0000
# 2 22.2014 130.1662 32.8398 0.0000 -15.6521 0.0000
# 3 5.4265 32.8398 76.9438 0.0000 -15.5162 0.0000
# 4 0.0000 0.0000 0.0000 23.0375 0.0000 -5.9843
# 5 -18.3946 -15.6521 -15.5162 0.0000 31.0912 0.0000
# 6 0.0000 0.0000 0.0000 -5.9843 0.0000 19.3177
#
#
#
# Elastic Compliance Matrix: (Units=1/GPa)
#
#
# Indices 1 2 3 4 5 6 
#
# 1 0.028777 -0.003634 0.002875 0.000000 0.016631 0.000000
# 2 -0.003634 0.009290 -0.003557 0.000000 0.000752 0.000000
# 3 0.002875 -0.003557 0.015893 0.000000 0.007842 0.000000
# 4 0.000000 0.000000 0.000000 0.047206 0.000000 0.014624
# 5 0.016631 0.000752 0.007842 0.000000 0.046295 0.000000
# 6 0.000000 0.000000 0.000000 0.014624 0.000000 0.056296
#
#
# Mechanical properties :
#
#
# Convention : Reuss Voigt Hill
#
# Bulk Modulus (GPa) = 22.06090 41.74299 31.90195
# Shear Modulus (GPa) = 21.97807 27.64153 24.80980
#
# Velocity S-wave (km/s) = 3.36527 3.77403 3.57550
# Velocity P-wave (km/s) = 5.14468 6.36402 5.78656
#
# Compressibility (1/GPa) = 0.04532907
#
# Stress axis : x y z
#
# Youngs Moduli (GPa) = 34.74953 107.64118 62.91962
#
# Poissons Ratio (x) = 0.39115 -0.18090
# Poissons Ratio (y) = 0.12628 0.22382
# Poissons Ratio (z) = -0.09991 0.38290
#
# Static dielectric constant tensor:
#      x y z
#    x 3.474980 0.000000 0.035860 
#    y 0.000000 3.721670 0.000000 
#    z 0.035860 0.000000 3.374820 
# 
# 
# High freq. dielectric constant tensor:
#      x y z
#    x 1.751930 0.000000 0.010890 
#    y 0.000000 1.764820 0.000000 
#    z 0.010890 0.000000 1.738000 
# 
# From -- ./inp_files/61468.got.cif
#   From: 2010.06.25/outbox.cif.g09.slc.cpg/sg11_31_cif.got.tgz:61468.got - 2010.06.27 23:14:04.
