data_PCOD8073137
_publ_section_title
;
Structure prediction by ZEFSAII (Michael W. Deem and Ramdas Pophale) SiO2 
 PCOD8073137
Probable space group: P 21/M
;
_chemical_formula_sum "Si O2"
_cell_formula_units_Z 32
_cell_length_a 16.124833
_cell_length_b 9.400473
_cell_length_c 10.831738
_cell_angle_alpha 90.000000
_cell_angle_beta 87.785808
_cell_angle_gamma 90.000000
_cell_volume 1640.660428
_symmetry_space_group_name_H-M "P 21/M"
_symmetry_group_IT_number 11
_symmetry_cell_setting 'monoclinic'
loop_
_space_group_symop_operation_xyz
x,y,z
-x,1/2+y,-z
-x,-y,-z
x,1/2-y,z
loop_
_atom_site_type_symbol
_atom_site_label
_atom_site_fract_x
_atom_site_fract_y
_atom_site_fract_z
Si Si1 0.271287 0.088256 0.642729
Si Si2 0.962853 0.087665 0.221355
Si Si3 0.464538 0.579789 0.123391
Si Si4 0.114483 0.913115 0.260012
Si Si5 0.861541 0.087472 0.465969
Si Si6 0.790954 0.084130 0.127531
Si Si7 0.464319 0.411224 0.615589
Si Si8 0.277415 0.582248 0.127681
O O1 0.240842 0.250000 0.659635
O O2 0.366702 0.080623 0.602644
O O3 0.218913 0.013214 0.537452
O O4 0.257794 0.005591 0.769735
O O5 0.991753 0.250000 0.216578
O O6 0.927605 0.045660 0.357948
O O7 0.890276 0.056796 0.126207
O O8 0.044015 0.994876 0.186708
O O9 0.471256 0.750000 0.100705
O O10 0.511213 0.533709 0.247632
O O11 0.369736 0.524907 0.148197
O O12 0.500000 0.500000 0.000000
O O13 0.109039 0.750000 0.217330
O O14 0.095271 0.933924 0.405052
O O15 0.207929 0.971475 0.229150
O O16 0.831567 0.250000 0.449252
O O17 0.772657 0.250000 0.152794
O O18 0.755326 0.028282 0.001708
O O19 0.500000 0.500000 0.500000
O O20 0.497325 0.250000 0.601014
O O21 0.282570 0.750000 0.130788
#
# Coordination Sequence:
#
# PCOD8073137 Si02
#       8
#     4   4   4   4   4   4   4   4
#     4  10  20  34  53  80 109 136 175 226 272 318
#     4   9  18  32  49  74 106 140 179 222 266 316
#     4  10  21  39  62  86 113 149 191 237 284 338
#     4  10  20  33  52  78 105 139 182 221 263 320
#     4   9  19  34  54  77 104 143 184 216 261 326
#     4   9  18  35  56  77 103 140 182 218 263 325
#     4  10  23  38  56  85 118 150 187 234 287 342
#     4   9  19  35  56  80 106 138 180 225 265 317
#
# _framework density 19.504341
#
# number of rings (size 3 to 8) (size 9 to 14) (size 15 to 20)
#    0.000    2.500    0.000    2.250    1.750    4.500 
#    0.000    1.250    0.000    0.000    0.000    0.000 
#    0.000    0.000    0.000    0.000    0.000    0.000 
#
# Total GULP energy -396653.903181 kJ/mol
# GULP energy per Si atom -12395.434474 kJ/mol
# Density = 1.945995 g / cm^3
# Si number density = 19.504341 Si / 1000 Ang^3
#
#
#
# Elastic Constant Matrix: (Units=GPa)
#
#
# Indices 1 2 3 4 5 6 
#
# 1 102.8766 40.9262 18.5828 0.0000 0.6499 0.0000
# 2 40.9262 67.6973 32.9010 0.0000 0.0388 0.0000
# 3 18.5828 32.9010 68.9576 0.0000 1.2723 0.0000
# 4 0.0000 0.0000 0.0000 22.3770 0.0000 -1.4661
# 5 0.6499 0.0388 1.2723 0.0000 23.3433 0.0000
# 6 0.0000 0.0000 0.0000 -1.4661 0.0000 32.7292
#
#
#
# Elastic Compliance Matrix: (Units=1/GPa)
#
#
# Indices 1 2 3 4 5 6 
#
# 1 0.012807 -0.007900 0.000325 0.000000 -0.000361 0.000000
# 2 -0.007900 0.024109 -0.009387 0.000000 0.000692 0.000000
# 3 0.000325 -0.009387 0.018912 0.000000 -0.001024 0.000000
# 4 0.000000 0.000000 0.000000 0.044820 0.000000 0.002008
# 5 -0.000361 0.000692 -0.001024 0.000000 0.042904 0.000000
# 6 0.000000 0.000000 0.000000 0.002008 0.000000 0.030644
#
#
# Mechanical properties :
#
#
# Convention : Reuss Voigt Hill
#
# Bulk Modulus (GPa) = 45.65476 47.15015 46.40246
# Shear Modulus (GPa) = 23.21045 25.49800 24.35423
#
# Velocity S-wave (km/s) = 3.45340 3.61958 3.53747
# Velocity P-wave (km/s) = 6.27372 6.45718 6.36611
#
# Compressibility (1/GPa) = 0.02190352
#
# Stress axis : x y z
#
# Youngs Moduli (GPa) = 78.08402 41.47815 52.87735
#
# Poissons Ratio (x) = 0.32767 -0.01717
# Poissons Ratio (y) = 0.61685 0.49635
# Poissons Ratio (z) = -0.02535 0.38935
#
# Static dielectric constant tensor:
#      x y z
#    x 3.710520 0.000000 0.131490 
#    y 0.000000 3.448830 0.000000 
#    z 0.131490 0.000000 3.577640 
# 
# 
# High freq. dielectric constant tensor:
#      x y z
#    x 1.767520 0.000000 0.006940 
#    y 0.000000 1.738470 0.000000 
#    z 0.006940 0.000000 1.757980 
# 
# From -- ./inp_files/38098.got.cif
#   From: 2010.06.25/outbox.cif.g09.slc.cpg/sg11_20_cif.got.tgz:38098.got - 2010.06.27 23:14:04.
