data_PCOD8073149
_publ_section_title
;
Structure prediction by ZEFSAII (Michael W. Deem and Ramdas Pophale) SiO2 
 PCOD8073149
Probable space group: P 21/M
;
_chemical_formula_sum "Si O2"
_cell_formula_units_Z 24
_cell_length_a 9.204631
_cell_length_b 9.092378
_cell_length_c 20.544401
_cell_angle_alpha 90.000000
_cell_angle_beta 47.983066
_cell_angle_gamma 90.000000
_cell_volume 1277.424375
_symmetry_space_group_name_H-M "P 21/M"
_symmetry_group_IT_number 11
_symmetry_cell_setting 'monoclinic'
loop_
_space_group_symop_operation_xyz
x,y,z
-x,1/2+y,-z
-x,-y,-z
x,1/2-y,z
loop_
_atom_site_type_symbol
_atom_site_label
_atom_site_fract_x
_atom_site_fract_y
_atom_site_fract_z
Si Si1 0.200135 0.575673 0.421274
Si Si2 0.721649 0.423582 0.746507
Si Si3 0.999164 0.421248 0.102647
Si Si4 0.961081 0.924228 0.247510
Si Si5 0.534213 0.576905 0.421560
Si Si6 0.709616 0.920794 0.097752
O O1 0.171425 0.750000 0.430458
O O2 0.260732 0.515791 0.332056
O O3 0.367465 0.526564 0.421391
O O4 0.000000 0.500000 0.500000
O O5 0.736897 0.250000 0.739686
O O6 0.515056 0.472002 0.839512
O O7 0.897878 0.484836 0.737748
O O8 0.964634 0.250000 0.124940
O O9 0.034517 0.501221 0.159765
O O10 0.808856 0.485856 0.124795
O O11 0.190706 0.451718 0.001494
O O12 0.977523 0.750000 0.233899
O O13 0.741393 0.973428 0.330035
O O14 0.500000 0.500000 0.500000
O O15 0.531397 0.750000 0.434336
O O16 0.727963 0.750000 0.112166
#
# Coordination Sequence:
#
# PCOD8073149 Si02
#       6
#     4   4   4   4   4   4
#     4  10  20  35  55  78 103 133 171 212 255 304
#     4   9  18  34  56  77  99 134 177 213 250 305
#     4  10  20  33  52  79 107 136 172 215 260 304
#     4  10  20  35  55  77 103 138 175 210 256 312
#     4  10  21  36  56  80 105 136 173 213 258 308
#     4   9  18  35  56  76 102 137 176 215 256 306
#
# _framework density 18.787804999999999
#
# number of rings (size 3 to 8) (size 9 to 14) (size 15 to 20)
#    0.000    2.333    0.000    2.500    0.000    6.667 
#    0.000    4.167    0.000    0.000    0.000    0.000 
#    0.000    0.000    0.000    0.000    0.000    0.000 
#
# Total GULP energy -297655.257076 kJ/mol
# GULP energy per Si atom -12402.302378 kJ/mol
# Density = 1.874504 g / cm^3
# Si number density = 18.787805 Si / 1000 Ang^3
#
#
#
# Elastic Constant Matrix: (Units=GPa)
#
#
# Indices 1 2 3 4 5 6 
#
# 1 183.2694 41.8982 100.0107 0.0000 -0.3688 0.0000
# 2 41.8982 37.7414 39.2147 0.0000 4.3180 0.0000
# 3 100.0107 39.2147 140.8225 0.0000 1.0059 0.0000
# 4 0.0000 0.0000 0.0000 33.5791 0.0000 4.7960
# 5 -0.3688 4.3180 1.0059 0.0000 43.2733 0.0000
# 6 0.0000 0.0000 0.0000 4.7960 0.0000 27.1047
#
#
#
# Elastic Compliance Matrix: (Units=1/GPa)
#
#
# Indices 1 2 3 4 5 6 
#
# 1 0.009556 -0.005113 -0.005368 0.000000 0.000716 0.000000
# 2 -0.005113 0.040551 -0.007633 0.000000 -0.003913 0.000000
# 3 -0.005368 -0.007633 0.013036 0.000000 0.000413 0.000000
# 4 0.000000 0.000000 0.000000 0.030553 0.000000 -0.005406
# 5 0.000716 -0.003913 0.000413 0.000000 0.023496 0.000000
# 6 0.000000 0.000000 0.000000 -0.005406 0.000000 0.037851
#
#
# Mechanical properties :
#
#
# Convention : Reuss Voigt Hill
#
# Bulk Modulus (GPa) = 37.15394 80.45336 58.80365
# Shear Modulus (GPa) = 24.96984 32.83875 28.90429
#
# Velocity S-wave (km/s) = 3.64956 4.18530 3.92658
# Velocity P-wave (km/s) = 6.13005 8.14068 7.20584
#
# Compressibility (1/GPa) = 0.02691505
#
# Stress axis : x y z
#
# Youngs Moduli (GPa) = 104.64494 24.66035 76.71078
#
# Poissons Ratio (x) = 0.12609 0.41178
# Poissons Ratio (y) = 0.53506 0.58553
# Poissons Ratio (z) = 0.56173 0.18823
#
# Static dielectric constant tensor:
#      x y z
#    x 3.710860 0.000000 -0.020040 
#    y 0.000000 3.235070 0.000000 
#    z -0.020040 0.000000 3.583320 
# 
# 
# High freq. dielectric constant tensor:
#      x y z
#    x 1.738790 0.000000 -0.000550 
#    y 0.000000 1.705480 0.000000 
#    z -0.000550 0.000000 1.743780 
# 
# From -- ./inp_files/20614.got.cif
#   From: 2010.06.25/outbox.cif.g09.slc.cpg/sg11_11_cif.got.tgz:20614.got - 2010.06.27 23:14:04.
