data_PCOD8073724
_publ_section_title
;
Structure prediction by ZEFSAII (Michael W. Deem and Ramdas Pophale) SiO2 
 PCOD8073724
Probable space group: P 21/M
;
_chemical_formula_sum "Si O2"
_cell_formula_units_Z 32
_cell_length_a 11.235226
_cell_length_b 9.143953
_cell_length_c 27.185721
_cell_angle_alpha 90.000000
_cell_angle_beta 143.335631
_cell_angle_gamma 90.000000
_cell_volume 1667.719258
_symmetry_space_group_name_H-M "P 21/M"
_symmetry_group_IT_number 11
_symmetry_cell_setting 'monoclinic'
loop_
_space_group_symop_operation_xyz
x,y,z
-x,1/2+y,-z
-x,-y,-z
x,1/2-y,z
loop_
_atom_site_type_symbol
_atom_site_label
_atom_site_fract_x
_atom_site_fract_y
_atom_site_fract_z
Si Si1 0.161789 0.418279 0.586085
Si Si2 0.941705 0.414625 0.260474
Si Si3 0.407214 0.083065 0.424229
Si Si4 0.289936 0.422439 0.733960
Si Si5 0.690950 0.919793 0.884287
Si Si6 0.434444 0.920650 0.334582
Si Si7 0.961428 0.919305 0.814699
Si Si8 0.097514 0.916902 0.964672
O O1 0.108092 0.250000 0.562118
O O2 0.156086 0.464612 0.641828
O O3 0.384874 0.451374 0.642246
O O4 0.000000 0.500000 0.500000
O O5 0.862390 0.250000 0.243257
O O6 0.816839 0.525939 0.251796
O O7 0.171021 0.426522 0.351045
O O8 0.918216 0.458972 0.195191
O O9 0.481503 0.250000 0.448070
O O10 0.500000 0.000000 0.500000
O O11 0.485140 0.004779 0.401324
O O12 0.323664 0.250000 0.747580
O O13 0.503656 0.497573 0.799455
O O14 0.640074 0.750000 0.871982
O O15 0.874711 0.951791 0.909134
O O16 0.742263 0.979578 0.955845
O O17 0.406245 0.750000 0.336661
O O18 0.233888 0.981998 0.243578
O O19 0.890706 0.750000 0.788505
O O20 0.105874 0.946599 0.908960
O O21 0.153572 0.750000 0.995742
#
# Coordination Sequence:
#
# PCOD8073724 Si02
#       8
#     4   4   4   4   4   4   4   4
#     4  10  24  40  55  79 108 143 184 229 277 329
#     4   9  20  37  55  78 107 143 184 227 274 328
#     4  10  21  36  56  80 107 139 180 230 279 327
#     4  11  23  39  57  79 111 148 187 228 275 330
#     4  10  20  34  56  87 116 148 183 221 277 333
#     4  10  20  35  54  79 109 139 179 226 276 329
#     4   9  18  35  58  83 110 144 184 226 278 328
#     4   9  18  34  58  86 116 145 182 229 274 328
#
# _framework density 19.187881999999998
#
# number of rings (size 3 to 8) (size 9 to 14) (size 15 to 20)
#    0.000    2.250    0.000    3.000    1.750    5.500 
#    0.000    0.625    0.000    0.000    0.000    0.000 
#    0.000    0.000    0.000    0.000    0.000    0.000 
#
# Total GULP energy -396849.912224 kJ/mol
# GULP energy per Si atom -12401.559757 kJ/mol
# Density = 1.914421 g / cm^3
# Si number density = 19.187882 Si / 1000 Ang^3
#
#
#
# Elastic Constant Matrix: (Units=GPa)
#
#
# Indices 1 2 3 4 5 6 
#
# 1 84.2122 45.0306 39.7889 0.0000 -16.2880 0.0000
# 2 45.0306 107.6648 50.5107 0.0000 -7.2776 0.0000
# 3 39.7889 50.5107 91.3013 0.0000 -21.3268 0.0000
# 4 0.0000 0.0000 0.0000 38.0834 0.0000 0.3608
# 5 -16.2880 -7.2776 -21.3268 0.0000 26.9283 0.0000
# 6 0.0000 0.0000 0.0000 0.3608 0.0000 31.8678
#
#
#
# Elastic Compliance Matrix: (Units=1/GPa)
#
#
# Indices 1 2 3 4 5 6 
#
# 1 0.017528 -0.005441 -0.003062 0.000000 0.006707 0.000000
# 2 -0.005441 0.014381 -0.006682 0.000000 -0.004697 0.000000
# 3 -0.003062 -0.006682 0.018563 0.000000 0.011044 0.000000
# 4 0.000000 0.000000 0.000000 0.026261 0.000000 -0.000297
# 5 0.006707 -0.004697 0.011044 0.000000 0.048670 0.000000
# 6 0.000000 0.000000 0.000000 -0.000297 0.000000 0.031383
#
#
# Mechanical properties :
#
#
# Convention : Reuss Voigt Hill
#
# Bulk Modulus (GPa) = 49.74431 61.53764 55.64097
# Shear Modulus (GPa) = 25.79210 29.23245 27.51227
#
# Velocity S-wave (km/s) = 3.67029 3.90742 3.79071
# Velocity P-wave (km/s) = 6.62892 7.24555 6.94408
#
# Compressibility (1/GPa) = 0.02010280
#
# Stress axis : x y z
#
# Youngs Moduli (GPa) = 57.05063 69.53493 53.86927
#
# Poissons Ratio (x) = 0.37837 0.16494
# Poissons Ratio (y) = 0.31043 0.35995
# Poissons Ratio (z) = 0.17468 0.46462
#
# Static dielectric constant tensor:
#      x y z
#    x 3.383950 0.000000 -0.015560 
#    y 0.000000 3.800410 0.000000 
#    z -0.015560 0.000000 3.145000 
# 
# 
# High freq. dielectric constant tensor:
#      x y z
#    x 1.744790 0.000000 -0.017180 
#    y 0.000000 1.752070 0.000000 
#    z -0.017180 0.000000 1.740880 
# 
# From -- ./inp_files/73145.got.cif
#   From: 2010.06.25/outbox.cif.g09.slc.cpg/sg11_37_cif.got.tgz:73145.got - 2010.06.27 23:14:04.
