data_PCOD8073800
_publ_section_title
;
Structure prediction by ZEFSAII (Michael W. Deem and Ramdas Pophale) SiO2 
 PCOD8073800
Probable space group: P 21/M
;
_chemical_formula_sum "Si O2"
_cell_formula_units_Z 32
_cell_length_a 11.242509
_cell_length_b 8.875811
_cell_length_c 19.241776
_cell_angle_alpha 90.000000
_cell_angle_beta 123.190354
_cell_angle_gamma 90.000000
_cell_volume 1606.820748
_symmetry_space_group_name_H-M "P 21/M"
_symmetry_group_IT_number 11
_symmetry_cell_setting 'monoclinic'
loop_
_space_group_symop_operation_xyz
x,y,z
-x,1/2+y,-z
-x,-y,-z
x,1/2-y,z
loop_
_atom_site_type_symbol
_atom_site_label
_atom_site_fract_x
_atom_site_fract_y
_atom_site_fract_z
Si Si1 0.172298 0.577997 0.254184
Si Si2 0.469310 0.921695 0.419174
Si Si3 0.073369 0.070888 0.590621
Si Si4 0.382563 0.076999 0.048728
Si Si5 0.393584 0.428400 0.673071
Si Si6 0.325014 0.572618 0.163388
Si Si7 0.320592 0.077013 0.875353
Si Si8 0.945663 0.073148 0.273095
O O1 0.117385 0.750000 0.236165
O O2 0.305043 0.560627 0.347618
O O3 0.216872 0.528231 0.190587
O O4 0.047989 0.471929 0.242408
O O5 0.512455 0.750000 0.442595
O O6 0.567151 0.995528 0.390183
O O7 0.500000 0.000000 0.500000
O O8 0.056826 0.250000 0.582167
O O9 0.237858 0.017727 0.645403
O O10 0.004078 0.008091 0.639427
O O11 0.000000 0.000000 0.500000
O O12 0.427909 0.250000 0.073584
O O13 0.283519 0.018989 0.080501
O O14 0.520410 0.971867 0.091328
O O15 0.293227 0.058360 0.949141
O O16 0.403074 0.250000 0.670019
O O17 0.513718 0.479727 0.766205
O O18 0.316914 0.750000 0.146844
O O19 0.300905 0.250000 0.845239
O O20 0.213003 0.975184 0.797689
O O21 0.951987 0.250000 0.287437
#
# Coordination Sequence:
#
# PCOD8073800 Si02
#       8
#     4   4   4   4   4   4   4   4
#     4   9  20  38  57  80 111 151 193 234 286 350
#     4   9  18  33  54  79 104 135 179 229 279 329
#     4  11  23  39  58  82 114 151 188 231 285 346
#     4  10  20  34  58  91 122 147 186 239 286 340
#     4   8  17  34  54  76 105 140 179 223 273 330
#     4   9  17  34  60  84 110 149 192 233 286 343
#     4  10  21  38  59  85 118 157 191 230 288 345
#     4  12  25  40  59  83 114 151 194 242 290 346
#
# _framework density 19.915102000000001
#
# number of rings (size 3 to 8) (size 9 to 14) (size 15 to 20)
#    0.000    2.250    0.000    4.500    1.750    3.500 
#    0.000    3.750    0.000    0.000    0.000    0.000 
#    0.000    0.000    0.000    0.000    0.000    0.000 
#
# Total GULP energy -396780.015755 kJ/mol
# GULP energy per Si atom -12399.375492 kJ/mol
# Density = 1.986977 g / cm^3
# Si number density = 19.915102 Si / 1000 Ang^3
#
#
#
# Elastic Constant Matrix: (Units=GPa)
#
#
# Indices 1 2 3 4 5 6 
#
# 1 76.0738 31.9189 28.2033 0.0000 -13.2136 0.0000
# 2 31.9189 83.7212 37.5509 0.0000 -6.4466 0.0000
# 3 28.2033 37.5509 78.4791 0.0000 -26.2203 0.0000
# 4 0.0000 0.0000 0.0000 34.2922 0.0000 -4.8572
# 5 -13.2136 -6.4466 -26.2203 0.0000 31.8686 0.0000
# 6 0.0000 0.0000 0.0000 -4.8572 0.0000 30.6329
#
#
#
# Elastic Compliance Matrix: (Units=1/GPa)
#
#
# Indices 1 2 3 4 5 6 
#
# 1 0.016825 -0.005095 -0.002237 0.000000 0.004105 0.000000
# 2 -0.005095 0.017133 -0.008157 0.000000 -0.005358 0.000000
# 3 -0.002237 -0.008157 0.022876 0.000000 0.016244 0.000000
# 4 0.000000 0.000000 0.000000 0.029831 0.000000 0.004730
# 5 0.004105 -0.005358 0.016244 0.000000 0.045362 0.000000
# 6 0.000000 0.000000 0.000000 0.004730 0.000000 0.033395
#
#
# Mechanical properties :
#
#
# Convention : Reuss Voigt Hill
#
# Bulk Modulus (GPa) = 38.67534 48.18006 43.42770
# Shear Modulus (GPa) = 24.38787 28.73214 26.56001
#
# Velocity S-wave (km/s) = 3.50321 3.80245 3.65590
# Velocity P-wave (km/s) = 5.98545 6.59723 6.29877
#
# Compressibility (1/GPa) = 0.02585627
#
# Stress axis : x y z
#
# Youngs Moduli (GPa) = 59.43408 58.36699 43.71306
#
# Poissons Ratio (x) = 0.29739 0.09779
# Poissons Ratio (y) = 0.30283 0.35656
# Poissons Ratio (z) = 0.13296 0.47609
#
# Static dielectric constant tensor:
#      x y z
#    x 3.624240 0.000000 -0.208330 
#    y 0.000000 3.497340 0.000000 
#    z -0.208330 0.000000 3.638850 
# 
# 
# High freq. dielectric constant tensor:
#      x y z
#    x 1.778280 0.000000 -0.021880 
#    y 0.000000 1.761650 0.000000 
#    z -0.021880 0.000000 1.774250 
# 
# From -- ./inp_files/64464.got.cif
#   From: 2010.06.25/outbox.cif.g09.slc.cpg/sg11_33_cif.got.tgz:64464.got - 2010.06.27 23:14:04.
