data_PCOD8073195
_publ_section_title
;
Structure prediction by ZEFSAII (Michael W. Deem and Ramdas Pophale) SiO2 
 PCOD8073195
Probable space group: P 21/M
;
_chemical_formula_sum "Si O2"
_cell_formula_units_Z 28
_cell_length_a 17.792668
_cell_length_b 12.989416
_cell_length_c 6.609469
_cell_angle_alpha 90.000000
_cell_angle_beta 110.913304
_cell_angle_gamma 90.000000
_cell_volume 1426.923507
_symmetry_space_group_name_H-M "P 21/M"
_symmetry_group_IT_number 11
_symmetry_cell_setting 'monoclinic'
loop_
_space_group_symop_operation_xyz
x,y,z
-x,1/2+y,-z
-x,-y,-z
x,1/2-y,z
loop_
_atom_site_type_symbol
_atom_site_label
_atom_site_fract_x
_atom_site_fract_y
_atom_site_fract_z
Si Si1 0.351658 0.636165 0.722251
Si Si2 0.393436 0.451691 0.468967
Si Si3 0.886814 0.519960 0.028480
Si Si4 0.458876 0.946569 0.149734
Si Si5 0.777124 0.632173 0.613107
Si Si6 0.816379 0.453734 0.360581
Si Si7 0.953061 0.128429 0.762686
O O1 0.365771 0.750000 0.648125
O O2 0.382912 0.558679 0.580821
O O3 0.257287 0.621785 0.669728
O O4 0.395299 0.629920 0.984259
O O5 0.470595 0.393804 0.645731
O O6 0.410811 0.473889 0.249322
O O7 0.315463 0.380702 0.408903
O O8 0.827400 0.470998 0.134431
O O9 0.958859 0.583308 0.202453
O O10 0.835847 0.599791 0.848814
O O11 0.919852 0.423567 0.933973
O O12 0.500000 0.000000 0.000000
O O13 0.793013 0.750000 0.571481
O O14 0.797946 0.565116 0.437762
O O15 0.896269 0.399885 0.521500
O O16 0.957590 0.250000 0.800604
#
# Coordination Sequence:
#
# PCOD8073195 Si02
#       7
#     4   4   4   4   4   4   4
#     4  10  20  33  53  80 107 140 180 218 264 320
#     4   9  19  36  54  76 111 141 172 223 271 312
#     4  10  21  38  56  79 112 143 177 224 269 314
#     4   9  18  35  55  75 105 142 176 217 265 314
#     4  10  21  36  56  81 107 141 183 222 267 320
#     4  10  21  38  56  79 111 143 178 223 268 317
#     4  10  21  36  56  82 110 143 181 219 265 319
#
# _framework density 19.622634000000001
#
# number of rings (size 3 to 8) (size 9 to 14) (size 15 to 20)
#    0.000    2.286    0.000    2.143    0.000    3.429 
#    0.000    5.714    0.000    0.000    0.000    0.000 
#    0.000    0.000    0.000    0.000    0.000    0.000 
#
# Total GULP energy -347132.497469 kJ/mol
# GULP energy per Si atom -12397.589195 kJ/mol
# Density = 1.957797 g / cm^3
# Si number density = 19.622634 Si / 1000 Ang^3
#
#
#
# Elastic Constant Matrix: (Units=GPa)
#
#
# Indices 1 2 3 4 5 6 
#
# 1 63.2629 2.9070 25.3963 0.0000 7.8122 0.0000
# 2 2.9070 100.1359 20.3660 0.0000 5.0001 0.0000
# 3 25.3963 20.3660 66.8082 0.0000 -6.5650 0.0000
# 4 0.0000 0.0000 0.0000 11.0888 0.0000 -0.9488
# 5 7.8122 5.0001 -6.5650 0.0000 42.7296 0.0000
# 6 0.0000 0.0000 0.0000 -0.9488 0.0000 10.7111
#
#
#
# Elastic Compliance Matrix: (Units=1/GPa)
#
#
# Indices 1 2 3 4 5 6 
#
# 1 0.019754 0.001395 -0.008433 0.000000 -0.005070 0.000000
# 2 0.001395 0.010879 -0.004058 0.000000 -0.002151 0.000000
# 3 -0.008433 -0.004058 0.019910 0.000000 0.005076 0.000000
# 4 0.000000 0.000000 0.000000 0.090870 0.000000 0.008049
# 5 -0.005070 -0.002151 0.005076 0.000000 0.025362 0.000000
# 6 0.000000 0.000000 0.000000 0.008049 0.000000 0.094074
#
#
# Mechanical properties :
#
#
# Convention : Reuss Voigt Hill
#
# Bulk Modulus (GPa) = 35.27239 36.39398 35.83318
# Shear Modulus (GPa) = 17.09460 25.00841 21.05150
#
# Velocity S-wave (km/s) = 2.95476 3.57384 3.27894
# Velocity P-wave (km/s) = 5.44566 5.96800 5.71280
#
# Compressibility (1/GPa) = 0.02835079
#
# Stress axis : x y z
#
# Youngs Moduli (GPa) = 50.62174 91.92286 50.22699
#
# Poissons Ratio (x) = -0.12821 0.42355
# Poissons Ratio (y) = -0.07061 0.20382
# Poissons Ratio (z) = 0.42688 0.37302
#
# Static dielectric constant tensor:
#      x y z
#    x 3.819990 0.000000 0.273780 
#    y 0.000000 3.271690 0.000000 
#    z 0.273780 0.000000 3.745930 
# 
# 
# High freq. dielectric constant tensor:
#      x y z
#    x 1.781960 0.000000 0.012870 
#    y 0.000000 1.740140 0.000000 
#    z 0.012870 0.000000 1.769760 
# 
# From -- ./inp_files/8838.got.cif
#   From: 2010.06.25/outbox.cif.g09.slc.cpg/sg11_5_cif.got.tgz:8838.got - 2010.06.27 23:14:04.
