data_PCOD8073652
_publ_section_title
;
Structure prediction by ZEFSAII (Michael W. Deem and Ramdas Pophale) SiO2 
 PCOD8073652
Probable space group: P 21/M
;
_chemical_formula_sum "Si O2"
_cell_formula_units_Z 28
_cell_length_a 15.653913
_cell_length_b 8.805505
_cell_length_c 20.373362
_cell_angle_alpha 90.000000
_cell_angle_beta 148.935871
_cell_angle_gamma 90.000000
_cell_volume 1449.062729
_symmetry_space_group_name_H-M "P 21/M"
_symmetry_group_IT_number 11
_symmetry_cell_setting 'monoclinic'
loop_
_space_group_symop_operation_xyz
x,y,z
-x,1/2+y,-z
-x,-y,-z
x,1/2-y,z
loop_
_atom_site_type_symbol
_atom_site_label
_atom_site_fract_x
_atom_site_fract_y
_atom_site_fract_z
Si Si1 0.610402 0.427530 0.129815
Si Si2 0.449758 0.428063 0.161833
Si Si3 0.492865 0.422239 0.564450
Si Si4 0.203289 0.419254 0.188834
Si Si5 0.031623 0.928116 0.591865
Si Si6 0.847136 0.422729 0.976212
Si Si7 0.685595 0.928812 0.425102
O O1 0.610675 0.250000 0.116093
O O2 0.529868 0.470738 0.145759
O O3 0.801293 0.487878 0.261413
O O4 0.500000 0.500000 0.000000
O O5 0.417078 0.250000 0.147144
O O6 0.276934 0.520289 0.049065
O O7 0.569214 0.480180 0.298955
O O8 0.500000 0.500000 0.500000
O O9 0.452565 0.250000 0.523870
O O10 0.674768 0.446237 0.712288
O O11 0.358560 0.482627 0.529536
O O12 0.282541 0.250000 0.246617
O O13 0.161060 0.451473 0.085871
O O14 0.038438 0.425291 0.125874
O O15 0.050203 0.750000 0.591351
O O16 0.877321 0.967109 0.537618
O O17 0.000000 0.000000 0.500000
O O18 0.800645 0.250000 0.923896
O O19 0.648444 0.750000 0.392080
#
# Coordination Sequence:
#
# PCOD8073652 Si02
#       7
#     4   4   4   4   4   4   4
#     4  10  23  41  60  87 123 160 197 244 301 362
#     4  11  21  35  59  88 118 149 194 247 294 353
#     4  11  23  39  58  82 116 156 200 247 302 359
#     4  10  20  35  56  81 111 147 188 236 287 340
#     4  10  20  38  63  92 122 155 200 250 299 361
#     4  10  20  34  55  84 113 146 188 233 286 345
#     4  10  21  37  61  88 115 151 200 247 295 361
#
# _framework density 19.322835999999999
#
# number of rings (size 3 to 8) (size 9 to 14) (size 15 to 20)
#    0.000    1.714    2.857    1.714    0.000    4.000 
#    2.571    0.000    0.000    0.000    0.000    0.000 
#    0.000    0.000    0.000    0.000    0.000    0.000 
#
# Total GULP energy -346982.342352 kJ/mol
# GULP energy per Si atom -12392.226513 kJ/mol
# Density = 1.927886 g / cm^3
# Si number density = 19.322836 Si / 1000 Ang^3
#
#
#
# Elastic Constant Matrix: (Units=GPa)
#
#
# Indices 1 2 3 4 5 6 
#
# 1 158.2732 51.7584 76.2995 0.0000 12.6102 0.0000
# 2 51.7584 55.5335 28.5341 0.0000 7.2569 0.0000
# 3 76.2995 28.5341 102.9287 0.0000 15.2817 0.0000
# 4 0.0000 0.0000 0.0000 31.8088 0.0000 -1.5902
# 5 12.6102 7.2569 15.2817 0.0000 37.9490 0.0000
# 6 0.0000 0.0000 0.0000 -1.5902 0.0000 31.0412
#
#
#
# Elastic Compliance Matrix: (Units=1/GPa)
#
#
# Indices 1 2 3 4 5 6 
#
# 1 0.012190 -0.007849 -0.006894 0.000000 0.000226 0.000000
# 2 -0.007849 0.026165 -0.001148 0.000000 -0.001933 0.000000
# 3 -0.006894 -0.001148 0.015711 0.000000 -0.003816 0.000000
# 4 0.000000 0.000000 0.000000 0.031519 0.000000 0.001615
# 5 0.000226 -0.001933 -0.003816 0.000000 0.028182 0.000000
# 6 0.000000 0.000000 0.000000 0.001615 0.000000 0.032298
#
#
# Mechanical properties :
#
#
# Convention : Reuss Voigt Hill
#
# Bulk Modulus (GPa) = 44.87611 69.99105 57.43358
# Shear Modulus (GPa) = 26.98670 30.83602 28.91136
#
# Velocity S-wave (km/s) = 3.74119 3.99912 3.87231
# Velocity P-wave (km/s) = 6.47587 7.59108 7.05554
#
# Compressibility (1/GPa) = 0.02228357
#
# Stress axis : x y z
#
# Youngs Moduli (GPa) = 82.03110 38.21880 63.64950
#
# Poissons Ratio (x) = 0.29998 0.43882
# Poissons Ratio (y) = 0.64386 0.07309
# Poissons Ratio (z) = 0.56555 0.04389
#
# Static dielectric constant tensor:
#      x y z
#    x 3.814730 0.000000 0.342580 
#    y 0.000000 3.538250 0.000000 
#    z 0.342580 0.000000 3.390130 
# 
# 
# High freq. dielectric constant tensor:
#      x y z
#    x 1.753780 0.000000 0.024090 
#    y 0.000000 1.752930 0.000000 
#    z 0.024090 0.000000 1.743910 
# 
# From -- ./inp_files/60068.got.cif
#   From: 2010.06.25/outbox.cif.g09.slc.cpg/sg11_31_cif.got.tgz:60068.got - 2010.06.27 23:14:04.
