data_PCOD8073436
_publ_section_title
;
Structure prediction by ZEFSAII (Michael W. Deem and Ramdas Pophale) SiO2 
 PCOD8073436
Probable space group: P 21/M
;
_chemical_formula_sum "Si O2"
_cell_formula_units_Z 32
_cell_length_a 15.763052
_cell_length_b 8.998304
_cell_length_c 25.312949
_cell_angle_alpha 90.000000
_cell_angle_beta 29.714197
_cell_angle_gamma 90.000000
_cell_volume 1779.671122
_symmetry_space_group_name_H-M "P 21/M"
_symmetry_group_IT_number 11
_symmetry_cell_setting 'monoclinic'
loop_
_space_group_symop_operation_xyz
x,y,z
-x,1/2+y,-z
-x,-y,-z
x,1/2-y,z
loop_
_atom_site_type_symbol
_atom_site_label
_atom_site_fract_x
_atom_site_fract_y
_atom_site_fract_z
Si Si1 0.772386 0.422764 0.587515
Si Si2 0.350559 0.576137 0.149986
Si Si3 0.897600 0.426648 0.102403
Si Si4 0.151080 0.423864 0.349468
Si Si5 0.400085 0.079125 0.599916
Si Si6 0.974301 0.924005 0.167976
Si Si7 0.452532 0.075996 0.689745
Si Si8 0.692684 0.077236 0.947414
O O1 0.764774 0.250000 0.606464
O O2 0.746917 0.514259 0.655080
O O3 0.623528 0.469098 0.627946
O O4 0.951012 0.463275 0.463006
O O5 0.351540 0.750000 0.160668
O O6 0.215888 0.499997 0.261371
O O7 0.291035 0.536730 0.122981
O O8 0.540926 0.514262 0.057074
O O9 0.905993 0.250000 0.094010
O O10 0.985658 0.480184 0.108845
O O11 0.702154 0.480181 0.203351
O O12 0.000000 0.500000 0.000000
O O13 0.185082 0.250000 0.327128
O O14 0.425254 0.250000 0.574739
O O15 0.199714 0.035819 0.706877
O O16 0.479958 0.035832 0.613458
O O17 0.500000 0.000000 0.500000
O O18 0.976049 0.750000 0.151726
O O19 0.130894 0.969095 0.120581
O O20 0.407276 0.250000 0.720501
O O21 0.651058 0.250000 0.977702
#
# Coordination Sequence:
#
# PCOD8073436 Si02
#       8
#     4   4   4   4   4   4   4   4
#     4   9  19  36  56  76 101 136 176 216 257 302
#     4  10  20  34  53  78 107 138 172 212 258 307
#     4  11  22  36  55  79 105 135 171 211 258 310
#     4  10  20  34  53  78 107 138 172 212 258 307
#     4   9  18  32  51  75 103 133 165 205 252 302
#     4   9  19  37  56  75 103 137 173 215 259 301
#     4   9  19  37  56  75 103 137 173 215 259 301
#     4   9  19  36  56  76 101 136 176 216 257 302
#
# _framework density 17.98085
#
# number of rings (size 3 to 8) (size 9 to 14) (size 15 to 20)
#    0.000    2.500    0.000    2.625    0.000    6.000 
#    0.000    0.000    0.000    0.000    0.000    0.000 
#    0.000    0.000    0.000    0.000    0.000    0.000 
#
# Total GULP energy -396871.055344 kJ/mol
# GULP energy per Si atom -12402.220479 kJ/mol
# Density = 1.793993 g / cm^3
# Si number density = 17.980850 Si / 1000 Ang^3
#
#
#
# Elastic Constant Matrix: (Units=GPa)
#
#
# Indices 1 2 3 4 5 6 
#
# 1 130.8253 54.6305 81.8193 0.0000 -17.5690 0.0000
# 2 54.6305 88.2233 65.9259 0.0000 7.2649 0.0000
# 3 81.8193 65.9259 126.2221 0.0000 14.6456 0.0000
# 4 0.0000 0.0000 0.0000 36.9893 0.0000 4.6988
# 5 -17.5690 7.2649 14.6456 0.0000 31.5036 0.0000
# 6 0.0000 0.0000 0.0000 4.6988 0.0000 29.6744
#
#
#
# Elastic Compliance Matrix: (Units=1/GPa)
#
#
# Indices 1 2 3 4 5 6 
#
# 1 0.019710 -0.004231 -0.012636 0.000000 0.017842 0.000000
# 2 -0.004231 0.019501 -0.007026 0.000000 -0.003591 0.000000
# 3 -0.012636 -0.007026 0.021577 0.000000 -0.015457 0.000000
# 4 0.000000 0.000000 0.000000 0.027590 0.000000 -0.004369
# 5 0.017842 -0.003591 -0.015457 0.000000 0.049707 0.000000
# 6 0.000000 0.000000 0.000000 -0.004369 0.000000 0.034391
#
#
# Mechanical properties :
#
#
# Convention : Reuss Voigt Hill
#
# Bulk Modulus (GPa) = 76.92173 83.33582 80.12878
# Shear Modulus (GPa) = 22.26231 29.15978 25.71105
#
# Velocity S-wave (km/s) = 3.52250 4.03142 3.78552
# Velocity P-wave (km/s) = 7.70822 8.25333 7.98543
#
# Compressibility (1/GPa) = 0.01300023
#
# Stress axis : x y z
#
# Youngs Moduli (GPa) = 50.73666 51.27962 46.34637
#
# Poissons Ratio (x) = 0.21699 0.58564
# Poissons Ratio (y) = 0.21469 0.32562
# Poissons Ratio (z) = 0.64112 0.36028
#
# Static dielectric constant tensor:
#      x y z
#    x 3.369780 0.000000 0.009770 
#    y 0.000000 3.660370 0.000000 
#    z 0.009770 0.000000 3.385070 
# 
# 
# High freq. dielectric constant tensor:
#      x y z
#    x 1.698880 0.000000 -0.000200 
#    y 0.000000 1.697340 0.000000 
#    z -0.000200 0.000000 1.698550 
# 
# From -- ./inp_files/69057.got.cif
#   From: 2010.06.25/outbox.cif.g09.slc.cpg/sg11_35_cif.got.tgz:69057.got - 2010.06.27 23:14:04.
