data_PCOD8073995
_publ_section_title
;
Structure prediction by ZEFSAII (Michael W. Deem and Ramdas Pophale) SiO2 
 PCOD8073995
Probable space group: P 21/M
;
_chemical_formula_sum "Si O2"
_cell_formula_units_Z 28
_cell_length_a 24.160996
_cell_length_b 9.212176
_cell_length_c 9.266157
_cell_angle_alpha 90.000000
_cell_angle_beta 134.328743
_cell_angle_gamma 90.000000
_cell_volume 1475.334869
_symmetry_space_group_name_H-M "P 21/M"
_symmetry_group_IT_number 11
_symmetry_cell_setting 'monoclinic'
loop_
_space_group_symop_operation_xyz
x,y,z
-x,1/2+y,-z
-x,-y,-z
x,1/2-y,z
loop_
_atom_site_type_symbol
_atom_site_label
_atom_site_fract_x
_atom_site_fract_y
_atom_site_fract_z
Si Si1 0.576659 0.579749 0.188405
Si Si2 0.804955 0.091537 0.614126
Si Si3 0.062073 0.412898 0.024900
Si Si4 0.332240 0.911533 0.421699
Si Si5 0.066320 0.087119 0.700898
Si Si6 0.757243 0.580971 0.988942
Si Si7 0.280148 0.085478 0.756035
O O1 0.561429 0.750000 0.183927
O O2 0.600739 0.512276 0.387872
O O3 0.638651 0.552779 0.173763
O O4 0.500000 0.500000 0.000000
O O5 0.843884 0.250000 0.658307
O O6 0.726522 0.111539 0.556084
O O7 0.855972 0.988365 0.806059
O O8 0.787595 0.017653 0.428654
O O9 0.066464 0.250000 0.092920
O O10 0.040447 0.415441 0.818979
O O11 0.000000 0.500000 0.000000
O O12 0.362836 0.750000 0.431859
O O13 0.292577 0.988732 0.213824
O O14 0.066002 0.250000 0.637915
O O15 0.153599 0.023805 0.840635
O O16 0.000000 0.000000 0.500000
O O17 0.757879 0.750000 0.941866
O O18 0.714219 0.558380 0.062950
O O19 0.254413 0.250000 0.677159
#
# Coordination Sequence:
#
# PCOD8073995 Si02
#       7
#     4   4   4   4   4   4   4
#     4  10  20  37  61  88 118 150 185 229 277 333
#     4  10  20  35  55  80 108 142 185 232 277 329
#     4  11  23  38  55  78 107 143 187 235 285 336
#     4  10  20  35  58  86 113 147 186 227 276 332
#     4  10  23  39  56  79 111 149 190 235 287 339
#     4  10  20  38  59  82 112 149 190 233 282 336
#     4   9  20  36  58  85 113 147 186 229 279 331
#
# _framework density 18.978743000000001
#
# number of rings (size 3 to 8) (size 9 to 14) (size 15 to 20)
#    0.000    2.000    1.429    1.714    2.000    4.000 
#    0.000    0.714    0.000    0.000    0.000    0.000 
#    0.000    0.000    0.000    0.000    0.000    0.000 
#
# Total GULP energy -347125.571389 kJ/mol
# GULP energy per Si atom -12397.341835 kJ/mol
# Density = 1.893555 g / cm^3
# Si number density = 18.978743 Si / 1000 Ang^3
#
#
#
# Elastic Constant Matrix: (Units=GPa)
#
#
# Indices 1 2 3 4 5 6 
#
# 1 55.6395 36.5271 35.3728 0.0000 -7.2381 0.0000
# 2 36.5271 150.7146 87.8540 0.0000 1.9755 0.0000
# 3 35.3728 87.8540 149.9386 0.0000 3.7268 0.0000
# 4 0.0000 0.0000 0.0000 41.2878 0.0000 2.2768
# 5 -7.2381 1.9755 3.7268 0.0000 25.6695 0.0000
# 6 0.0000 0.0000 0.0000 2.2768 0.0000 23.8927
#
#
#
# Elastic Compliance Matrix: (Units=1/GPa)
#
#
# Indices 1 2 3 4 5 6 
#
# 1 0.023684 -0.003755 -0.003573 0.000000 0.007486 0.000000
# 2 -0.003755 0.010672 -0.005340 0.000000 -0.001105 0.000000
# 3 -0.003573 -0.005340 0.010695 0.000000 -0.002149 0.000000
# 4 0.000000 0.000000 0.000000 0.024348 0.000000 -0.002320
# 5 0.007486 -0.001105 -0.002149 0.000000 0.041465 0.000000
# 6 0.000000 0.000000 0.000000 -0.002320 0.000000 0.042075
#
#
# Mechanical properties :
#
#
# Convention : Reuss Voigt Hill
#
# Bulk Modulus (GPa) = 50.72515 75.08893 62.90704
# Shear Modulus (GPa) = 27.04954 31.27258 29.16106
#
# Velocity S-wave (km/s) = 3.77935 4.06368 3.92409
# Velocity P-wave (km/s) = 6.76979 7.85294 7.33139
#
# Compressibility (1/GPa) = 0.01971408
#
# Stress axis : x y z
#
# Youngs Moduli (GPa) = 42.22338 93.69970 93.50527
#
# Poissons Ratio (x) = 0.35187 0.33410
# Poissons Ratio (y) = 0.15856 0.49931
# Poissons Ratio (z) = 0.15087 0.50035
#
# Static dielectric constant tensor:
#      x y z
#    x 3.503380 0.000000 0.685880 
#    y 0.000000 3.964320 0.000000 
#    z 0.685880 0.000000 8.934090 
# 
# 
# High freq. dielectric constant tensor:
#      x y z
#    x 1.718870 0.000000 -0.004850 
#    y 0.000000 1.750110 0.000000 
#    z -0.004850 0.000000 1.738540 
# 
# From -- ./inp_files/24105.got.cif
#   From: 2010.06.25/outbox.cif.g09.slc.cpg/sg11_13_cif.got.tgz:24105.got - 2010.06.27 23:14:04.
