data_PCOD8073121
_publ_section_title
;
Structure prediction by ZEFSAII (Michael W. Deem and Ramdas Pophale) SiO2 
 PCOD8073121
Probable space group: P 21/M
;
_chemical_formula_sum "Si O2"
_cell_formula_units_Z 28
_cell_length_a 20.918745
_cell_length_b 9.100955
_cell_length_c 13.910236
_cell_angle_alpha 90.000000
_cell_angle_beta 144.273367
_cell_angle_gamma 90.000000
_cell_volume 1546.355788
_symmetry_space_group_name_H-M "P 21/M"
_symmetry_group_IT_number 11
_symmetry_cell_setting 'monoclinic'
loop_
_space_group_symop_operation_xyz
x,y,z
-x,1/2+y,-z
-x,-y,-z
x,1/2-y,z
loop_
_atom_site_type_symbol
_atom_site_label
_atom_site_fract_x
_atom_site_fract_y
_atom_site_fract_z
Si Si1 0.113274 0.075321 0.661160
Si Si2 0.779724 0.079813 0.034563
Si Si3 0.557895 0.417816 0.857271
Si Si4 0.909503 0.079954 0.007226
Si Si5 0.697515 0.078997 0.210938
Si Si6 0.127348 0.576898 0.253723
Si Si7 0.656469 0.077922 0.377853
O O1 0.102507 0.250000 0.644744
O O2 0.149905 0.024662 0.811389
O O3 0.198413 0.021525 0.684699
O O4 0.000000 0.000000 0.500000
O O5 0.802260 0.250000 0.090328
O O6 0.650975 0.045378 0.891610
O O7 0.813824 0.045955 0.966864
O O8 0.521629 0.250000 0.806749
O O9 0.451069 0.512473 0.703311
O O10 0.602615 0.455269 0.018334
O O11 0.941429 0.250000 0.045981
O O12 0.864624 0.030965 0.848418
O O13 0.019413 0.993059 0.169578
O O14 0.732555 0.250000 0.248594
O O15 0.655481 0.034786 0.264654
O O16 0.118040 0.750000 0.256459
O O17 0.234569 0.514410 0.438306
O O18 0.651479 0.250000 0.387873
#
# Coordination Sequence:
#
# PCOD8073121 Si02
#       7
#     4   4   4   4   4   4   4
#     4  11  22  34  50  75 106 137 171 213 254 308
#     4   9  19  36  55  75 101 137 175 213 261 308
#     4   9  18  33  51  72 102 137 177 218 255 305
#     4   9  18  35  57  76 102 136 171 212 263 318
#     4   9  19  35  51  72 104 141 174 211 257 304
#     4   9  19  34  52  79 107 133 168 216 266 309
#     4  10  20  33  52  76 106 137 172 216 260 305
#
# _framework density 18.107087
#
# number of rings (size 3 to 8) (size 9 to 14) (size 15 to 20)
#    0.000    2.571    0.000    2.571    2.000    4.000 
#    0.000    0.714    0.000    0.000    0.000    0.000 
#    0.000    0.000    0.000    0.000    0.000    0.000 
#
# Total GULP energy -347212.746805 kJ/mol
# GULP energy per Si atom -12400.455243 kJ/mol
# Density = 1.806587 g / cm^3
# Si number density = 18.107087 Si / 1000 Ang^3
#
#
#
# Elastic Constant Matrix: (Units=GPa)
#
#
# Indices 1 2 3 4 5 6 
#
# 1 121.3194 33.6042 57.2744 0.0000 14.2758 0.0000
# 2 33.6042 61.3512 37.5127 0.0000 10.4964 0.0000
# 3 57.2744 37.5127 112.3360 0.0000 18.3693 0.0000
# 4 0.0000 0.0000 0.0000 30.2488 0.0000 7.6208
# 5 14.2758 10.4964 18.3693 0.0000 18.8803 0.0000
# 6 0.0000 0.0000 0.0000 7.6208 0.0000 26.7177
#
#
#
# Elastic Compliance Matrix: (Units=1/GPa)
#
#
# Indices 1 2 3 4 5 6 
#
# 1 0.011497 -0.003169 -0.004364 0.000000 -0.002685 0.000000
# 2 -0.003169 0.021871 -0.004865 0.000000 -0.005029 0.000000
# 3 -0.004364 -0.004865 0.013996 0.000000 -0.007613 0.000000
# 4 0.000000 0.000000 0.000000 0.035619 0.000000 -0.010160
# 5 -0.002685 -0.005029 -0.007613 0.000000 0.065198 0.000000
# 6 0.000000 0.000000 0.000000 -0.010160 0.000000 0.040326
#
#
# Mechanical properties :
#
#
# Convention : Reuss Voigt Hill
#
# Bulk Modulus (GPa) = 44.31330 61.30991 52.81160
# Shear Modulus (GPa) = 22.64217 26.27706 24.45961
#
# Velocity S-wave (km/s) = 3.54002 3.81360 3.67935
# Velocity P-wave (km/s) = 6.42145 7.30236 6.87603
#
# Compressibility (1/GPa) = 0.02256659
#
# Stress axis : x y z
#
# Youngs Moduli (GPa) = 86.98013 45.72324 71.44649
#
# Poissons Ratio (x) = 0.14491 0.31181
# Poissons Ratio (y) = 0.27567 0.34759
# Poissons Ratio (z) = 0.37961 0.22245
#
# Static dielectric constant tensor:
#      x y z
#    x 2.252410 0.000000 -0.067730 
#    y 0.000000 3.343190 0.000000 
#    z -0.067730 0.000000 3.317350 
# 
# 
# High freq. dielectric constant tensor:
#      x y z
#    x 1.702510 0.000000 0.009180 
#    y 0.000000 1.693840 0.000000 
#    z 0.009180 0.000000 1.692430 
# 
# From -- ./inp_files/37459.got.cif
#   From: 2010.06.25/outbox.cif.g09.slc.cpg/sg11_19_cif.got.tgz:37459.got - 2010.06.27 23:14:04.
