data_PCOD8073023
_publ_section_title
;
Structure prediction by ZEFSAII (Michael W. Deem and Ramdas Pophale) SiO2 
 PCOD8073023
Probable space group: P 21/M
;
_chemical_formula_sum "Si O2"
_cell_formula_units_Z 32
_cell_length_a 22.779833
_cell_length_b 9.171113
_cell_length_c 16.336413
_cell_angle_alpha 90.000000
_cell_angle_beta 147.874587
_cell_angle_gamma 90.000000
_cell_volume 1814.916282
_symmetry_space_group_name_H-M "P 21/M"
_symmetry_group_IT_number 11
_symmetry_cell_setting 'monoclinic'
loop_
_space_group_symop_operation_xyz
x,y,z
-x,1/2+y,-z
-x,-y,-z
x,1/2-y,z
loop_
_atom_site_type_symbol
_atom_site_label
_atom_site_fract_x
_atom_site_fract_y
_atom_site_fract_z
Si Si1 0.363623 0.416823 0.172779
Si Si2 0.613622 0.919521 0.620183
Si Si3 0.383299 0.577199 0.532826
Si Si4 0.612241 0.917351 0.145370
Si Si5 0.175700 0.914478 0.861280
Si Si6 0.933918 0.919681 0.594171
Si Si7 0.727059 0.914969 0.452239
Si Si8 0.812648 0.418415 0.313410
O O1 0.364366 0.250000 0.148038
O O2 0.321351 0.436963 0.216879
O O3 0.489007 0.475857 0.307875
O O4 0.277970 0.491609 0.011556
O O5 0.594389 0.750000 0.576940
O O6 0.500000 0.000000 0.500000
O O7 0.671936 0.999497 0.612267
O O8 0.375666 0.750000 0.512398
O O9 0.312412 0.528946 0.526813
O O10 0.599649 0.750000 0.103668
O O11 0.647075 0.930634 0.280577
O O12 0.700099 0.993032 0.190465
O O13 0.500000 0.000000 0.000000
O O14 0.210855 0.750000 0.921602
O O15 0.149814 0.937690 0.735377
O O16 0.060069 0.952859 0.770388
O O17 0.918808 0.750000 0.551173
O O18 0.851998 0.956225 0.572770
O O19 0.906464 0.016780 0.482839
O O20 0.722330 0.750000 0.481355
O O21 0.792823 0.250000 0.312869
#
# Coordination Sequence:
#
# PCOD8073023 Si02
#       8
#     4   4   4   4   4   4   4   4
#     4   9  20  34  49  76 107 133 163 202 255 306
#     4   9  17  32  52  75 104 136 167 203 250 304
#     4  10  20  33  52  79 106 133 168 207 250 308
#     4  10  21  35  50  70 101 139 172 211 259 304
#     4  10  21  34  52  76 103 134 172 216 257 306
#     4   9  19  37  54  72  99 135 177 218 260 299
#     4   9  19  34  52  72  97 132 171 210 254 301
#     4  10  20  33  50  75 100 132 176 215 256 307
#
# _framework density 17.631667
#
# number of rings (size 3 to 8) (size 9 to 14) (size 15 to 20)
#    0.000    2.500    0.000    3.375    1.750    7.000 
#    0.000    0.000    0.000    0.750    0.000    0.000 
#    0.000    0.000    0.000    0.000    0.000    0.000 
#
# Total GULP energy -396683.912884 kJ/mol
# GULP energy per Si atom -12396.372278 kJ/mol
# Density = 1.759154 g / cm^3
# Si number density = 17.631667 Si / 1000 Ang^3
#
#
#
# Elastic Constant Matrix: (Units=GPa)
#
#
# Indices 1 2 3 4 5 6 
#
# 1 90.6968 41.9131 28.2030 0.0000 0.3630 0.0000
# 2 41.9131 93.3444 27.7717 0.0000 -2.8553 0.0000
# 3 28.2030 27.7717 43.3369 0.0000 2.9356 0.0000
# 4 0.0000 0.0000 0.0000 27.1223 0.0000 -4.9850
# 5 0.3630 -2.8553 2.9356 0.0000 18.0745 0.0000
# 6 0.0000 0.0000 0.0000 -4.9850 0.0000 30.7109
#
#
#
# Elastic Compliance Matrix: (Units=1/GPa)
#
#
# Indices 1 2 3 4 5 6 
#
# 1 0.015427 -0.004865 -0.006925 0.000000 0.000046 0.000000
# 2 -0.004865 0.014995 -0.006683 0.000000 0.003552 0.000000
# 3 -0.006925 -0.006683 0.032282 0.000000 -0.006160 0.000000
# 4 0.000000 0.000000 0.000000 0.038004 0.000000 0.006169
# 5 0.000046 0.003552 -0.006160 0.000000 0.056887 0.000000
# 6 0.000000 0.000000 0.000000 0.006169 0.000000 0.033563
#
#
# Mechanical properties :
#
#
# Convention : Reuss Voigt Hill
#
# Bulk Modulus (GPa) = 38.82549 47.01706 42.92128
# Shear Modulus (GPa) = 21.12455 23.81424 22.46939
#
# Velocity S-wave (km/s) = 3.46512 3.67911 3.57371
# Velocity P-wave (km/s) = 6.17070 6.69118 6.43620
#
# Compressibility (1/GPa) = 0.02575628
#
# Stress axis : x y z
#
# Youngs Moduli (GPa) = 64.81979 66.69015 30.97698
#
# Poissons Ratio (x) = 0.32447 0.21452
# Poissons Ratio (y) = 0.31537 0.20703
# Poissons Ratio (z) = 0.44889 0.44572
#
# Static dielectric constant tensor:
#      x y z
#    x 3.419170 0.000000 0.365630 
#    y 0.000000 3.413900 0.000000 
#    z 0.365630 0.000000 2.530730 
# 
# 
# High freq. dielectric constant tensor:
#      x y z
#    x 1.679240 0.000000 -0.001350 
#    y 0.000000 1.691790 0.000000 
#    z -0.001350 0.000000 1.656950 
# 
# From -- ./inp_files/54354.got.cif
#   From: 2010.06.25/outbox.cif.g09.slc.cpg/sg11_28_cif.got.tgz:54354.got - 2010.06.27 23:14:04.
