data_PCOD8073160
_publ_section_title
;
Structure prediction by ZEFSAII (Michael W. Deem and Ramdas Pophale) SiO2 
 PCOD8073160
Probable space group: P 21/M
;
_chemical_formula_sum "Si O2"
_cell_formula_units_Z 28
_cell_length_a 15.662047
_cell_length_b 9.003489
_cell_length_c 21.253140
_cell_angle_alpha 90.000000
_cell_angle_beta 28.660822
_cell_angle_gamma 90.000000
_cell_volume 1437.417785
_symmetry_space_group_name_H-M "P 21/M"
_symmetry_group_IT_number 11
_symmetry_cell_setting 'monoclinic'
loop_
_space_group_symop_operation_xyz
x,y,z
-x,1/2+y,-z
-x,-y,-z
x,1/2-y,z
loop_
_atom_site_type_symbol
_atom_site_label
_atom_site_fract_x
_atom_site_fract_y
_atom_site_fract_z
Si Si1 0.428708 0.571579 0.610356
Si Si2 0.702423 0.084174 0.076496
Si Si3 0.580911 0.577768 0.641092
Si Si4 0.924735 0.578878 0.110465
Si Si5 0.244444 0.922586 0.188808
Si Si6 0.929374 0.924607 0.482724
Si Si7 0.603738 0.576950 0.019679
O O1 0.500000 0.500000 0.500000
O O2 0.417642 0.750000 0.611000
O O3 0.563104 0.522836 0.580206
O O4 0.234613 0.509320 0.753310
O O5 0.643712 0.250000 0.093731
O O6 0.609086 0.044694 0.203423
O O7 0.630480 0.965979 0.074071
O O8 0.914243 0.075319 0.943985
O O9 0.626057 0.750000 0.609229
O O10 0.741552 0.507076 0.578833
O O11 0.870195 0.750000 0.130867
O O12 0.000000 0.500000 0.000000
O O13 0.262015 0.750000 0.164045
O O14 0.063933 0.963628 0.340039
O O15 0.409247 0.979968 0.124421
O O16 0.244425 0.002900 0.121515
O O17 0.919030 0.750000 0.503425
O O18 0.000000 0.000000 0.500000
O O19 0.622915 0.750000 0.999940
#
# Coordination Sequence:
#
# PCOD8073160 Si02
#       7
#     4   4   4   4   4   4   4
#     4  11  23  42  63  90 126 163 207 254 305 369
#     4  10  20  36  58  83 111 147 191 234 291 359
#     4   9  19  37  59  82 113 154 194 236 291 361
#     4  11  22  39  63  89 117 154 197 247 303 361
#     4   9  19  35  52  75 111 150 187 230 285 347
#     4  10  20  35  57  82 111 148 189 233 286 345
#     4  10  20  33  52  80 110 144 188 239 287 336
#
# _framework density 19.479375999999998
#
# number of rings (size 3 to 8) (size 9 to 14) (size 15 to 20)
#    0.000    2.000    1.429    2.143    0.000    3.429 
#    0.000    4.286    0.000    0.000    0.000    0.000 
#    0.000    0.000    0.000    0.000    0.000    0.000 
#
# Total GULP energy -347113.631641 kJ/mol
# GULP energy per Si atom -12396.915416 kJ/mol
# Density = 1.943504 g / cm^3
# Si number density = 19.479376 Si / 1000 Ang^3
#
#
#
# Elastic Constant Matrix: (Units=GPa)
#
#
# Indices 1 2 3 4 5 6 
#
# 1 126.1754 33.7726 57.9231 0.0000 5.7325 0.0000
# 2 33.7726 61.7918 49.5255 0.0000 7.5153 0.0000
# 3 57.9231 49.5255 122.3235 0.0000 1.3930 0.0000
# 4 0.0000 0.0000 0.0000 32.3424 0.0000 6.0185
# 5 5.7325 7.5153 1.3930 0.0000 31.1136 0.0000
# 6 0.0000 0.0000 0.0000 6.0185 0.0000 35.2952
#
#
#
# Elastic Compliance Matrix: (Units=1/GPa)
#
#
# Indices 1 2 3 4 5 6 
#
# 1 0.010436 -0.002386 -0.003963 0.000000 -0.001169 0.000000
# 2 -0.002386 0.025429 -0.009106 0.000000 -0.005295 0.000000
# 3 -0.003963 -0.009106 0.013712 0.000000 0.002316 0.000000
# 4 0.000000 0.000000 0.000000 0.031932 0.000000 -0.005445
# 5 -0.001169 -0.005295 0.002316 0.000000 0.033531 0.000000
# 6 0.000000 0.000000 0.000000 -0.005445 0.000000 0.029261
#
#
# Mechanical properties :
#
#
# Convention : Reuss Voigt Hill
#
# Bulk Modulus (GPa) = 53.56385 65.85924 59.71155
# Shear Modulus (GPa) = 27.55838 31.02154 29.28996
#
# Velocity S-wave (km/s) = 3.76539 3.99498 3.88189
# Velocity P-wave (km/s) = 6.81628 7.42718 7.12828
#
# Compressibility (1/GPa) = 0.01866931
#
# Stress axis : x y z
#
# Youngs Moduli (GPa) = 95.81955 39.32441 72.93063
#
# Poissons Ratio (x) = 0.09382 0.28899
# Poissons Ratio (y) = 0.22861 0.66408
# Poissons Ratio (z) = 0.37969 0.35807
#
# Static dielectric constant tensor:
#      x y z
#    x 3.640100 0.000000 -0.082050 
#    y 0.000000 3.477270 0.000000 
#    z -0.082050 0.000000 3.782120 
# 
# 
# High freq. dielectric constant tensor:
#      x y z
#    x 1.762840 0.000000 0.000370 
#    y 0.000000 1.745600 0.000000 
#    z 0.000370 0.000000 1.762470 
# 
# From -- ./inp_files/65364.got.cif
#   From: 2010.06.25/outbox.cif.g09.slc.cpg/sg11_33_cif.got.tgz:65364.got - 2010.06.27 23:14:04.
