data_PCOD8073969
_publ_section_title
;
Structure prediction by ZEFSAII (Michael W. Deem and Ramdas Pophale) SiO2 
 PCOD8073969
Probable space group: P 21/M
;
_chemical_formula_sum "Si O2"
_cell_formula_units_Z 28
_cell_length_a 29.014107
_cell_length_b 9.161133
_cell_length_c 9.172922
_cell_angle_alpha 90.000000
_cell_angle_beta 38.048571
_cell_angle_gamma 90.000000
_cell_volume 1502.722849
_symmetry_space_group_name_H-M "P 21/M"
_symmetry_group_IT_number 11
_symmetry_cell_setting 'monoclinic'
loop_
_space_group_symop_operation_xyz
x,y,z
-x,1/2+y,-z
-x,-y,-z
x,1/2-y,z
loop_
_atom_site_type_symbol
_atom_site_label
_atom_site_fract_x
_atom_site_fract_y
_atom_site_fract_z
Si Si1 0.217584 0.420771 0.858505
Si Si2 0.503054 0.922149 0.838478
Si Si3 0.640864 0.918349 0.299675
Si Si4 0.228423 0.577322 0.535923
Si Si5 0.363226 0.921051 0.994259
Si Si6 0.066027 0.583180 0.257261
Si Si7 0.062793 0.912776 0.925297
O O1 0.201531 0.250000 0.872437
O O2 0.278407 0.446068 0.832040
O O3 0.248815 0.491069 0.632020
O O4 0.143153 0.500795 0.099264
O O5 0.501452 0.750000 0.870215
O O6 0.577830 0.972562 0.569232
O O7 0.432598 0.974115 0.918509
O O8 0.500000 0.000000 0.000000
O O9 0.627601 0.750000 0.295667
O O10 0.633757 0.004756 0.168685
O O11 0.228681 0.750000 0.572126
O O12 0.146354 0.527463 0.684522
O O13 0.287127 0.534263 0.265857
O O14 0.367068 0.750000 0.957972
O O15 0.072123 0.750000 0.298087
O O16 0.000000 0.500000 0.500000
O O17 0.047233 0.579294 0.134587
O O18 0.056749 0.750000 0.880042
O O19 0.000000 0.000000 0.000000
#
# Coordination Sequence:
#
# PCOD8073969 Si02
#       7
#     4   4   4   4   4   4   4
#     4  10  20  35  55  79 106 141 182 220 264 323
#     4  10  21  37  57  82 109 141 181 224 269 324
#     4  10  22  37  53  79 114 143 175 222 272 320
#     4   9  19  36  54  76 105 137 177 224 267 316
#     4  10  21  36  56  81 108 140 182 225 269 323
#     4  10  21  37  56  80 109 141 179 224 269 318
#     4   9  19  34  52  75 104 135 171 215 262 312
#
# _framework density 18.632843999999999
#
# number of rings (size 3 to 8) (size 9 to 14) (size 15 to 20)
#    0.000    2.286    0.000    3.000    0.000    6.857 
#    0.000    2.857    0.000    0.000    0.000    0.000 
#    0.000    0.000    0.000    0.000    0.000    0.000 
#
# Total GULP energy -347254.838000 kJ/mol
# GULP energy per Si atom -12401.958500 kJ/mol
# Density = 1.859043 g / cm^3
# Si number density = 18.632844 Si / 1000 Ang^3
#
#
#
# Elastic Constant Matrix: (Units=GPa)
#
#
# Indices 1 2 3 4 5 6 
#
# 1 126.0270 58.5391 66.7585 0.0000 -2.3370 0.0000
# 2 58.5391 81.4552 58.3446 0.0000 1.3472 0.0000
# 3 66.7585 58.3446 151.4708 0.0000 0.4238 0.0000
# 4 0.0000 0.0000 0.0000 33.0313 0.0000 5.1187
# 5 -2.3370 1.3472 0.4238 0.0000 25.6466 0.0000
# 6 0.0000 0.0000 0.0000 5.1187 0.0000 36.9795
#
#
#
# Elastic Compliance Matrix: (Units=1/GPa)
#
#
# Indices 1 2 3 4 5 6 
#
# 1 0.012830 -0.007172 -0.002897 0.000000 0.001594 0.000000
# 2 -0.007172 0.020980 -0.004915 0.000000 -0.001674 0.000000
# 3 -0.002897 -0.004915 0.009772 0.000000 -0.000167 0.000000
# 4 0.000000 0.000000 0.000000 0.030938 0.000000 -0.004282
# 5 0.001594 -0.001674 -0.000167 0.000000 0.039227 0.000000
# 6 0.000000 0.000000 0.000000 -0.004282 0.000000 0.027635
#
#
# Mechanical properties :
#
#
# Convention : Reuss Voigt Hill
#
# Bulk Modulus (GPa) = 73.45435 80.69304 77.07370
# Shear Modulus (GPa) = 28.42713 30.81887 29.62300
#
# Velocity S-wave (km/s) = 3.91019 4.07136 3.99159
# Velocity P-wave (km/s) = 7.73910 8.09334 7.91820
#
# Compressibility (1/GPa) = 0.01361390
#
# Stress axis : x y z
#
# Youngs Moduli (GPa) = 77.94119 47.66542 102.32998
#
# Poissons Ratio (x) = 0.34187 0.29640
# Poissons Ratio (y) = 0.55902 0.50298
# Poissons Ratio (z) = 0.22576 0.23429
#
# Static dielectric constant tensor:
#      x y z
#    x 3.358400 0.000000 -0.153640 
#    y 0.000000 3.426770 0.000000 
#    z -0.153640 0.000000 3.591440 
# 
# 
# High freq. dielectric constant tensor:
#      x y z
#    x 1.725220 0.000000 -0.009690 
#    y 0.000000 1.722620 0.000000 
#    z -0.009690 0.000000 1.735670 
# 
# From -- ./inp_files/28236.got.cif
#   From: 2010.06.25/outbox.cif.g09.slc.cpg/sg11_15_cif.got.tgz:28236.got - 2010.06.27 23:14:04.
