data_PCOD8073312
_publ_section_title
;
Structure prediction by ZEFSAII (Michael W. Deem and Ramdas Pophale) SiO2 
 PCOD8073312
Probable space group: P 21/M
;
_chemical_formula_sum "Si O2"
_cell_formula_units_Z 32
_cell_length_a 21.305508
_cell_length_b 9.008420
_cell_length_c 21.375278
_cell_angle_alpha 90.000000
_cell_angle_beta 153.722970
_cell_angle_gamma 90.000000
_cell_volume 1816.240444
_symmetry_space_group_name_H-M "P 21/M"
_symmetry_group_IT_number 11
_symmetry_cell_setting 'monoclinic'
loop_
_space_group_symop_operation_xyz
x,y,z
-x,1/2+y,-z
-x,-y,-z
x,1/2-y,z
loop_
_atom_site_type_symbol
_atom_site_label
_atom_site_fract_x
_atom_site_fract_y
_atom_site_fract_z
Si Si1 0.440876 0.925669 0.385525
Si Si2 0.208094 0.922149 0.016792
Si Si3 0.490887 0.076424 0.308974
Si Si4 0.121586 0.581312 0.071789
Si Si5 0.558423 0.075624 0.235792
Si Si6 0.805515 0.425377 0.369698
Si Si7 0.880437 0.576074 0.314580
Si Si8 0.758911 0.574136 0.073182
O O1 0.457250 0.750000 0.403947
O O2 0.277928 0.976727 0.230641
O O3 0.500000 0.000000 0.500000
O O4 0.533434 0.984270 0.408986
O O5 0.256223 0.750000 0.053878
O O6 0.096352 0.936832 0.974244
O O7 0.336096 0.029721 0.148547
O O8 0.150080 0.986479 0.899021
O O9 0.493757 0.250000 0.328095
O O10 0.590906 0.039701 0.338278
O O11 0.110471 0.750000 0.082647
O O12 0.000000 0.500000 0.000000
O O13 0.558448 0.250000 0.225866
O O14 0.682189 0.006080 0.303553
O O15 0.404075 0.017490 0.075930
O O16 0.791780 0.250000 0.350998
O O17 0.789413 0.494939 0.286611
O O18 0.955268 0.470945 0.534129
O O19 0.859904 0.750000 0.305925
O O20 0.822338 0.524029 0.195880
O O21 0.773732 0.750000 0.075598
#
# Coordination Sequence:
#
# PCOD8073312 Si02
#       8
#     4   4   4   4   4   4   4   4
#     4  10  20  34  51  74 101 130 165 202 241 288
#     4   9  17  30  47  70  97 122 154 195 235 280
#     4   9  16  29  49  70  94 126 158 191 236 284
#     4   9  19  33  50  72  98 127 161 199 238 285
#     4   8  15  28  47  68  89 115 150 187 223 270
#     4   9  17  31  48  64  87 121 153 182 224 275
#     4   9  18  31  46  65  90 118 150 186 224 272
#     4   9  17  30  47  67  90 118 152 188 229 275
#
# _framework density 17.618812999999999
#
# number of rings (size 3 to 8) (size 9 to 14) (size 15 to 20)
#    0.000    3.000    0.000    2.625    0.000    4.000 
#    0.000    4.375    0.000    3.000    0.000    0.000 
#    0.000    0.000    0.000    0.000    0.000    0.000 
#
# Total GULP energy -396551.839308 kJ/mol
# GULP energy per Si atom -12392.244978 kJ/mol
# Density = 1.757871 g / cm^3
# Si number density = 17.618813 Si / 1000 Ang^3
#
#
#
# Elastic Constant Matrix: (Units=GPa)
#
#
# Indices 1 2 3 4 5 6 
#
# 1 168.7429 54.3141 70.6319 0.0000 -20.2232 0.0000
# 2 54.3141 52.4795 30.2915 0.0000 -8.2813 0.0000
# 3 70.6319 30.2915 72.8266 0.0000 -21.5284 0.0000
# 4 0.0000 0.0000 0.0000 20.5587 0.0000 -5.3644
# 5 -20.2232 -8.2813 -21.5284 0.0000 32.3690 0.0000
# 6 0.0000 0.0000 0.0000 -5.3644 0.0000 33.8155
#
#
#
# Elastic Compliance Matrix: (Units=1/GPa)
#
#
# Indices 1 2 3 4 5 6 
#
# 1 0.011814 -0.007385 -0.008418 0.000000 -0.000107 0.000000
# 2 -0.007385 0.029703 -0.005364 0.000000 -0.000583 0.000000
# 3 -0.008418 -0.005364 0.027591 0.000000 0.011719 0.000000
# 4 0.000000 0.000000 0.000000 0.050742 0.000000 0.008049
# 5 -0.000107 -0.000583 0.011719 0.000000 0.038472 0.000000
# 6 0.000000 0.000000 0.000000 0.008049 0.000000 0.030849
#
#
# Mechanical properties :
#
#
# Convention : Reuss Voigt Hill
#
# Bulk Modulus (GPa) = 37.35082 67.16934 52.26008
# Shear Modulus (GPa) = 20.79620 26.60274 23.69947
#
# Velocity S-wave (km/s) = 3.43934 3.88997 3.67157
# Velocity P-wave (km/s) = 6.08420 7.64082 6.90651
#
# Compressibility (1/GPa) = 0.02677318
#
# Stress axis : x y z
#
# Youngs Moduli (GPa) = 84.64615 33.66711 36.24397
#
# Poissons Ratio (x) = 0.24863 0.30509
# Poissons Ratio (y) = 0.62511 0.19442
# Poissons Ratio (z) = 0.71253 0.18060
#
# Static dielectric constant tensor:
#      x y z
#    x 3.763050 0.000000 -0.150390 
#    y 0.000000 3.247530 0.000000 
#    z -0.150390 0.000000 3.138200 
# 
# 
# High freq. dielectric constant tensor:
#      x y z
#    x 1.696290 0.000000 -0.018060 
#    y 0.000000 1.672250 0.000000 
#    z -0.018060 0.000000 1.646540 
# 
# From -- ./inp_files/66459.got.cif
#   From: 2010.06.25/outbox.cif.g09.slc.cpg/sg11_34_cif.got.tgz:66459.got - 2010.06.27 23:14:04.
