data_PCOD8073265
_publ_section_title
;
Structure prediction by ZEFSAII (Michael W. Deem and Ramdas Pophale) SiO2 
 PCOD8073265
Probable space group: P 21/M
;
_chemical_formula_sum "Si O2"
_cell_formula_units_Z 28
_cell_length_a 10.180935
_cell_length_b 8.753711
_cell_length_c 17.058569
_cell_angle_alpha 90.000000
_cell_angle_beta 105.526160
_cell_angle_gamma 90.000000
_cell_volume 1464.798690
_symmetry_space_group_name_H-M "P 21/M"
_symmetry_group_IT_number 11
_symmetry_cell_setting 'monoclinic'
loop_
_space_group_symop_operation_xyz
x,y,z
-x,1/2+y,-z
-x,-y,-z
x,1/2-y,z
loop_
_atom_site_type_symbol
_atom_site_label
_atom_site_fract_x
_atom_site_fract_y
_atom_site_fract_z
Si Si1 0.589143 0.426915 0.400088
Si Si2 0.820400 0.072223 0.175062
Si Si3 0.319076 0.927181 0.416225
Si Si4 0.307800 0.070513 0.158085
Si Si5 0.122770 0.427774 0.273831
Si Si6 0.857790 0.070815 0.001954
Si Si7 0.594626 0.928078 0.242723
O O1 0.592165 0.250000 0.377052
O O2 0.682176 0.460649 0.490986
O O3 0.433445 0.472412 0.391892
O O4 0.648631 0.524860 0.337643
O O5 0.783310 0.250000 0.179771
O O6 0.964999 0.034383 0.237338
O O7 0.708430 0.967280 0.197574
O O8 0.823077 0.024747 0.084965
O O9 0.350237 0.750000 0.404999
O O10 0.174160 0.976424 0.357215
O O11 0.299762 0.250000 0.142851
O O12 0.204900 0.018858 0.210046
O O13 0.265026 0.988166 0.071254
O O14 0.459699 0.023615 0.203766
O O15 0.147439 0.250000 0.293958
O O16 0.873216 0.250000 0.995961
O O17 0.000000 0.000000 0.000000
O O18 0.560900 0.750000 0.234218
#
# Coordination Sequence:
#
# PCOD8073265 Si02
#       7
#     4   4   4   4   4   4   4
#     4  10  20  36  57  84 121 160 194 240 298 350
#     4  10  23  43  62  84 119 161 197 239 299 358
#     4  10  20  33  57  91 120 151 198 248 291 343
#     4  11  22  39  63  90 120 158 198 244 299 353
#     4  10  20  37  61  88 118 157 199 240 296 355
#     4  11  22  39  63  91 122 156 200 249 297 351
#     4  12  25  40  60  90 120 156 201 246 298 354
#
# _framework density 19.115255000000001
#
# number of rings (size 3 to 8) (size 9 to 14) (size 15 to 20)
#    0.000    1.429    2.857    3.000    0.000    4.571 
#    0.000    0.714    0.000    0.000    0.000    0.000 
#    0.000    0.000    0.000    0.000    0.000    0.000 
#
# Total GULP energy -347353.043989 kJ/mol
# GULP energy per Si atom -12405.465857 kJ/mol
# Density = 1.907175 g / cm^3
# Si number density = 19.115255 Si / 1000 Ang^3
#
#
#
# Elastic Constant Matrix: (Units=GPa)
#
#
# Indices 1 2 3 4 5 6 
#
# 1 70.0100 18.7537 27.9186 0.0000 -12.6997 0.0000
# 2 18.7537 48.6124 39.0100 0.0000 -10.9966 0.0000
# 3 27.9186 39.0100 117.7664 0.0000 -2.9074 0.0000
# 4 0.0000 0.0000 0.0000 36.6832 0.0000 2.4998
# 5 -12.6997 -10.9966 -2.9074 0.0000 26.2665 0.0000
# 6 0.0000 0.0000 0.0000 2.4998 0.0000 28.9973
#
#
#
# Elastic Compliance Matrix: (Units=1/GPa)
#
#
# Indices 1 2 3 4 5 6 
#
# 1 0.017504 -0.002696 -0.003084 0.000000 0.006993 0.000000
# 2 -0.002696 0.031815 -0.009629 0.000000 0.010950 0.000000
# 3 -0.003084 -0.009629 0.012309 0.000000 -0.004160 0.000000
# 4 0.000000 0.000000 0.000000 0.027422 0.000000 -0.002364
# 5 0.006993 0.010950 -0.004160 0.000000 0.045576 0.000000
# 6 0.000000 0.000000 0.000000 -0.002364 0.000000 0.034690
#
#
# Mechanical properties :
#
#
# Convention : Reuss Voigt Hill
#
# Bulk Modulus (GPa) = 32.45669 45.30594 38.88131
# Shear Modulus (GPa) = 23.76367 28.43651 26.10009
#
# Velocity S-wave (km/s) = 3.52970 3.86117 3.69915
# Velocity P-wave (km/s) = 5.79897 6.60538 6.21527
#
# Compressibility (1/GPa) = 0.03081029
#
# Stress axis : x y z
#
# Youngs Moduli (GPa) = 57.12903 31.43149 81.23829
#
# Poissons Ratio (x) = 0.08474 0.25054
# Poissons Ratio (y) = 0.15403 0.78226
# Poissons Ratio (z) = 0.17618 0.30266
#
# Static dielectric constant tensor:
#      x y z
#    x 3.280650 0.000000 0.064730 
#    y 0.000000 3.552280 0.000000 
#    z 0.064730 0.000000 3.814090 
# 
# 
# High freq. dielectric constant tensor:
#      x y z
#    x 1.723050 0.000000 0.007860 
#    y 0.000000 1.750080 0.000000 
#    z 0.007860 0.000000 1.759520 
# 
# From -- ./inp_files/57557.got.cif
#   From: 2010.06.25/outbox.cif.g09.slc.cpg/sg11_29_cif.got.tgz:57557.got - 2010.06.27 23:14:04.
