data_PCOD8073900
_publ_section_title
;
Structure prediction by ZEFSAII (Michael W. Deem and Ramdas Pophale) SiO2 
 PCOD8073900
Probable space group: P 21/M
;
_chemical_formula_sum "Si O2"
_cell_formula_units_Z 28
_cell_length_a 29.272746
_cell_length_b 9.141000
_cell_length_c 9.292712
_cell_angle_alpha 90.000000
_cell_angle_beta 37.473791
_cell_angle_gamma 90.000000
_cell_volume 1512.821738
_symmetry_space_group_name_H-M "P 21/M"
_symmetry_group_IT_number 11
_symmetry_cell_setting 'monoclinic'
loop_
_space_group_symop_operation_xyz
x,y,z
-x,1/2+y,-z
-x,-y,-z
x,1/2-y,z
loop_
_atom_site_type_symbol
_atom_site_label
_atom_site_fract_x
_atom_site_fract_y
_atom_site_fract_z
Si Si1 0.360511 0.422153 0.500408
Si Si2 0.942075 0.420448 0.245676
Si Si3 0.057925 0.420448 0.456050
Si Si4 0.360511 0.922153 0.197039
Si Si5 0.227541 0.418448 0.032773
Si Si6 0.772459 0.418448 0.670478
Si Si7 0.500000 0.078290 0.347361
O O1 0.361683 0.250000 0.468630
O O2 0.369861 0.500000 0.325347
O O3 0.427481 0.470375 0.438100
O O4 0.282982 0.473970 0.769035
O O5 0.962519 0.250000 0.209364
O O6 0.950912 0.499999 0.372720
O O7 0.857124 0.442585 0.401334
O O8 0.000000 0.500000 0.000000
O O9 0.037481 0.250000 0.521962
O O10 0.142876 0.442583 0.186954
O O11 0.000000 0.500000 0.500000
O O12 0.361685 0.750000 0.222950
O O13 0.282982 0.973969 0.316054
O O14 0.427481 0.970376 0.924494
O O15 0.243433 0.250000 0.027487
O O16 0.243672 0.500000 0.140820
O O17 0.756568 0.250000 0.744650
O O18 0.500000 0.250000 0.377125
O O19 0.500000 0.000000 0.500000
#
# Coordination Sequence:
#
# PCOD8073900 Si02
#       7
#     4   4   4   4   4   4   4
#     4  10  21  36  53  78 108 137 171 212 255 303
#     4  10  20  35  54  77 105 138 175 218 264 313
#     4  10  20  35  54  77 105 138 175 218 264 313
#     4  10  21  36  53  78 108 137 171 212 255 303
#     4   9  19  35  54  76 103 135 174 214 256 308
#     4   9  19  35  54  76 103 135 174 214 256 308
#     4  10  21  36  56  80 106 136 173 212 252 302
#
# _framework density 18.508459999999999
#
# number of rings (size 3 to 8) (size 9 to 14) (size 15 to 20)
#    0.000    2.286    0.000    2.143    0.000    4.571 
#    0.000    2.857    0.000    0.000    0.000    0.000 
#    0.000    0.000    0.000    0.000    0.000    0.000 
#
# Total GULP energy -347216.179770 kJ/mol
# GULP energy per Si atom -12400.577849 kJ/mol
# Density = 1.846633 g / cm^3
# Si number density = 18.508460 Si / 1000 Ang^3
#
#
#
# Elastic Constant Matrix: (Units=GPa)
#
#
# Indices 1 2 3 4 5 6 
#
# 1 156.5856 66.7663 88.8405 0.0000 -4.7302 0.0000
# 2 66.7663 84.0530 66.3458 0.0000 0.7352 0.0000
# 3 88.8405 66.3458 159.1104 0.0000 0.3345 0.0000
# 4 0.0000 0.0000 0.0000 30.7023 0.0000 7.7778
# 5 -4.7302 0.7352 0.3345 0.0000 26.4056 0.0000
# 6 0.0000 0.0000 0.0000 7.7778 0.0000 35.1659
#
#
#
# Elastic Compliance Matrix: (Units=1/GPa)
#
#
# Indices 1 2 3 4 5 6 
#
# 1 0.011077 -0.005862 -0.003745 0.000000 0.002195 0.000000
# 2 -0.005862 0.020840 -0.005414 0.000000 -0.001562 0.000000
# 3 -0.003745 -0.005414 0.010635 0.000000 -0.000655 0.000000
# 4 0.000000 0.000000 0.000000 0.034504 0.000000 -0.007631
# 5 0.002195 -0.001562 -0.000655 0.000000 0.038316 0.000000
# 6 0.000000 0.000000 0.000000 -0.007631 0.000000 0.030125
#
#
# Mechanical properties :
#
#
# Convention : Reuss Voigt Hill
#
# Bulk Modulus (GPa) = 79.93175 93.73936 86.83555
# Shear Modulus (GPa) = 27.82288 30.30786 29.06537
#
# Velocity S-wave (km/s) = 3.88139 4.05101 3.96710
# Velocity P-wave (km/s) = 7.96035 8.52277 8.24636
#
# Compressibility (1/GPa) = 0.01251067
#
# Stress axis : x y z
#
# Youngs Moduli (GPa) = 90.27838 47.98390 94.02954
#
# Poissons Ratio (x) = 0.28127 0.35217
# Poissons Ratio (y) = 0.52918 0.50906
# Poissons Ratio (z) = 0.33812 0.25977
#
# Static dielectric constant tensor:
#      x y z
#    x 32.641370 0.000000 -38.933510 
#    y 0.000000 3.422870 0.000000 
#    z -38.933510 0.000000 54.979750 
# 
# 
# High freq. dielectric constant tensor:
#      x y z
#    x 1.723230 0.000000 -0.009790 
#    y 0.000000 1.717940 0.000000 
#    z -0.009790 0.000000 1.728850 
# 
# From -- ./inp_files/28456.got.cif
#   From: 2010.06.25/outbox.cif.g09.slc.cpg/sg11_15_cif.got.tgz:28456.got - 2010.06.27 23:14:04.
