data_PCOD8073846
_publ_section_title
;
Structure prediction by ZEFSAII (Michael W. Deem and Ramdas Pophale) SiO2 
 PCOD8073846
Probable space group: P 21/M
;
_chemical_formula_sum "Si O2"
_cell_formula_units_Z 32
_cell_length_a 11.470983
_cell_length_b 8.732814
_cell_length_c 23.712950
_cell_angle_alpha 90.000000
_cell_angle_beta 126.525700
_cell_angle_gamma 90.000000
_cell_volume 1908.863794
_symmetry_space_group_name_H-M "P 21/M"
_symmetry_group_IT_number 11
_symmetry_cell_setting 'monoclinic'
loop_
_space_group_symop_operation_xyz
x,y,z
-x,1/2+y,-z
-x,-y,-z
x,1/2-y,z
loop_
_atom_site_type_symbol
_atom_site_label
_atom_site_fract_x
_atom_site_fract_y
_atom_site_fract_z
Si Si1 0.522111 0.570211 0.777677
Si Si2 0.924398 0.580687 0.347122
Si Si3 0.303197 0.432081 0.800371
Si Si4 0.672347 0.920729 0.366509
Si Si5 0.816731 0.071952 0.893125
Si Si6 0.116420 0.570952 0.959654
Si Si7 0.122005 0.566764 0.495391
Si Si8 0.654487 0.568511 0.059010
O O1 0.503787 0.750000 0.775914
O O2 0.443129 0.497820 0.809092
O O3 0.458723 0.513354 0.699711
O O4 0.689730 0.524259 0.827838
O O5 0.964906 0.750000 0.338572
O O6 0.846512 0.498775 0.271013
O O7 0.805511 0.583808 0.362128
O O8 0.073084 0.511220 0.417427
O O9 0.308851 0.250000 0.793270
O O10 0.305973 0.478826 0.866002
O O11 0.618299 0.750000 0.365259
O O12 0.722404 0.001148 0.439851
O O13 0.792928 0.250000 0.873668
O O14 0.817697 0.037572 0.959976
O O15 0.966271 0.018149 0.908038
O O16 0.089405 0.750000 0.942638
O O17 0.227262 0.507593 0.946251
O O18 0.122705 0.750000 0.499188
O O19 0.000000 0.500000 0.500000
O O20 0.652151 0.750000 0.049889
O O21 0.500000 0.500000 0.000000
#
# Coordination Sequence:
#
# PCOD8073846 Si02
#       8
#     4   4   4   4   4   4   4   4
#     4  11  20  29  45  69  94 121 155 193 232 274
#     4   7  12  23  38  54  77 111 149 186 222 262
#     4   9  18  32  46  63  90 125 160 191 228 275
#     4   9  16  26  38  55  84 119 151 185 224 270
#     4  10  20  35  53  70  91 120 152 188 233 281
#     4  10  21  36  53  72  93 118 152 193 233 275
#     4   9  14  21  35  55  79 111 149 187 227 270
#     4  11  22  34  50  70  95 126 158 192 230 274
#
# _framework density 16.7639
#
# number of rings (size 3 to 8) (size 9 to 14) (size 15 to 20)
#    0.000    2.500    0.000    5.250    0.000    5.500 
#    0.000    0.625    0.000    0.000    0.000    0.000 
#    0.000    1.000    0.000    2.750    0.000    5.750 
#
# Total GULP energy -396495.242092 kJ/mol
# GULP energy per Si atom -12390.476315 kJ/mol
# Density = 1.672574 g / cm^3
# Si number density = 16.763900 Si / 1000 Ang^3
#
#
#
# Elastic Constant Matrix: (Units=GPa)
#
#
# Indices 1 2 3 4 5 6 
#
# 1 59.8273 18.2035 45.9400 0.0000 5.4222 0.0000
# 2 18.2035 66.1570 42.9149 0.0000 3.0315 0.0000
# 3 45.9400 42.9149 149.6492 0.0000 9.2080 0.0000
# 4 0.0000 0.0000 0.0000 28.7397 0.0000 4.6609
# 5 5.4222 3.0315 9.2080 0.0000 14.2803 0.0000
# 6 0.0000 0.0000 0.0000 4.6609 0.0000 21.7174
#
#
#
# Elastic Compliance Matrix: (Units=1/GPa)
#
#
# Indices 1 2 3 4 5 6 
#
# 1 0.022333 -0.002056 -0.006010 0.000000 -0.004168 0.000000
# 2 -0.002056 0.018763 -0.004741 0.000000 -0.000146 0.000000
# 3 -0.006010 -0.004741 0.010084 0.000000 -0.003214 0.000000
# 4 0.000000 0.000000 0.000000 0.036050 0.000000 -0.007737
# 5 -0.004168 -0.000146 -0.003214 0.000000 0.073712 0.000000
# 6 0.000000 0.000000 0.000000 -0.007737 0.000000 0.047706
#
#
# Mechanical properties :
#
#
# Convention : Reuss Voigt Hill
#
# Bulk Modulus (GPa) = 39.11115 54.41670 46.76392
# Shear Modulus (GPa) = 20.59444 24.18584 22.39014
#
# Velocity S-wave (km/s) = 3.50880 3.80245 3.65857
# Velocity P-wave (km/s) = 6.30847 7.19787 6.76780
#
# Compressibility (1/GPa) = 0.02556816
#
# Stress axis : x y z
#
# Youngs Moduli (GPa) = 44.77711 53.29636 99.16214
#
# Poissons Ratio (x) = 0.10955 0.59596
# Poissons Ratio (y) = 0.09204 0.47010
# Poissons Ratio (z) = 0.26911 0.25266
#
# Static dielectric constant tensor:
#      x y z
#    x 2.674160 0.000000 0.088250 
#    y 0.000000 3.238420 0.000000 
#    z 0.088250 0.000000 3.802120 
# 
# 
# High freq. dielectric constant tensor:
#      x y z
#    x 1.582410 0.000000 0.014510 
#    y 0.000000 1.649140 0.000000 
#    z 0.014510 0.000000 1.670160 
# 
# From -- ./inp_files/68332.got.cif
#   From: 2010.06.25/outbox.cif.g09.slc.cpg/sg11_35_cif.got.tgz:68332.got - 2010.06.27 23:14:04.
