data_PCOD8073094
_publ_section_title
;
Structure prediction by ZEFSAII (Michael W. Deem and Ramdas Pophale) SiO2 
 PCOD8073094
Probable space group: P 21/M
;
_chemical_formula_sum "Si O2"
_cell_formula_units_Z 24
_cell_length_a 10.081648
_cell_length_b 8.647002
_cell_length_c 21.126851
_cell_angle_alpha 90.000000
_cell_angle_beta 135.184595
_cell_angle_gamma 90.000000
_cell_volume 1298.114908
_symmetry_space_group_name_H-M "P 21/M"
_symmetry_group_IT_number 11
_symmetry_cell_setting 'monoclinic'
loop_
_space_group_symop_operation_xyz
x,y,z
-x,1/2+y,-z
-x,-y,-z
x,1/2-y,z
loop_
_atom_site_type_symbol
_atom_site_label
_atom_site_fract_x
_atom_site_fract_y
_atom_site_fract_z
Si Si1 0.706909 0.432600 0.569241
Si Si2 0.011701 0.431888 0.240329
Si Si3 0.013061 0.431940 0.435168
Si Si4 0.712703 0.931260 0.898036
Si Si5 0.011458 0.928539 0.104834
Si Si6 0.295016 0.568977 0.768033
O O1 0.500000 0.500000 0.500000
O O2 0.697543 0.250000 0.562684
O O3 0.809497 0.483748 0.668518
O O4 0.812966 0.494232 0.543089
O O5 0.037585 0.250000 0.260524
O O6 0.995360 0.467864 0.161334
O O7 0.822065 0.492572 0.211042
O O8 0.046495 0.250000 0.449247
O O9 0.000000 0.500000 0.500000
O O10 0.817908 0.473299 0.333904
O O11 0.713419 0.750000 0.881064
O O12 0.504050 0.002631 0.836653
O O13 0.803109 0.023692 0.870635
O O14 0.826701 0.962752 0.000852
O O15 0.026173 0.750000 0.129103
O O16 0.321607 0.750000 0.784208
#
# Coordination Sequence:
#
# PCOD8073094 Si02
#       6
#     4   4   4   4   4   4
#     4  11  22  38  58  81 109 141 179 222 269 321
#     4  10  20  36  56  78 106 139 175 217 267 321
#     4  10  20  36  56  80 110 143 181 225 273 323
#     4   9  18  35  55  74 102 140 180 222 267 315
#     4  10  20  33  51  78 108 138 176 221 267 317
#     4   8  17  34  55  76 100 135 178 220 262 312
#
# _framework density 18.488346
#
# number of rings (size 3 to 8) (size 9 to 14) (size 15 to 20)
#    0.000    2.333    0.000    4.000    0.000    2.667 
#    0.000   10.000    0.000    0.000    0.000    0.000 
#    0.000    0.000    0.000    0.000    0.000    0.000 
#
# Total GULP energy -297624.230635 kJ/mol
# GULP energy per Si atom -12401.009610 kJ/mol
# Density = 1.844627 g / cm^3
# Si number density = 18.488346 Si / 1000 Ang^3
#
#
#
# Elastic Constant Matrix: (Units=GPa)
#
#
# Indices 1 2 3 4 5 6 
#
# 1 120.7991 52.2231 93.5732 0.0000 14.1449 0.0000
# 2 52.2231 88.2189 44.4353 0.0000 1.7746 0.0000
# 3 93.5732 44.4353 114.1239 0.0000 11.5491 0.0000
# 4 0.0000 0.0000 0.0000 28.7534 0.0000 -3.7326
# 5 14.1449 1.7746 11.5491 0.0000 44.0990 0.0000
# 6 0.0000 0.0000 0.0000 -3.7326 0.0000 30.0613
#
#
#
# Elastic Compliance Matrix: (Units=1/GPa)
#
#
# Indices 1 2 3 4 5 6 
#
# 1 0.025057 -0.005697 -0.018014 0.000000 -0.003090 0.000000
# 2 -0.005697 0.015431 -0.001498 0.000000 0.001599 0.000000
# 3 -0.018014 -0.001498 0.024165 0.000000 -0.000490 0.000000
# 4 0.000000 0.000000 0.000000 0.035348 0.000000 0.004389
# 5 -0.003090 0.001599 -0.000490 0.000000 0.023732 0.000000
# 6 0.000000 0.000000 0.000000 0.004389 0.000000 0.033810
#
#
# Mechanical properties :
#
#
# Convention : Reuss Voigt Hill
#
# Bulk Modulus (GPa) = 70.25520 78.17835 74.21678
# Shear Modulus (GPa) = 23.50649 29.44343 26.47496
#
# Velocity S-wave (km/s) = 3.56957 3.99499 3.78826
# Velocity P-wave (km/s) = 7.42100 7.97853 7.70481
#
# Compressibility (1/GPa) = 0.01423382
#
# Stress axis : x y z
#
# Youngs Moduli (GPa) = 39.90908 64.80565 41.38139
#
# Poissons Ratio (x) = 0.36923 0.74544
# Poissons Ratio (y) = 0.22738 0.06201
# Poissons Ratio (z) = 0.71891 0.09711
#
# Static dielectric constant tensor:
#      x y z
#    x 3.687160 0.000000 0.091290 
#    y 0.000000 3.354870 0.000000 
#    z 0.091290 0.000000 3.505160 
# 
# 
# High freq. dielectric constant tensor:
#      x y z
#    x 1.724020 0.000000 0.002320 
#    y 0.000000 1.713960 0.000000 
#    z 0.002320 0.000000 1.718910 
# 
# From -- ./inp_files/25726.got.cif
#   From: 2010.06.25/outbox.cif.g09.slc.cpg/sg11_13_cif.got.tgz:25726.got - 2010.06.27 23:14:04.
