data_PCOD8073004
_publ_section_title
;
Structure prediction by ZEFSAII (Michael W. Deem and Ramdas Pophale) SiO2 
 PCOD8073004
Probable space group: P 21/M
;
_chemical_formula_sum "Si O2"
_cell_formula_units_Z 20
_cell_length_a 11.223668
_cell_length_b 13.751328
_cell_length_c 7.196344
_cell_angle_alpha 90.000000
_cell_angle_beta 92.411569
_cell_angle_gamma 90.000000
_cell_volume 1109.702506
_symmetry_space_group_name_H-M "P 21/M"
_symmetry_group_IT_number 11
_symmetry_cell_setting 'monoclinic'
loop_
_space_group_symop_operation_xyz
x,y,z
-x,1/2+y,-z
-x,-y,-z
x,1/2-y,z
loop_
_atom_site_type_symbol
_atom_site_label
_atom_site_fract_x
_atom_site_fract_y
_atom_site_fract_z
Si Si1 0.542952 0.861866 0.353303
Si Si2 0.939690 0.489423 0.694990
Si Si3 0.664150 0.994109 0.639406
Si Si4 0.066841 0.138814 0.988618
Si Si5 0.660220 0.641143 0.974845
O O1 0.541205 0.750000 0.419261
O O2 0.646338 0.920571 0.466751
O O3 0.569353 0.869997 0.137635
O O4 0.414795 0.909198 0.388920
O O5 0.799937 0.472635 0.656182
O O6 0.000000 0.500000 0.500000
O O7 0.990749 0.396771 0.807680
O O8 0.966296 0.584214 0.822035
O O9 0.621996 0.937065 0.820121
O O10 0.034161 0.250000 0.021968
O O11 0.205081 0.122402 0.947225
O O12 0.651302 0.750000 0.889530
#
# Coordination Sequence:
#
# PCOD8073004 Si02
#       5
#     4   4   4   4   4
#     4  10  20  33  50  73  99 129 165 204 247 294
#     4  10  20  34  53  76 103 136 170 206 251 299
#     4  10  20  33  51  73 101 131 165 205 245 292
#     4   9  19  34  52  76 102 129 168 212 251 300
#     4   9  17  32  54  75  96 126 163 202 247 296
#
# _framework density 18.022846999999999
#
# number of rings (size 3 to 8) (size 9 to 14) (size 15 to 20)
#    0.000    2.400    0.000    2.400    0.000    2.400 
#    0.000    0.000    0.000    0.000    0.000    0.000 
#    0.000    0.000    0.000    0.000    0.000    0.000 
#
# Total GULP energy -248032.162748 kJ/mol
# GULP energy per Si atom -12401.608137 kJ/mol
# Density = 1.798183 g / cm^3
# Si number density = 18.022847 Si / 1000 Ang^3
#
#
#
# Elastic Constant Matrix: (Units=GPa)
#
#
# Indices 1 2 3 4 5 6 
#
# 1 57.2192 18.1945 22.9319 0.0000 2.9556 0.0000
# 2 18.1945 86.6024 22.9082 0.0000 -3.8962 0.0000
# 3 22.9319 22.9082 82.3688 0.0000 -6.1818 0.0000
# 4 0.0000 0.0000 0.0000 25.4916 0.0000 -0.1492
# 5 2.9556 -3.8962 -6.1818 0.0000 28.8822 0.0000
# 6 0.0000 0.0000 0.0000 -0.1492 0.0000 13.5438
#
#
#
# Elastic Compliance Matrix: (Units=1/GPa)
#
#
# Indices 1 2 3 4 5 6 
#
# 1 0.020741 -0.003154 -0.005172 0.000000 -0.003655 0.000000
# 2 -0.003154 0.012970 -0.002615 0.000000 0.001513 0.000000
# 3 -0.005172 -0.002615 0.014555 0.000000 0.003292 0.000000
# 4 0.000000 0.000000 0.000000 0.039231 0.000000 0.000432
# 5 -0.003655 0.001513 0.003292 0.000000 0.035906 0.000000
# 6 0.000000 0.000000 0.000000 0.000432 0.000000 0.073839
#
#
# Mechanical properties :
#
#
# Convention : Reuss Voigt Hill
#
# Bulk Modulus (GPa) = 37.90272 39.36220 38.63246
# Shear Modulus (GPa) = 21.93771 24.39390 23.16581
#
# Velocity S-wave (km/s) = 3.49265 3.68298 3.58908
# Velocity P-wave (km/s) = 6.11071 6.32245 6.21748
#
# Compressibility (1/GPa) = 0.02638333
#
# Stress axis : x y z
#
# Youngs Moduli (GPa) = 48.21379 77.10373 68.70617
#
# Poissons Ratio (x) = 0.24318 0.35532
# Poissons Ratio (y) = 0.15206 0.17970
# Poissons Ratio (z) = 0.24934 0.20166
#
# Static dielectric constant tensor:
#      x y z
#    x 3.204410 0.000000 0.109310 
#    y 0.000000 3.375920 0.000000 
#    z 0.109310 0.000000 3.300180 
# 
# 
# High freq. dielectric constant tensor:
#      x y z
#    x 1.692030 0.000000 0.006500 
#    y 0.000000 1.699970 0.000000 
#    z 0.006500 0.000000 1.701960 
# 
# From -- ./inp_files/4115.got.cif
#   From: 2010.06.25/outbox.cif.g09.slc.cpg/sg11_3_cif.got.tgz:4115.got - 2010.06.27 23:14:04.
