data_PCOD8073273
_publ_section_title
;
Structure prediction by ZEFSAII (Michael W. Deem and Ramdas Pophale) SiO2 
 PCOD8073273
Probable space group: P 21/M
;
_chemical_formula_sum "Si O2"
_cell_formula_units_Z 32
_cell_length_a 11.664924
_cell_length_b 9.014894
_cell_length_c 18.185319
_cell_angle_alpha 90.000000
_cell_angle_beta 90.588672
_cell_angle_gamma 90.000000
_cell_volume 1912.231814
_symmetry_space_group_name_H-M "P 21/M"
_symmetry_group_IT_number 11
_symmetry_cell_setting 'monoclinic'
loop_
_space_group_symop_operation_xyz
x,y,z
-x,1/2+y,-z
-x,-y,-z
x,1/2-y,z
loop_
_atom_site_type_symbol
_atom_site_label
_atom_site_fract_x
_atom_site_fract_y
_atom_site_fract_z
Si Si1 0.873645 0.081178 0.583832
Si Si2 0.106064 0.581155 0.573088
Si Si3 0.867481 0.575928 0.726743
Si Si4 0.134356 0.580744 0.733646
Si Si5 0.120745 0.076256 0.997231
Si Si6 0.730985 0.923791 0.141672
Si Si7 0.509477 0.425846 0.079597
Si Si8 0.734296 0.574835 0.866010
O O1 0.862411 0.250000 0.608814
O O2 0.818426 0.055629 0.501303
O O3 0.817768 0.985723 0.649002
O O4 0.006379 0.039779 0.574932
O O5 0.054711 0.750000 0.570823
O O6 0.177946 0.564552 0.649190
O O7 0.853210 0.750000 0.723159
O O8 0.790878 0.507826 0.792280
O O9 0.000762 0.531990 0.738983
O O10 0.148434 0.750000 0.761504
O O11 0.213686 0.472755 0.781261
O O12 0.102759 0.250000 0.006213
O O13 0.198983 0.010722 0.062936
O O14 0.179173 0.035716 0.920916
O O15 0.000000 0.000000 0.000000
O O16 0.702262 0.750000 0.143080
O O17 0.615405 0.013736 0.126662
O O18 0.518990 0.250000 0.068176
O O19 0.398517 0.469027 0.127450
O O20 0.500000 0.500000 0.000000
O O21 0.749145 0.750000 0.865235
#
# Coordination Sequence:
#
# PCOD8073273 Si02
#       8
#     4   4   4   4   4   4   4   4
#     4   9  15  24  41  66  96 127 160 196 233 276
#     4   8  15  27  42  62  93 132 165 191 228 284
#     4   9  17  30  48  69  98 131 161 193 235 290
#     4   9  17  30  48  70  97 130 164 192 231 288
#     4  10  20  34  49  68  95 125 157 191 231 285
#     4  11  22  35  50  71  98 125 159 203 247 285
#     4  11  21  37  57  73  92 122 163 207 247 286
#     4   9  18  34  52  68  92 126 160 195 236 284
#
# _framework density 16.734373000000001
#
# number of rings (size 3 to 8) (size 9 to 14) (size 15 to 20)
#    0.000    2.500    1.250    2.625    0.000    4.500 
#    0.000    1.875    0.000    0.000    0.000    0.875 
#    0.000    0.000    0.000    0.000    0.000    0.000 
#
# Total GULP energy -396579.201043 kJ/mol
# GULP energy per Si atom -12393.100033 kJ/mol
# Density = 1.669628 g / cm^3
# Si number density = 16.734373 Si / 1000 Ang^3
#
#
#
# Elastic Constant Matrix: (Units=GPa)
#
#
# Indices 1 2 3 4 5 6 
#
# 1 90.7574 36.5102 52.9912 0.0000 3.7342 0.0000
# 2 36.5102 47.0436 41.2627 0.0000 1.8547 0.0000
# 3 52.9912 41.2627 148.4950 0.0000 3.7503 0.0000
# 4 0.0000 0.0000 0.0000 29.0596 0.0000 2.3926
# 5 3.7342 1.8547 3.7503 0.0000 8.4915 0.0000
# 6 0.0000 0.0000 0.0000 2.3926 0.0000 20.8434
#
#
#
# Elastic Compliance Matrix: (Units=1/GPa)
#
#
# Indices 1 2 3 4 5 6 
#
# 1 0.017218 -0.010454 -0.003141 0.000000 -0.003901 0.000000
# 2 -0.010454 0.034517 -0.005852 0.000000 -0.000357 0.000000
# 3 -0.003141 -0.005852 0.009520 0.000000 -0.001545 0.000000
# 4 0.000000 0.000000 0.000000 0.034740 0.000000 -0.003988
# 5 -0.003901 -0.000357 -0.001545 0.000000 0.120241 0.000000
# 6 0.000000 0.000000 0.000000 -0.003988 0.000000 0.048435
#
#
# Mechanical properties :
#
#
# Convention : Reuss Voigt Hill
#
# Bulk Modulus (GPa) = 44.71917 60.86936 52.79427
# Shear Modulus (GPa) = 16.07617 22.04769 19.06193
#
# Velocity S-wave (km/s) = 3.10283 3.63369 3.37870
# Velocity P-wave (km/s) = 6.29426 7.35240 6.84381
#
# Compressibility (1/GPa) = 0.02236177
#
# Stress axis : x y z
#
# Youngs Moduli (GPa) = 58.07720 28.97115 105.04023
#
# Poissons Ratio (x) = 0.30287 0.32993
# Poissons Ratio (y) = 0.60716 0.61466
# Poissons Ratio (z) = 0.18242 0.16953
#
# Static dielectric constant tensor:
#      x y z
#    x 2.909160 0.000000 -0.104160 
#    y 0.000000 3.068980 0.000000 
#    z -0.104160 0.000000 3.564590 
# 
# 
# High freq. dielectric constant tensor:
#      x y z
#    x 1.598680 0.000000 -0.002940 
#    y 0.000000 1.639710 0.000000 
#    z -0.002940 0.000000 1.663200 
# 
# From -- ./inp_files/40606.got.cif
#   From: 2010.06.25/outbox.cif.g09.slc.cpg/sg11_21_cif.got.tgz:40606.got - 2010.06.27 23:14:04.
