data_PCOD8073774
_publ_section_title
;
Structure prediction by ZEFSAII (Michael W. Deem and Ramdas Pophale) SiO2 
 PCOD8073774
Probable space group: P 21/M
;
_chemical_formula_sum "Si O2"
_cell_formula_units_Z 24
_cell_length_a 21.502235
_cell_length_b 8.861185
_cell_length_c 11.274991
_cell_angle_alpha 90.000000
_cell_angle_beta 148.229774
_cell_angle_gamma 90.000000
_cell_volume 1131.101546
_symmetry_space_group_name_H-M "P 21/M"
_symmetry_group_IT_number 11
_symmetry_cell_setting 'monoclinic'
loop_
_space_group_symop_operation_xyz
x,y,z
-x,1/2+y,-z
-x,-y,-z
x,1/2-y,z
loop_
_atom_site_type_symbol
_atom_site_label
_atom_site_fract_x
_atom_site_fract_y
_atom_site_fract_z
Si Si1 0.336452 0.571500 0.462177
Si Si2 0.110904 0.921854 0.236290
Si Si3 0.227539 0.076587 0.065358
Si Si4 0.040122 0.923432 0.383482
Si Si5 0.247643 0.422743 0.829186
Si Si6 0.464203 0.928494 0.066503
O O1 0.357043 0.750000 0.503162
O O2 0.232061 0.512713 0.379141
O O3 0.307337 0.524997 0.280453
O O4 0.454369 0.488733 0.695340
O O5 0.100689 0.750000 0.180953
O O6 0.112530 0.942707 0.379287
O O7 0.000000 0.000000 0.000000
O O8 0.229842 0.250000 0.112864
O O9 0.281962 0.061045 0.022668
O O10 0.092796 0.015625 0.848667
O O11 0.035806 0.750000 0.419119
O O12 0.111525 0.022756 0.594789
O O13 0.258841 0.250000 0.805804
O O14 0.330840 0.526258 0.883111
O O15 0.472712 0.750000 0.068813
O O16 0.500000 0.000000 0.000000
#
# Coordination Sequence:
#
# PCOD8073774 Si02
#       6
#     4   4   4   4   4   4
#     4  11  23  39  63  96 129 165 209 258 313 371
#     4  10  20  34  57  88 122 157 196 246 303 363
#     4  10  22  40  62  91 128 170 213 258 310 369
#     4  10  20  37  61  90 128 168 209 259 313 369
#     4  11  24  41  63  92 125 166 215 260 310 372
#     4  12  26  46  70  93 122 161 205 257 315 374
#
# _framework density 21.218254999999999
#
# number of rings (size 3 to 8) (size 9 to 14) (size 15 to 20)
#    0.000    1.333    1.667    4.000    0.000    5.333 
#    0.000    0.000    0.000    0.000    0.000    0.000 
#    0.000    0.000    0.000    0.000    0.000    0.000 
#
# Total GULP energy -297734.260918 kJ/mol
# GULP energy per Si atom -12405.594205 kJ/mol
# Density = 2.116996 g / cm^3
# Si number density = 21.218255 Si / 1000 Ang^3
#
#
#
# Elastic Constant Matrix: (Units=GPa)
#
#
# Indices 1 2 3 4 5 6 
#
# 1 71.3096 31.0332 18.3441 0.0000 -1.6301 0.0000
# 2 31.0332 111.8502 51.1508 0.0000 -4.9538 0.0000
# 3 18.3441 51.1508 119.5625 0.0000 -3.5628 0.0000
# 4 0.0000 0.0000 0.0000 40.1374 0.0000 -1.1883
# 5 -1.6301 -4.9538 -3.5628 0.0000 30.9239 0.0000
# 6 0.0000 0.0000 0.0000 -1.1883 0.0000 31.0374
#
#
#
# Elastic Compliance Matrix: (Units=1/GPa)
#
#
# Indices 1 2 3 4 5 6 
#
# 1 0.015995 -0.004118 -0.000689 0.000000 0.000104 0.000000
# 2 -0.004118 0.012223 -0.004561 0.000000 0.001215 0.000000
# 3 -0.000689 -0.004561 0.010434 0.000000 0.000435 0.000000
# 4 0.000000 0.000000 0.000000 0.024943 0.000000 0.000955
# 5 0.000104 0.001215 0.000435 0.000000 0.032588 0.000000
# 6 0.000000 0.000000 0.000000 0.000955 0.000000 0.032256
#
#
# Mechanical properties :
#
#
# Convention : Reuss Voigt Hill
#
# Bulk Modulus (GPa) = 50.21328 55.97539 53.09434
# Shear Modulus (GPa) = 32.50697 33.89935 33.20316
#
# Velocity S-wave (km/s) = 3.91836 4.00140 3.96010
# Velocity P-wave (km/s) = 6.64740 6.91276 6.78138
#
# Compressibility (1/GPa) = 0.01991505
#
# Stress axis : x y z
#
# Youngs Moduli (GPa) = 62.51878 81.81434 95.84213
#
# Poissons Ratio (x) = 0.33692 0.06605
# Poissons Ratio (y) = 0.25746 0.43714
# Poissons Ratio (z) = 0.04309 0.37316
#
# Static dielectric constant tensor:
#      x y z
#    x 3.808460 0.000000 0.079550 
#    y 0.000000 3.714220 0.000000 
#    z 0.079550 0.000000 3.788890 
# 
# 
# High freq. dielectric constant tensor:
#      x y z
#    x 1.837760 0.000000 -0.001210 
#    y 0.000000 1.826580 0.000000 
#    z -0.001210 0.000000 1.837940 
# 
# From -- ./inp_files/44036.got.cif
#   From: 2010.06.25/outbox.cif.g09.slc.cpg/sg11_23_cif.got.tgz:44036.got - 2010.06.27 23:14:04.
