data_PCOD8073528
_publ_section_title
;
Structure prediction by ZEFSAII (Michael W. Deem and Ramdas Pophale) SiO2 
 PCOD8073528
Probable space group: P 21/M
;
_chemical_formula_sum "Si O2"
_cell_formula_units_Z 32
_cell_length_a 13.972662
_cell_length_b 9.578033
_cell_length_c 12.857058
_cell_angle_alpha 90.000000
_cell_angle_beta 94.349901
_cell_angle_gamma 90.000000
_cell_volume 1715.711550
_symmetry_space_group_name_H-M "P 21/M"
_symmetry_group_IT_number 11
_symmetry_cell_setting 'monoclinic'
loop_
_space_group_symop_operation_xyz
x,y,z
-x,1/2+y,-z
-x,-y,-z
x,1/2-y,z
loop_
_atom_site_type_symbol
_atom_site_label
_atom_site_fract_x
_atom_site_fract_y
_atom_site_fract_z
Si Si1 0.114013 0.913332 0.213360
Si Si2 0.795221 0.411365 0.996543
Si Si3 0.108016 0.086864 0.814159
Si Si4 0.607070 0.408055 0.281404
Si Si5 0.228628 0.410016 0.625888
Si Si6 0.587334 0.410680 0.047149
Si Si7 0.441328 0.408661 0.414898
Si Si8 0.223343 0.088824 0.391552
O O1 0.129240 0.750000 0.235621
O O2 0.164418 0.960933 0.110829
O O3 0.003016 0.953410 0.196117
O O4 0.157868 0.996023 0.312897
O O5 0.821178 0.250000 0.020652
O O6 0.841004 0.502244 0.090957
O O7 0.680555 0.433314 0.983133
O O8 0.123238 0.250000 0.837998
O O9 0.151458 0.042864 0.705855
O O10 0.645651 0.250000 0.292291
O O11 0.674049 0.502211 0.358966
O O12 0.613770 0.462905 0.164559
O O13 0.496791 0.417665 0.309602
O O14 0.258029 0.250000 0.645083
O O15 0.185986 0.432247 0.506829
O O16 0.554566 0.250000 0.046496
O O17 0.500000 0.500000 0.000000
O O18 0.500000 0.500000 0.500000
O O19 0.437947 0.250000 0.457017
O O20 0.333353 0.463617 0.390357
O O21 0.214663 0.250000 0.356529
#
# Coordination Sequence:
#
# PCOD8073528 Si02
#       8
#     4   4   4   4   4   4   4   4
#     4  10  23  40  57  82 114 146 184 232 281 331
#     4  10  21  39  60  83 113 146 184 229 277 333
#     4  10  21  38  61  86 109 140 186 235 282 333
#     4  10  20  35  55  80 110 145 186 227 271 328
#     4  10  20  36  58  83 112 145 185 232 278 328
#     4  10  22  37  54  81 113 145 181 222 271 327
#     4  10  20  34  54  80 109 143 181 221 265 321
#     4  10  22  38  55  81 115 149 186 227 274 330
#
# _framework density 18.651153000000001
#
# number of rings (size 3 to 8) (size 9 to 14) (size 15 to 20)
#    0.000    2.000    2.500    0.375    1.750    3.500 
#    0.000    0.000    0.000    0.000    0.000    0.000 
#    0.000    0.000    0.000    0.000    0.000    0.000 
#
# Total GULP energy -396876.116515 kJ/mol
# GULP energy per Si atom -12402.378641 kJ/mol
# Density = 1.860870 g / cm^3
# Si number density = 18.651153 Si / 1000 Ang^3
#
#
#
# Elastic Constant Matrix: (Units=GPa)
#
#
# Indices 1 2 3 4 5 6 
#
# 1 106.6470 44.9877 55.1171 0.0000 0.1949 0.0000
# 2 44.9877 62.9555 48.7070 0.0000 13.2483 0.0000
# 3 55.1171 48.7070 117.3643 0.0000 -3.9824 0.0000
# 4 0.0000 0.0000 0.0000 35.4775 0.0000 9.1053
# 5 0.1949 13.2483 -3.9824 0.0000 32.3252 0.0000
# 6 0.0000 0.0000 0.0000 9.1053 0.0000 31.0903
#
#
#
# Elastic Compliance Matrix: (Units=1/GPa)
#
#
# Indices 1 2 3 4 5 6 
#
# 1 0.014675 -0.008662 -0.003193 0.000000 0.003068 0.000000
# 2 -0.008662 0.033012 -0.010132 0.000000 -0.014726 0.000000
# 3 -0.003193 -0.010132 0.014427 0.000000 0.005949 0.000000
# 4 0.000000 0.000000 0.000000 0.030478 0.000000 -0.008926
# 5 0.003068 -0.014726 0.005949 0.000000 0.037685 0.000000
# 6 0.000000 0.000000 0.000000 -0.008926 0.000000 0.034778
#
#
# Mechanical properties :
#
#
# Convention : Reuss Voigt Hill
#
# Bulk Modulus (GPa) = 55.12758 64.95451 60.04104
# Shear Modulus (GPa) = 23.24760 28.98894 26.11827
#
# Velocity S-wave (km/s) = 3.53433 3.94670 3.74619
# Velocity P-wave (km/s) = 6.80270 7.46125 7.13957
#
# Compressibility (1/GPa) = 0.01813974
#
# Stress axis : x y z
#
# Youngs Moduli (GPa) = 68.14136 30.29207 69.31685
#
# Poissons Ratio (x) = 0.26240 0.22131
# Poissons Ratio (y) = 0.59027 0.70230
# Poissons Ratio (z) = 0.21756 0.30691
#
# Static dielectric constant tensor:
#      x y z
#    x 3.522180 0.000000 -0.317640 
#    y 0.000000 3.371830 0.000000 
#    z -0.317640 0.000000 3.558170 
# 
# 
# High freq. dielectric constant tensor:
#      x y z
#    x 1.726490 0.000000 -0.017770 
#    y 0.000000 1.719410 0.000000 
#    z -0.017770 0.000000 1.729250 
# 
# From -- ./inp_files/38285.got.cif
#   From: 2010.06.25/outbox.cif.g09.slc.cpg/sg11_20_cif.got.tgz:38285.got - 2010.06.27 23:14:04.
