data_PCOD8073366
_publ_section_title
;
Structure prediction by ZEFSAII (Michael W. Deem and Ramdas Pophale) SiO2 
 PCOD8073366
Probable space group: P 21/M
;
_chemical_formula_sum "Si O2"
_cell_formula_units_Z 32
_cell_length_a 14.264086
_cell_length_b 8.561256
_cell_length_c 15.735027
_cell_angle_alpha 90.000000
_cell_angle_beta 62.952408
_cell_angle_gamma 90.000000
_cell_volume 1711.377481
_symmetry_space_group_name_H-M "P 21/M"
_symmetry_group_IT_number 11
_symmetry_cell_setting 'monoclinic'
loop_
_space_group_symop_operation_xyz
x,y,z
-x,1/2+y,-z
-x,-y,-z
x,1/2-y,z
loop_
_atom_site_type_symbol
_atom_site_label
_atom_site_fract_x
_atom_site_fract_y
_atom_site_fract_z
Si Si1 0.177054 0.928042 0.434958
Si Si2 0.138703 0.429885 0.271725
Si Si3 0.716241 0.934026 0.352603
Si Si4 0.338033 0.930965 0.104514
Si Si5 0.392467 0.569177 0.442320
Si Si6 0.586615 0.431964 0.265845
Si Si7 0.555852 0.568135 0.096147
Si Si8 0.922319 0.568596 0.364072
O O1 0.154556 0.750000 0.417556
O O2 0.294715 0.950228 0.419672
O O3 0.164383 0.035806 0.358783
O O4 0.094107 0.975763 0.541420
O O5 0.111450 0.250000 0.271984
O O6 0.236997 0.470629 0.172344
O O7 0.037285 0.526928 0.281154
O O8 0.701540 0.750000 0.348676
O O9 0.834865 0.980037 0.330621
O O10 0.633641 0.996905 0.455741
O O11 0.691910 0.017950 0.273192
O O12 0.310045 0.750000 0.125493
O O13 0.435082 0.977837 0.125798
O O14 0.366476 0.969523 0.995643
O O15 0.424380 0.750000 0.439630
O O16 0.487302 0.471525 0.364848
O O17 0.589271 0.250000 0.242673
O O18 0.581920 0.530489 0.181958
O O19 0.574027 0.750000 0.070076
O O20 0.911852 0.750000 0.389402
#
# Coordination Sequence:
#
# PCOD8073366 Si02
#       8
#     4   4   4   4   4   4   4   4
#     4  10  20  34  52  76 108 143 179 220 264 312
#     4  12  23  34  53  79 108 142 179 218 261 314
#     4  10  21  37  55  75 103 140 181 224 267 312
#     4  10  21  38  59  83 111 140 172 213 261 313
#     4  10  20  34  52  76 108 143 179 220 264 312
#     4  12  23  34  53  79 108 142 179 218 261 314
#     4  10  21  38  59  83 111 140 172 213 261 313
#     4  10  21  37  55  75 103 140 181 224 267 312
#
# _framework density 18.698387
#
# number of rings (size 3 to 8) (size 9 to 14) (size 15 to 20)
#    0.000    1.500    0.000    6.000    0.000    7.500 
#    0.000    0.000    0.000    0.750    0.000    0.000 
#    0.000    0.000    0.000    0.000    0.000    0.000 
#
# Total GULP energy -396987.196106 kJ/mol
# GULP energy per Si atom -12405.849878 kJ/mol
# Density = 1.865583 g / cm^3
# Si number density = 18.698387 Si / 1000 Ang^3
#
#
#
# Elastic Constant Matrix: (Units=GPa)
#
#
# Indices 1 2 3 4 5 6 
#
# 1 80.4071 14.5884 55.4666 0.0000 1.6782 0.0000
# 2 14.5884 62.5234 9.9446 0.0000 -2.3635 0.0000
# 3 55.4666 9.9446 71.2856 0.0000 2.8609 0.0000
# 4 0.0000 0.0000 0.0000 33.2280 0.0000 0.5080
# 5 1.6782 -2.3635 2.8609 0.0000 29.2249 0.0000
# 6 0.0000 0.0000 0.0000 0.5080 0.0000 28.9231
#
#
#
# Elastic Compliance Matrix: (Units=1/GPa)
#
#
# Indices 1 2 3 4 5 6 
#
# 1 0.027413 -0.003062 -0.020911 0.000000 0.000225 0.000000
# 2 -0.003062 0.016769 -0.000019 0.000000 0.001534 0.000000
# 3 -0.020911 -0.000019 0.030373 0.000000 -0.001774 0.000000
# 4 0.000000 0.000000 0.000000 0.030103 0.000000 -0.000529
# 5 0.000225 0.001534 -0.001774 0.000000 0.034502 0.000000
# 6 0.000000 0.000000 0.000000 -0.000529 0.000000 0.034584
#
#
# Mechanical properties :
#
#
# Convention : Reuss Voigt Hill
#
# Bulk Modulus (GPa) = 37.63457 41.57945 39.60701
# Shear Modulus (GPa) = 21.68403 27.22298 24.45351
#
# Velocity S-wave (km/s) = 3.40909 3.81976 3.62026
# Velocity P-wave (km/s) = 5.97216 6.46060 6.22118
#
# Compressibility (1/GPa) = 0.02657132
#
# Stress axis : x y z
#
# Youngs Moduli (GPa) = 36.47953 59.63268 32.92417
#
# Poissons Ratio (x) = 0.18257 0.68849
# Poissons Ratio (y) = 0.11168 0.00062
# Poissons Ratio (z) = 0.76284 0.00112
#
# Static dielectric constant tensor:
#      x y z
#    x 3.595470 0.000000 0.012950 
#    y 0.000000 3.510660 0.000000 
#    z 0.012950 0.000000 3.245430 
# 
# 
# High freq. dielectric constant tensor:
#      x y z
#    x 1.730040 0.000000 0.001030 
#    y 0.000000 1.741670 0.000000 
#    z 0.001030 0.000000 1.703730 
# 
# From -- ./inp_files/51666.got.cif
#   From: 2010.06.25/outbox.cif.g09.slc.cpg/sg11_26_cif.got.tgz:51666.got - 2010.06.27 23:14:04.
