data_PCOD8073928
_publ_section_title
;
Structure prediction by ZEFSAII (Michael W. Deem and Ramdas Pophale) SiO2 
 PCOD8073928
Probable space group: P 21/M
;
_chemical_formula_sum "Si O2"
_cell_formula_units_Z 32
_cell_length_a 11.232439
_cell_length_b 18.933607
_cell_length_c 20.500828
_cell_angle_alpha 90.000000
_cell_angle_beta 155.863681
_cell_angle_gamma 90.000000
_cell_volume 1782.811843
_symmetry_space_group_name_H-M "P 21/M"
_symmetry_group_IT_number 11
_symmetry_cell_setting 'monoclinic'
loop_
_space_group_symop_operation_xyz
x,y,z
-x,1/2+y,-z
-x,-y,-z
x,1/2-y,z
loop_
_atom_site_type_symbol
_atom_site_label
_atom_site_fract_x
_atom_site_fract_y
_atom_site_fract_z
Si Si1 0.840760 0.044058 0.108983
Si Si2 0.837248 0.670110 0.678896
Si Si3 0.160519 0.330776 0.469483
Si Si4 0.155575 0.960826 0.636457
Si Si5 0.155575 0.460825 0.019118
Si Si6 0.160516 0.830776 0.191033
Si Si7 0.837232 0.329891 0.658345
Si Si8 0.159235 0.044058 0.768220
O O1 0.988301 0.120703 0.184170
O O2 0.960955 0.000000 0.230478
O O3 0.499997 0.055949 0.944237
O O4 0.928129 0.004112 0.087188
O O5 0.901485 0.750000 0.732616
O O6 0.938199 0.658606 0.654733
O O7 0.500007 0.652071 0.516582
O O8 0.102283 0.250000 0.461868
O O9 0.500000 0.349364 0.647654
O O10 0.968610 0.381519 0.419212
O O11 0.499999 0.957334 0.796803
O O12 0.071866 0.004111 0.659057
O O13 0.000000 0.000000 0.500000
O O14 0.000000 0.500000 0.000000
O O15 0.031390 0.381519 0.950603
O O16 0.102283 0.750000 0.140413
O O17 0.061810 0.841394 0.216538
O O18 0.901477 0.250000 0.668868
O O19 0.011690 0.379298 0.695867
#
# Coordination Sequence:
#
# PCOD8073928 Si02
#       8
#     4   4   4   4   4   4   4   4
#     4  10  20  35  54  80 110 139 177 224 271 320
#     4   9  18  32  53  83 113 141 178 224 272 323
#     4   9  18  34  56  82 111 142 179 223 272 326
#     4  11  23  38  56  80 112 147 185 227 273 327
#     4  11  23  38  56  80 112 147 185 227 273 327
#     4   9  18  34  56  82 111 142 179 223 272 326
#     4   9  18  32  53  83 113 141 178 224 272 323
#     4  10  20  35  54  80 110 139 177 224 271 320
#
# _framework density 17.949172999999998
#
# number of rings (size 3 to 8) (size 9 to 14) (size 15 to 20)
#    0.000    2.250    2.500    2.250    0.000    3.500 
#    0.000    3.750    0.000    1.500    0.000    0.000 
#    0.000    0.000    0.000    0.000    0.000    0.000 
#
# Total GULP energy -396853.362089 kJ/mol
# GULP energy per Si atom -12401.667565 kJ/mol
# Density = 1.790832 g / cm^3
# Si number density = 17.949173 Si / 1000 Ang^3
#
#
#
# Elastic Constant Matrix: (Units=GPa)
#
#
# Indices 1 2 3 4 5 6 
#
# 1 98.5445 61.1097 43.6304 0.0000 1.9056 0.0000
# 2 61.1097 131.8316 62.3042 0.0000 0.7149 0.0000
# 3 43.6304 62.3042 80.6387 0.0000 -12.6044 0.0000
# 4 0.0000 0.0000 0.0000 38.7606 0.0000 3.7483
# 5 1.9056 0.7149 -12.6044 0.0000 20.3849 0.0000
# 6 0.0000 0.0000 0.0000 3.7483 0.0000 32.4857
#
#
#
# Elastic Compliance Matrix: (Units=1/GPa)
#
#
# Indices 1 2 3 4 5 6 
#
# 1 0.015546 -0.004488 -0.005697 0.000000 -0.004819 0.000000
# 2 -0.004488 0.014156 -0.009433 0.000000 -0.005909 0.000000
# 3 -0.005697 -0.009433 0.025357 0.000000 0.016542 0.000000
# 4 0.000000 0.000000 0.000000 0.026091 0.000000 -0.003010
# 5 -0.004819 -0.005909 0.016542 0.000000 0.059942 0.000000
# 6 0.000000 0.000000 0.000000 -0.003010 0.000000 0.031130
#
#
# Mechanical properties :
#
#
# Convention : Reuss Voigt Hill
#
# Bulk Modulus (GPa) = 63.19593 71.67817 67.43705
# Shear Modulus (GPa) = 23.06992 27.92426 25.49709
#
# Velocity S-wave (km/s) = 3.58899 3.94857 3.77306
# Velocity P-wave (km/s) = 7.24287 7.79801 7.52556
#
# Compressibility (1/GPa) = 0.01582380
#
# Stress axis : x y z
#
# Youngs Moduli (GPa) = 64.32416 70.64306 39.43621
#
# Poissons Ratio (x) = 0.31702 0.22468
# Poissons Ratio (y) = 0.28866 0.37199
# Poissons Ratio (z) = 0.36648 0.66636
#
# Static dielectric constant tensor:
#      x y z
#    x 3.161150 0.000000 0.019980 
#    y 0.000000 3.378040 0.000000 
#    z 0.019980 0.000000 3.194490 
# 
# 
# High freq. dielectric constant tensor:
#      x y z
#    x 1.673740 0.000000 0.009170 
#    y 0.000000 1.706570 0.000000 
#    z 0.009170 0.000000 1.689090 
# 
# From -- ./inp_files/64929.got.cif
#   From: 2010.06.25/outbox.cif.g09.slc.cpg/sg11_33_cif.got.tgz:64929.got - 2010.06.27 23:14:04.
