data_PCOD8073633
_publ_section_title
;
Structure prediction by ZEFSAII (Michael W. Deem and Ramdas Pophale) SiO2 
 PCOD8073633
Probable space group: P 21/M
;
_chemical_formula_sum "Si O2"
_cell_formula_units_Z 24
_cell_length_a 7.960815
_cell_length_b 9.446724
_cell_length_c 20.945277
_cell_angle_alpha 90.000000
_cell_angle_beta 56.186680
_cell_angle_gamma 90.000000
_cell_volume 1308.730330
_symmetry_space_group_name_H-M "P 21/M"
_symmetry_group_IT_number 11
_symmetry_cell_setting 'monoclinic'
loop_
_space_group_symop_operation_xyz
x,y,z
-x,1/2+y,-z
-x,-y,-z
x,1/2-y,z
loop_
_atom_site_type_symbol
_atom_site_label
_atom_site_fract_x
_atom_site_fract_y
_atom_site_fract_z
Si Si1 0.786496 0.414840 0.658628
Si Si2 0.471950 0.587455 0.409542
Si Si3 0.392153 0.587088 0.167735
Si Si4 0.800543 0.414611 0.408973
Si Si5 0.819320 0.597645 0.025259
Si Si6 0.339586 0.405604 0.071111
O O1 0.849913 0.250000 0.637722
O O2 0.650192 0.464251 0.627421
O O3 0.648073 0.439459 0.749776
O O4 0.986140 0.508882 0.624395
O O5 0.543953 0.750000 0.386179
O O6 0.671157 0.491262 0.380040
O O7 0.318981 0.571676 0.500109
O O8 0.356412 0.750000 0.156227
O O9 0.616030 0.535126 0.100415
O O10 0.251390 0.488022 0.152234
O O11 0.834545 0.250000 0.383215
O O12 0.853776 0.750000 0.050455
O O13 0.829645 0.614624 0.946537
O O14 0.000000 0.500000 0.000000
O O15 0.424069 0.250000 0.073243
O O16 0.500000 0.500000 0.000000
#
# Coordination Sequence:
#
# PCOD8073633 Si02
#       6
#     4   4   4   4   4   4
#     4  10  20  36  57  79 109 146 185 227 274 329
#     4   9  19  36  57  80 109 147 188 227 268 324
#     4   9  19  35  52  74 101 132 173 216 260 314
#     4  10  20  34  55  83 112 143 183 229 276 327
#     4   9  18  32  50  73  99 128 167 210 252 303
#     4   9  17  31  51  72  97 128 165 207 249 303
#
# _framework density 18.338384000000001
#
# number of rings (size 3 to 8) (size 9 to 14) (size 15 to 20)
#    0.000    2.667    0.000    2.500    0.000    5.333 
#    3.000    0.000    0.000    0.000    0.000    0.000 
#    0.000    0.000    0.000    0.000    0.000    0.000 
#
# Total GULP energy -297320.205537 kJ/mol
# GULP energy per Si atom -12388.341897 kJ/mol
# Density = 1.829665 g / cm^3
# Si number density = 18.338384 Si / 1000 Ang^3
#
#
#
# Elastic Constant Matrix: (Units=GPa)
#
#
# Indices 1 2 3 4 5 6 
#
# 1 136.1496 77.4445 49.1753 0.0000 9.2079 0.0000
# 2 77.4445 116.1484 40.6281 0.0000 9.0462 0.0000
# 3 49.1753 40.6281 64.2892 0.0000 12.9566 0.0000
# 4 0.0000 0.0000 0.0000 26.2703 0.0000 -1.8317
# 5 9.2079 9.0462 12.9566 0.0000 19.2307 0.0000
# 6 0.0000 0.0000 0.0000 -1.8317 0.0000 34.4265
#
#
#
# Elastic Compliance Matrix: (Units=1/GPa)
#
#
# Indices 1 2 3 4 5 6 
#
# 1 0.013388 -0.006870 -0.006085 0.000000 0.000921 0.000000
# 2 -0.006870 0.014584 -0.003751 0.000000 -0.001044 0.000000
# 3 -0.006085 -0.003751 0.025036 0.000000 -0.012190 0.000000
# 4 0.000000 0.000000 0.000000 0.038208 0.000000 0.002033
# 5 0.000921 -0.001044 -0.012190 0.000000 0.060263 0.000000
# 6 0.000000 0.000000 0.000000 0.002033 0.000000 0.029156
#
#
# Mechanical properties :
#
#
# Convention : Reuss Voigt Hill
#
# Bulk Modulus (GPa) = 51.02951 72.34255 61.68603
# Shear Modulus (GPa) = 22.66767 25.94144 24.30456
#
# Velocity S-wave (km/s) = 3.51960 3.76519 3.64447
# Velocity P-wave (km/s) = 6.66362 7.64438 7.17079
#
# Compressibility (1/GPa) = 0.01959650
#
# Stress axis : x y z
#
# Youngs Moduli (GPa) = 74.69294 68.56876 39.94227
#
# Poissons Ratio (x) = 0.47108 0.24303
# Poissons Ratio (y) = 0.51315 0.14983
# Poissons Ratio (z) = 0.45448 0.25721
#
# Static dielectric constant tensor:
#      x y z
#    x 3.375930 0.000000 -0.742290 
#    y 0.000000 4.034970 0.000000 
#    z -0.742290 0.000000 -4.962410 
# 
# 
# High freq. dielectric constant tensor:
#      x y z
#    x 1.701510 0.000000 0.017510 
#    y 0.000000 1.721610 0.000000 
#    z 0.017510 0.000000 1.694970 
# 
# From -- ./inp_files/23770.got.cif
#   From: 2010.06.25/outbox.cif.g09.slc.cpg/sg11_12_cif.got.tgz:23770.got - 2010.06.27 23:14:04.
