data_PCOD8073585
_publ_section_title
;
Structure prediction by ZEFSAII (Michael W. Deem and Ramdas Pophale) SiO2 
 PCOD8073585
Probable space group: P 21/M
;
_chemical_formula_sum "Si O2"
_cell_formula_units_Z 32
_cell_length_a 16.633178
_cell_length_b 8.742881
_cell_length_c 11.557931
_cell_angle_alpha 90.000000
_cell_angle_beta 93.792116
_cell_angle_gamma 90.000000
_cell_volume 1677.096311
_symmetry_space_group_name_H-M "P 21/M"
_symmetry_group_IT_number 11
_symmetry_cell_setting 'monoclinic'
loop_
_space_group_symop_operation_xyz
x,y,z
-x,1/2+y,-z
-x,-y,-z
x,1/2-y,z
loop_
_atom_site_type_symbol
_atom_site_label
_atom_site_fract_x
_atom_site_fract_y
_atom_site_fract_z
Si Si1 0.576665 0.575187 0.062234
Si Si2 0.190856 0.430375 0.828096
Si Si3 0.954689 0.571844 0.338225
Si Si4 0.588695 0.569170 0.501443
Si Si5 0.338712 0.569709 0.719469
Si Si6 0.110908 0.430374 0.424220
Si Si7 0.735462 0.923074 0.935097
Si Si8 0.271236 0.432624 0.320523
O O1 0.560395 0.750000 0.097574
O O2 0.598241 0.476954 0.176219
O O3 0.500000 0.500000 0.000000
O O4 0.645277 0.565630 0.972556
O O5 0.212984 0.250000 0.824534
O O6 0.099392 0.462143 0.780153
O O7 0.249328 0.516356 0.744935
O O8 0.204436 0.493268 0.960758
O O9 0.972522 0.750000 0.353707
O O10 0.907138 0.511115 0.447485
O O11 0.039666 0.486613 0.332087
O O12 0.500000 0.500000 0.500000
O O13 0.579819 0.750000 0.497141
O O14 0.636091 0.514287 0.394143
O O15 0.643420 0.515836 0.616119
O O16 0.341070 0.750000 0.700666
O O17 0.113815 0.250000 0.419470
O O18 0.196679 0.496446 0.389890
O O19 0.762981 0.750000 0.918153
O O20 0.738551 0.004688 0.809827
O O21 0.269458 0.250000 0.315502
#
# Coordination Sequence:
#
# PCOD8073585 Si02
#       8
#     4   4   4   4   4   4   4   4
#     4  10  20  34  55  80 106 137 178 227 275 323
#     4   9  17  33  56  79 105 137 177 222 270 321
#     4   9  17  30  50  76 106 137 172 219 271 319
#     4  11  23  38  56  79 108 141 180 225 275 331
#     4  11  22  36  54  77 107 140 180 224 271 324
#     4   9  17  30  50  76 102 136 177 215 260 317
#     4   8  16  31  52  77 101 135 177 216 263 321
#     4   9  18  34  55  76 105 141 176 217 267 326
#
# _framework density 19.080597999999998
#
# number of rings (size 3 to 8) (size 9 to 14) (size 15 to 20)
#    0.000    2.500    0.000    3.375    1.750    2.500 
#    0.000    4.375    0.000    4.500    0.000    0.000 
#    0.000    0.000    0.000    0.000    0.000    0.000 
#
# Total GULP energy -396668.582621 kJ/mol
# GULP energy per Si atom -12395.893207 kJ/mol
# Density = 1.903717 g / cm^3
# Si number density = 19.080598 Si / 1000 Ang^3
#
#
#
# Elastic Constant Matrix: (Units=GPa)
#
#
# Indices 1 2 3 4 5 6 
#
# 1 119.4093 29.2102 61.9527 0.0000 25.0562 0.0000
# 2 29.2102 41.8098 17.0509 0.0000 2.4774 0.0000
# 3 61.9527 17.0509 115.8340 0.0000 7.9505 0.0000
# 4 0.0000 0.0000 0.0000 18.9346 0.0000 3.8119
# 5 25.0562 2.4774 7.9505 0.0000 27.9597 0.0000
# 6 0.0000 0.0000 0.0000 3.8119 0.0000 29.5738
#
#
#
# Elastic Compliance Matrix: (Units=1/GPa)
#
#
# Indices 1 2 3 4 5 6 
#
# 1 0.016342 -0.007955 -0.006744 0.000000 -0.012023 0.000000
# 2 -0.007955 0.029358 -0.000385 0.000000 0.004637 0.000000
# 3 -0.006744 -0.000385 0.012116 0.000000 0.002633 0.000000
# 4 0.000000 0.000000 0.000000 0.054220 0.000000 -0.006989
# 5 -0.012023 0.004637 0.002633 0.000000 0.045380 0.000000
# 6 0.000000 0.000000 0.000000 -0.006989 0.000000 0.034715
#
#
# Mechanical properties :
#
#
# Convention : Reuss Voigt Hill
#
# Bulk Modulus (GPa) = 36.16952 54.83119 45.50035
# Shear Modulus (GPa) = 21.59677 26.54958 24.07317
#
# Velocity S-wave (km/s) = 3.36798 3.73425 3.55583
# Velocity P-wave (km/s) = 5.84138 6.88417 6.38410
#
# Compressibility (1/GPa) = 0.02764759
#
# Stress axis : x y z
#
# Youngs Moduli (GPa) = 61.19060 34.06271 82.53386
#
# Poissons Ratio (x) = 0.27096 0.55664
# Poissons Ratio (y) = 0.48675 0.03180
# Poissons Ratio (z) = 0.41270 0.01312
#
# Static dielectric constant tensor:
#      x y z
#    x 3.555980 0.000000 0.134110 
#    y 0.000000 3.301430 0.000000 
#    z 0.134110 0.000000 3.826710 
# 
# 
# High freq. dielectric constant tensor:
#      x y z
#    x 1.741170 0.000000 0.016690 
#    y 0.000000 1.713570 0.000000 
#    z 0.016690 0.000000 1.745200 
# 
# From -- ./inp_files/38222.got.cif
#   From: 2010.06.25/outbox.cif.g09.slc.cpg/sg11_20_cif.got.tgz:38222.got - 2010.06.27 23:14:04.
