data_PCOD8073154
_publ_section_title
;
Structure prediction by ZEFSAII (Michael W. Deem and Ramdas Pophale) SiO2 
 PCOD8073154
Probable space group: P 21/M
;
_chemical_formula_sum "Si O2"
_cell_formula_units_Z 32
_cell_length_a 15.775348
_cell_length_b 8.667529
_cell_length_c 25.462759
_cell_angle_alpha 90.000000
_cell_angle_beta 29.654243
_cell_angle_gamma 90.000000
_cell_volume 1722.576494
_symmetry_space_group_name_H-M "P 21/M"
_symmetry_group_IT_number 11
_symmetry_cell_setting 'monoclinic'
loop_
_space_group_symop_operation_xyz
x,y,z
-x,1/2+y,-z
-x,-y,-z
x,1/2-y,z
loop_
_atom_site_type_symbol
_atom_site_label
_atom_site_fract_x
_atom_site_fract_y
_atom_site_fract_z
Si Si1 0.772474 0.568382 0.584684
Si Si2 0.717214 0.571439 0.933764
Si Si3 0.528976 0.430297 0.324674
Si Si4 0.846988 0.070323 0.652782
Si Si5 0.387200 0.566899 0.606598
Si Si6 0.089297 0.930881 0.901758
Si Si7 0.362703 0.070892 0.141991
Si Si8 0.966784 0.930817 0.178826
O O1 0.751355 0.750000 0.606571
O O2 0.624937 0.497873 0.626513
O O3 0.752147 0.481875 0.650844
O O4 0.952283 0.530957 0.460151
O O5 0.754082 0.750000 0.925726
O O6 0.717335 0.535283 0.871760
O O7 0.862907 0.467344 0.880776
O O8 0.535514 0.526565 0.057227
O O9 0.495847 0.250000 0.345889
O O10 0.532072 0.496110 0.382284
O O11 0.709669 0.467843 0.200151
O O12 0.814449 0.250000 0.679707
O O13 0.776155 0.976308 0.740128
O O14 0.500000 0.500000 0.500000
O O15 0.386762 0.750000 0.604940
O O16 0.192319 0.510752 0.706136
O O17 0.054978 0.750000 0.915898
O O18 0.011217 0.008441 0.892106
O O19 0.000000 0.000000 0.000000
O O20 0.409126 0.250000 0.122613
O O21 0.934498 0.750000 0.195115
#
# Coordination Sequence:
#
# PCOD8073154 Si02
#       8
#     4   4   4   4   4   4   4   4
#     4   9  18  35  55  74 101 139 182 224 267 315
#     4  10  21  38  58  81 109 140 179 226 270 316
#     4   8  17  34  55  76 101 137 179 223 268 316
#     4  10  20  33  52  79 109 140 175 220 270 319
#     4  10  20  36  56  81 111 142 181 228 277 327
#     4  10  20  36  56  79 109 142 181 230 279 327
#     4  10  21  37  57  80 108 142 178 219 269 325
#     4  11  22  37  57  81 110 146 184 222 272 328
#
# _framework density 18.576823000000001
#
# number of rings (size 3 to 8) (size 9 to 14) (size 15 to 20)
#    0.000    2.250    0.000    3.750    0.000    4.000 
#    0.000    8.750    0.000    0.000    0.000    0.000 
#    0.000    0.000    0.000    0.000    0.000    0.000 
#
# Total GULP energy -396877.058869 kJ/mol
# GULP energy per Si atom -12402.408090 kJ/mol
# Density = 1.853454 g / cm^3
# Si number density = 18.576823 Si / 1000 Ang^3
#
#
#
# Elastic Constant Matrix: (Units=GPa)
#
#
# Indices 1 2 3 4 5 6 
#
# 1 111.0296 37.0803 61.4557 0.0000 -11.8433 0.0000
# 2 37.0803 76.8075 36.5111 0.0000 4.0155 0.0000
# 3 61.4557 36.5111 110.3226 0.0000 15.4793 0.0000
# 4 0.0000 0.0000 0.0000 34.6804 0.0000 2.7155
# 5 -11.8433 4.0155 15.4793 0.0000 30.5763 0.0000
# 6 0.0000 0.0000 0.0000 2.7155 0.0000 28.6581
#
#
#
# Elastic Compliance Matrix: (Units=1/GPa)
#
#
# Indices 1 2 3 4 5 6 
#
# 1 0.017206 -0.004241 -0.009897 0.000000 0.012232 0.000000
# 2 -0.004241 0.016506 -0.002761 0.000000 -0.002412 0.000000
# 3 -0.009897 -0.002761 0.017200 0.000000 -0.012179 0.000000
# 4 0.000000 0.000000 0.000000 0.029050 0.000000 -0.002753
# 5 0.012232 -0.002412 -0.012179 0.000000 0.043925 0.000000
# 6 0.000000 0.000000 0.000000 -0.002753 0.000000 0.035155
#
#
# Mechanical properties :
#
#
# Convention : Reuss Voigt Hill
#
# Bulk Modulus (GPa) = 58.43804 63.13934 60.78869
# Shear Modulus (GPa) = 25.18292 29.65715 27.42003
#
# Velocity S-wave (km/s) = 3.68585 3.99991 3.84609
# Velocity P-wave (km/s) = 7.04555 7.44274 7.24687
#
# Compressibility (1/GPa) = 0.01711214
#
# Stress axis : x y z
#
# Youngs Moduli (GPa) = 58.11891 60.58427 58.13824
#
# Poissons Ratio (x) = 0.25696 0.57542
# Poissons Ratio (y) = 0.24650 0.16055
# Poissons Ratio (z) = 0.57522 0.16730
#
# Static dielectric constant tensor:
#      x y z
#    x 3.653590 0.000000 -0.006960 
#    y 0.000000 3.394650 0.000000 
#    z -0.006960 0.000000 3.418860 
# 
# 
# High freq. dielectric constant tensor:
#      x y z
#    x 1.724580 0.000000 0.000620 
#    y 0.000000 1.722330 0.000000 
#    z 0.000620 0.000000 1.723300 
# 
# From -- ./inp_files/69052.got.cif
#   From: 2010.06.25/outbox.cif.g09.slc.cpg/sg11_35_cif.got.tgz:69052.got - 2010.06.27 23:14:04.
