data_PCOD8073806
_publ_section_title
;
Structure prediction by ZEFSAII (Michael W. Deem and Ramdas Pophale) SiO2 
 PCOD8073806
Probable space group: P 21/M
;
_chemical_formula_sum "Si O2"
_cell_formula_units_Z 28
_cell_length_a 11.513881
_cell_length_b 8.924200
_cell_length_c 14.939598
_cell_angle_alpha 90.000000
_cell_angle_beta 64.708434
_cell_angle_gamma 90.000000
_cell_volume 1387.932171
_symmetry_space_group_name_H-M "P 21/M"
_symmetry_group_IT_number 11
_symmetry_cell_setting 'monoclinic'
loop_
_space_group_symop_operation_xyz
x,y,z
-x,1/2+y,-z
-x,-y,-z
x,1/2-y,z
loop_
_atom_site_type_symbol
_atom_site_label
_atom_site_fract_x
_atom_site_fract_y
_atom_site_fract_z
Si Si1 0.832967 0.422165 0.836967
Si Si2 0.481407 0.072123 0.410068
Si Si3 0.630513 0.928741 0.204657
Si Si4 0.548975 0.423536 0.895536
Si Si5 0.192380 0.425374 0.465102
Si Si6 0.018456 0.074376 0.358308
Si Si7 0.136864 0.927107 0.968601
O O1 0.872899 0.250000 0.813489
O O2 0.698885 0.457902 0.832072
O O3 0.942829 0.519259 0.753194
O O4 0.818015 0.464883 0.945718
O O5 0.499407 0.250000 0.409410
O O6 0.341282 0.027932 0.417638
O O7 0.500000 0.000000 0.500000
O O8 0.590088 0.000746 0.311666
O O9 0.638022 0.750000 0.211088
O O10 0.526548 0.983500 0.165794
O O11 0.768280 0.993948 0.132432
O O12 0.522417 0.250000 0.918120
O O13 0.500000 0.500000 0.000000
O O14 0.175254 0.250000 0.485228
O O15 0.128315 0.477288 0.392682
O O16 0.118861 0.505178 0.570938
O O17 0.001979 0.250000 0.361609
O O18 0.133022 0.750000 0.951647
O O19 0.000000 0.000000 0.000000
#
# Coordination Sequence:
#
# PCOD8073806 Si02
#       7
#     4   4   4   4   4   4   4
#     4  10  21  37  57  85 120 157 192 236 296 353
#     4  11  24  42  64  88 119 159 204 252 302 358
#     4  11  23  40  64  93 123 157 199 249 305 363
#     4  10  20  35  59  90 122 155 194 243 297 357
#     4   9  20  39  59  84 118 154 191 240 300 353
#     4  10  20  34  59  90 117 150 192 240 293 353
#     4  11  24  42  62  84 118 160 203 246 295 355
#
# _framework density 20.173898000000001
#
# number of rings (size 3 to 8) (size 9 to 14) (size 15 to 20)
#    0.000    1.714    1.429    2.571    0.000    5.143 
#    0.000    1.429    0.000    0.000    0.000    0.000 
#    0.000    0.000    0.000    0.000    0.000    0.000 
#
# Total GULP energy -347315.994290 kJ/mol
# GULP energy per Si atom -12404.142653 kJ/mol
# Density = 2.012798 g / cm^3
# Si number density = 20.173898 Si / 1000 Ang^3
#
#
#
# Elastic Constant Matrix: (Units=GPa)
#
#
# Indices 1 2 3 4 5 6 
#
# 1 94.9445 42.0753 44.9832 0.0000 -12.8636 0.0000
# 2 42.0753 75.3586 58.6785 0.0000 -8.9237 0.0000
# 3 44.9832 58.6785 159.7738 0.0000 -16.0416 0.0000
# 4 0.0000 0.0000 0.0000 41.3458 0.0000 -2.6162
# 5 -12.8636 -8.9237 -16.0416 0.0000 29.7465 0.0000
# 6 0.0000 0.0000 0.0000 -2.6162 0.0000 30.4937
#
#
#
# Elastic Compliance Matrix: (Units=1/GPa)
#
#
# Indices 1 2 3 4 5 6 
#
# 1 0.014612 -0.006736 -0.001278 0.000000 0.003609 0.000000
# 2 -0.006736 0.021803 -0.006076 0.000000 0.000351 0.000000
# 3 -0.001278 -0.006076 0.009104 0.000000 0.002535 0.000000
# 4 0.000000 0.000000 0.000000 0.024318 0.000000 0.002086
# 5 0.003609 0.000351 0.002535 0.000000 0.036650 0.000000
# 6 0.000000 0.000000 0.000000 0.002086 0.000000 0.032973
#
#
# Mechanical properties :
#
#
# Convention : Reuss Voigt Hill
#
# Bulk Modulus (GPa) = 57.66757 69.06121 63.36439
# Shear Modulus (GPa) = 28.83170 32.60652 30.71911
#
# Velocity S-wave (km/s) = 3.78452 4.02465 3.90643
# Velocity P-wave (km/s) = 6.90971 7.47692 7.19891
#
# Compressibility (1/GPa) = 0.01734077
#
# Stress axis : x y z
#
# Youngs Moduli (GPa) = 68.43733 45.86445 109.83699
#
# Poissons Ratio (x) = 0.30895 0.14033
# Poissons Ratio (y) = 0.46100 0.66734
# Poissons Ratio (z) = 0.08744 0.27866
#
# Static dielectric constant tensor:
#      x y z
#    x 3.811860 0.000000 0.092280 
#    y 0.000000 3.556980 0.000000 
#    z 0.092280 0.000000 3.708740 
# 
# 
# High freq. dielectric constant tensor:
#      x y z
#    x 1.785020 0.000000 -0.006660 
#    y 0.000000 1.790280 0.000000 
#    z -0.006660 0.000000 1.796500 
# 
# From -- ./inp_files/49109.got.cif
#   From: 2010.06.25/outbox.cif.g09.slc.cpg/sg11_25_cif.got.tgz:49109.got - 2010.06.27 23:14:04.
