data_PCOD8073857
_publ_section_title
;
Structure prediction by ZEFSAII (Michael W. Deem and Ramdas Pophale) SiO2 
 PCOD8073857
Probable space group: P 21/M
;
_chemical_formula_sum "Si O2"
_cell_formula_units_Z 28
_cell_length_a 15.064183
_cell_length_b 8.568988
_cell_length_c 17.022470
_cell_angle_alpha 90.000000
_cell_angle_beta 134.176033
_cell_angle_gamma 90.000000
_cell_volume 1575.938591
_symmetry_space_group_name_H-M "P 21/M"
_symmetry_group_IT_number 11
_symmetry_cell_setting 'monoclinic'
loop_
_space_group_symop_operation_xyz
x,y,z
-x,1/2+y,-z
-x,-y,-z
x,1/2-y,z
loop_
_atom_site_type_symbol
_atom_site_label
_atom_site_fract_x
_atom_site_fract_y
_atom_site_fract_z
Si Si1 0.323507 0.567350 0.928295
Si Si2 0.156678 0.567712 0.237314
Si Si3 0.387800 0.934371 0.480214
Si Si4 0.556246 0.433580 0.152452
Si Si5 0.099721 0.568977 0.894755
Si Si6 0.522054 0.435435 0.300691
Si Si7 0.760775 0.566969 0.872238
O O1 0.354138 0.750000 0.953438
O O2 0.343835 0.507240 0.850709
O O3 0.184955 0.530739 0.871380
O O4 0.417631 0.478468 0.042919
O O5 0.171439 0.750000 0.227395
O O6 0.258119 0.510875 0.363356
O O7 0.170369 0.469096 0.166566
O O8 0.022609 0.534114 0.191133
O O9 0.399320 0.750000 0.486986
O O10 0.398812 0.998819 0.576537
O O11 0.500000 0.000000 0.500000
O O12 0.562703 0.250000 0.161834
O O13 0.581357 0.501438 0.255694
O O14 0.063308 0.750000 0.874591
O O15 0.172149 0.528245 0.018426
O O16 0.523000 0.250000 0.300965
O O17 0.380277 0.492186 0.221155
O O18 0.770652 0.750000 0.896836
#
# Coordination Sequence:
#
# PCOD8073857 Si02
#       7
#     4   4   4   4   4   4   4
#     4   9  18  30  48  74 102 129 161 201 246 293
#     4  11  23  36  51  72 100 136 174 208 246 295
#     4  10  20  35  53  74  98 128 168 210 248 291
#     4   9  16  30  51  75 100 128 160 199 248 301
#     4  11  22  35  50  72 105 138 169 205 247 298
#     4   9  17  30  52  77 101 128 160 199 249 298
#     4  11  20  33  53  76 103 134 167 203 248 302
#
# _framework density 17.767188999999998
#
# number of rings (size 3 to 8) (size 9 to 14) (size 15 to 20)
#    0.000    2.000    2.857    1.714    0.000    1.143 
#    0.000    0.714    0.000    0.857    0.000    0.000 
#    0.000    0.000    0.000    0.000    0.000    0.286 
#
# Total GULP energy -347119.966448 kJ/mol
# GULP energy per Si atom -12397.141659 kJ/mol
# Density = 1.772675 g / cm^3
# Si number density = 17.767189 Si / 1000 Ang^3
#
#
#
# Elastic Constant Matrix: (Units=GPa)
#
#
# Indices 1 2 3 4 5 6 
#
# 1 129.7375 9.7383 60.5881 0.0000 -14.6501 0.0000
# 2 9.7383 16.1467 9.0175 0.0000 -0.7412 0.0000
# 3 60.5881 9.0175 102.4105 0.0000 -6.4690 0.0000
# 4 0.0000 0.0000 0.0000 15.1469 0.0000 3.3472
# 5 -14.6501 -0.7412 -6.4690 0.0000 30.6281 0.0000
# 6 0.0000 0.0000 0.0000 3.3472 0.0000 19.7011
#
#
#
# Elastic Compliance Matrix: (Units=1/GPa)
#
#
# Indices 1 2 3 4 5 6 
#
# 1 0.011263 -0.003185 -0.006129 0.000000 0.004016 0.000000
# 2 -0.003185 0.066040 -0.003979 0.000000 -0.000766 0.000000
# 3 -0.006129 -0.003979 0.013733 0.000000 -0.000127 0.000000
# 4 0.000000 0.000000 0.000000 0.068596 0.000000 -0.011654
# 5 0.004016 -0.000766 -0.000127 0.000000 0.034525 0.000000
# 6 0.000000 0.000000 0.000000 -0.011654 0.000000 0.052739
#
#
# Mechanical properties :
#
#
# Convention : Reuss Voigt Hill
#
# Bulk Modulus (GPa) = 15.51604 45.22027 30.36816
# Shear Modulus (GPa) = 16.95114 24.35861 20.65488
#
# Velocity S-wave (km/s) = 3.09215 3.70670 3.41329
# Velocity P-wave (km/s) = 4.63686 6.62015 5.71519
#
# Compressibility (1/GPa) = 0.06444943
#
# Stress axis : x y z
#
# Youngs Moduli (GPa) = 88.78818 15.14224 72.81712
#
# Poissons Ratio (x) = 0.04823 0.44631
# Poissons Ratio (y) = 0.28283 0.28973
# Poissons Ratio (z) = 0.54419 0.06025
#
# Static dielectric constant tensor:
#      x y z
#    x 3.720040 0.000000 -0.298690 
#    y 0.000000 3.145570 0.000000 
#    z -0.298690 0.000000 3.464200 
# 
# 
# High freq. dielectric constant tensor:
#      x y z
#    x 1.693650 0.000000 -0.011610 
#    y 0.000000 1.675810 0.000000 
#    z -0.011610 0.000000 1.668500 
# 
# From -- ./inp_files/37453.got.cif
#   From: 2010.06.25/outbox.cif.g09.slc.cpg/sg11_19_cif.got.tgz:37453.got - 2010.06.27 23:14:04.
