data_PCOD8073833
_publ_section_title
;
Structure prediction by ZEFSAII (Michael W. Deem and Ramdas Pophale) SiO2 
 PCOD8073833
Probable space group: P 21/M
;
_chemical_formula_sum "Si O2"
_cell_formula_units_Z 28
_cell_length_a 30.675829
_cell_length_b 8.389240
_cell_length_c 9.923507
_cell_angle_alpha 90.000000
_cell_angle_beta 36.099510
_cell_angle_gamma 90.000000
_cell_volume 1504.662396
_symmetry_space_group_name_H-M "P 21/M"
_symmetry_group_IT_number 11
_symmetry_cell_setting 'monoclinic'
loop_
_space_group_symop_operation_xyz
x,y,z
-x,1/2+y,-z
-x,-y,-z
x,1/2-y,z
loop_
_atom_site_type_symbol
_atom_site_label
_atom_site_fract_x
_atom_site_fract_y
_atom_site_fract_z
Si Si1 0.779191 0.937300 0.663231
Si Si2 0.499578 0.562350 0.149820
Si Si3 0.944432 0.936475 0.528234
Si Si4 0.062123 0.563365 0.746414
Si Si5 0.214111 0.562715 0.063356
Si Si6 0.659498 0.561149 0.749498
Si Si7 0.340380 0.938765 0.551434
O O1 0.770014 0.750000 0.711441
O O2 0.722304 0.002138 0.693245
O O3 0.861910 0.973756 0.406504
O O4 0.761182 0.029859 0.845576
O O5 0.496981 0.750000 0.155433
O O6 0.421186 0.500720 0.407859
O O7 0.500000 0.500000 0.000000
O O8 0.578843 0.507318 0.014067
O O9 0.955767 0.750000 0.476091
O O10 0.961809 0.028191 0.346614
O O11 0.861050 0.970341 0.784787
O O12 0.000000 0.000000 0.500000
O O13 0.073935 0.750000 0.736931
O O14 0.000000 0.500000 0.000000
O O15 0.200852 0.750000 0.076492
O O16 0.276850 0.492688 0.807242
O O17 0.663332 0.750000 0.726243
O O18 0.673850 0.491207 0.565983
O O19 0.337288 0.750000 0.563892
#
# Coordination Sequence:
#
# PCOD8073833 Si02
#       7
#     4   4   4   4   4   4   4
#     4  10  20  35  52  74 103 137 171 208 253 304
#     4   8  14  28  47  70  98 130 164 206 253 296
#     4  11  22  38  58  80 105 136 171 212 257 307
#     4  11  22  38  58  80 105 136 171 212 257 307
#     4  10  20  35  52  74 103 137 171 208 253 304
#     4   9  18  31  51  75 101 131 169 211 253 299
#     4   9  18  31  51  75 101 131 169 211 253 299
#
# _framework density 18.608823999999998
#
# number of rings (size 3 to 8) (size 9 to 14) (size 15 to 20)
#    0.000    2.286    0.000    5.143    0.000    3.429 
#    0.000    3.571    0.000    0.000    0.000    0.000 
#    0.000    0.000    0.000    0.000    0.000    0.000 
#
# Total GULP energy -346977.000971 kJ/mol
# GULP energy per Si atom -12392.035749 kJ/mol
# Density = 1.856647 g / cm^3
# Si number density = 18.608824 Si / 1000 Ang^3
#
#
#
# Elastic Constant Matrix: (Units=GPa)
#
#
# Indices 1 2 3 4 5 6 
#
# 1 129.7654 1.2042 71.6548 0.0000 -19.8508 0.0000
# 2 1.2042 34.3035 6.8773 0.0000 -1.4053 0.0000
# 3 71.6548 6.8773 152.0735 0.0000 -14.0256 0.0000
# 4 0.0000 0.0000 0.0000 25.0009 0.0000 2.1518
# 5 -19.8508 -1.4053 -14.0256 0.0000 16.2228 0.0000
# 6 0.0000 0.0000 0.0000 2.1518 0.0000 26.4871
#
#
#
# Elastic Compliance Matrix: (Units=1/GPa)
#
#
# Indices 1 2 3 4 5 6 
#
# 1 0.011899 0.000953 -0.004672 0.000000 0.010604 0.000000
# 2 0.000953 0.029529 -0.001566 0.000000 0.002370 0.000000
# 3 -0.004672 -0.001566 0.009028 0.000000 0.001953 0.000000
# 4 0.000000 0.000000 0.000000 0.040280 0.000000 -0.003272
# 5 0.010604 0.002370 0.001953 0.000000 0.076510 0.000000
# 6 0.000000 0.000000 0.000000 -0.003272 0.000000 0.038020
#
#
# Mechanical properties :
#
#
# Convention : Reuss Voigt Hill
#
# Bulk Modulus (GPa) = 25.07062 52.84611 38.95836
# Shear Modulus (GPa) = 21.82148 29.30255 25.56202
#
# Velocity S-wave (km/s) = 3.42810 3.97250 3.71030
# Velocity P-wave (km/s) = 5.40100 7.03570 6.27184
#
# Compressibility (1/GPa) = 0.03988733
#
# Stress axis : x y z
#
# Youngs Moduli (GPa) = 84.03911 33.86483 110.76613
#
# Poissons Ratio (x) = -0.03228 0.51749
# Poissons Ratio (y) = -0.08011 0.17345
# Poissons Ratio (z) = 0.39262 0.05303
#
# Static dielectric constant tensor:
#      x y z
#    x 3.637430 0.000000 -0.389500 
#    y 0.000000 3.451760 0.000000 
#    z -0.389500 0.000000 3.842590 
# 
# 
# High freq. dielectric constant tensor:
#      x y z
#    x 1.716720 0.000000 -0.022100 
#    y 0.000000 1.724580 0.000000 
#    z -0.022100 0.000000 1.724670 
# 
# From -- ./inp_files/29015.got.cif
#   From: 2010.06.25/outbox.cif.g09.slc.cpg/sg11_15_cif.got.tgz:29015.got - 2010.06.27 23:14:04.
