data_PCOD8073032
_publ_section_title
;
Structure prediction by ZEFSAII (Michael W. Deem and Ramdas Pophale) SiO2 
 PCOD8073032
Probable space group: P 21/M
;
_chemical_formula_sum "Si O2"
_cell_formula_units_Z 28
_cell_length_a 5.281582
_cell_length_b 9.739002
_cell_length_c 30.000519
_cell_angle_alpha 90.000000
_cell_angle_beta 61.709891
_cell_angle_gamma 90.000000
_cell_volume 1358.832107
_symmetry_space_group_name_H-M "P 21/M"
_symmetry_group_IT_number 11
_symmetry_cell_setting 'monoclinic'
loop_
_space_group_symop_operation_xyz
x,y,z
-x,1/2+y,-z
-x,-y,-z
x,1/2-y,z
loop_
_atom_site_type_symbol
_atom_site_label
_atom_site_fract_x
_atom_site_fract_y
_atom_site_fract_z
Si Si1 0.379969 0.592352 0.049089
Si Si2 0.156366 0.094707 0.572533
Si Si3 0.449864 0.414360 0.212063
Si Si4 0.325651 0.399244 0.465802
Si Si5 0.710762 0.908497 0.112681
Si Si6 0.720210 0.600618 0.632074
Si Si7 0.197645 0.910028 0.732067
O O1 0.410870 0.750000 0.031768
O O2 0.568482 0.561811 0.076911
O O3 0.047355 0.555519 0.084646
O O4 0.500000 0.500000 0.000000
O O5 0.164392 0.250000 0.588735
O O6 0.077707 0.083565 0.525333
O O7 0.468220 0.029369 0.550025
O O8 0.945808 0.018197 0.625530
O O9 0.465959 0.250000 0.204432
O O10 0.560215 0.488101 0.158923
O O11 0.642543 0.467452 0.237264
O O12 0.123024 0.468429 0.247861
O O13 0.477141 0.250000 0.464291
O O14 0.212973 0.384485 0.425441
O O15 0.660302 0.750000 0.131071
O O16 0.785764 0.750000 0.649856
O O17 0.397152 0.555121 0.672360
O O18 0.163558 0.750000 0.741275
#
# Coordination Sequence:
#
# PCOD8073032 Si02
#       7
#     4   4   4   4   4   4   4
#     4  10  21  36  56  85 120 154 192 230 274 324
#     4  10  20  33  50  76 107 134 169 220 271 334
#     4  10  20  37  58  84 109 142 190 238 281 324
#     4   9  19  34  53  75 100 137 178 213 267 339
#     4  10  21  37  57  82 115 155 190 229 278 332
#     4  10  20  34  55  76  99 138 178 221 279 339
#     4   9  20  35  57  83 109 137 182 241 283 327
#
# _framework density 20.605931999999999
#
# number of rings (size 3 to 8) (size 9 to 14) (size 15 to 20)
#    0.000    2.286    0.000    2.143    2.000    2.286 
#    0.000    1.429    0.000    0.000    0.000    0.000 
#    0.000    0.000    0.000    0.000    0.000    0.000 
#
# Total GULP energy -346893.059674 kJ/mol
# GULP energy per Si atom -12389.037845 kJ/mol
# Density = 2.055903 g / cm^3
# Si number density = 20.605932 Si / 1000 Ang^3
#
#
#
# Elastic Constant Matrix: (Units=GPa)
#
#
# Indices 1 2 3 4 5 6 
#
# 1 81.1276 12.5451 15.6708 0.0000 -11.7580 0.0000
# 2 12.5451 88.3746 44.6460 0.0000 -16.6879 0.0000
# 3 15.6708 44.6460 75.0005 0.0000 -19.1764 0.0000
# 4 0.0000 0.0000 0.0000 29.5204 0.0000 -7.8496
# 5 -11.7580 -16.6879 -19.1764 0.0000 34.2533 0.0000
# 6 0.0000 0.0000 0.0000 -7.8496 0.0000 14.1157
#
#
#
# Elastic Compliance Matrix: (Units=1/GPa)
#
#
# Indices 1 2 3 4 5 6 
#
# 1 0.013201 -0.000396 -0.001649 0.000000 0.003415 0.000000
# 2 -0.000396 0.016446 -0.008978 0.000000 0.002850 0.000000
# 3 -0.001649 -0.008978 0.020726 0.000000 0.006663 0.000000
# 4 0.000000 0.000000 0.000000 0.039753 0.000000 0.022107
# 5 0.003415 0.002850 0.006663 0.000000 0.035485 0.000000
# 6 0.000000 0.000000 0.000000 0.022107 0.000000 0.083137
#
#
# Mechanical properties :
#
#
# Convention : Reuss Voigt Hill
#
# Bulk Modulus (GPa) = 35.30368 43.35849 39.33108
# Shear Modulus (GPa) = 20.81283 27.02059 23.91671
#
# Velocity S-wave (km/s) = 3.18156 3.62512 3.41056
# Velocity P-wave (km/s) = 5.53773 6.21365 5.88540
#
# Compressibility (1/GPa) = 0.02832566
#
# Stress axis : x y z
#
# Youngs Moduli (GPa) = 75.75155 60.80679 48.24851
#
# Poissons Ratio (x) = 0.02406 0.07958
# Poissons Ratio (y) = 0.02998 0.43319
# Poissons Ratio (z) = 0.12495 0.54594
#
# Static dielectric constant tensor:
#      x y z
#    x 3.972820 0.000000 -0.075070 
#    y 0.000000 3.969130 0.000000 
#    z -0.075070 0.000000 3.690660 
# 
# 
# High freq. dielectric constant tensor:
#      x y z
#    x 1.802860 0.000000 -0.006060 
#    y 0.000000 1.797790 0.000000 
#    z -0.006060 0.000000 1.801060 
# 
# From -- ./inp_files/72539.got.cif
#   From: 2010.06.25/outbox.cif.g09.slc.cpg/sg11_37_cif.got.tgz:72539.got - 2010.06.27 23:14:04.
