data_PCOD8073783
_publ_section_title
;
Structure prediction by ZEFSAII (Michael W. Deem and Ramdas Pophale) SiO2 
 PCOD8073783
Probable space group: P 21/M
;
_chemical_formula_sum "Si O2"
_cell_formula_units_Z 32
_cell_length_a 19.496936
_cell_length_b 19.423298
_cell_length_c 11.784954
_cell_angle_alpha 90.000000
_cell_angle_beta 157.376441
_cell_angle_gamma 90.000000
_cell_volume 1716.765899
_symmetry_space_group_name_H-M "P 21/M"
_symmetry_group_IT_number 11
_symmetry_cell_setting 'monoclinic'
loop_
_space_group_symop_operation_xyz
x,y,z
-x,1/2+y,-z
-x,-y,-z
x,1/2-y,z
loop_
_atom_site_type_symbol
_atom_site_label
_atom_site_fract_x
_atom_site_fract_y
_atom_site_fract_z
Si Si1 0.741604 0.053152 0.813705
Si Si2 0.792468 0.830393 0.695101
Si Si3 0.962692 0.920817 0.561734
Si Si4 0.893997 0.429654 0.817062
Si Si5 0.241604 0.946848 0.813705
Si Si6 0.292468 0.169607 0.695101
Si Si7 0.462692 0.079183 0.561734
Si Si8 0.606003 0.429654 0.182938
O O1 0.789418 0.092842 0.771378
O O2 0.586588 0.096473 0.641637
O O3 0.685985 0.975219 0.701601
O O4 0.916039 0.044441 0.156918
O O5 0.823309 0.750000 0.757643
O O6 0.750000 0.850038 0.500000
O O7 0.629645 0.852776 0.528438
O O8 0.970836 0.868753 0.008216
O O9 0.870356 0.852776 0.471563
O O10 0.086588 0.903527 0.641637
O O11 0.814015 0.975219 0.298398
O O12 0.750000 0.441296 0.500000
O O13 0.000000 0.500000 0.000000
O O14 0.289418 0.907158 0.771379
O O15 0.416040 0.955559 0.156919
O O16 0.323308 0.250000 0.757642
O O17 0.470836 0.131247 0.008215
O O18 0.500000 0.500000 0.000000
#
# Coordination Sequence:
#
# PCOD8073783 Si02
#       8
#     4   4   4   4   4   4   4   4
#     4  10  20  34  57  90 115 145 189 245 290 337
#     4  11  23  40  59  83 120 159 198 240 292 349
#     4  10  20  36  57  87 118 146 192 240 297 344
#     4  12  22  36  62  90 117 149 196 247 291 343
#     4  10  20  34  57  90 115 145 189 245 290 337
#     4  11  23  40  59  83 120 159 198 240 292 349
#     4  10  20  36  57  87 118 146 192 240 297 344
#     4  12  22  36  62  90 117 149 196 247 291 343
#
# _framework density 18.639700000000001
#
# number of rings (size 3 to 8) (size 9 to 14) (size 15 to 20)
#    0.000    1.250    5.000    2.250    0.000    0.500 
#    0.000    3.750    0.000    1.500    0.000    0.000 
#    0.000    0.000    0.000    0.000    0.000    0.000 
#
# Total GULP energy -396823.476520 kJ/mol
# GULP energy per Si atom -12400.733641 kJ/mol
# Density = 1.859727 g / cm^3
# Si number density = 18.639700 Si / 1000 Ang^3
#
#
#
# Elastic Constant Matrix: (Units=GPa)
#
#
# Indices 1 2 3 4 5 6 
#
# 1 149.9089 43.4301 45.8822 0.0000 10.3290 0.0000
# 2 43.4301 98.9440 54.1193 0.0000 10.9931 0.0000
# 3 45.8822 54.1193 133.4246 0.0000 -3.7033 0.0000
# 4 0.0000 0.0000 0.0000 16.9937 0.0000 1.2389
# 5 10.3290 10.9931 -3.7033 0.0000 28.2397 0.0000
# 6 0.0000 0.0000 0.0000 1.2389 0.0000 25.7360
#
#
#
# Elastic Compliance Matrix: (Units=1/GPa)
#
#
# Indices 1 2 3 4 5 6 
#
# 1 0.008069 -0.002221 -0.001939 0.000000 -0.002341 0.000000
# 2 -0.002221 0.014609 -0.005316 0.000000 -0.005572 0.000000
# 3 -0.001939 -0.005316 0.010433 0.000000 0.004147 0.000000
# 4 0.000000 0.000000 0.000000 0.059053 0.000000 -0.002843
# 5 -0.002341 -0.005572 0.004147 0.000000 0.038980 0.000000
# 6 0.000000 0.000000 0.000000 -0.002843 0.000000 0.038993
#
#
# Mechanical properties :
#
#
# Convention : Reuss Voigt Hill
#
# Bulk Modulus (GPa) = 70.63145 74.34894 72.49020
# Shear Modulus (GPa) = 25.79874 30.11694 27.95784
#
# Velocity S-wave (km/s) = 3.72435 4.02399 3.87707
# Velocity P-wave (km/s) = 7.51463 7.84627 7.68224
#
# Compressibility (1/GPa) = 0.01415800
#
# Stress axis : x y z
#
# Youngs Moduli (GPa) = 123.93258 68.45300 95.84928
#
# Poissons Ratio (x) = 0.15205 0.18583
# Poissons Ratio (y) = 0.27528 0.50956
# Poissons Ratio (z) = 0.24027 0.36392
#
# Static dielectric constant tensor:
#      x y z
#    x 3.990150 0.000000 0.132790 
#    y 0.000000 2.996390 0.000000 
#    z 0.132790 0.000000 3.509900 
# 
# 
# High freq. dielectric constant tensor:
#      x y z
#    x 1.746750 0.000000 0.009460 
#    y 0.000000 1.678280 0.000000 
#    z 0.009460 0.000000 1.734200 
# 
# From -- ./inp_files/43570.got.cif
#   From: 2010.06.25/outbox.cif.g09.slc.cpg/sg11_22_cif.got.tgz:43570.got - 2010.06.27 23:14:04.
