data_PCOD8073191
_publ_section_title
;
Structure prediction by ZEFSAII (Michael W. Deem and Ramdas Pophale) SiO2 
 PCOD8073191
Probable space group: P 21/M
;
_chemical_formula_sum "Si O2"
_cell_formula_units_Z 32
_cell_length_a 8.446543
_cell_length_b 26.394902
_cell_length_c 11.917620
_cell_angle_alpha 90.000000
_cell_angle_beta 36.821341
_cell_angle_gamma 90.000000
_cell_volume 1592.387150
_symmetry_space_group_name_H-M "P 21/M"
_symmetry_group_IT_number 11
_symmetry_cell_setting 'monoclinic'
loop_
_space_group_symop_operation_xyz
x,y,z
-x,1/2+y,-z
-x,-y,-z
x,1/2-y,z
loop_
_atom_site_type_symbol
_atom_site_label
_atom_site_fract_x
_atom_site_fract_y
_atom_site_fract_z
Si Si1 0.923249 0.807416 0.797770
Si Si2 0.676305 0.692533 0.574061
Si Si3 0.540552 0.375978 0.901060
Si Si4 0.184402 0.807079 0.429482
Si Si5 0.955654 0.630754 0.236643
Si Si6 0.256341 0.025227 0.702806
Si Si7 0.171874 0.048234 0.999061
Si Si8 0.133694 0.854798 0.894834
O O1 0.831011 0.750000 0.832755
O O2 0.161601 0.820102 0.575060
O O3 0.024284 0.814947 0.866735
O O4 0.672383 0.842244 0.912446
O O5 0.569467 0.750000 0.621929
O O6 0.445919 0.652601 0.730560
O O7 0.886002 0.688633 0.554433
O O8 0.812642 0.676127 0.381303
O O9 0.623770 0.346730 0.739636
O O10 0.779814 0.386534 0.848657
O O11 0.407010 0.428853 0.940671
O O12 0.293643 0.750000 0.347283
O O13 0.772732 0.581333 0.330835
O O14 0.008627 0.655678 0.086514
O O15 0.305214 0.026584 0.809685
O O16 0.500000 0.000000 0.500000
O O17 0.979607 0.994832 0.843096
O O18 0.941719 0.088754 0.100806
#
# Coordination Sequence:
#
# PCOD8073191 Si02
#       8
#     4   4   4   4   4   4   4   4
#     4  10  20  33  53  79 108 148 188 223 268 320
#     4  10  20  34  53  78 109 145 182 219 263 318
#     4  10  20  36  55  80 112 142 181 229 275 325
#     4   9  19  34  51  74 107 147 185 220 265 320
#     4  10  22  37  57  82 110 145 181 224 275 324
#     4  10  20  39  60  79 108 142 177 224 277 326
#     4   9  21  36  56  82 106 139 181 221 272 332
#     4  10  20  35  53  79 110 140 180 227 271 317
#
# _framework density 20.095614999999999
#
# number of rings (size 3 to 8) (size 9 to 14) (size 15 to 20)
#    0.000    2.250    0.000    2.250    0.000    7.000 
#    0.000    0.625    0.000    0.000    0.000    0.000 
#    0.000    0.000    0.000    0.000    0.000    0.000 
#
# Total GULP energy -396777.584544 kJ/mol
# GULP energy per Si atom -12399.299517 kJ/mol
# Density = 2.004988 g / cm^3
# Si number density = 20.095615 Si / 1000 Ang^3
#
#
#
# Elastic Constant Matrix: (Units=GPa)
#
#
# Indices 1 2 3 4 5 6 
#
# 1 55.8852 17.0564 22.3937 0.0000 15.9356 0.0000
# 2 17.0564 48.9718 23.4531 0.0000 8.4867 0.0000
# 3 22.3937 23.4531 78.1153 0.0000 14.1794 0.0000
# 4 0.0000 0.0000 0.0000 35.9658 0.0000 -1.1503
# 5 15.9356 8.4867 14.1794 0.0000 29.3805 0.0000
# 6 0.0000 0.0000 0.0000 -1.1503 0.0000 20.9669
#
#
#
# Elastic Compliance Matrix: (Units=1/GPa)
#
#
# Indices 1 2 3 4 5 6 
#
# 1 0.023544 -0.004827 -0.003546 0.000000 -0.009664 0.000000
# 2 -0.004827 0.025224 -0.005855 0.000000 -0.001842 0.000000
# 3 -0.003546 -0.005855 0.016352 0.000000 -0.004277 0.000000
# 4 0.000000 0.000000 0.000000 0.027853 0.000000 0.001528
# 5 -0.009664 -0.001842 -0.004277 0.000000 0.041874 0.000000
# 6 0.000000 0.000000 0.000000 0.001528 0.000000 0.047778
#
#
# Mechanical properties :
#
#
# Convention : Reuss Voigt Hill
#
# Bulk Modulus (GPa) = 27.27439 34.30875 30.79157
# Shear Modulus (GPa) = 22.39102 25.26724 23.82913
#
# Velocity S-wave (km/s) = 3.34162 3.54976 3.44726
# Velocity P-wave (km/s) = 5.33764 5.82331 5.58575
#
# Compressibility (1/GPa) = 0.03666443
#
# Stress axis : x y z
#
# Youngs Moduli (GPa) = 42.47421 39.64404 61.15288
#
# Poissons Ratio (x) = 0.19137 0.21684
# Poissons Ratio (y) = 0.20503 0.35806
# Poissons Ratio (z) = 0.15061 0.23212
#
# Static dielectric constant tensor:
#      x y z
#    x 3.582850 0.000000 0.088200 
#    y 0.000000 3.596230 0.000000 
#    z 0.088200 0.000000 3.683540 
# 
# 
# High freq. dielectric constant tensor:
#      x y z
#    x 1.775640 0.000000 0.007570 
#    y 0.000000 1.779670 0.000000 
#    z 0.007570 0.000000 1.790430 
# 
# From -- ./inp_files/3406.got.cif
#   From: 2010.06.25/outbox.cif.g09.slc.cpg/sg11_2_cif.got.tgz:3406.got - 2010.06.27 23:14:04.
