data_PCOD8073409
_publ_section_title
;
Structure prediction by ZEFSAII (Michael W. Deem and Ramdas Pophale) SiO2 
 PCOD8073409
Probable space group: P 21/M
;
_chemical_formula_sum "Si O2"
_cell_formula_units_Z 24
_cell_length_a 21.711182
_cell_length_b 9.003286
_cell_length_c 6.956494
_cell_angle_alpha 90.000000
_cell_angle_beta 104.941600
_cell_angle_gamma 90.000000
_cell_volume 1313.823655
_symmetry_space_group_name_H-M "P 21/M"
_symmetry_group_IT_number 11
_symmetry_cell_setting 'monoclinic'
loop_
_space_group_symop_operation_xyz
x,y,z
-x,1/2+y,-z
-x,-y,-z
x,1/2-y,z
loop_
_atom_site_type_symbol
_atom_site_label
_atom_site_fract_x
_atom_site_fract_y
_atom_site_fract_z
Si Si1 0.903616 0.922571 0.934774
Si Si2 0.566054 0.077588 0.595810
Si Si3 0.008896 0.922822 0.708732
Si Si4 0.761028 0.921980 0.730675
Si Si5 0.673648 0.078033 0.372148
Si Si6 0.655250 0.577430 0.955269
O O1 0.905953 0.750000 0.992041
O O2 0.832320 0.975410 0.832236
O O3 0.946434 0.957608 0.783929
O O4 0.928389 0.013721 0.137417
O O5 0.554636 0.250000 0.627833
O O6 0.611367 0.051104 0.450404
O O7 0.500000 0.000000 0.500000
O O8 0.596139 0.006231 0.810412
O O9 0.019157 0.750000 0.683519
O O10 0.000000 0.000000 0.500000
O O11 0.758919 0.750000 0.666612
O O12 0.719551 0.950314 0.887361
O O13 0.735666 0.019663 0.533967
O O14 0.683522 0.250000 0.329863
O O15 0.665746 0.984963 0.174198
O O16 0.637802 0.750000 0.953247
#
# Coordination Sequence:
#
# PCOD8073409 Si02
#       6
#     4   4   4   4   4   4
#     4   9  19  36  55  75 102 136 174 215 257 303
#     4  10  21  37  56  78 105 137 173 213 256 302
#     4  10  20  34  53  76 104 137 172 213 259 307
#     4   9  19  36  56  77 102 135 175 215 255 303
#     4  10  21  36  54  78 108 138 169 210 258 307
#     4  10  20  35  56  79 104 136 173 213 256 304
#
# _framework density 18.267289999999999
#
# number of rings (size 3 to 8) (size 9 to 14) (size 15 to 20)
#    0.000    2.333    0.000    2.000    0.000    6.000 
#    0.000    6.667    0.000    0.000    0.000    0.000 
#    0.000    0.000    0.000    0.000    0.000    0.000 
#
# Total GULP energy -297710.460033 kJ/mol
# GULP energy per Si atom -12404.602501 kJ/mol
# Density = 1.822571 g / cm^3
# Si number density = 18.267290 Si / 1000 Ang^3
#
#
#
# Elastic Constant Matrix: (Units=GPa)
#
#
# Indices 1 2 3 4 5 6 
#
# 1 112.4214 58.8484 67.6344 0.0000 35.9414 0.0000
# 2 58.8484 115.2823 86.6172 0.0000 12.5843 0.0000
# 3 67.6344 86.6172 159.4440 0.0000 13.9926 0.0000
# 4 0.0000 0.0000 0.0000 42.5241 0.0000 3.5506
# 5 35.9414 12.5843 13.9926 0.0000 26.7173 0.0000
# 6 0.0000 0.0000 0.0000 3.5506 0.0000 29.3722
#
#
#
# Elastic Compliance Matrix: (Units=1/GPa)
#
#
# Indices 1 2 3 4 5 6 
#
# 1 0.022478 -0.005428 -0.004357 0.000000 -0.025400 0.000000
# 2 -0.005428 0.016180 -0.006770 0.000000 0.003227 0.000000
# 3 -0.004357 -0.006770 0.011534 0.000000 0.003010 0.000000
# 4 0.000000 0.000000 0.000000 0.023756 0.000000 -0.002872
# 5 -0.025400 0.003227 0.003010 0.000000 0.068502 0.000000
# 6 0.000000 0.000000 0.000000 -0.002872 0.000000 0.034393
#
#
# Mechanical properties :
#
#
# Convention : Reuss Voigt Hill
#
# Bulk Modulus (GPa) = 58.54473 90.37196 74.45834
# Shear Modulus (GPa) = 23.18591 31.32589 27.25590
#
# Velocity S-wave (km/s) = 3.56653 4.14558 3.86691
# Velocity P-wave (km/s) = 7.00562 8.51433 7.79656
#
# Compressibility (1/GPa) = 0.01708096
#
# Stress axis : x y z
#
# Youngs Moduli (GPa) = 44.48709 61.80536 86.70125
#
# Poissons Ratio (x) = 0.33548 0.37778
# Poissons Ratio (y) = 0.24148 0.58699
# Poissons Ratio (z) = 0.19384 0.41844
#
# Static dielectric constant tensor:
#      x y z
#    x 3.438450 0.000000 0.112090 
#    y 0.000000 3.477130 0.000000 
#    z 0.112090 0.000000 3.412840 
# 
# 
# High freq. dielectric constant tensor:
#      x y z
#    x 1.706110 0.000000 0.006800 
#    y 0.000000 1.719510 0.000000 
#    z 0.006800 0.000000 1.714160 
# 
# From -- ./inp_files/9259.got.cif
#   From: 2010.06.25/outbox.cif.g09.slc.cpg/sg11_5_cif.got.tgz:9259.got - 2010.06.27 23:14:04.
