data_PCOD8073066
_publ_section_title
;
Structure prediction by ZEFSAII (Michael W. Deem and Ramdas Pophale) SiO2 
 PCOD8073066
Probable space group: P 21/M
;
_chemical_formula_sum "Si O2"
_cell_formula_units_Z 28
_cell_length_a 7.090463
_cell_length_b 9.073389
_cell_length_c 31.558697
_cell_angle_alpha 90.000000
_cell_angle_beta 47.470715
_cell_angle_gamma 90.000000
_cell_volume 1496.203152
_symmetry_space_group_name_H-M "P 21/M"
_symmetry_group_IT_number 11
_symmetry_cell_setting 'monoclinic'
loop_
_space_group_symop_operation_xyz
x,y,z
-x,1/2+y,-z
-x,-y,-z
x,1/2-y,z
loop_
_atom_site_type_symbol
_atom_site_label
_atom_site_fract_x
_atom_site_fract_y
_atom_site_fract_z
Si Si1 0.603522 0.922776 0.359073
Si Si2 0.150554 0.583729 0.070383
Si Si3 0.756922 0.578389 0.654009
Si Si4 0.442163 0.578530 0.943653
Si Si5 0.193142 0.921491 0.266991
Si Si6 0.586682 0.916541 0.137565
Si Si7 0.352248 0.577871 0.559991
O O1 0.543352 0.750000 0.373279
O O2 0.896976 0.949898 0.300855
O O3 0.418851 0.990879 0.352040
O O4 0.552706 0.003044 0.411190
O O5 0.250997 0.750000 0.061921
O O6 0.279288 0.479918 0.085462
O O7 0.848856 0.574013 0.124180
O O8 0.230748 0.532302 0.010753
O O9 0.682916 0.750000 0.664326
O O10 0.710330 0.515861 0.707941
O O11 0.052282 0.553108 0.597088
O O12 0.460181 0.750000 0.934678
O O13 0.366454 0.513146 0.910463
O O14 0.244834 0.750000 0.269324
O O15 0.356144 0.975218 0.201785
O O16 0.529054 0.750000 0.131861
O O17 0.500000 0.500000 0.500000
O O18 0.421762 0.750000 0.551409
#
# Coordination Sequence:
#
# PCOD8073066 Si02
#       7
#     4   4   4   4   4   4   4
#     4  10  20  36  58  80 106 142 179 216 259 307
#     4   9  19  35  53  73 100 136 173 210 258 315
#     4  10  21  37  57  80 108 142 176 214 261 308
#     4  10  20  33  51  76 104 133 168 213 263 315
#     4   9  20  37  55  77 103 135 178 221 259 305
#     4  10  20  35  55  76 101 135 174 216 261 311
#     4  10  21  37  57  83 113 142 176 217 258 303
#
# _framework density 18.714037999999999
#
# number of rings (size 3 to 8) (size 9 to 14) (size 15 to 20)
#    0.000    2.286    0.000    2.143    0.000    5.714 
#    0.000    5.714    0.000    0.000    0.000    0.000 
#    0.000    0.000    0.000    0.000    0.000    0.000 
#
# Total GULP energy -347252.105567 kJ/mol
# GULP energy per Si atom -12401.860913 kJ/mol
# Density = 1.867144 g / cm^3
# Si number density = 18.714038 Si / 1000 Ang^3
#
#
#
# Elastic Constant Matrix: (Units=GPa)
#
#
# Indices 1 2 3 4 5 6 
#
# 1 100.8455 50.8235 28.6230 0.0000 6.4260 0.0000
# 2 50.8235 95.0699 31.8832 0.0000 3.4057 0.0000
# 3 28.6230 31.8832 71.1498 0.0000 -6.3469 0.0000
# 4 0.0000 0.0000 0.0000 24.2067 0.0000 6.4152
# 5 6.4260 3.4057 -6.3469 0.0000 16.8302 0.0000
# 6 0.0000 0.0000 0.0000 6.4152 0.0000 38.7141
#
#
#
# Elastic Compliance Matrix: (Units=1/GPa)
#
#
# Indices 1 2 3 4 5 6 
#
# 1 0.014462 -0.006374 -0.003455 0.000000 -0.005535 0.000000
# 2 -0.006374 0.015568 -0.004632 0.000000 -0.002463 0.000000
# 3 -0.003455 -0.004632 0.018339 0.000000 0.009172 0.000000
# 4 0.000000 0.000000 0.000000 0.043208 0.000000 -0.007160
# 5 -0.005535 -0.002463 0.009172 0.000000 0.065488 0.000000
# 6 0.000000 0.000000 0.000000 -0.007160 0.000000 0.027017
#
#
# Mechanical properties :
#
#
# Convention : Reuss Voigt Hill
#
# Bulk Modulus (GPa) = 51.42407 54.41385 52.91896
# Shear Modulus (GPa) = 22.78059 26.33257 24.55658
#
# Velocity S-wave (km/s) = 3.49277 3.75521 3.62636
# Velocity P-wave (km/s) = 6.61849 6.92399 6.77297
#
# Compressibility (1/GPa) = 0.01944615
#
# Stress axis : x y z
#
# Youngs Moduli (GPa) = 69.14671 64.23576 54.52999
#
# Poissons Ratio (x) = 0.40945 0.18842
# Poissons Ratio (y) = 0.44075 0.25256
# Poissons Ratio (z) = 0.23892 0.29751
#
# Static dielectric constant tensor:
#      x y z
#    x 3.384020 0.000000 -0.055730 
#    y 0.000000 3.307640 0.000000 
#    z -0.055730 0.000000 3.441860 
# 
# 
# High freq. dielectric constant tensor:
#      x y z
#    x 1.726750 0.000000 -0.001970 
#    y 0.000000 1.734030 0.000000 
#    z -0.001970 0.000000 1.723630 
# 
# From -- ./inp_files/72535.got.cif
#   From: 2010.06.25/outbox.cif.g09.slc.cpg/sg11_37_cif.got.tgz:72535.got - 2010.06.27 23:14:04.
