data_PCOD8073720
_publ_section_title
;
Structure prediction by ZEFSAII (Michael W. Deem and Ramdas Pophale) SiO2 
 PCOD8073720
Probable space group: P 21/M
;
_chemical_formula_sum "Si O2"
_cell_formula_units_Z 32
_cell_length_a 12.634324
_cell_length_b 9.168708
_cell_length_c 13.591536
_cell_angle_alpha 90.000000
_cell_angle_beta 88.479992
_cell_angle_gamma 90.000000
_cell_volume 1573.895328
_symmetry_space_group_name_H-M "P 21/M"
_symmetry_group_IT_number 11
_symmetry_cell_setting 'monoclinic'
loop_
_space_group_symop_operation_xyz
x,y,z
-x,1/2+y,-z
-x,-y,-z
x,1/2-y,z
loop_
_atom_site_type_symbol
_atom_site_label
_atom_site_fract_x
_atom_site_fract_y
_atom_site_fract_z
Si Si1 0.158666 0.915631 0.837631
Si Si2 0.492463 0.918117 0.645639
Si Si3 0.904826 0.422318 0.561104
Si Si4 0.826571 0.923759 0.961900
Si Si5 0.934663 0.584659 0.759708
Si Si6 0.601458 0.904913 0.997574
Si Si7 0.664847 0.417117 0.528184
Si Si8 0.351423 0.090871 0.779952
O O1 0.193132 0.750000 0.861251
O O2 0.060356 0.917641 0.766518
O O3 0.247604 0.992331 0.768399
O O4 0.131203 0.994584 0.941706
O O5 0.509577 0.750000 0.671266
O O6 0.394768 0.942263 0.573213
O O7 0.605262 0.980117 0.607790
O O8 0.456962 0.007411 0.742239
O O9 0.927067 0.250000 0.559478
O O10 0.899571 0.479132 0.672908
O O11 0.789419 0.457799 0.515960
O O12 0.000000 0.500000 0.500000
O O13 0.837084 0.750000 0.979370
O O14 0.889666 0.974831 0.864309
O O15 0.704589 0.970471 0.940949
O O16 0.894846 0.750000 0.739494
O O17 0.570842 0.750000 0.949965
O O18 0.639559 0.880313 0.106260
O O19 0.500000 0.000000 0.000000
O O20 0.652436 0.250000 0.563225
O O21 0.340038 0.250000 0.727349
#
# Coordination Sequence:
#
# PCOD8073720 Si02
#       8
#     4   4   4   4   4   4   4   4
#     4  10  20  34  56  86 117 149 191 243 290 341
#     4  10  20  36  62  90 113 146 191 239 293 348
#     4  11  25  43  62  86 119 158 200 246 295 352
#     4   9  19  37  57  80 113 150 188 235 289 346
#     4  10  22  39  59  84 115 152 193 240 293 347
#     4   9  19  34  52  76 109 146 182 224 274 331
#     4   9  21  41  60  83 117 149 186 242 296 343
#     4  10  21  36  54  81 116 150 188 233 285 344
#
# _framework density 20.331721000000002
#
# number of rings (size 3 to 8) (size 9 to 14) (size 15 to 20)
#    0.000    2.250    0.000    2.625    1.750    6.500 
#    0.000    2.500    0.000    0.000    0.000    0.000 
#    0.000    0.000    0.000    0.000    0.000    0.000 
#
# Total GULP energy -396627.482643 kJ/mol
# GULP energy per Si atom -12394.608833 kJ/mol
# Density = 2.028545 g / cm^3
# Si number density = 20.331721 Si / 1000 Ang^3
#
#
#
# Elastic Constant Matrix: (Units=GPa)
#
#
# Indices 1 2 3 4 5 6 
#
# 1 118.8373 49.8104 15.8434 0.0000 -9.5827 0.0000
# 2 49.8104 114.3761 25.7550 0.0000 -11.1952 0.0000
# 3 15.8434 25.7550 39.1177 0.0000 -14.1052 0.0000
# 4 0.0000 0.0000 0.0000 32.9010 0.0000 -3.9232
# 5 -9.5827 -11.1952 -14.1052 0.0000 33.2591 0.0000
# 6 0.0000 0.0000 0.0000 -3.9232 0.0000 34.4944
#
#
#
# Elastic Compliance Matrix: (Units=1/GPa)
#
#
# Indices 1 2 3 4 5 6 
#
# 1 0.010399 -0.004181 -0.001046 0.000000 0.001145 0.000000
# 2 -0.004181 0.011960 -0.006096 0.000000 0.000236 0.000000
# 3 -0.001046 -0.006096 0.034415 0.000000 0.012242 0.000000
# 4 0.000000 0.000000 0.000000 0.030812 0.000000 0.003504
# 5 0.001145 0.000236 0.012242 0.000000 0.035668 0.000000
# 6 0.000000 0.000000 0.000000 0.003504 0.000000 0.029389
#
#
# Mechanical properties :
#
#
# Convention : Reuss Voigt Hill
#
# Bulk Modulus (GPa) = 29.30120 50.57207 39.93663
# Shear Modulus (GPa) = 26.78590 32.19238 29.48914
#
# Velocity S-wave (km/s) = 3.63360 3.98346 3.81254
# Velocity P-wave (km/s) = 5.66100 6.78857 6.25027
#
# Compressibility (1/GPa) = 0.03412830
#
# Stress axis : x y z
#
# Youngs Moduli (GPa) = 96.16117 83.61422 29.05680
#
# Poissons Ratio (x) = 0.34961 0.03039
# Poissons Ratio (y) = 0.40207 0.17712
# Poissons Ratio (z) = 0.10059 0.50969
#
# Static dielectric constant tensor:
#      x y z
#    x 2.929720 0.000000 -0.338760 
#    y 0.000000 3.914530 0.000000 
#    z -0.338760 0.000000 3.494330 
# 
# 
# High freq. dielectric constant tensor:
#      x y z
#    x 1.801660 0.000000 -0.014760 
#    y 0.000000 1.799380 0.000000 
#    z -0.014760 0.000000 1.777740 
# 
# From -- ./inp_files/45233.got.cif
#   From: 2010.06.25/outbox.cif.g09.slc.cpg/sg11_23_cif.got.tgz:45233.got - 2010.06.27 23:14:04.
