data_PCOD8073033
_publ_section_title
;
Structure prediction by ZEFSAII (Michael W. Deem and Ramdas Pophale) SiO2 
 PCOD8073033
Probable space group: P 21/M
;
_chemical_formula_sum "Si O2"
_cell_formula_units_Z 32
_cell_length_a 11.660351
_cell_length_b 8.854513
_cell_length_c 21.340331
_cell_angle_alpha 90.000000
_cell_angle_beta 56.997300
_cell_angle_gamma 90.000000
_cell_volume 1847.802567
_symmetry_space_group_name_H-M "P 21/M"
_symmetry_group_IT_number 11
_symmetry_cell_setting 'monoclinic'
loop_
_space_group_symop_operation_xyz
x,y,z
-x,1/2+y,-z
-x,-y,-z
x,1/2-y,z
loop_
_atom_site_type_symbol
_atom_site_label
_atom_site_fract_x
_atom_site_fract_y
_atom_site_fract_z
Si Si1 0.643907 0.429062 0.731871
Si Si2 0.621264 0.424271 0.140684
Si Si3 0.892393 0.928721 0.727842
Si Si4 0.207376 0.584006 0.432512
Si Si5 0.088122 0.929556 0.145141
Si Si6 0.055537 0.416361 0.574778
Si Si7 0.625918 0.427678 0.996957
Si Si8 0.069774 0.573899 0.918978
O O1 0.663888 0.250000 0.732537
O O2 0.488600 0.475822 0.789807
O O3 0.744777 0.505738 0.752148
O O4 0.681937 0.482119 0.649792
O O5 0.575930 0.250000 0.156905
O O6 0.767804 0.448874 0.128157
O O7 0.628702 0.483291 0.067455
O O8 0.880556 0.750000 0.735894
O O9 0.938739 0.996992 0.779881
O O10 0.011164 0.972592 0.643646
O O11 0.253127 0.750000 0.441891
O O12 0.190459 0.479373 0.498923
O O13 0.064392 0.596954 0.439504
O O14 0.075294 0.750000 0.153087
O O15 0.236453 0.982246 0.077376
O O16 0.976855 0.992050 0.130116
O O17 0.089579 0.250000 0.591745
O O18 0.611832 0.250000 0.997367
O O19 0.500000 0.500000 0.000000
O O20 0.030627 0.750000 0.929944
O O21 0.000000 0.500000 0.000000
#
# Coordination Sequence:
#
# PCOD8073033 Si02
#       8
#     4   4   4   4   4   4   4   4
#     4  10  20  33  50  76 107 140 175 213 258 306
#     4  10  21  37  53  73 102 134 172 214 259 307
#     4  11  21  33  50  75 107 142 174 210 260 311
#     4   8  15  27  43  67 101 136 171 208 248 300
#     4  11  22  38  55  75 102 133 173 219 262 306
#     4   9  16  27  45  70 100 136 174 209 249 300
#     4  10  21  35  50  72 101 133 166 205 252 304
#     4  11  22  39  59  78  99 131 174 220 265 309
#
# _framework density 17.317868000000001
#
# number of rings (size 3 to 8) (size 9 to 14) (size 15 to 20)
#    0.000    2.000    1.250    4.125    0.000    8.000 
#    0.000    0.000    0.000    0.000    0.000    0.875 
#    0.000    0.000    0.000    0.000    0.000    0.000 
#
# Total GULP energy -396804.617853 kJ/mol
# GULP energy per Si atom -12400.144308 kJ/mol
# Density = 1.727845 g / cm^3
# Si number density = 17.317868 Si / 1000 Ang^3
#
#
#
# Elastic Constant Matrix: (Units=GPa)
#
#
# Indices 1 2 3 4 5 6 
#
# 1 81.1484 38.5838 44.9814 0.0000 6.5860 0.0000
# 2 38.5838 96.0311 51.1011 0.0000 1.5436 0.0000
# 3 44.9814 51.1011 119.0166 0.0000 6.0490 0.0000
# 4 0.0000 0.0000 0.0000 32.1723 0.0000 1.0491
# 5 6.5860 1.5436 6.0490 0.0000 7.3425 0.0000
# 6 0.0000 0.0000 0.0000 1.0491 0.0000 25.9838
#
#
#
# Elastic Compliance Matrix: (Units=1/GPa)
#
#
# Indices 1 2 3 4 5 6 
#
# 1 0.017808 -0.004797 -0.004081 0.000000 -0.011602 0.000000
# 2 -0.004797 0.014818 -0.004811 0.000000 0.005151 0.000000
# 3 -0.004081 -0.004811 0.012287 0.000000 -0.005451 0.000000
# 4 0.000000 0.000000 0.000000 0.031124 0.000000 -0.001257
# 5 -0.011602 0.005151 -0.005451 0.000000 0.150007 0.000000
# 6 0.000000 0.000000 0.000000 -0.001257 0.000000 0.038536
#
#
# Mechanical properties :
#
#
# Convention : Reuss Voigt Hill
#
# Bulk Modulus (GPa) = 57.02857 62.83652 59.93254
# Shear Modulus (GPa) = 16.78964 23.86839 20.32901
#
# Velocity S-wave (km/s) = 3.11705 3.71651 3.42990
# Velocity P-wave (km/s) = 6.77914 7.40132 7.09705
#
# Compressibility (1/GPa) = 0.01753507
#
# Stress axis : x y z
#
# Youngs Moduli (GPa) = 56.15582 67.48600 81.38449
#
# Poissons Ratio (x) = 0.32371 0.33214
# Poissons Ratio (y) = 0.26936 0.39155
# Poissons Ratio (z) = 0.22918 0.32469
#
# Static dielectric constant tensor:
#      x y z
#    x 2.737320 0.000000 -0.040280 
#    y 0.000000 3.393970 0.000000 
#    z -0.040280 0.000000 3.420330 
# 
# 
# High freq. dielectric constant tensor:
#      x y z
#    x 1.628060 0.000000 0.002620 
#    y 0.000000 1.680100 0.000000 
#    z 0.002620 0.000000 1.679060 
# 
# From -- ./inp_files/64363.got.cif
#   From: 2010.06.25/outbox.cif.g09.slc.cpg/sg11_33_cif.got.tgz:64363.got - 2010.06.27 23:14:04.
