data_PCOD8073389
_publ_section_title
;
Structure prediction by ZEFSAII (Michael W. Deem and Ramdas Pophale) SiO2 
 PCOD8073389
Probable space group: P 21/M
;
_chemical_formula_sum "Si O2"
_cell_formula_units_Z 24
_cell_length_a 11.556361
_cell_length_b 9.142715
_cell_length_c 12.589310
_cell_angle_alpha 90.000000
_cell_angle_beta 90.616215
_cell_angle_gamma 90.000000
_cell_volume 1330.065694
_symmetry_space_group_name_H-M "P 21/M"
_symmetry_group_IT_number 11
_symmetry_cell_setting 'monoclinic'
loop_
_space_group_symop_operation_xyz
x,y,z
-x,1/2+y,-z
-x,-y,-z
x,1/2-y,z
loop_
_atom_site_type_symbol
_atom_site_label
_atom_site_fract_x
_atom_site_fract_y
_atom_site_fract_z
Si Si1 0.619384 0.920424 0.515071
Si Si2 0.227280 0.421501 0.680844
Si Si3 0.380529 0.079923 0.884176
Si Si4 0.994186 0.422436 0.386493
Si Si5 0.355137 0.578764 0.096953
Si Si6 0.235528 0.419680 0.280947
O O1 0.595213 0.750000 0.504422
O O2 0.707918 0.970209 0.425218
O O3 0.672529 0.963770 0.628297
O O4 0.500000 0.000000 0.500000
O O5 0.196842 0.250000 0.679515
O O6 0.307765 0.464066 0.780420
O O7 0.110225 0.514797 0.685281
O O8 0.367960 0.250000 0.912005
O O9 0.514652 0.039946 0.864031
O O10 0.330368 0.988407 0.981424
O O11 0.980381 0.250000 0.405478
O O12 0.108472 0.458490 0.320935
O O13 0.000000 0.500000 0.500000
O O14 0.334182 0.750000 0.089843
O O15 0.262562 0.512987 0.177206
O O16 0.246174 0.250000 0.251804
#
# Coordination Sequence:
#
# PCOD8073389 Si02
#       6
#     4   4   4   4   4   4
#     4  10  20  34  52  79 113 143 175 222 276 330
#     4  10  20  37  57  80 112 146 184 227 276 329
#     4   9  19  36  58  82 114 149 178 223 282 330
#     4  11  22  38  58  80 109 148 189 229 275 329
#     4  10  20  35  58  85 111 143 187 229 269 329
#     4  10  21  37  55  77 111 147 180 224 278 328
#
# _framework density 18.044222999999999
#
# number of rings (size 3 to 8) (size 9 to 14) (size 15 to 20)
#    0.000    2.000    1.667    2.000    0.000    5.333 
#    0.000    0.833    0.000    0.000    0.000    0.000 
#    0.000    0.000    0.000    0.000    0.000    0.000 
#
# Total GULP energy -297697.327735 kJ/mol
# GULP energy per Si atom -12404.055322 kJ/mol
# Density = 1.800315 g / cm^3
# Si number density = 18.044223 Si / 1000 Ang^3
#
#
#
# Elastic Constant Matrix: (Units=GPa)
#
#
# Indices 1 2 3 4 5 6 
#
# 1 79.2671 39.1175 22.9675 0.0000 -11.9868 0.0000
# 2 39.1175 65.0452 44.6920 0.0000 -12.6930 0.0000
# 3 22.9675 44.6920 92.0137 0.0000 -20.9614 0.0000
# 4 0.0000 0.0000 0.0000 28.4971 0.0000 -0.0081
# 5 -11.9868 -12.6930 -20.9614 0.0000 27.2643 0.0000
# 6 0.0000 0.0000 0.0000 -0.0081 0.0000 35.5424
#
#
#
# Elastic Compliance Matrix: (Units=1/GPa)
#
#
# Indices 1 2 3 4 5 6 
#
# 1 0.018412 -0.011634 0.002019 0.000000 0.004231 0.000000
# 2 -0.011634 0.030576 -0.011965 0.000000 -0.000079 0.000000
# 3 0.002019 -0.011965 0.018317 0.000000 0.009400 0.000000
# 4 0.000000 0.000000 0.000000 0.035091 0.000000 0.000008
# 5 0.004231 -0.000079 0.009400 0.000000 0.045728 0.000000
# 6 0.000000 0.000000 0.000000 0.000008 0.000000 0.028135
#
#
# Mechanical properties :
#
#
# Convention : Reuss Voigt Hill
#
# Bulk Modulus (GPa) = 41.41848 49.98666 45.70257
# Shear Modulus (GPa) = 21.98106 26.89739 24.43922
#
# Velocity S-wave (km/s) = 3.49403 3.86507 3.68422
# Velocity P-wave (km/s) = 6.26748 6.90513 6.59402
#
# Compressibility (1/GPa) = 0.02414381
#
# Stress axis : x y z
#
# Youngs Moduli (GPa) = 54.31328 32.70498 54.59416
#
# Poissons Ratio (x) = 0.38050 -0.11022
# Poissons Ratio (y) = 0.63189 0.65324
# Poissons Ratio (z) = -0.10965 0.39133
#
# Static dielectric constant tensor:
#      x y z
#    x 3.360960 0.000000 0.010910 
#    y 0.000000 3.299450 0.000000 
#    z 0.010910 0.000000 3.328670 
# 
# 
# High freq. dielectric constant tensor:
#      x y z
#    x 1.699020 0.000000 -0.000960 
#    y 0.000000 1.699860 0.000000 
#    z -0.000960 0.000000 1.700980 
# 
# From -- ./inp_files/33763.got.cif
#   From: 2010.06.25/outbox.cif.g09.slc.cpg/sg11_17_cif.got.tgz:33763.got - 2010.06.27 23:14:04.
