data_PCOD8073074
_publ_section_title
;
Structure prediction by ZEFSAII (Michael W. Deem and Ramdas Pophale) SiO2 
 PCOD8073074
Probable space group: P 21/M
;
_chemical_formula_sum "Si O2"
_cell_formula_units_Z 28
_cell_length_a 23.270110
_cell_length_b 8.776205
_cell_length_c 20.378183
_cell_angle_alpha 90.000000
_cell_angle_beta 19.711902
_cell_angle_gamma 90.000000
_cell_volume 1403.702835
_symmetry_space_group_name_H-M "P 21/M"
_symmetry_group_IT_number 11
_symmetry_cell_setting 'monoclinic'
loop_
_space_group_symop_operation_xyz
x,y,z
-x,1/2+y,-z
-x,-y,-z
x,1/2-y,z
loop_
_atom_site_type_symbol
_atom_site_label
_atom_site_fract_x
_atom_site_fract_y
_atom_site_fract_z
Si Si1 0.267926 0.069346 0.076385
Si Si2 0.345162 0.579994 0.860129
Si Si3 0.466282 0.068906 0.106697
Si Si4 0.957417 0.582410 0.243985
Si Si5 0.088904 0.416779 0.845685
Si Si6 0.523934 0.583625 0.541960
Si Si7 0.904281 0.931723 0.441990
O O1 0.259584 0.250000 0.093270
O O2 0.073834 0.005132 0.292673
O O3 0.354023 0.026520 0.914393
O O4 0.392144 0.000830 0.997632
O O5 0.418201 0.750000 0.798552
O O6 0.447510 0.502062 0.689322
O O7 0.155826 0.596788 0.039731
O O8 0.486829 0.250000 0.084709
O O9 0.270681 0.022875 0.334016
O O10 0.500000 0.000000 0.000000
O O11 0.872128 0.750000 0.329050
O O12 0.923223 0.494240 0.211802
O O13 0.882108 0.504413 0.390848
O O14 0.001972 0.250000 0.931318
O O15 0.279612 0.397282 0.660399
O O16 0.000000 0.500000 0.000000
O O17 0.500000 0.500000 0.500000
O O18 0.435848 0.750000 0.631302
O O19 0.935087 0.750000 0.407827
#
# Coordination Sequence:
#
# PCOD8073074 Si02
#       7
#     4   4   4   4   4   4   4
#     4  11  23  39  62  93 129 163 199 253 311 367
#     4   9  18  35  57  80 109 150 196 244 296 358
#     4  11  24  42  67  95 127 164 206 255 304 366
#     4   8  15  31  55  79 103 136 186 239 286 340
#     4  10  20  33  51  76 106 143 187 237 289 344
#     4  10  21  34  53  78 109 148 194 243 294 352
#     4   9  20  40  66  91 117 160 209 252 300 360
#
# _framework density 19.947241999999999
#
# number of rings (size 3 to 8) (size 9 to 14) (size 15 to 20)
#    0.000    2.286    0.000    3.429    2.000    4.000 
#    0.000    4.286    0.000    0.000    0.000    0.000 
#    0.000    0.000    0.000    0.000    0.000    0.000 
#
# Total GULP energy -346870.753887 kJ/mol
# GULP energy per Si atom -12388.241210 kJ/mol
# Density = 1.990184 g / cm^3
# Si number density = 19.947242 Si / 1000 Ang^3
#
#
#
# Elastic Constant Matrix: (Units=GPa)
#
#
# Indices 1 2 3 4 5 6 
#
# 1 172.5719 57.4964 84.1128 0.0000 11.1502 0.0000
# 2 57.4964 83.2219 48.4363 0.0000 4.3850 0.0000
# 3 84.1128 48.4363 140.3595 0.0000 27.1984 0.0000
# 4 0.0000 0.0000 0.0000 22.4198 0.0000 0.8881
# 5 11.1502 4.3850 27.1984 0.0000 29.1135 0.0000
# 6 0.0000 0.0000 0.0000 0.8881 0.0000 23.4695
#
#
#
# Elastic Compliance Matrix: (Units=1/GPa)
#
#
# Indices 1 2 3 4 5 6 
#
# 1 0.009125 -0.003818 -0.004377 0.000000 0.001170 0.000000
# 2 -0.003818 0.016875 -0.004061 0.000000 0.002715 0.000000
# 3 -0.004377 -0.004061 0.013072 0.000000 -0.009924 0.000000
# 4 0.000000 0.000000 0.000000 0.044670 0.000000 -0.001690
# 5 0.001170 0.002715 -0.009924 0.000000 0.042763 0.000000
# 6 0.000000 0.000000 0.000000 -0.001690 0.000000 0.042673
#
#
# Mechanical properties :
#
#
# Convention : Reuss Voigt Hill
#
# Bulk Modulus (GPa) = 68.68850 86.24936 77.46893
# Shear Modulus (GPa) = 25.18345 28.74107 26.96226
#
# Velocity S-wave (km/s) = 3.55703 3.79998 3.68051
# Velocity P-wave (km/s) = 7.16797 7.91111 7.54869
#
# Compressibility (1/GPa) = 0.01455848
#
# Stress axis : x y z
#
# Youngs Moduli (GPa) = 109.59288 59.26090 76.49802
#
# Poissons Ratio (x) = 0.22626 0.33485
# Poissons Ratio (y) = 0.41844 0.31067
# Poissons Ratio (z) = 0.47971 0.24067
#
# Static dielectric constant tensor:
#      x y z
#    x 3.555820 0.000000 0.369710 
#    y 0.000000 6.190770 0.000000 
#    z 0.369710 0.000000 3.458130 
# 
# 
# High freq. dielectric constant tensor:
#      x y z
#    x 1.792160 0.000000 0.005390 
#    y 0.000000 1.743700 0.000000 
#    z 0.005390 0.000000 1.787430 
# 
# From -- ./inp_files/23990.got.cif
#   From: 2010.06.25/outbox.cif.g09.slc.cpg/sg11_12_cif.got.tgz:23990.got - 2010.06.27 23:14:04.
