data_PCOD8073854
_publ_section_title
;
Structure prediction by ZEFSAII (Michael W. Deem and Ramdas Pophale) SiO2 
 PCOD8073854
Probable space group: P 21/M
;
_chemical_formula_sum "Si O2"
_cell_formula_units_Z 32
_cell_length_a 11.760929
_cell_length_b 8.889216
_cell_length_c 33.368910
_cell_angle_alpha 90.000000
_cell_angle_beta 30.037810
_cell_angle_gamma 90.000000
_cell_volume 1746.276989
_symmetry_space_group_name_H-M "P 21/M"
_symmetry_group_IT_number 11
_symmetry_cell_setting 'monoclinic'
loop_
_space_group_symop_operation_xyz
x,y,z
-x,1/2+y,-z
-x,-y,-z
x,1/2-y,z
loop_
_atom_site_type_symbol
_atom_site_label
_atom_site_fract_x
_atom_site_fract_y
_atom_site_fract_z
Si Si1 0.014557 0.926679 0.672435
Si Si2 0.210276 0.429558 0.538280
Si Si3 0.371225 0.923764 0.721545
Si Si4 0.659956 0.425948 0.357316
Si Si5 0.898435 0.573844 0.570349
Si Si6 0.527044 0.071828 0.820409
Si Si7 0.807137 0.922950 0.148283
Si Si8 0.175237 0.575389 0.976086
O O1 0.985523 0.750000 0.673368
O O2 0.112370 0.958932 0.687003
O O3 0.197059 0.995319 0.585974
O O4 0.777437 0.008829 0.738994
O O5 0.203219 0.250000 0.544304
O O6 0.438535 0.490906 0.447464
O O7 0.994189 0.487733 0.579501
O O8 0.309822 0.750000 0.739429
O O9 0.317396 0.996243 0.694166
O O10 0.631026 0.952993 0.653229
O O11 0.210903 0.994934 0.803960
O O12 0.613895 0.250000 0.366642
O O13 0.960013 0.750000 0.552537
O O14 0.000000 0.500000 0.500000
O O15 0.533988 0.250000 0.821827
O O16 0.375832 0.017206 0.828648
O O17 0.418055 0.005257 0.894947
O O18 0.753725 0.750000 0.172122
O O19 0.067154 0.946435 0.053371
O O20 0.201254 0.750000 0.957675
O O21 0.000000 0.500000 0.000000
#
# Coordination Sequence:
#
# PCOD8073854 Si02
#       8
#     4   4   4   4   4   4   4   4
#     4  11  22  36  55  77 102 136 182 224 267 319
#     4  11  21  37  56  75 106 138 175 226 273 316
#     4  10  20  35  53  74 103 140 177 213 259 314
#     4   9  20  38  54  71 101 141 180 224 269 310
#     4  11  21  34  53  77 105 138 176 216 265 318
#     4  10  20  35  54  79 111 140 172 214 268 317
#     4   9  19  33  51  80 111 137 164 206 259 310
#     4   9  17  31  52  79 112 142 171 208 259 316
#
# _framework density 18.324698000000001
#
# number of rings (size 3 to 8) (size 9 to 14) (size 15 to 20)
#    0.000    2.000    1.250    3.750    0.000    6.000 
#    0.000    3.125    0.000    0.750    0.000    0.000 
#    0.000    0.000    0.000    0.000    0.000    0.000 
#
# Total GULP energy -396734.562365 kJ/mol
# GULP energy per Si atom -12397.955074 kJ/mol
# Density = 1.828299 g / cm^3
# Si number density = 18.324698 Si / 1000 Ang^3
#
#
#
# Elastic Constant Matrix: (Units=GPa)
#
#
# Indices 1 2 3 4 5 6 
#
# 1 78.0525 27.9941 41.4963 0.0000 13.9453 0.0000
# 2 27.9941 72.8268 41.4998 0.0000 10.4802 0.0000
# 3 41.4963 41.4998 123.8754 0.0000 21.9496 0.0000
# 4 0.0000 0.0000 0.0000 34.3945 0.0000 4.5055
# 5 13.9453 10.4802 21.9496 0.0000 20.6814 0.0000
# 6 0.0000 0.0000 0.0000 4.5055 0.0000 21.9056
#
#
#
# Elastic Compliance Matrix: (Units=1/GPa)
#
#
# Indices 1 2 3 4 5 6 
#
# 1 0.017028 -0.003755 -0.003386 0.000000 -0.005986 0.000000
# 2 -0.003755 0.017968 -0.004430 0.000000 -0.001872 0.000000
# 3 -0.003386 -0.004430 0.012179 0.000000 -0.008398 0.000000
# 4 0.000000 0.000000 0.000000 0.029879 0.000000 -0.006146
# 5 -0.005986 -0.001872 -0.008398 0.000000 0.062250 0.000000
# 6 0.000000 0.000000 0.000000 -0.006146 0.000000 0.046914
#
#
# Mechanical properties :
#
#
# Convention : Reuss Voigt Hill
#
# Bulk Modulus (GPa) = 41.60727 55.19278 48.40003
# Shear Modulus (GPa) = 23.00208 26.31395 24.65802
#
# Velocity S-wave (km/s) = 3.54679 3.79355 3.67224
# Velocity P-wave (km/s) = 6.28712 7.02657 6.66711
#
# Compressibility (1/GPa) = 0.02403426
#
# Stress axis : x y z
#
# Youngs Moduli (GPa) = 58.72691 55.65325 82.10907
#
# Poissons Ratio (x) = 0.20897 0.27798
# Poissons Ratio (y) = 0.22051 0.36376
# Poissons Ratio (z) = 0.19882 0.24655
#
# Static dielectric constant tensor:
#      x y z
#    x 3.239840 0.000000 0.044900 
#    y 0.000000 3.402880 0.000000 
#    z 0.044900 0.000000 3.701160 
# 
# 
# High freq. dielectric constant tensor:
#      x y z
#    x 1.686420 0.000000 0.010050 
#    y 0.000000 1.708810 0.000000 
#    z 0.010050 0.000000 1.717670 
# 
# From -- ./inp_files/73050.got.cif
#   From: 2010.06.25/outbox.cif.g09.slc.cpg/sg11_37_cif.got.tgz:73050.got - 2010.06.27 23:14:04.
