data_PCOD8073558
_publ_section_title
;
Structure prediction by ZEFSAII (Michael W. Deem and Ramdas Pophale) SiO2 
 PCOD8073558
Probable space group: P 21/M
;
_chemical_formula_sum "Si O2"
_cell_formula_units_Z 28
_cell_length_a 11.723986
_cell_length_b 8.774890
_cell_length_c 15.325356
_cell_angle_alpha 90.000000
_cell_angle_beta 116.410337
_cell_angle_gamma 90.000000
_cell_volume 1412.072244
_symmetry_space_group_name_H-M "P 21/M"
_symmetry_group_IT_number 11
_symmetry_cell_setting 'monoclinic'
loop_
_space_group_symop_operation_xyz
x,y,z
-x,1/2+y,-z
-x,-y,-z
x,1/2-y,z
loop_
_atom_site_type_symbol
_atom_site_label
_atom_site_fract_x
_atom_site_fract_y
_atom_site_fract_z
Si Si1 0.567105 0.428767 0.202011
Si Si2 0.889146 0.073890 0.907888
Si Si3 0.073144 0.571653 0.273527
Si Si4 0.218682 0.071462 0.828607
Si Si5 0.667380 0.427527 0.961170
Si Si6 0.509390 0.574419 0.363700
Si Si7 0.690290 0.925642 0.581764
O O1 0.589033 0.250000 0.201856
O O2 0.698163 0.515404 0.224773
O O3 0.462631 0.479235 0.094997
O O4 0.523684 0.471490 0.283774
O O5 0.923032 0.250000 0.916638
O O6 0.889708 0.010117 0.810029
O O7 0.752896 0.041508 0.904865
O O8 0.000000 0.000000 0.000000
O O9 0.100267 0.750000 0.293141
O O10 0.162969 0.479949 0.371399
O O11 0.926942 0.532422 0.244184
O O12 0.237343 0.250000 0.851561
O O13 0.257972 0.982485 0.928737
O O14 0.634691 0.250000 0.960438
O O15 0.495033 0.750000 0.330193
O O16 0.382659 0.527154 0.371823
O O17 0.632310 0.547721 0.466243
O O18 0.678305 0.750000 0.604849
#
# Coordination Sequence:
#
# PCOD8073558 Si02
#       7
#     4   4   4   4   4   4   4
#     4  12  25  40  60  85 113 151 199 246 293 344
#     4  10  20  34  54  82 114 148 186 231 281 332
#     4  10  21  37  58  85 119 158 195 235 290 345
#     4  11  23  40  59  81 116 159 200 242 287 342
#     4  11  22  37  59  86 117 155 195 242 294 343
#     4  10  21  40  63  89 120 150 189 238 289 345
#     4  10  21  37  63  94 120 150 187 234 290 346
#
# _framework density 19.829014999999998
#
# number of rings (size 3 to 8) (size 9 to 14) (size 15 to 20)
#    0.000    1.429    1.429    4.286    0.000    5.143 
#    0.000    0.714    0.000    0.000    0.000    0.000 
#    0.000    0.000    0.000    0.000    0.000    0.000 
#
# Total GULP energy -347356.852548 kJ/mol
# GULP energy per Si atom -12405.601877 kJ/mol
# Density = 1.978388 g / cm^3
# Si number density = 19.829015 Si / 1000 Ang^3
#
#
#
# Elastic Constant Matrix: (Units=GPa)
#
#
# Indices 1 2 3 4 5 6 
#
# 1 81.9017 33.7713 27.6271 0.0000 18.7960 0.0000
# 2 33.7713 55.5479 26.8064 0.0000 10.5090 0.0000
# 3 27.6271 26.8064 74.8605 0.0000 22.0223 0.0000
# 4 0.0000 0.0000 0.0000 33.7868 0.0000 2.3895
# 5 18.7960 10.5090 22.0223 0.0000 33.1180 0.0000
# 6 0.0000 0.0000 0.0000 2.3895 0.0000 33.2257
#
#
#
# Elastic Compliance Matrix: (Units=1/GPa)
#
#
# Indices 1 2 3 4 5 6 
#
# 1 0.017848 -0.008917 -0.001549 0.000000 -0.006270 0.000000
# 2 -0.008917 0.026342 -0.006429 0.000000 0.000977 0.000000
# 3 -0.001549 -0.006429 0.019112 0.000000 -0.009789 0.000000
# 4 0.000000 0.000000 0.000000 0.029749 0.000000 -0.002139
# 5 -0.006270 0.000977 -0.009789 0.000000 0.039953 0.000000
# 6 0.000000 0.000000 0.000000 -0.002139 0.000000 0.030251
#
#
# Mechanical properties :
#
#
# Convention : Reuss Voigt Hill
#
# Bulk Modulus (GPa) = 33.88642 43.19107 38.53874
# Shear Modulus (GPa) = 24.16830 28.29977 26.23404
#
# Velocity S-wave (km/s) = 3.49497 3.78192 3.64127
# Velocity P-wave (km/s) = 5.78038 6.39528 6.09559
#
# Compressibility (1/GPa) = 0.02951035
#
# Stress axis : x y z
#
# Youngs Moduli (GPa) = 56.02810 37.96276 52.32338
#
# Poissons Ratio (x) = 0.33853 0.08106
# Poissons Ratio (y) = 0.49962 0.33640
# Poissons Ratio (z) = 0.08680 0.24407
#
# Static dielectric constant tensor:
#      x y z
#    x 3.698400 0.000000 0.057900 
#    y 0.000000 3.693570 0.000000 
#    z 0.057900 0.000000 3.586220 
# 
# 
# High freq. dielectric constant tensor:
#      x y z
#    x 1.774860 0.000000 0.010570 
#    y 0.000000 1.779210 0.000000 
#    z 0.010570 0.000000 1.769600 
# 
# From -- ./inp_files/37633.got.cif
#   From: 2010.06.25/outbox.cif.g09.slc.cpg/sg11_19_cif.got.tgz:37633.got - 2010.06.27 23:14:04.
