data_PCOD8073411
_publ_section_title
;
Structure prediction by ZEFSAII (Michael W. Deem and Ramdas Pophale) SiO2 
 PCOD8073411
Probable space group: P 21/M
;
_chemical_formula_sum "Si O2"
_cell_formula_units_Z 32
_cell_length_a 16.006394
_cell_length_b 8.683078
_cell_length_c 12.326732
_cell_angle_alpha 90.000000
_cell_angle_beta 99.215476
_cell_angle_gamma 90.000000
_cell_volume 1691.115424
_symmetry_space_group_name_H-M "P 21/M"
_symmetry_group_IT_number 11
_symmetry_cell_setting 'monoclinic'
loop_
_space_group_symop_operation_xyz
x,y,z
-x,1/2+y,-z
-x,-y,-z
x,1/2-y,z
loop_
_atom_site_type_symbol
_atom_site_label
_atom_site_fract_x
_atom_site_fract_y
_atom_site_fract_z
Si Si1 0.060669 0.429362 0.598772
Si Si2 0.737313 0.426833 0.910369
Si Si3 0.224991 0.568710 0.548251
Si Si4 0.013921 0.428596 0.212230
Si Si5 0.408911 0.569666 0.961951
Si Si6 0.858249 0.570903 0.099539
Si Si7 0.287908 0.068074 0.763668
Si Si8 0.804697 0.072721 0.700003
O O1 0.042228 0.250000 0.616954
O O2 0.153806 0.452766 0.574856
O O3 0.046755 0.529688 0.701315
O O4 0.000000 0.500000 0.500000
O O5 0.761882 0.250000 0.938953
O O6 0.736698 0.461519 0.780946
O O7 0.645432 0.464032 0.940422
O O8 0.808844 0.532150 0.979234
O O9 0.203952 0.750000 0.554316
O O10 0.298423 0.521041 0.649059
O O11 0.237834 0.522195 0.423896
O O12 0.026571 0.250000 0.198002
O O13 0.951730 0.493420 0.105344
O O14 0.106758 0.495833 0.249495
O O15 0.414973 0.750000 0.938497
O O16 0.367391 0.485301 0.851126
O O17 0.500000 0.500000 0.000000
O O18 0.875168 0.750000 0.110348
O O19 0.799516 0.521895 0.191271
O O20 0.293298 0.250000 0.746209
O O21 0.827879 0.250000 0.696207
#
# Coordination Sequence:
#
# PCOD8073411 Si02
#       8
#     4   4   4   4   4   4   4   4
#     4  12  22  33  48  71 103 142 190 242 283 320
#     4   9  20  39  59  80 108 144 182 223 272 334
#     4  11  21  33  53  78 108 146 186 229 276 324
#     4  12  23  33  50  74 104 145 193 239 283 327
#     4  10  20  37  64  93 117 138 171 215 272 335
#     4  10  20  34  53  76 106 143 185 237 285 325
#     4  10  20  34  55  83 115 144 178 225 276 323
#     4  10  22  38  54  74 107 149 192 232 273 323
#
# _framework density 18.922421
#
# number of rings (size 3 to 8) (size 9 to 14) (size 15 to 20)
#    0.000    1.500    2.500    3.750    0.000    3.000 
#    0.000    0.000    0.000    0.750    0.000    0.000 
#    0.000    0.000    0.000    0.000    0.000    0.000 
#
# Total GULP energy -396492.735822 kJ/mol
# GULP energy per Si atom -12390.397994 kJ/mol
# Density = 1.887935 g / cm^3
# Si number density = 18.922421 Si / 1000 Ang^3
#
#
#
# Elastic Constant Matrix: (Units=GPa)
#
#
# Indices 1 2 3 4 5 6 
#
# 1 91.7176 29.9348 57.5181 0.0000 13.9310 0.0000
# 2 29.9348 58.3615 34.9441 0.0000 4.5766 0.0000
# 3 57.5181 34.9441 126.4731 0.0000 -0.8231 0.0000
# 4 0.0000 0.0000 0.0000 25.6159 0.0000 6.9998
# 5 13.9310 4.5766 -0.8231 0.0000 20.4495 0.0000
# 6 0.0000 0.0000 0.0000 6.9998 0.0000 26.9538
#
#
#
# Elastic Compliance Matrix: (Units=1/GPa)
#
#
# Indices 1 2 3 4 5 6 
#
# 1 0.018814 -0.004224 -0.007469 0.000000 -0.012172 0.000000
# 2 -0.004224 0.021966 -0.004163 0.000000 -0.002206 0.000000
# 3 -0.007469 -0.004163 0.012496 0.000000 0.006523 0.000000
# 4 0.000000 0.000000 0.000000 0.042020 0.000000 -0.010912
# 5 -0.012172 -0.002206 0.006523 0.000000 0.057949 0.000000
# 6 0.000000 0.000000 0.000000 -0.010912 0.000000 0.039934
#
#
# Mechanical properties :
#
#
# Convention : Reuss Voigt Hill
#
# Bulk Modulus (GPa) = 46.36830 57.92736 52.14783
# Shear Modulus (GPa) = 21.54431 24.88086 23.21258
#
# Velocity S-wave (km/s) = 3.37792 3.63007 3.50626
# Velocity P-wave (km/s) = 6.30645 6.94618 6.63403
#
# Compressibility (1/GPa) = 0.02156646
#
# Stress axis : x y z
#
# Youngs Moduli (GPa) = 53.15139 45.52390 80.02534
#
# Poissons Ratio (x) = 0.19228 0.59768
# Poissons Ratio (y) = 0.22450 0.33312
# Poissons Ratio (z) = 0.39697 0.18950
#
# Static dielectric constant tensor:
#      x y z
#    x 3.542410 0.000000 -0.107600 
#    y 0.000000 3.496850 0.000000 
#    z -0.107600 0.000000 3.957700 
# 
# 
# High freq. dielectric constant tensor:
#      x y z
#    x 1.696620 0.000000 0.012440 
#    y 0.000000 1.742850 0.000000 
#    z 0.012440 0.000000 1.746110 
# 
# From -- ./inp_files/38189.got.cif
#   From: 2010.06.25/outbox.cif.g09.slc.cpg/sg11_20_cif.got.tgz:38189.got - 2010.06.27 23:14:04.
