data_PCOD8073081
_publ_section_title
;
Structure prediction by ZEFSAII (Michael W. Deem and Ramdas Pophale) SiO2 
 PCOD8073081
Probable space group: P 21/M
;
_chemical_formula_sum "Si O2"
_cell_formula_units_Z 32
_cell_length_a 15.918433
_cell_length_b 9.046650
_cell_length_c 25.732189
_cell_angle_alpha 90.000000
_cell_angle_beta 28.997733
_cell_angle_gamma 90.000000
_cell_volume 1796.408340
_symmetry_space_group_name_H-M "P 21/M"
_symmetry_group_IT_number 11
_symmetry_cell_setting 'monoclinic'
loop_
_space_group_symop_operation_xyz
x,y,z
-x,1/2+y,-z
-x,-y,-z
x,1/2-y,z
loop_
_atom_site_type_symbol
_atom_site_label
_atom_site_fract_x
_atom_site_fract_y
_atom_site_fract_z
Si Si1 0.222092 0.077254 0.418851
Si Si2 0.332860 0.076937 0.154730
Si Si3 0.526373 0.074256 0.327174
Si Si4 0.168089 0.577297 0.343003
Si Si5 0.991212 0.421198 0.166835
Si Si6 0.273632 0.577478 0.081656
Si Si7 0.098354 0.922548 0.900928
Si Si8 0.599646 0.077166 0.400398
O O1 0.246850 0.250000 0.393093
O O2 0.363352 0.015546 0.382914
O O3 0.036864 0.045894 0.545004
O O4 0.251879 0.988212 0.349792
O O5 0.292439 0.250000 0.177568
O O6 0.249253 0.002634 0.249951
O O7 0.245494 0.008721 0.150724
O O8 0.537591 0.043763 0.044205
O O9 0.529592 0.250000 0.327048
O O10 0.704512 0.017585 0.205037
O O11 0.517476 0.016119 0.391126
O O12 0.210491 0.750000 0.316961
O O13 0.038246 0.250000 0.150869
O O14 0.991311 0.458130 0.105610
O O15 0.803835 0.458643 0.292411
O O16 0.133220 0.524400 0.116287
O O17 0.248929 0.750000 0.106326
O O18 0.095580 0.750000 0.913198
O O19 0.000000 0.000000 0.000000
O O20 0.568458 0.250000 0.422062
O O21 0.500000 0.000000 0.500000
#
# Coordination Sequence:
#
# PCOD8073081 Si02
#       8
#     4   4   4   4   4   4   4   4
#     4   9  18  34  54  74  99 134 173 211 252 298
#     4  10  21  37  55  75 103 136 168 208 257 306
#     4   8  16  33  53  70  95 132 168 202 245 298
#     4  10  20  33  51  77 106 134 168 210 253 302
#     4   9  19  35  52  73 105 139 166 202 259 314
#     4  10  21  36  55  78 101 131 173 214 252 301
#     4   9  18  33  52  73  99 131 166 205 249 296
#     4   9  18  33  52  75 102 133 169 209 255 302
#
# _framework density 17.813323
#
# number of rings (size 3 to 8) (size 9 to 14) (size 15 to 20)
#    0.000    2.750    0.000    2.625    0.000    5.000 
#    0.000    8.125    0.000    0.000    0.000    0.000 
#    0.000    0.000    0.000    0.000    0.000    0.000 
#
# Total GULP energy -396793.394661 kJ/mol
# GULP energy per Si atom -12399.793583 kJ/mol
# Density = 1.777278 g / cm^3
# Si number density = 17.813323 Si / 1000 Ang^3
#
#
#
# Elastic Constant Matrix: (Units=GPa)
#
#
# Indices 1 2 3 4 5 6 
#
# 1 146.8338 60.7627 87.5766 0.0000 -0.0170 0.0000
# 2 60.7627 77.2184 57.8124 0.0000 10.1476 0.0000
# 3 87.5766 57.8124 124.7071 0.0000 25.6400 0.0000
# 4 0.0000 0.0000 0.0000 34.7431 0.0000 5.5985
# 5 -0.0170 10.1476 25.6400 0.0000 32.6634 0.0000
# 6 0.0000 0.0000 0.0000 5.5985 0.0000 31.4326
#
#
#
# Elastic Compliance Matrix: (Units=1/GPa)
#
#
# Indices 1 2 3 4 5 6 
#
# 1 0.015087 -0.005704 -0.009917 0.000000 0.009565 0.000000
# 2 -0.005704 0.022034 -0.005725 0.000000 -0.002354 0.000000
# 3 -0.009917 -0.005725 0.020597 0.000000 -0.014394 0.000000
# 4 0.000000 0.000000 0.000000 0.029633 0.000000 -0.005278
# 5 0.009565 -0.002354 -0.014394 0.000000 0.042651 0.000000
# 6 0.000000 0.000000 0.000000 -0.005278 0.000000 0.032754
#
#
# Mechanical properties :
#
#
# Convention : Reuss Voigt Hill
#
# Bulk Modulus (GPa) = 66.55263 84.56253 75.55758
# Shear Modulus (GPa) = 23.75780 29.27498 26.51639
#
# Velocity S-wave (km/s) = 3.65596 4.05832 3.86239
# Velocity P-wave (km/s) = 7.43395 8.33874 7.89931
#
# Compressibility (1/GPa) = 0.01502570
#
# Stress axis : x y z
#
# Youngs Moduli (GPa) = 66.28318 45.38368 48.55122
#
# Poissons Ratio (x) = 0.25886 0.48149
# Poissons Ratio (y) = 0.37807 0.27796
# Poissons Ratio (z) = 0.65734 0.25983
#
# Static dielectric constant tensor:
#      x y z
#    x 3.476390 0.000000 -0.125740 
#    y 0.000000 3.178010 0.000000 
#    z -0.125740 0.000000 3.209980 
# 
# 
# High freq. dielectric constant tensor:
#      x y z
#    x 1.696450 0.000000 0.002100 
#    y 0.000000 1.680360 0.000000 
#    z 0.002100 0.000000 1.690930 
# 
# From -- ./inp_files/69035.got.cif
#   From: 2010.06.25/outbox.cif.g09.slc.cpg/sg11_35_cif.got.tgz:69035.got - 2010.06.27 23:14:04.
