data_PCOD8073150
_publ_section_title
;
Structure prediction by ZEFSAII (Michael W. Deem and Ramdas Pophale) SiO2 
 PCOD8073150
Probable space group: P 21/M
;
_chemical_formula_sum "Si O2"
_cell_formula_units_Z 32
_cell_length_a 27.462450
_cell_length_b 8.828616
_cell_length_c 21.506203
_cell_angle_alpha 90.000000
_cell_angle_beta 161.138743
_cell_angle_gamma 90.000000
_cell_volume 1685.665008
_symmetry_space_group_name_H-M "P 21/M"
_symmetry_group_IT_number 11
_symmetry_cell_setting 'monoclinic'
loop_
_space_group_symop_operation_xyz
x,y,z
-x,1/2+y,-z
-x,-y,-z
x,1/2-y,z
loop_
_atom_site_type_symbol
_atom_site_label
_atom_site_fract_x
_atom_site_fract_y
_atom_site_fract_z
Si Si1 0.296373 0.074616 0.703372
Si Si2 0.983291 0.926686 0.301853
Si Si3 0.725794 0.071119 0.066869
Si Si4 0.209721 0.422521 0.049476
Si Si5 0.527805 0.926985 0.724817
Si Si6 0.092755 0.572725 0.026223
Si Si7 0.403415 0.426007 0.970648
Si Si8 0.200582 0.571094 0.289956
O O1 0.271085 0.250000 0.656921
O O2 0.319443 0.047699 0.804229
O O3 0.154563 0.978450 0.509878
O O4 0.439103 0.015013 0.837398
O O5 0.968247 0.750000 0.299942
O O6 0.920725 0.960136 0.157562
O O7 0.887244 0.019701 0.236017
O O8 0.724662 0.250000 0.073536
O O9 0.705725 0.993209 0.109205
O O10 0.590207 0.021169 0.858085
O O11 0.197850 0.250000 0.057851
O O12 0.194469 0.529550 0.090491
O O13 0.371553 0.455606 0.214565
O O14 0.531837 0.750000 0.747854
O O15 0.361261 0.987374 0.508509
O O16 0.067989 0.750000 0.998136
O O17 0.928958 0.495870 0.822435
O O18 0.176158 0.515544 0.189543
O O19 0.436065 0.250000 0.022215
O O20 0.194066 0.750000 0.286344
#
# Coordination Sequence:
#
# PCOD8073150 Si02
#       8
#     4   4   4   4   4   4   4   4
#     4  10  21  37  58  84 110 138 179 227 267 309
#     4  10  21  38  58  79 108 146 182 216 265 325
#     4  11  22  36  56  82 110 139 178 227 270 311
#     4   9  19  35  54  76 103 138 175 212 259 316
#     4   9  19  37  57  76 103 139 178 217 263 321
#     4  10  20  33  52  79 107 136 173 217 262 309
#     4  10  21  38  58  80 110 146 179 215 267 326
#     4   9  19  36  55  75 103 139 176 215 261 314
#
# _framework density 18.983605000000001
#
# number of rings (size 3 to 8) (size 9 to 14) (size 15 to 20)
#    0.000    2.250    0.000    3.375    0.000    7.000 
#    0.000    1.250    0.000    0.000    0.000    0.000 
#    0.000    0.000    0.000    0.000    0.000    0.000 
#
# Total GULP energy -396934.600672 kJ/mol
# GULP energy per Si atom -12404.206271 kJ/mol
# Density = 1.894040 g / cm^3
# Si number density = 18.983605 Si / 1000 Ang^3
#
#
#
# Elastic Constant Matrix: (Units=GPa)
#
#
# Indices 1 2 3 4 5 6 
#
# 1 52.6267 15.0397 -22.2014 0.0000 0.6563 0.0000
# 2 15.0397 43.4215 7.5690 0.0000 -6.2575 0.0000
# 3 -22.2014 7.5690 57.3777 0.0000 6.0402 0.0000
# 4 0.0000 0.0000 0.0000 30.0156 0.0000 2.9786
# 5 0.6563 -6.2575 6.0402 0.0000 12.7247 0.0000
# 6 0.0000 0.0000 0.0000 2.9786 0.0000 36.6301
#
#
#
# Elastic Compliance Matrix: (Units=1/GPa)
#
#
# Indices 1 2 3 4 5 6 
#
# 1 0.030168 -0.015526 0.015461 0.000000 -0.016530 0.000000
# 2 -0.015526 0.034096 -0.013005 0.000000 0.023741 0.000000
# 3 0.015461 -0.013005 0.027245 0.000000 -0.020125 0.000000
# 4 0.000000 0.000000 0.000000 0.033587 0.000000 -0.002731
# 5 -0.016530 0.023741 -0.020125 0.000000 0.100667 0.000000
# 6 0.000000 0.000000 0.000000 -0.002731 0.000000 0.027522
#
#
# Mechanical properties :
#
#
# Convention : Reuss Voigt Hill
#
# Bulk Modulus (GPa) = 15.29778 17.13784 16.21781
# Shear Modulus (GPa) = 16.59948 26.07534 21.33741
#
# Velocity S-wave (km/s) = 2.96025 3.71019 3.35624
# Velocity P-wave (km/s) = 4.44523 5.23463 4.85600
#
# Compressibility (1/GPa) = 0.06536896
#
# Stress axis : x y z
#
# Youngs Moduli (GPa) = 33.14818 29.32892 36.70407
#
# Poissons Ratio (x) = 0.45537 -0.56749
# Poissons Ratio (y) = 0.51467 0.47732
# Poissons Ratio (z) = -0.51251 0.38141
#
# Static dielectric constant tensor:
#      x y z
#    x 3.415980 0.000000 0.012110 
#    y 0.000000 3.448260 0.000000 
#    z 0.012110 0.000000 3.500180 
# 
# 
# High freq. dielectric constant tensor:
#      x y z
#    x 1.737700 0.000000 0.004960 
#    y 0.000000 1.741710 0.000000 
#    z 0.004960 0.000000 1.736700 
# 
# From -- ./inp_files/67178.got.cif
#   From: 2010.06.25/outbox.cif.g09.slc.cpg/sg11_34_cif.got.tgz:67178.got - 2010.06.27 23:14:04.
