data_PCOD8073712
_publ_section_title
;
Structure prediction by ZEFSAII (Michael W. Deem and Ramdas Pophale) SiO2 
 PCOD8073712
Probable space group: P 21/M
;
_chemical_formula_sum "Si O2"
_cell_formula_units_Z 28
_cell_length_a 17.542225
_cell_length_b 13.208465
_cell_length_c 9.205808
_cell_angle_alpha 90.000000
_cell_angle_beta 39.049506
_cell_angle_gamma 90.000000
_cell_volume 1343.797189
_symmetry_space_group_name_H-M "P 21/M"
_symmetry_group_IT_number 11
_symmetry_cell_setting 'monoclinic'
loop_
_space_group_symop_operation_xyz
x,y,z
-x,1/2+y,-z
-x,-y,-z
x,1/2-y,z
loop_
_atom_site_type_symbol
_atom_site_label
_atom_site_fract_x
_atom_site_fract_y
_atom_site_fract_z
Si Si1 0.305063 0.357578 0.575397
Si Si2 0.682931 0.433626 0.778503
Si Si3 0.468009 0.360060 0.607953
Si Si4 0.868097 0.007019 0.050863
Si Si5 0.332964 0.952720 0.877166
Si Si6 0.911147 0.131726 0.252520
Si Si7 0.574914 0.636429 0.890081
O O1 0.238720 0.250000 0.643747
O O2 0.363146 0.355748 0.646210
O O3 0.207684 0.446070 0.714055
O O4 0.413273 0.372411 0.301727
O O5 0.793218 0.392769 0.522060
O O6 0.673435 0.556378 0.805102
O O7 0.692989 0.396120 0.931841
O O8 0.564114 0.391326 0.870999
O O9 0.478850 0.250000 0.671191
O O10 0.596589 0.383885 0.344028
O O11 0.419873 0.448736 0.785821
O O12 0.796090 0.025293 0.007901
O O13 0.898277 0.108576 0.097865
O O14 0.983987 0.939681 0.836446
O O15 0.943264 0.250000 0.222140
O O16 0.604836 0.750000 0.902758
#
# Coordination Sequence:
#
# PCOD8073712 Si02
#       7
#     4   4   4   4   4   4   4
#     4   9  15  31  58  84 109 149 193 230 273 334
#     4  11  22  37  58  90 125 152 191 237 292 345
#     4   9  18  32  54  84 119 154 188 226 281 344
#     4  10  22  41  60  84 112 150 200 243 286 338
#     4  10  21  35  58  87 120 153 187 239 290 340
#     4  11  24  42  62  83 111 153 198 243 290 345
#     4  10  20  34  56  85 121 159 189 227 284 347
#
# _framework density 20.836476999999999
#
# number of rings (size 3 to 8) (size 9 to 14) (size 15 to 20)
#    0.000    2.000    2.857    0.857    0.000    2.857 
#    0.000    0.000    0.000    0.000    0.000    0.000 
#    0.000    0.000    0.000    0.000    0.000    0.000 
#
# Total GULP energy -346927.568215 kJ/mol
# GULP energy per Si atom -12390.270293 kJ/mol
# Density = 2.078905 g / cm^3
# Si number density = 20.836477 Si / 1000 Ang^3
#
#
#
# Elastic Constant Matrix: (Units=GPa)
#
#
# Indices 1 2 3 4 5 6 
#
# 1 55.6522 3.5301 12.6194 0.0000 -6.6575 0.0000
# 2 3.5301 88.9840 15.3560 0.0000 -2.9983 0.0000
# 3 12.6194 15.3560 87.1769 0.0000 -6.1170 0.0000
# 4 0.0000 0.0000 0.0000 17.6515 0.0000 -2.9665
# 5 -6.6575 -2.9983 -6.1170 0.0000 29.1831 0.0000
# 6 0.0000 0.0000 0.0000 -2.9665 0.0000 17.6519
#
#
#
# Elastic Compliance Matrix: (Units=1/GPa)
#
#
# Indices 1 2 3 4 5 6 
#
# 1 0.018991 -0.000203 -0.002447 0.000000 0.003799 0.000000
# 2 -0.000203 0.011610 -0.001964 0.000000 0.000735 0.000000
# 3 -0.002447 -0.001964 0.012299 0.000000 0.001818 0.000000
# 4 0.000000 0.000000 0.000000 0.058299 0.000000 0.009797
# 5 0.003799 0.000735 0.001818 0.000000 0.035590 0.000000
# 6 0.000000 0.000000 0.000000 0.009797 0.000000 0.058298
#
#
# Mechanical properties :
#
#
# Convention : Reuss Voigt Hill
#
# Bulk Modulus (GPa) = 29.69885 32.75824 31.22855
# Shear Modulus (GPa) = 23.19786 26.25112 24.72449
#
# Velocity S-wave (km/s) = 3.34028 3.55331 3.44844
# Velocity P-wave (km/s) = 5.40008 5.70880 5.55658
#
# Compressibility (1/GPa) = 0.03367133
#
# Stress axis : x y z
#
# Youngs Moduli (GPa) = 52.65688 86.13462 81.30990
#
# Poissons Ratio (x) = 0.01750 0.19894
# Poissons Ratio (y) = 0.01070 0.15970
# Poissons Ratio (z) = 0.12884 0.16917
#
# Static dielectric constant tensor:
#      x y z
#    x 3.453100 0.000000 -0.030970 
#    y 0.000000 4.319180 0.000000 
#    z -0.030970 0.000000 3.680060 
# 
# 
# High freq. dielectric constant tensor:
#      x y z
#    x 1.788940 0.000000 0.001810 
#    y 0.000000 1.822080 0.000000 
#    z 0.001810 0.000000 1.808600 
# 
# From -- ./inp_files/24928.got.cif
#   From: 2010.06.25/outbox.cif.g09.slc.cpg/sg11_13_cif.got.tgz:24928.got - 2010.06.27 23:14:04.
