data_PCOD8073809
_publ_section_title
;
Structure prediction by ZEFSAII (Michael W. Deem and Ramdas Pophale) SiO2 
 PCOD8073809
Probable space group: P 21/M
;
_chemical_formula_sum "Si O2"
_cell_formula_units_Z 32
_cell_length_a 11.194038
_cell_length_b 14.789629
_cell_length_c 14.058445
_cell_angle_alpha 90.000000
_cell_angle_beta 138.439399
_cell_angle_gamma 90.000000
_cell_volume 1544.061377
_symmetry_space_group_name_H-M "P 21/M"
_symmetry_group_IT_number 11
_symmetry_cell_setting 'monoclinic'
loop_
_space_group_symop_operation_xyz
x,y,z
-x,1/2+y,-z
-x,-y,-z
x,1/2-y,z
loop_
_atom_site_type_symbol
_atom_site_label
_atom_site_fract_x
_atom_site_fract_y
_atom_site_fract_z
Si Si1 0.146580 0.031328 0.921804
Si Si2 0.685323 0.644847 0.250917
Si Si3 0.791895 0.145914 0.730482
Si Si4 0.783855 0.350209 0.338417
Si Si5 0.956635 0.500223 0.341938
Si Si6 0.327997 0.580841 0.538848
Si Si7 0.547032 0.648115 0.966837
Si Si8 0.407414 0.555879 0.225098
O O1 0.127219 0.975222 0.811630
O O2 0.957180 0.075770 0.839599
O O3 0.275130 0.115076 0.978355
O O4 0.236920 0.969202 0.056580
O O5 0.735681 0.750000 0.302068
O O6 0.868907 0.592743 0.331948
O O7 0.577104 0.598812 0.271703
O O8 0.548706 0.638064 0.080808
O O9 0.858702 0.250000 0.770227
O O10 0.674536 0.128350 0.565253
O O11 0.661385 0.130395 0.741850
O O12 0.840481 0.250000 0.338815
O O13 0.946347 0.419226 0.413496
O O14 0.714379 0.345223 0.404988
O O15 0.629625 0.399870 0.181555
O O16 0.167962 0.508663 0.450483
O O17 0.519105 0.531835 0.673237
O O18 0.524975 0.750000 0.919431
#
# Coordination Sequence:
#
# PCOD8073809 Si02
#       8
#     4   4   4   4   4   4   4   4
#     4  10  20  38  65  83 114 151 197 243 302 351
#     4  10  20  34  59  90 125 159 195 240 300 362
#     4  11  25  43  60  84 115 156 207 252 298 354
#     4  11  20  33  56  88 122 155 194 243 297 355
#     4  10  21  38  58  88 122 157 192 241 297 364
#     4  11  23  40  60  83 119 160 200 242 294 354
#     4   9  17  31  54  88 118 147 186 238 294 350
#     4  12  22  39  62  87 117 154 203 249 301 347
#
# _framework density 20.724564000000001
#
# number of rings (size 3 to 8) (size 9 to 14) (size 15 to 20)
#    0.000    1.500    2.500    3.000    0.000    5.500 
#    0.000    1.250    0.000    0.000    0.000    0.000 
#    0.000    0.000    0.000    0.000    0.000    0.000 
#
# Total GULP energy -396651.000123 kJ/mol
# GULP energy per Si atom -12395.343754 kJ/mol
# Density = 2.067739 g / cm^3
# Si number density = 20.724564 Si / 1000 Ang^3
#
#
#
# Elastic Constant Matrix: (Units=GPa)
#
#
# Indices 1 2 3 4 5 6 
#
# 1 83.6690 23.2973 17.8199 0.0000 -16.9238 0.0000
# 2 23.2973 87.7154 24.8561 0.0000 -10.3009 0.0000
# 3 17.8199 24.8561 94.6455 0.0000 -15.1409 0.0000
# 4 0.0000 0.0000 0.0000 18.6957 0.0000 -10.6633
# 5 -16.9238 -10.3009 -15.1409 0.0000 27.0663 0.0000
# 6 0.0000 0.0000 0.0000 -10.6633 0.0000 17.6215
#
#
#
# Elastic Compliance Matrix: (Units=1/GPa)
#
#
# Indices 1 2 3 4 5 6 
#
# 1 0.014399 -0.002716 -0.000794 0.000000 0.007526 0.000000
# 2 -0.002716 0.013081 -0.002635 0.000000 0.001806 0.000000
# 3 -0.000794 -0.002635 0.012265 0.000000 0.005362 0.000000
# 4 0.000000 0.000000 0.000000 0.081679 0.000000 0.049426
# 5 0.007526 0.001806 0.005362 0.000000 0.045339 0.000000
# 6 0.000000 0.000000 0.000000 0.049426 0.000000 0.086658
#
#
# Mechanical properties :
#
#
# Convention : Reuss Voigt Hill
#
# Bulk Modulus (GPa) = 36.42244 44.21960 40.32102
# Shear Modulus (GPa) = 18.19093 26.01382 22.10237
#
# Velocity S-wave (km/s) = 2.96589 3.54675 3.26925
# Velocity P-wave (km/s) = 5.41677 6.17703 5.80935
#
# Compressibility (1/GPa) = 0.02745560
#
# Stress axis : x y z
#
# Youngs Moduli (GPa) = 69.44736 76.44912 81.53292
#
# Poissons Ratio (x) = 0.20761 0.06473
# Poissons Ratio (y) = 0.18860 0.21484
# Poissons Ratio (z) = 0.05514 0.20144
#
# Static dielectric constant tensor:
#      x y z
#    x 3.552110 0.000000 -0.174130 
#    y 0.000000 3.563890 0.000000 
#    z -0.174130 0.000000 4.111050 
# 
# 
# High freq. dielectric constant tensor:
#      x y z
#    x 1.795330 0.000000 -0.009060 
#    y 0.000000 1.795520 0.000000 
#    z -0.009060 0.000000 1.834730 
# 
# From -- ./inp_files/50395.got.cif
#   From: 2010.06.25/outbox.cif.g09.slc.cpg/sg11_26_cif.got.tgz:50395.got - 2010.06.27 23:14:04.
