data_PCOD8073302
_publ_section_title
;
Structure prediction by ZEFSAII (Michael W. Deem and Ramdas Pophale) SiO2 
 PCOD8073302
Probable space group: P 21/M
;
_chemical_formula_sum "Si O2"
_cell_formula_units_Z 24
_cell_length_a 9.252723
_cell_length_b 9.268055
_cell_length_c 16.711486
_cell_angle_alpha 90.000000
_cell_angle_beta 89.368936
_cell_angle_gamma 90.000000
_cell_volume 1433.002307
_symmetry_space_group_name_H-M "P 21/M"
_symmetry_group_IT_number 11
_symmetry_cell_setting 'monoclinic'
loop_
_space_group_symop_operation_xyz
x,y,z
-x,1/2+y,-z
-x,-y,-z
x,1/2-y,z
loop_
_atom_site_type_symbol
_atom_site_label
_atom_site_fract_x
_atom_site_fract_y
_atom_site_fract_z
Si Si1 0.033312 0.913832 0.079289
Si Si2 0.110555 0.087380 0.764243
Si Si3 0.846259 0.581937 0.786919
Si Si4 0.150428 0.418860 0.495110
Si Si5 0.652235 0.583427 0.355526
Si Si6 0.356650 0.417274 0.353101
O O1 0.080060 0.750000 0.058319
O O2 0.890593 0.915214 0.137946
O O3 0.162278 0.993816 0.128628
O O4 0.000000 0.000000 0.000000
O O5 0.074250 0.250000 0.733804
O O6 0.265293 0.041085 0.727688
O O7 0.984133 0.978533 0.735158
O O8 0.869896 0.750000 0.805028
O O9 0.702584 0.554808 0.736148
O O10 0.117667 0.250000 0.488457
O O11 0.241766 0.456836 0.573128
O O12 0.241176 0.474780 0.418227
O O13 0.000000 0.500000 0.500000
O O14 0.608243 0.750000 0.357376
O O15 0.507130 0.495034 0.363650
O O16 0.384928 0.250000 0.368619
#
# Coordination Sequence:
#
# PCOD8073302 Si02
#       6
#     4   4   4   4   4   4
#     4   9  17  30  51  77 103 126 161 207 249 296
#     4   8  17  31  48  72  99 126 164 208 248 291
#     4   9  17  30  49  72 100 131 165 202 248 296
#     4  10  21  35  52  74 101 132 173 216 252 292
#     4  10  20  34  51  72 100 136 173 208 250 299
#     4  10  21  34  48  73 105 135 169 210 251 294
#
# _framework density 16.748052999999999
#
# number of rings (size 3 to 8) (size 9 to 14) (size 15 to 20)
#    1.000    1.667    0.000    2.000    0.000    3.333 
#    0.000    0.000    0.000    1.000    0.000    0.000 
#    0.000    0.000    0.000    0.000    0.000    0.000 
#
# Total GULP energy -297369.329215 kJ/mol
# GULP energy per Si atom -12390.388717 kJ/mol
# Density = 1.670993 g / cm^3
# Si number density = 16.748053 Si / 1000 Ang^3
#
#
#
# Elastic Constant Matrix: (Units=GPa)
#
#
# Indices 1 2 3 4 5 6 
#
# 1 114.0134 56.5650 44.4807 0.0000 3.4645 0.0000
# 2 56.5650 89.4173 44.9658 0.0000 5.1729 0.0000
# 3 44.4807 44.9658 95.7263 0.0000 4.6132 0.0000
# 4 0.0000 0.0000 0.0000 26.0360 0.0000 0.8804
# 5 3.4645 5.1729 4.6132 0.0000 11.8479 0.0000
# 6 0.0000 0.0000 0.0000 0.8804 0.0000 31.9399
#
#
#
# Elastic Compliance Matrix: (Units=1/GPa)
#
#
# Indices 1 2 3 4 5 6 
#
# 1 0.013385 -0.007004 -0.002944 0.000000 0.000290 0.000000
# 2 -0.007004 0.018476 -0.005232 0.000000 -0.003981 0.000000
# 3 -0.002944 -0.005232 0.014391 0.000000 -0.002458 0.000000
# 4 0.000000 0.000000 0.000000 0.038444 0.000000 -0.001060
# 5 0.000290 -0.003981 -0.002458 0.000000 0.087013 0.000000
# 6 0.000000 0.000000 0.000000 -0.001060 0.000000 0.031338
#
#
# Mechanical properties :
#
#
# Convention : Reuss Voigt Hill
#
# Bulk Modulus (GPa) = 62.92603 65.68668 64.30636
# Shear Modulus (GPa) = 20.94640 24.17446 22.56043
#
# Velocity S-wave (km/s) = 3.54033 3.80336 3.67420
# Velocity P-wave (km/s) = 7.37330 7.65461 7.51527
#
# Compressibility (1/GPa) = 0.01589167
#
# Stress axis : x y z
#
# Youngs Moduli (GPa) = 74.70832 54.12506 69.49026
#
# Poissons Ratio (x) = 0.37909 0.20456
# Poissons Ratio (y) = 0.52326 0.36359
# Poissons Ratio (z) = 0.21992 0.28320
#
# Static dielectric constant tensor:
#      x y z
#    x 2.878950 0.000000 -0.074350 
#    y 0.000000 3.435930 0.000000 
#    z -0.074350 0.000000 3.133710 
# 
# 
# High freq. dielectric constant tensor:
#      x y z
#    x 1.618510 0.000000 -0.000960 
#    y 0.000000 1.652250 0.000000 
#    z -0.000960 0.000000 1.643070 
# 
# From -- ./inp_files/57396.got.cif
#   From: 2010.06.25/outbox.cif.g09.slc.cpg/sg11_29_cif.got.tgz:57396.got - 2010.06.27 23:14:04.
