data_PCOD8073232
_publ_section_title
;
Structure prediction by ZEFSAII (Michael W. Deem and Ramdas Pophale) SiO2 
 PCOD8073232
Probable space group: P 21/M
;
_chemical_formula_sum "Si O2"
_cell_formula_units_Z 28
_cell_length_a 14.859767
_cell_length_b 8.815802
_cell_length_c 12.505505
_cell_angle_alpha 90.000000
_cell_angle_beta 74.303308
_cell_angle_gamma 90.000000
_cell_volume 1577.136770
_symmetry_space_group_name_H-M "P 21/M"
_symmetry_group_IT_number 11
_symmetry_cell_setting 'monoclinic'
loop_
_space_group_symop_operation_xyz
x,y,z
-x,1/2+y,-z
-x,-y,-z
x,1/2-y,z
loop_
_atom_site_type_symbol
_atom_site_label
_atom_site_fract_x
_atom_site_fract_y
_atom_site_fract_z
Si Si1 0.594723 0.926362 0.510574
Si Si2 0.275333 0.571474 0.696645
Si Si3 0.892560 0.425777 0.930585
Si Si4 0.896364 0.574238 0.154954
Si Si5 0.277665 0.425520 0.104212
Si Si6 0.385452 0.426407 0.854499
Si Si7 0.421015 0.425263 0.237958
O O1 0.589817 0.750000 0.484890
O O2 0.607924 0.957394 0.631364
O O3 0.500000 0.000000 0.500000
O O4 0.683497 0.998480 0.423632
O O5 0.280184 0.750000 0.683466
O O6 0.167977 0.518643 0.742398
O O7 0.335047 0.523056 0.779895
O O8 0.881959 0.250000 0.964726
O O9 0.817050 0.475192 0.866534
O O10 0.995772 0.458664 0.850909
O O11 0.873567 0.524655 0.041735
O O12 0.870565 0.750000 0.172994
O O13 0.249261 0.250000 0.112604
O O14 0.332646 0.469321 0.193765
O O15 0.341595 0.467419 0.982522
O O16 0.374401 0.250000 0.830088
O O17 0.493783 0.469279 0.824443
O O18 0.449706 0.250000 0.211227
#
# Coordination Sequence:
#
# PCOD8073232 Si02
#       7
#     4   4   4   4   4   4   4
#     4  11  22  37  57  79 108 144 185 231 274 316
#     4  12  23  35  55  81 111 144 182 226 273 324
#     4  10  20  33  54  82 111 143 178 219 270 326
#     4  10  20  35  54  80 111 142 179 223 272 324
#     4  10  21  36  54  79 113 149 182 219 269 325
#     4  11  21  33  53  80 111 147 180 219 270 324
#     4  10  22  38  55  77 108 148 188 225 267 322
#
# _framework density 17.753692000000001
#
# number of rings (size 3 to 8) (size 9 to 14) (size 15 to 20)
#    0.000    1.429    2.857    3.429    0.000    3.429 
#    0.000    0.000    0.000    0.857    0.000    0.000 
#    0.000    0.000    0.000    0.000    0.000    0.000 
#
# Total GULP energy -347345.526768 kJ/mol
# GULP energy per Si atom -12405.197385 kJ/mol
# Density = 1.771328 g / cm^3
# Si number density = 17.753692 Si / 1000 Ang^3
#
#
#
# Elastic Constant Matrix: (Units=GPa)
#
#
# Indices 1 2 3 4 5 6 
#
# 1 123.4425 54.3029 66.0119 0.0000 -7.9320 0.0000
# 2 54.3029 96.9990 48.7673 0.0000 -4.8359 0.0000
# 3 66.0119 48.7673 96.7108 0.0000 -1.5095 0.0000
# 4 0.0000 0.0000 0.0000 23.7395 0.0000 -3.9202
# 5 -7.9320 -4.8359 -1.5095 0.0000 27.7721 0.0000
# 6 0.0000 0.0000 0.0000 -3.9202 0.0000 33.0690
#
#
#
# Elastic Compliance Matrix: (Units=1/GPa)
#
#
# Indices 1 2 3 4 5 6 
#
# 1 0.014065 -0.003918 -0.007579 0.000000 0.002923 0.000000
# 2 -0.003918 0.015017 -0.004879 0.000000 0.001231 0.000000
# 3 -0.007579 -0.004879 0.017942 0.000000 -0.002039 0.000000
# 4 0.000000 0.000000 0.000000 0.042965 0.000000 0.005093
# 5 0.002923 0.001231 -0.002039 0.000000 0.036946 0.000000
# 6 0.000000 0.000000 0.000000 0.005093 0.000000 0.030844
#
#
# Mechanical properties :
#
#
# Convention : Reuss Voigt Hill
#
# Bulk Modulus (GPa) = 70.06778 72.81295 71.44037
# Shear Modulus (GPa) = 25.60314 26.78748 26.19531
#
# Velocity S-wave (km/s) = 3.80166 3.88859 3.84537
# Velocity P-wave (km/s) = 7.66958 7.82710 7.74874
#
# Compressibility (1/GPa) = 0.01427189
#
# Stress axis : x y z
#
# Youngs Moduli (GPa) = 71.09659 66.59076 55.73500
#
# Poissons Ratio (x) = 0.26089 0.42244
# Poissons Ratio (y) = 0.27855 0.27194
# Poissons Ratio (z) = 0.53887 0.32490
#
# Static dielectric constant tensor:
#      x y z
#    x 3.439100 0.000000 -0.164970 
#    y 0.000000 3.393320 0.000000 
#    z -0.164970 0.000000 3.365550 
# 
# 
# High freq. dielectric constant tensor:
#      x y z
#    x 1.686260 0.000000 -0.011400 
#    y 0.000000 1.699410 0.000000 
#    z -0.011400 0.000000 1.670070 
# 
# From -- ./inp_files/37482.got.cif
#   From: 2010.06.25/outbox.cif.g09.slc.cpg/sg11_19_cif.got.tgz:37482.got - 2010.06.27 23:14:04.
