data_PCOD8073339
_publ_section_title
;
Structure prediction by ZEFSAII (Michael W. Deem and Ramdas Pophale) SiO2 
 PCOD8073339
Probable space group: P 21/M
;
_chemical_formula_sum "Si O2"
_cell_formula_units_Z 32
_cell_length_a 14.002320
_cell_length_b 9.065364
_cell_length_c 27.827293
_cell_angle_alpha 90.000000
_cell_angle_beta 150.253960
_cell_angle_gamma 90.000000
_cell_volume 1752.568045
_symmetry_space_group_name_H-M "P 21/M"
_symmetry_group_IT_number 11
_symmetry_cell_setting 'monoclinic'
loop_
_space_group_symop_operation_xyz
x,y,z
-x,1/2+y,-z
-x,-y,-z
x,1/2-y,z
loop_
_atom_site_type_symbol
_atom_site_label
_atom_site_fract_x
_atom_site_fract_y
_atom_site_fract_z
Si Si1 0.886818 0.578880 0.648579
Si Si2 0.169246 0.579310 0.101505
Si Si3 0.758811 0.920039 0.696383
Si Si4 0.194121 0.076108 0.724484
Si Si5 0.936873 0.424632 0.521555
Si Si6 0.005912 0.419360 0.111109
Si Si7 0.377545 0.422463 0.556666
Si Si8 0.615764 0.078895 0.895757
O O1 0.938326 0.750000 0.674473
O O2 0.812806 0.519112 0.667442
O O3 0.721945 0.546100 0.537877
O O4 0.081290 0.494651 0.719650
O O5 0.122728 0.750000 0.088356
O O6 0.178535 0.503294 0.157867
O O7 0.357121 0.556169 0.150109
O O8 0.000000 0.500000 0.000000
O O9 0.689861 0.750000 0.663623
O O10 0.949109 0.935513 0.812837
O O11 0.592761 0.018117 0.647015
O O12 0.193545 0.250000 0.731530
O O13 0.410313 0.007963 0.819752
O O14 0.095785 0.034583 0.630956
O O15 0.915601 0.250000 0.504968
O O16 0.732623 0.491487 0.449066
O O17 0.000000 0.500000 0.500000
O O18 0.010885 0.250000 0.096323
O O19 0.794742 0.487111 0.005303
O O20 0.379532 0.250000 0.570440
O O21 0.603837 0.250000 0.902962
#
# Coordination Sequence:
#
# PCOD8073339 Si02
#       8
#     4   4   4   4   4   4   4   4
#     4   9  19  35  52  72  99 129 163 206 255 303
#     4   9  16  28  47  69  96 129 163 200 241 287
#     4  10  20  34  52  74 101 131 163 206 259 305
#     4   9  18  33  53  73  95 129 170 205 240 290
#     4  10  20  34  52  76 106 136 165 202 248 295
#     4   9  18  32  49  71 100 131 163 202 250 299
#     4  10  20  34  53  75  99 131 170 208 248 300
#     4   8  15  30  50  70  94 128 165 197 235 287
#
# _framework density 18.25892
#
# number of rings (size 3 to 8) (size 9 to 14) (size 15 to 20)
#    0.000    2.750    0.000    2.250    0.000    3.000 
#    0.000    5.000    0.000    0.000    0.000    0.000 
#    0.000    0.000    0.000    0.000    0.000    0.000 
#
# Total GULP energy -396650.404522 kJ/mol
# GULP energy per Si atom -12395.325141 kJ/mol
# Density = 1.821736 g / cm^3
# Si number density = 18.258920 Si / 1000 Ang^3
#
#
#
# Elastic Constant Matrix: (Units=GPa)
#
#
# Indices 1 2 3 4 5 6 
#
# 1 136.6419 46.8534 58.2578 0.0000 6.7103 0.0000
# 2 46.8534 62.8930 29.8870 0.0000 4.0910 0.0000
# 3 58.2578 29.8870 81.5601 0.0000 15.3722 0.0000
# 4 0.0000 0.0000 0.0000 18.5434 0.0000 2.7393
# 5 6.7103 4.0910 15.3722 0.0000 30.3080 0.0000
# 6 0.0000 0.0000 0.0000 2.7393 0.0000 33.0153
#
#
#
# Elastic Compliance Matrix: (Units=1/GPa)
#
#
# Indices 1 2 3 4 5 6 
#
# 1 0.012187 -0.005938 -0.006824 0.000000 0.001564 0.000000
# 2 -0.005938 0.022178 -0.003946 0.000000 0.000323 0.000000
# 3 -0.006824 -0.003946 0.020120 0.000000 -0.008161 0.000000
# 4 0.000000 0.000000 0.000000 0.054597 0.000000 -0.004530
# 5 0.001564 0.000323 -0.008161 0.000000 0.036744 0.000000
# 6 0.000000 0.000000 0.000000 -0.004530 0.000000 0.030665
#
#
# Mechanical properties :
#
#
# Convention : Reuss Voigt Hill
#
# Bulk Modulus (GPa) = 47.46556 61.23236 54.34896
# Shear Modulus (GPa) = 23.04897 26.11313 24.58105
#
# Velocity S-wave (km/s) = 3.55680 3.78584 3.67311
# Velocity P-wave (km/s) = 6.55134 7.26075 6.91515
#
# Compressibility (1/GPa) = 0.02106791
#
# Stress axis : x y z
#
# Youngs Moduli (GPa) = 82.05370 45.08989 49.70287
#
# Poissons Ratio (x) = 0.26774 0.33918
# Poissons Ratio (y) = 0.48723 0.19614
# Poissons Ratio (z) = 0.55995 0.17794
#
# Static dielectric constant tensor:
#      x y z
#    x 3.653380 0.000000 0.057440 
#    y 0.000000 3.381130 0.000000 
#    z 0.057440 0.000000 3.344830 
# 
# 
# High freq. dielectric constant tensor:
#      x y z
#    x 1.708490 0.000000 0.000950 
#    y 0.000000 1.696930 0.000000 
#    z 0.000950 0.000000 1.695020 
# 
# From -- ./inp_files/73313.got.cif
#   From: 2010.06.25/outbox.cif.g09.slc.cpg/sg11_37_cif.got.tgz:73313.got - 2010.06.27 23:14:04.
