data_PCOD8073026
_publ_section_title
;
Structure prediction by ZEFSAII (Michael W. Deem and Ramdas Pophale) SiO2 
 PCOD8073026
Probable space group: P 21/M
;
_chemical_formula_sum "Si O2"
_cell_formula_units_Z 32
_cell_length_a 28.272042
_cell_length_b 8.917395
_cell_length_c 22.159207
_cell_angle_alpha 90.000000
_cell_angle_beta 18.479417
_cell_angle_gamma 90.000000
_cell_volume 1770.758271
_symmetry_space_group_name_H-M "P 21/M"
_symmetry_group_IT_number 11
_symmetry_cell_setting 'monoclinic'
loop_
_space_group_symop_operation_xyz
x,y,z
-x,1/2+y,-z
-x,-y,-z
x,1/2-y,z
loop_
_atom_site_type_symbol
_atom_site_label
_atom_site_fract_x
_atom_site_fract_y
_atom_site_fract_z
Si Si1 0.343196 0.572415 0.969473
Si Si2 0.169189 0.424671 0.009405
Si Si3 0.527471 0.928372 0.301655
Si Si4 0.538715 0.073882 0.043859
Si Si5 0.225812 0.423607 0.700378
Si Si6 0.963402 0.924890 0.953195
Si Si7 0.719118 0.426498 0.709434
Si Si8 0.950683 0.925765 0.718022
O O1 0.347840 0.750000 0.955990
O O2 0.399765 0.520350 0.966441
O O3 0.173957 0.516381 0.167577
O O4 0.454088 0.497592 0.787113
O O5 0.182614 0.250000 0.980784
O O6 0.334821 0.486038 0.823631
O O7 0.102012 0.495375 0.029592
O O8 0.060858 0.460182 0.196612
O O9 0.527411 0.750000 0.295475
O O10 0.377922 0.984353 0.513790
O O11 0.514288 0.250000 0.071426
O O12 0.657306 0.022863 0.849380
O O13 0.379091 0.998318 0.224907
O O14 0.257557 0.250000 0.649141
O O15 0.159713 0.451083 0.846557
O O16 0.113135 0.484287 0.786192
O O17 0.005848 0.750000 0.896391
O O18 0.712635 0.250000 0.708121
O O19 0.888972 0.483120 0.498567
O O20 0.925072 0.750000 0.736635
#
# Coordination Sequence:
#
# PCOD8073026 Si02
#       8
#     4   4   4   4   4   4   4   4
#     4  10  20  34  51  73 102 132 164 205 252 298
#     4   8  16  32  52  73  96 126 166 207 243 286
#     4  10  20  35  54  74  98 129 166 207 250 298
#     4   9  19  34  50  72 103 134 166 208 251 291
#     4  10  20  33  50  75 104 132 165 205 248 295
#     4   9  18  34  53  72 100 136 169 203 245 294
#     4   9  18  33  52  74 101 134 171 207 244 291
#     4   9  18  33  52  74 100 129 165 206 245 292
#
# _framework density 18.071353999999999
#
# number of rings (size 3 to 8) (size 9 to 14) (size 15 to 20)
#    0.000    2.750    0.000    1.875    0.000    4.000 
#    0.000    4.375    0.000    0.000    0.000    0.000 
#    0.000    0.000    0.000    0.000    0.000    0.000 
#
# Total GULP energy -396816.257636 kJ/mol
# GULP energy per Si atom -12400.508051 kJ/mol
# Density = 1.803022 g / cm^3
# Si number density = 18.071354 Si / 1000 Ang^3
#
#
#
# Elastic Constant Matrix: (Units=GPa)
#
#
# Indices 1 2 3 4 5 6 
#
# 1 106.4399 24.6718 5.5697 0.0000 -2.9702 0.0000
# 2 24.6718 46.3727 18.8936 0.0000 -1.8867 0.0000
# 3 5.5697 18.8936 71.1004 0.0000 -5.6146 0.0000
# 4 0.0000 0.0000 0.0000 29.9201 0.0000 -3.2705
# 5 -2.9702 -1.8867 -5.6146 0.0000 14.2843 0.0000
# 6 0.0000 0.0000 0.0000 -3.2705 0.0000 25.7787
#
#
#
# Elastic Compliance Matrix: (Units=1/GPa)
#
#
# Indices 1 2 3 4 5 6 
#
# 1 0.010798 -0.006039 0.000901 0.000000 0.001802 0.000000
# 2 -0.006039 0.027566 -0.006877 0.000000 -0.000318 0.000000
# 3 0.000901 -0.006877 0.016270 0.000000 0.005674 0.000000
# 4 0.000000 0.000000 0.000000 0.033892 0.000000 0.004300
# 5 0.001802 -0.000318 0.005674 0.000000 0.072570 0.000000
# 6 0.000000 0.000000 0.000000 0.004300 0.000000 0.039337
#
#
# Mechanical properties :
#
#
# Convention : Reuss Voigt Hill
#
# Bulk Modulus (GPa) = 32.67542 35.79813 34.23677
# Shear Modulus (GPa) = 21.30707 25.64849 23.47778
#
# Velocity S-wave (km/s) = 3.43746 3.77143 3.60831
# Velocity P-wave (km/s) = 5.82026 6.23035 6.02879
#
# Compressibility (1/GPa) = 0.03060404
#
# Stress axis : x y z
#
# Youngs Moduli (GPa) = 92.61149 36.27625 61.46439
#
# Poissons Ratio (x) = 0.21906 -0.05538
# Poissons Ratio (y) = 0.55925 0.42271
# Poissons Ratio (z) = -0.08345 0.24948
#
# Static dielectric constant tensor:
#      x y z
#    x 3.509820 0.000000 -0.028320 
#    y 0.000000 3.199750 0.000000 
#    z -0.028320 0.000000 3.388370 
# 
# 
# High freq. dielectric constant tensor:
#      x y z
#    x 1.702380 0.000000 -0.002820 
#    y 0.000000 1.688880 0.000000 
#    z -0.002820 0.000000 1.702370 
# 
# From -- ./inp_files/66996.got.cif
#   From: 2010.06.25/outbox.cif.g09.slc.cpg/sg11_34_cif.got.tgz:66996.got - 2010.06.27 23:14:04.
