data_PCOD8073968
_publ_section_title
;
Structure prediction by ZEFSAII (Michael W. Deem and Ramdas Pophale) SiO2 
 PCOD8073968
Probable space group: P 21/M
;
_chemical_formula_sum "Si O2"
_cell_formula_units_Z 28
_cell_length_a 9.581388
_cell_length_b 8.658827
_cell_length_c 25.942079
_cell_angle_alpha 90.000000
_cell_angle_beta 137.356820
_cell_angle_gamma 90.000000
_cell_volume 1457.998339
_symmetry_space_group_name_H-M "P 21/M"
_symmetry_group_IT_number 11
_symmetry_cell_setting 'monoclinic'
loop_
_space_group_symop_operation_xyz
x,y,z
-x,1/2+y,-z
-x,-y,-z
x,1/2-y,z
loop_
_atom_site_type_symbol
_atom_site_label
_atom_site_fract_x
_atom_site_fract_y
_atom_site_fract_z
Si Si1 0.825504 0.932744 0.488886
Si Si2 0.390982 0.432225 0.361428
Si Si3 0.049104 0.070504 0.936589
Si Si4 0.759205 0.430363 0.211739
Si Si5 0.326761 0.571513 0.092601
Si Si6 0.969938 0.430893 0.798759
Si Si7 0.121129 0.431595 0.382075
O O1 0.845579 0.750000 0.494329
O O2 0.852732 0.003776 0.553974
O O3 0.603582 0.981988 0.407284
O O4 0.000000 0.000000 0.500000
O O5 0.427769 0.250000 0.371289
O O6 0.231249 0.474829 0.273103
O O7 0.298685 0.491476 0.391204
O O8 0.104406 0.250000 0.956956
O O9 0.837087 0.031408 0.907836
O O10 0.025509 0.018273 0.871517
O O11 0.235966 0.974380 0.012230
O O12 0.786003 0.250000 0.206767
O O13 0.525194 0.470784 0.160530
O O14 0.833606 0.526660 0.182534
O O15 0.897590 0.477282 0.298763
O O16 0.388713 0.750000 0.108840
O O17 0.921440 0.250000 0.781997
O O18 0.142933 0.250000 0.392389
#
# Coordination Sequence:
#
# PCOD8073968 Si02
#       7
#     4   4   4   4   4   4   4
#     4  11  22  37  55  80 111 142 178 220 265 312
#     4  10  20  37  58  81 107 139 178 218 265 319
#     4   9  20  37  55  77 107 141 178 219 265 318
#     4  10  20  36  56  80 108 139 177 220 265 313
#     4  10  20  35  55  79 106 140 180 219 263 315
#     4  10  20  36  57  82 109 138 175 220 267 314
#     4   8  18  36  57  78 104 139 178 218 262 314
#
# _framework density 19.204411
#
# number of rings (size 3 to 8) (size 9 to 14) (size 15 to 20)
#    0.000    2.286    0.000    3.429    0.000    3.429 
#    0.000   10.714    0.000    0.000    0.000    0.000 
#    0.000    0.000    0.000    0.000    0.000    0.000 
#
# Total GULP energy -347270.581386 kJ/mol
# GULP energy per Si atom -12402.520764 kJ/mol
# Density = 1.916070 g / cm^3
# Si number density = 19.204411 Si / 1000 Ang^3
#
#
#
# Elastic Constant Matrix: (Units=GPa)
#
#
# Indices 1 2 3 4 5 6 
#
# 1 55.2010 18.2219 25.4660 0.0000 9.2499 0.0000
# 2 18.2219 50.5166 20.1438 0.0000 1.5408 0.0000
# 3 25.4660 20.1438 68.7445 0.0000 14.1875 0.0000
# 4 0.0000 0.0000 0.0000 31.8201 0.0000 4.1680
# 5 9.2499 1.5408 14.1875 0.0000 35.6450 0.0000
# 6 0.0000 0.0000 0.0000 4.1680 0.0000 30.4697
#
#
#
# Elastic Compliance Matrix: (Units=1/GPa)
#
#
# Indices 1 2 3 4 5 6 
#
# 1 0.023521 -0.005869 -0.006304 0.000000 -0.003341 0.000000
# 2 -0.005869 0.023984 -0.005398 0.000000 0.002635 0.000000
# 3 -0.006304 -0.005398 0.019696 0.000000 -0.005970 0.000000
# 4 0.000000 0.000000 0.000000 0.032000 0.000000 -0.004377
# 5 -0.003341 0.002635 -0.005970 0.000000 0.031184 0.000000
# 6 0.000000 0.000000 0.000000 -0.004377 0.000000 0.033418
#
#
# Mechanical properties :
#
#
# Convention : Reuss Voigt Hill
#
# Bulk Modulus (GPa) = 31.19130 33.56949 32.38040
# Shear Modulus (GPa) = 23.85150 26.96233 25.40691
#
# Velocity S-wave (km/s) = 3.52800 3.75102 3.64122
# Velocity P-wave (km/s) = 5.73347 6.02314 5.88009
#
# Compressibility (1/GPa) = 0.03206022
#
# Stress axis : x y z
#
# Youngs Moduli (GPa) = 42.51536 41.69379 50.77257
#
# Poissons Ratio (x) = 0.24468 0.32007
# Poissons Ratio (y) = 0.24950 0.27406
# Poissons Ratio (z) = 0.26802 0.22505
#
# Static dielectric constant tensor:
#      x y z
#    x 3.548200 0.000000 -0.117460 
#    y 0.000000 3.409770 0.000000 
#    z -0.117460 0.000000 3.605900 
# 
# 
# High freq. dielectric constant tensor:
#      x y z
#    x 1.742200 0.000000 0.001320 
#    y 0.000000 1.742830 0.000000 
#    z 0.001320 0.000000 1.754630 
# 
# From -- ./inp_files/70916.got.cif
#   From: 2010.06.25/outbox.cif.g09.slc.cpg/sg11_36_cif.got.tgz:70916.got - 2010.06.27 23:14:04.
