data_PCOD8073076
_publ_section_title
;
Structure prediction by ZEFSAII (Michael W. Deem and Ramdas Pophale) SiO2 
 PCOD8073076
Probable space group: P 21/M
;
_chemical_formula_sum "Si O2"
_cell_formula_units_Z 32
_cell_length_a 14.876857
_cell_length_b 9.643569
_cell_length_c 11.598009
_cell_angle_alpha 90.000000
_cell_angle_beta 87.571767
_cell_angle_gamma 90.000000
_cell_volume 1662.425848
_symmetry_space_group_name_H-M "P 21/M"
_symmetry_group_IT_number 11
_symmetry_cell_setting 'monoclinic'
loop_
_space_group_symop_operation_xyz
x,y,z
-x,1/2+y,-z
-x,-y,-z
x,1/2-y,z
loop_
_atom_site_type_symbol
_atom_site_label
_atom_site_fract_x
_atom_site_fract_y
_atom_site_fract_z
Si Si1 0.175315 0.591969 0.729767
Si Si2 0.000505 0.913045 0.882700
Si Si3 0.423189 0.592443 0.447629
Si Si4 0.523897 0.407434 0.814408
Si Si5 0.831076 0.912601 0.736600
Si Si6 0.321241 0.407910 0.835900
Si Si7 0.219349 0.909417 0.472537
Si Si8 0.667663 0.592646 0.904931
O O1 0.198738 0.750000 0.759318
O O2 0.086442 0.544380 0.801799
O O3 0.258746 0.499815 0.760832
O O4 0.162527 0.574291 0.593213
O O5 0.999503 0.750000 0.913478
O O6 0.915242 0.954846 0.810518
O O7 0.000000 0.000000 0.000000
O O8 0.500000 0.500000 0.500000
O O9 0.439762 0.750000 0.487829
O O10 0.428415 0.579514 0.310559
O O11 0.322930 0.541933 0.487930
O O12 0.523434 0.250000 0.860610
O O13 0.422440 0.463108 0.813292
O O14 0.579173 0.498927 0.901858
O O15 0.833118 0.750000 0.707113
O O16 0.742354 0.956496 0.810844
O O17 0.832077 0.997292 0.617945
O O18 0.313402 0.250000 0.793048
O O19 0.290727 0.421560 0.970118
O O20 0.220000 0.750000 0.429688
O O21 0.638144 0.750000 0.881992
#
# Coordination Sequence:
#
# PCOD8073076 Si02
#       8
#     4   4   4   4   4   4   4   4
#     4  10  22  39  59  84 114 148 187 232 282 337
#     4  10  22  41  63  89 118 148 187 233 284 343
#     4  10  20  33  51  76 108 147 190 234 277 327
#     4  10  20  34  52  78 110 146 189 234 281 335
#     4  10  21  37  58  83 113 149 190 236 285 341
#     4  10  21  36  55  81 114 149 188 235 284 336
#     4  10  21  38  57  81 115 150 189 236 285 337
#     4  10  20  34  53  79 110 146 186 231 284 339
#
# _framework density 19.248978000000001
#
# number of rings (size 3 to 8) (size 9 to 14) (size 15 to 20)
#    0.000    2.000    1.250    1.875    0.000    5.000 
#    0.000    0.000    0.000    0.000    0.000    0.000 
#    0.000    0.000    0.000    0.000    0.000    0.000 
#
# Total GULP energy -396896.491139 kJ/mol
# GULP energy per Si atom -12403.015348 kJ/mol
# Density = 1.920517 g / cm^3
# Si number density = 19.248978 Si / 1000 Ang^3
#
#
#
# Elastic Constant Matrix: (Units=GPa)
#
#
# Indices 1 2 3 4 5 6 
#
# 1 118.0660 58.3679 54.5313 0.0000 7.1476 0.0000
# 2 58.3679 69.6529 47.1677 0.0000 12.6429 0.0000
# 3 54.5313 47.1677 100.0131 0.0000 -3.0194 0.0000
# 4 0.0000 0.0000 0.0000 32.3505 0.0000 2.6127
# 5 7.1476 12.6429 -3.0194 0.0000 36.5116 0.0000
# 6 0.0000 0.0000 0.0000 2.6127 0.0000 24.5473
#
#
#
# Elastic Compliance Matrix: (Units=1/GPa)
#
#
# Indices 1 2 3 4 5 6 
#
# 1 0.015192 -0.010588 -0.003277 0.000000 0.000421 0.000000
# 2 -0.010588 0.031203 -0.009229 0.000000 -0.009495 0.000000
# 3 -0.003277 -0.009229 0.016295 0.000000 0.005185 0.000000
# 4 0.000000 0.000000 0.000000 0.031179 0.000000 -0.003319
# 5 0.000421 -0.009495 0.005185 0.000000 0.031023 0.000000
# 6 0.000000 0.000000 0.000000 -0.003319 0.000000 0.041091
#
#
# Mechanical properties :
#
#
# Convention : Reuss Voigt Hill
#
# Bulk Modulus (GPa) = 60.60355 67.54067 64.07211
# Shear Modulus (GPa) = 22.97017 27.19287 25.08152
#
# Velocity S-wave (km/s) = 3.45819 3.76266 3.61363
# Velocity P-wave (km/s) = 6.89187 7.35125 7.12526
#
# Compressibility (1/GPa) = 0.01650068
#
# Stress axis : x y z
#
# Youngs Moduli (GPa) = 65.82213 32.04813 61.36890
#
# Poissons Ratio (x) = 0.33933 0.20113
# Poissons Ratio (y) = 0.69693 0.56640
# Poissons Ratio (z) = 0.21572 0.29579
#
# Static dielectric constant tensor:
#      x y z
#    x 3.510570 0.000000 -0.192880 
#    y 0.000000 3.455940 0.000000 
#    z -0.192880 0.000000 3.499950 
# 
# 
# High freq. dielectric constant tensor:
#      x y z
#    x 1.750670 0.000000 -0.010510 
#    y 0.000000 1.742460 0.000000 
#    z -0.010510 0.000000 1.753910 
# 
# From -- ./inp_files/38170.got.cif
#   From: 2010.06.25/outbox.cif.g09.slc.cpg/sg11_20_cif.got.tgz:38170.got - 2010.06.27 23:14:04.
