data_PCOD8073462
_publ_section_title
;
Structure prediction by ZEFSAII (Michael W. Deem and Ramdas Pophale) SiO2 
 PCOD8073462
Probable space group: P 21/M
;
_chemical_formula_sum "Si O2"
_cell_formula_units_Z 28
_cell_length_a 12.195527
_cell_length_b 9.293314
_cell_length_c 13.945015
_cell_angle_alpha 90.000000
_cell_angle_beta 105.608395
_cell_angle_gamma 90.000000
_cell_volume 1522.200964
_symmetry_space_group_name_H-M "P 21/M"
_symmetry_group_IT_number 11
_symmetry_cell_setting 'monoclinic'
loop_
_space_group_symop_operation_xyz
x,y,z
-x,1/2+y,-z
-x,-y,-z
x,1/2-y,z
loop_
_atom_site_type_symbol
_atom_site_label
_atom_site_fract_x
_atom_site_fract_y
_atom_site_fract_z
Si Si1 0.818862 0.584699 0.286768
Si Si2 0.166142 0.087206 0.493093
Si Si3 0.750979 0.919600 0.769001
Si Si4 0.932501 0.416503 0.703307
Si Si5 0.393716 0.089037 0.442466
Si Si6 0.624173 0.916660 0.931854
Si Si7 0.362517 0.917950 0.873985
O O1 0.777041 0.750000 0.276252
O O2 0.850858 0.536277 0.401978
O O3 0.717812 0.485438 0.225228
O O4 0.932031 0.565999 0.248684
O O5 0.120589 0.250000 0.466614
O O6 0.300332 0.081132 0.503668
O O7 0.098544 0.981310 0.407497
O O8 0.773975 0.750000 0.763043
O O9 0.658752 0.971606 0.668979
O O10 0.704125 0.960475 0.862125
O O11 0.869150 0.001953 0.775647
O O12 0.896460 0.250000 0.695367
O O13 0.437145 0.250000 0.435103
O O14 0.500000 0.000000 0.500000
O O15 0.639817 0.750000 0.962889
O O16 0.492912 0.948543 0.874588
O O17 0.665301 0.011127 0.030427
O O18 0.336649 0.750000 0.875712
#
# Coordination Sequence:
#
# PCOD8073462 Si02
#       7
#     4   4   4   4   4   4   4
#     4  10  21  36  54  77 109 143 177 218 265 312
#     4   9  19  35  52  72 104 146 181 212 260 314
#     4   9  19  36  56  74 102 143 177 210 262 319
#     4  10  20  34  53  80 108 138 179 223 261 306
#     4   9  18  30  46  72 104 135 170 209 250 303
#     4   9  19  38  59  78 106 140 172 214 269 319
#     4  10  21  35  56  85 108 132 173 221 264 316
#
# _framework density 18.394417000000001
#
# number of rings (size 3 to 8) (size 9 to 14) (size 15 to 20)
#    0.000    2.571    0.000    2.143    2.000    5.143 
#    0.000    0.714    0.000    0.000    0.000    0.000 
#    0.000    0.000    0.000    0.000    0.000    0.000 
#
# Total GULP energy -347224.005998 kJ/mol
# GULP energy per Si atom -12400.857357 kJ/mol
# Density = 1.835255 g / cm^3
# Si number density = 18.394417 Si / 1000 Ang^3
#
#
#
# Elastic Constant Matrix: (Units=GPa)
#
#
# Indices 1 2 3 4 5 6 
#
# 1 71.7248 37.8761 37.3533 0.0000 -14.8007 0.0000
# 2 37.8761 77.4128 37.8889 0.0000 -4.8670 0.0000
# 3 37.3533 37.8889 63.6933 0.0000 -17.8407 0.0000
# 4 0.0000 0.0000 0.0000 34.2133 0.0000 1.8610
# 5 -14.8007 -4.8670 -17.8407 0.0000 30.0933 0.0000
# 6 0.0000 0.0000 0.0000 1.8610 0.0000 29.8776
#
#
#
# Elastic Compliance Matrix: (Units=1/GPa)
#
#
# Indices 1 2 3 4 5 6 
#
# 1 0.022782 -0.007082 -0.007591 0.000000 0.005559 0.000000
# 2 -0.007082 0.020873 -0.009945 0.000000 -0.006003 0.000000
# 3 -0.007591 -0.009945 0.029464 0.000000 0.012126 0.000000
# 4 0.000000 0.000000 0.000000 0.029328 0.000000 -0.001827
# 5 0.005559 -0.006003 0.012126 0.000000 0.042182 0.000000
# 6 0.000000 0.000000 0.000000 -0.001827 0.000000 0.033584
#
#
# Mechanical properties :
#
#
# Convention : Reuss Voigt Hill
#
# Bulk Modulus (GPa) = 41.86843 48.78528 45.32686
# Shear Modulus (GPa) = 21.23961 25.48435 23.36198
#
# Velocity S-wave (km/s) = 3.40174 3.72619 3.56765
# Velocity P-wave (km/s) = 6.18385 6.71506 6.45492
#
# Compressibility (1/GPa) = 0.02388434
#
# Stress axis : x y z
#
# Youngs Moduli (GPa) = 43.89341 47.90941 33.93965
#
# Poissons Ratio (x) = 0.33930 0.25763
# Poissons Ratio (y) = 0.31086 0.33751
# Poissons Ratio (z) = 0.33318 0.47644
#
# Static dielectric constant tensor:
#      x y z
#    x 3.431710 0.000000 -0.174280 
#    y 0.000000 3.392920 0.000000 
#    z -0.174280 0.000000 3.254540 
# 
# 
# High freq. dielectric constant tensor:
#      x y z
#    x 1.716160 0.000000 -0.008730 
#    y 0.000000 1.713630 0.000000 
#    z -0.008730 0.000000 1.697560 
# 
# From -- ./inp_files/37899.got.cif
#   From: 2010.06.25/outbox.cif.g09.slc.cpg/sg11_19_cif.got.tgz:37899.got - 2010.06.27 23:14:04.
