data_PCOD8073373
_publ_section_title
;
Structure prediction by ZEFSAII (Michael W. Deem and Ramdas Pophale) SiO2 
 PCOD8073373
Probable space group: P 21/M
;
_chemical_formula_sum "Si O2"
_cell_formula_units_Z 32
_cell_length_a 14.151754
_cell_length_b 8.768415
_cell_length_c 25.568376
_cell_angle_alpha 90.000000
_cell_angle_beta 33.882252
_cell_angle_gamma 90.000000
_cell_volume 1768.764514
_symmetry_space_group_name_H-M "P 21/M"
_symmetry_group_IT_number 11
_symmetry_cell_setting 'monoclinic'
loop_
_space_group_symop_operation_xyz
x,y,z
-x,1/2+y,-z
-x,-y,-z
x,1/2-y,z
loop_
_atom_site_type_symbol
_atom_site_label
_atom_site_fract_x
_atom_site_fract_y
_atom_site_fract_z
Si Si1 0.494256 0.070491 0.241352
Si Si2 0.651515 0.427884 0.898975
Si Si3 0.094646 0.430951 0.603588
Si Si4 0.781730 0.070520 0.241318
Si Si5 0.593905 0.929218 0.604054
Si Si6 0.153690 0.069467 0.897569
Si Si7 0.028047 0.429816 0.750157
Si Si8 0.721567 0.429847 0.750123
O O1 0.530966 0.250000 0.224585
O O2 0.399744 0.020168 0.338259
O O3 0.672995 0.985244 0.154958
O O4 0.375884 0.026008 0.248077
O O5 0.630393 0.250000 0.912877
O O6 0.643448 0.476069 0.842019
O O7 0.830384 0.475597 0.842178
O O8 0.500000 0.500000 0.000000
O O9 0.098834 0.250000 0.600894
O O10 0.250846 0.505373 0.499469
O O11 0.106098 0.482543 0.658725
O O12 0.917880 0.482290 0.658574
O O13 0.795491 0.250000 0.224421
O O14 0.585497 0.020421 0.338319
O O15 0.861929 0.985090 0.155033
O O16 0.880033 0.026074 0.247980
O O17 0.616139 0.750000 0.589327
O O18 0.144011 0.250000 0.904061
O O19 0.000000 0.000000 0.000000
O O20 0.053633 0.250000 0.747887
O O21 0.702496 0.250000 0.748104
#
# Coordination Sequence:
#
# PCOD8073373 Si02
#       8
#     4   4   4   4   4   4   4   4
#     4  10  20  34  52  77 108 137 167 208 257 306
#     4   9  19  34  51  72  98 129 167 211 253 299
#     4   8  15  31  53  73  99 137 176 216 260 304
#     4  10  20  34  52  77 108 137 167 208 257 306
#     4   8  16  31  50  73 102 135 171 212 258 304
#     4  11  22  38  58  78 102 133 171 211 252 301
#     4   9  18  33  52  74 100 133 174 214 255 305
#     4   9  18  33  52  74 100 133 174 214 255 305
#
# _framework density 18.091723999999999
#
# number of rings (size 3 to 8) (size 9 to 14) (size 15 to 20)
#    0.000    2.750    0.000    4.125    0.000    3.000 
#    0.000    4.375    0.000    7.500    0.000    0.000 
#    0.000    0.000    0.000    0.000    0.000    0.000 
#
# Total GULP energy -396723.407860 kJ/mol
# GULP energy per Si atom -12397.606496 kJ/mol
# Density = 1.805055 g / cm^3
# Si number density = 18.091724 Si / 1000 Ang^3
#
#
#
# Elastic Constant Matrix: (Units=GPa)
#
#
# Indices 1 2 3 4 5 6 
#
# 1 155.5668 45.0509 80.2488 0.0000 -2.1082 0.0000
# 2 45.0509 67.9456 47.0318 0.0000 -0.0332 0.0000
# 3 80.2488 47.0318 186.4015 0.0000 2.1748 0.0000
# 4 0.0000 0.0000 0.0000 21.8384 0.0000 -0.3512
# 5 -2.1082 -0.0332 2.1748 0.0000 10.7248 0.0000
# 6 0.0000 0.0000 0.0000 -0.3512 0.0000 32.9300
#
#
#
# Elastic Compliance Matrix: (Units=1/GPa)
#
#
# Indices 1 2 3 4 5 6 
#
# 1 0.009147 -0.004021 -0.002951 0.000000 0.002384 0.000000
# 2 -0.004021 0.019610 -0.003216 0.000000 -0.000078 0.000000
# 3 -0.002951 -0.003216 0.007471 0.000000 -0.002105 0.000000
# 4 0.000000 0.000000 0.000000 0.045799 0.000000 0.000488
# 5 0.002384 -0.000078 -0.002105 0.000000 0.094137 0.000000
# 6 0.000000 0.000000 0.000000 0.000488 0.000000 0.030373
#
#
# Mechanical properties :
#
#
# Convention : Reuss Voigt Hill
#
# Bulk Modulus (GPa) = 63.08330 83.84188 73.46259
# Shear Modulus (GPa) = 21.53343 28.93746 25.23544
#
# Velocity S-wave (km/s) = 3.45372 4.00370 3.73884
# Velocity P-wave (km/s) = 7.13082 8.23505 7.70275
#
# Compressibility (1/GPa) = 0.01585206
#
# Stress axis : x y z
#
# Youngs Moduli (GPa) = 109.32189 50.99521 133.84545
#
# Poissons Ratio (x) = 0.20505 0.39502
# Poissons Ratio (y) = 0.43958 0.43042
# Poissons Ratio (z) = 0.32264 0.16399
#
# Static dielectric constant tensor:
#      x y z
#    x 3.432410 0.000000 0.003190 
#    y 0.000000 3.102060 0.000000 
#    z 0.003190 0.000000 3.553170 
# 
# 
# High freq. dielectric constant tensor:
#      x y z
#    x 1.704870 0.000000 0.000110 
#    y 0.000000 1.680820 0.000000 
#    z 0.000110 0.000000 1.708870 
# 
# From -- ./inp_files/71613.got.cif
#   From: 2010.06.25/outbox.cif.g09.slc.cpg/sg11_36_cif.got.tgz:71613.got - 2010.06.27 23:14:04.
