data_PCOD8073557
_publ_section_title
;
Structure prediction by ZEFSAII (Michael W. Deem and Ramdas Pophale) SiO2 
 PCOD8073557
Probable space group: P 21/M
;
_chemical_formula_sum "Si O2"
_cell_formula_units_Z 28
_cell_length_a 15.040019
_cell_length_b 9.396754
_cell_length_c 21.028744
_cell_angle_alpha 90.000000
_cell_angle_beta 28.057533
_cell_angle_gamma 90.000000
_cell_volume 1397.874061
_symmetry_space_group_name_H-M "P 21/M"
_symmetry_group_IT_number 11
_symmetry_cell_setting 'monoclinic'
loop_
_space_group_symop_operation_xyz
x,y,z
-x,1/2+y,-z
-x,-y,-z
x,1/2-y,z
loop_
_atom_site_type_symbol
_atom_site_label
_atom_site_fract_x
_atom_site_fract_y
_atom_site_fract_z
Si Si1 0.610578 0.909217 0.618165
Si Si2 0.017405 0.907736 0.896775
Si Si3 0.065019 0.583965 0.162201
Si Si4 0.305992 0.582911 0.133004
Si Si5 0.357532 0.091976 0.550681
Si Si6 0.992822 0.081990 0.571164
Si Si7 0.276963 0.092494 0.808666
O O1 0.568036 0.750000 0.670977
O O2 0.597144 0.912316 0.551547
O O3 0.815844 0.959236 0.512426
O O4 0.445535 0.017966 0.743020
O O5 0.076769 0.750000 0.834679
O O6 0.208552 0.999122 0.790780
O O7 0.879372 0.988617 0.933783
O O8 0.901797 0.889065 0.033761
O O9 0.085907 0.750000 0.132496
O O10 0.184804 0.543766 0.147949
O O11 0.852982 0.533621 0.309321
O O12 0.349556 0.750000 0.109123
O O13 0.187992 0.536465 0.270931
O O14 0.500000 0.500000 0.000000
O O15 0.370752 0.250000 0.569738
O O16 0.500000 0.000000 0.500000
O O17 0.983478 0.250000 0.563825
O O18 0.000000 0.000000 0.500000
O O19 0.342217 0.250000 0.744301
#
# Coordination Sequence:
#
# PCOD8073557 Si02
#       7
#     4   4   4   4   4   4   4
#     4  10  20  37  59  81 112 151 191 237 294 354
#     4  10  21  36  54  80 116 155 195 239 288 347
#     4  10  20  37  59  81 112 151 191 237 294 354
#     4  10  22  42  65  89 121 160 203 257 316 374
#     4  10  20  34  54  82 114 148 184 226 281 342
#     4  10  22  42  65  89 121 160 203 257 316 374
#     4  10  21  36  54  80 116 155 195 239 288 347
#
# _framework density 20.030415999999999
#
# number of rings (size 3 to 8) (size 9 to 14) (size 15 to 20)
#    0.000    2.000    1.429    1.714    0.000    8.000 
#    0.000    5.714    0.000    0.000    0.000    0.000 
#    0.000    0.000    0.000    0.000    0.000    0.000 
#
# Total GULP energy -347050.669022 kJ/mol
# GULP energy per Si atom -12394.666751 kJ/mol
# Density = 1.998483 g / cm^3
# Si number density = 20.030416 Si / 1000 Ang^3
#
#
#
# Elastic Constant Matrix: (Units=GPa)
#
#
# Indices 1 2 3 4 5 6 
#
# 1 132.8167 69.9021 57.8806 0.0000 -14.0450 0.0000
# 2 69.9021 110.6607 53.3708 0.0000 -12.4235 0.0000
# 3 57.8806 53.3708 89.1104 0.0000 -19.8906 0.0000
# 4 0.0000 0.0000 0.0000 30.6161 0.0000 -3.7089
# 5 -14.0450 -12.4235 -19.8906 0.0000 33.6880 0.0000
# 6 0.0000 0.0000 0.0000 -3.7089 0.0000 34.3506
#
#
#
# Elastic Compliance Matrix: (Units=1/GPa)
#
#
# Indices 1 2 3 4 5 6 
#
# 1 0.012592 -0.005635 -0.004717 0.000000 0.000386 0.000000
# 2 -0.005635 0.015231 -0.005451 0.000000 0.000049 0.000000
# 3 -0.004717 -0.005451 0.019193 0.000000 0.007355 0.000000
# 4 0.000000 0.000000 0.000000 0.033095 0.000000 0.003573
# 5 0.000386 0.000049 0.007355 0.000000 0.034206 0.000000
# 6 0.000000 0.000000 0.000000 0.003573 0.000000 0.029497
#
#
# Mechanical properties :
#
#
# Convention : Reuss Voigt Hill
#
# Bulk Modulus (GPa) = 64.90212 77.21053 71.05632
# Shear Modulus (GPa) = 27.69207 29.82658 28.75932
#
# Velocity S-wave (km/s) = 3.72223 3.86303 3.79328
# Velocity P-wave (km/s) = 7.13761 7.65033 7.39842
#
# Compressibility (1/GPa) = 0.01540782
#
# Stress axis : x y z
#
# Youngs Moduli (GPa) = 79.41682 65.65647 52.10352
#
# Poissons Ratio (x) = 0.37000 0.24580
# Poissons Ratio (y) = 0.44755 0.28400
# Poissons Ratio (z) = 0.37464 0.35788
#
# Static dielectric constant tensor:
#      x y z
#    x 3.912110 0.000000 -0.049820 
#    y 0.000000 3.805830 0.000000 
#    z -0.049820 0.000000 3.671880 
# 
# 
# High freq. dielectric constant tensor:
#      x y z
#    x 1.779260 0.000000 -0.001700 
#    y 0.000000 1.780540 0.000000 
#    z -0.001700 0.000000 1.780060 
# 
# From -- ./inp_files/37913.got.cif
#   From: 2010.06.25/outbox.cif.g09.slc.cpg/sg11_19_cif.got.tgz:37913.got - 2010.06.27 23:14:04.
