data_PCOD8073372
_publ_section_title
;
Structure prediction by ZEFSAII (Michael W. Deem and Ramdas Pophale) SiO2 
 PCOD8073372
Probable space group: P 21/M
;
_chemical_formula_sum "Si O2"
_cell_formula_units_Z 28
_cell_length_a 9.310505
_cell_length_b 9.104482
_cell_length_c 29.308723
_cell_angle_alpha 90.000000
_cell_angle_beta 141.972702
_cell_angle_gamma 90.000000
_cell_volume 1530.495524
_symmetry_space_group_name_H-M "P 21/M"
_symmetry_group_IT_number 11
_symmetry_cell_setting 'monoclinic'
loop_
_space_group_symop_operation_xyz
x,y,z
-x,1/2+y,-z
-x,-y,-z
x,1/2-y,z
loop_
_atom_site_type_symbol
_atom_site_label
_atom_site_fract_x
_atom_site_fract_y
_atom_site_fract_z
Si Si1 0.255225 0.576926 0.433169
Si Si2 0.062284 0.416700 0.560845
Si Si3 0.882786 0.419042 0.291182
Si Si4 0.485729 0.417642 0.126662
Si Si5 0.178448 0.078895 0.137121
Si Si6 0.550490 0.579183 0.277243
Si Si7 0.640891 0.077311 0.995474
O O1 0.500000 0.500000 0.500000
O O2 0.286412 0.750000 0.434651
O O3 0.103056 0.533637 0.439104
O O4 0.122541 0.512144 0.355198
O O5 0.011009 0.250000 0.536343
O O6 0.334431 0.439859 0.643591
O O7 0.000000 0.500000 0.500000
O O8 0.939438 0.250000 0.316417
O O9 0.755885 0.434177 0.210404
O O10 0.698542 0.479546 0.280757
O O11 0.437593 0.250000 0.099387
O O12 0.304242 0.462344 0.121048
O O13 0.453917 0.526306 0.076877
O O14 0.211725 0.250000 0.156684
O O15 0.910663 0.033089 0.066880
O O16 0.288226 0.983968 0.206731
O O17 0.562405 0.750000 0.265661
O O18 0.604680 0.250000 0.990696
O O19 0.500000 0.000000 0.000000
#
# Coordination Sequence:
#
# PCOD8073372 Si02
#       7
#     4   4   4   4   4   4   4
#     4  10  20  34  52  77 106 137 175 216 258 307
#     4   9  19  33  50  75 104 133 169 209 252 302
#     4   9  17  31  52  77 104 134 168 211 259 304
#     4   9  18  34  56  80 103 128 167 214 257 304
#     4   9  19  35  55  79 102 130 170 213 256 304
#     4   9  17  30  50  77 104 130 167 214 255 299
#     4  11  23  37  53  75 106 140 172 207 255 310
#
# _framework density 18.294727999999999
#
# number of rings (size 3 to 8) (size 9 to 14) (size 15 to 20)
#    0.000    2.571    0.000    3.857    0.000    7.429 
#    0.000    1.429    0.000    1.714    0.000    0.000 
#    0.000    0.000    0.000    0.000    0.000    0.000 
#
# Total GULP energy -347040.506683 kJ/mol
# GULP energy per Si atom -12394.303810 kJ/mol
# Density = 1.825309 g / cm^3
# Si number density = 18.294728 Si / 1000 Ang^3
#
#
#
# Elastic Constant Matrix: (Units=GPa)
#
#
# Indices 1 2 3 4 5 6 
#
# 1 63.6801 41.6973 58.0580 0.0000 0.9313 0.0000
# 2 41.6973 98.7106 79.2584 0.0000 1.3317 0.0000
# 3 58.0580 79.2584 164.0411 0.0000 5.4006 0.0000
# 4 0.0000 0.0000 0.0000 41.9561 0.0000 -2.0132
# 5 0.9313 1.3317 5.4006 0.0000 23.1818 0.0000
# 6 0.0000 0.0000 0.0000 -2.0132 0.0000 27.7181
#
#
#
# Elastic Compliance Matrix: (Units=1/GPa)
#
#
# Indices 1 2 3 4 5 6 
#
# 1 0.024982 -0.005627 -0.006148 0.000000 0.000752 0.000000
# 2 -0.005627 0.017839 -0.006652 0.000000 0.000751 0.000000
# 3 -0.006148 -0.006652 0.011554 0.000000 -0.002063 0.000000
# 4 0.000000 0.000000 0.000000 0.023918 0.000000 0.001737
# 5 0.000752 0.000751 -0.002063 0.000000 0.043544 0.000000
# 6 0.000000 0.000000 0.000000 0.001737 0.000000 0.036204
#
#
# Mechanical properties :
#
#
# Convention : Reuss Voigt Hill
#
# Bulk Modulus (GPa) = 57.07469 76.05104 66.56286
# Shear Modulus (GPa) = 24.90856 28.39907 26.65382
#
# Velocity S-wave (km/s) = 3.69388 3.94421 3.82109
# Velocity P-wave (km/s) = 7.03264 7.89953 7.47866
#
# Compressibility (1/GPa) = 0.01752090
#
# Stress axis : x y z
#
# Youngs Moduli (GPa) = 40.02908 56.05807 86.55070
#
# Poissons Ratio (x) = 0.31542 0.53210
# Poissons Ratio (y) = 0.22523 0.57576
# Poissons Ratio (z) = 0.24609 0.37291
#
# Static dielectric constant tensor:
#      x y z
#    x 3.025360 0.000000 0.098890 
#    y 0.000000 3.271920 0.000000 
#    z 0.098890 0.000000 3.939710 
# 
# 
# High freq. dielectric constant tensor:
#      x y z
#    x 1.661220 0.000000 0.004650 
#    y 0.000000 1.720100 0.000000 
#    z 0.004650 0.000000 1.732160 
# 
# From -- ./inp_files/72757.got.cif
#   From: 2010.06.25/outbox.cif.g09.slc.cpg/sg11_37_cif.got.tgz:72757.got - 2010.06.27 23:14:04.
