data_PCOD8073209
_publ_section_title
;
Structure prediction by ZEFSAII (Michael W. Deem and Ramdas Pophale) SiO2 
 PCOD8073209
Probable space group: P 21/M
;
_chemical_formula_sum "Si O2"
_cell_formula_units_Z 28
_cell_length_a 9.704745
_cell_length_b 9.265120
_cell_length_c 27.292851
_cell_angle_alpha 90.000000
_cell_angle_beta 141.147608
_cell_angle_gamma 90.000000
_cell_volume 1539.467676
_symmetry_space_group_name_H-M "P 21/M"
_symmetry_group_IT_number 11
_symmetry_cell_setting 'monoclinic'
loop_
_space_group_symop_operation_xyz
x,y,z
-x,1/2+y,-z
-x,-y,-z
x,1/2-y,z
loop_
_atom_site_type_symbol
_atom_site_label
_atom_site_fract_x
_atom_site_fract_y
_atom_site_fract_z
Si Si1 0.518379 0.917606 0.785996
Si Si2 0.861732 0.581967 0.799735
Si Si3 0.392927 0.085694 0.513192
Si Si4 0.017501 0.916984 0.654050
Si Si5 0.310714 0.914499 0.973827
Si Si6 0.772325 0.417545 0.938334
Si Si7 0.793595 0.419783 0.681392
O O1 0.555646 0.750000 0.810253
O O2 0.645310 0.955112 0.771165
O O3 0.264242 0.956378 0.707208
O O4 0.602961 0.015702 0.853345
O O5 0.869218 0.750000 0.787864
O O6 0.865755 0.490054 0.751793
O O7 0.070604 0.533994 0.889864
O O8 0.441911 0.250000 0.514455
O O9 0.529538 0.047624 0.600538
O O10 0.130283 0.055338 0.436607
O O11 0.500000 0.000000 0.500000
O O12 0.000027 0.750000 0.665686
O O13 0.937207 0.014275 0.677002
O O14 0.343705 0.750000 0.967942
O O15 0.335164 0.937484 0.038368
O O16 0.500000 0.000000 0.000000
O O17 0.814473 0.250000 0.937959
O O18 0.000000 0.500000 0.000000
O O19 0.843179 0.250000 0.697607
#
# Coordination Sequence:
#
# PCOD8073209 Si02
#       7
#     4   4   4   4   4   4   4
#     4  10  21  38  58  80 107 141 182 223 266 318
#     4  10  21  39  55  74 108 144 179 217 264 322
#     4   8  15  30  51  77 107 138 175 217 262 314
#     4   9  18  34  58  82 105 140 181 220 266 320
#     4  10  23  40  57  79 108 140 178 222 264 316
#     4  11  22  39  60  82 108 141 180 221 266 317
#     4  10  20  33  53  81 112 142 176 222 269 313
#
# _framework density 18.188106000000001
#
# number of rings (size 3 to 8) (size 9 to 14) (size 15 to 20)
#    0.000    2.286    1.429    0.857    2.000    3.429 
#    0.000    0.714    0.000    0.000    0.000    0.000 
#    0.000    0.000    0.000    0.000    0.000    0.000 
#
# Total GULP energy -347014.779644 kJ/mol
# GULP energy per Si atom -12393.384987 kJ/mol
# Density = 1.814671 g / cm^3
# Si number density = 18.188106 Si / 1000 Ang^3
#
#
#
# Elastic Constant Matrix: (Units=GPa)
#
#
# Indices 1 2 3 4 5 6 
#
# 1 86.3166 36.6652 34.0226 0.0000 16.0769 0.0000
# 2 36.6652 63.4122 30.5092 0.0000 5.2956 0.0000
# 3 34.0226 30.5092 74.6165 0.0000 20.0917 0.0000
# 4 0.0000 0.0000 0.0000 28.4440 0.0000 0.4214
# 5 16.0769 5.2956 20.0917 0.0000 32.1471 0.0000
# 6 0.0000 0.0000 0.0000 0.4214 0.0000 25.6832
#
#
#
# Elastic Compliance Matrix: (Units=1/GPa)
#
#
# Indices 1 2 3 4 5 6 
#
# 1 0.017213 -0.007994 -0.003146 0.000000 -0.005325 0.000000
# 2 -0.007994 0.023468 -0.007197 0.000000 0.004630 0.000000
# 3 -0.003146 -0.007197 0.020483 0.000000 -0.010043 0.000000
# 4 0.000000 0.000000 0.000000 0.035165 0.000000 -0.000577
# 5 -0.005325 0.004630 -0.010043 0.000000 0.039284 0.000000
# 6 0.000000 0.000000 0.000000 -0.000577 0.000000 0.038945
#
#
# Mechanical properties :
#
#
# Convention : Reuss Voigt Hill
#
# Bulk Modulus (GPa) = 40.83394 47.41549 44.12471
# Shear Modulus (GPa) = 22.78964 25.46474 24.12719
#
# Velocity S-wave (km/s) = 3.54361 3.74582 3.64612
# Velocity P-wave (km/s) = 6.26439 6.69584 6.48370
#
# Compressibility (1/GPa) = 0.02448943
#
# Stress axis : x y z
#
# Youngs Moduli (GPa) = 58.09608 42.61064 48.81995
#
# Poissons Ratio (x) = 0.34064 0.15358
# Poissons Ratio (y) = 0.46444 0.35138
# Poissons Ratio (z) = 0.18277 0.30669
#
# Static dielectric constant tensor:
#      x y z
#    x 3.131180 0.000000 0.125250 
#    y 0.000000 3.513460 0.000000 
#    z 0.125250 0.000000 4.120600 
# 
# 
# High freq. dielectric constant tensor:
#      x y z
#    x 1.681400 0.000000 0.007340 
#    y 0.000000 1.708640 0.000000 
#    z 0.007340 0.000000 1.723390 
# 
# From -- ./inp_files/70915.got.cif
#   From: 2010.06.25/outbox.cif.g09.slc.cpg/sg11_36_cif.got.tgz:70915.got - 2010.06.27 23:14:04.
