data_PCOD8073626
_publ_section_title
;
Structure prediction by ZEFSAII (Michael W. Deem and Ramdas Pophale) SiO2 
 PCOD8073626
Probable space group: P 21/M
;
_chemical_formula_sum "Si O2"
_cell_formula_units_Z 24
_cell_length_a 18.270114
_cell_length_b 10.234080
_cell_length_c 11.729922
_cell_angle_alpha 90.000000
_cell_angle_beta 148.596662
_cell_angle_gamma 90.000000
_cell_volume 1142.805677
_symmetry_space_group_name_H-M "P 21/M"
_symmetry_group_IT_number 11
_symmetry_cell_setting 'monoclinic'
loop_
_space_group_symop_operation_xyz
x,y,z
-x,1/2+y,-z
-x,-y,-z
x,1/2-y,z
loop_
_atom_site_type_symbol
_atom_site_label
_atom_site_fract_x
_atom_site_fract_y
_atom_site_fract_z
Si Si1 0.302154 0.397831 0.991969
Si Si2 0.791909 0.599042 0.371921
Si Si3 0.900570 0.397240 0.171296
Si Si4 0.231645 0.398995 0.410420
Si Si5 0.123598 0.608903 0.116791
Si Si6 0.429329 0.964020 0.524830
O O1 0.239087 0.250000 0.912252
O O2 0.293321 0.455632 0.850718
O O3 0.215699 0.494775 0.957518
O O4 0.460443 0.390285 0.247483
O O5 0.756741 0.750000 0.335682
O O6 0.743375 0.539336 0.429733
O O7 0.957423 0.573912 0.569237
O O8 0.844876 0.250000 0.123840
O O9 0.946777 0.409983 0.100625
O O10 0.179975 0.250000 0.347174
O O11 0.374098 0.409992 0.524708
O O12 0.105175 0.482131 0.177876
O O13 0.076866 0.750000 0.108143
O O14 0.292753 0.623986 0.319806
O O15 0.500000 0.000000 0.500000
#
# Coordination Sequence:
#
# PCOD8073626 Si02
#       6
#     4   4   4   4   4   4
#     4  11  21  36  59  82 109 146 183 223 269 325
#     4   9  20  38  57  79 111 148 183 221 270 321
#     4  10  20  36  57  82 113 144 179 227 273 317
#     4   9  20  37  56  81 109 145 186 221 267 327
#     4   9  19  34  52  79 111 141 174 221 276 315
#     4  10  20  34  55  83 106 136 178 227 269 320
#
# _framework density 21.000947
#
# number of rings (size 3 to 8) (size 9 to 14) (size 15 to 20)
#    1.000    1.333    1.667    1.000    0.000    5.333 
#    0.000    1.667    0.000    0.000    0.000    0.000 
#    0.000    0.000    0.000    0.000    0.000    0.000 
#
# Total GULP energy -297320.449540 kJ/mol
# GULP energy per Si atom -12388.352064 kJ/mol
# Density = 2.095315 g / cm^3
# Si number density = 21.000947 Si / 1000 Ang^3
#
#
#
# Elastic Constant Matrix: (Units=GPa)
#
#
# Indices 1 2 3 4 5 6 
#
# 1 89.1328 39.3754 24.1682 0.0000 -14.3987 0.0000
# 2 39.3754 103.1057 10.3232 0.0000 -14.1687 0.0000
# 3 24.1682 10.3232 100.8403 0.0000 -25.0336 0.0000
# 4 0.0000 0.0000 0.0000 17.8330 0.0000 -8.1884
# 5 -14.3987 -14.1687 -25.0336 0.0000 32.5624 0.0000
# 6 0.0000 0.0000 0.0000 -8.1884 0.0000 22.4762
#
#
#
# Elastic Compliance Matrix: (Units=1/GPa)
#
#
# Indices 1 2 3 4 5 6 
#
# 1 0.014432 -0.004943 -0.002351 0.000000 0.002423 0.000000
# 2 -0.004943 0.012009 0.000877 0.000000 0.003714 0.000000
# 3 -0.002351 0.000877 0.012639 0.000000 0.009059 0.000000
# 4 0.000000 0.000000 0.000000 0.067341 0.000000 0.024533
# 5 0.002423 0.003714 0.009059 0.000000 0.040362 0.000000
# 6 0.000000 0.000000 0.000000 0.024533 0.000000 0.053429
#
#
# Mechanical properties :
#
#
# Convention : Reuss Voigt Hill
#
# Bulk Modulus (GPa) = 38.10078 48.97919 43.53998
# Shear Modulus (GPa) = 22.54331 29.18844 25.86587
#
# Velocity S-wave (km/s) = 3.27990 3.73213 3.51330
# Velocity P-wave (km/s) = 5.70311 6.47648 6.10206
#
# Compressibility (1/GPa) = 0.02624618
#
# Stress axis : x y z
#
# Youngs Moduli (GPa) = 69.29127 83.27049 79.11852
#
# Poissons Ratio (x) = 0.41161 0.18603
# Poissons Ratio (y) = 0.34251 -0.06941
# Poissons Ratio (z) = 0.16292 -0.07306
#
# Static dielectric constant tensor:
#      x y z
#    x 3.772120 0.000000 -0.284720 
#    y 0.000000 3.500170 0.000000 
#    z -0.284720 0.000000 4.068130 
# 
# 
# High freq. dielectric constant tensor:
#      x y z
#    x 1.817120 0.000000 -0.007620 
#    y 0.000000 1.798680 0.000000 
#    z -0.007620 0.000000 1.841570 
# 
# From -- ./inp_files/34665.got.cif
#   From: 2010.06.25/outbox.cif.g09.slc.cpg/sg11_18_cif.got.tgz:34665.got - 2010.06.27 23:14:04.
