data_PCOD8073238
_publ_section_title
;
Structure prediction by ZEFSAII (Michael W. Deem and Ramdas Pophale) SiO2 
 PCOD8073238
Probable space group: P 21/M
;
_chemical_formula_sum "Si O2"
_cell_formula_units_Z 28
_cell_length_a 14.547239
_cell_length_b 14.239758
_cell_length_c 14.948791
_cell_angle_alpha 90.000000
_cell_angle_beta 27.624327
_cell_angle_gamma 90.000000
_cell_volume 1435.821228
_symmetry_space_group_name_H-M "P 21/M"
_symmetry_group_IT_number 11
_symmetry_cell_setting 'monoclinic'
loop_
_space_group_symop_operation_xyz
x,y,z
-x,1/2+y,-z
-x,-y,-z
x,1/2-y,z
loop_
_atom_site_type_symbol
_atom_site_label
_atom_site_fract_x
_atom_site_fract_y
_atom_site_fract_z
Si Si1 0.602284 0.857005 0.936536
Si Si2 0.884349 0.492765 0.234155
Si Si3 0.207650 0.643044 0.190501
Si Si4 0.252149 0.478069 0.027207
Si Si5 0.472558 0.056260 0.342719
Si Si6 0.771855 0.860478 0.607247
Si Si7 0.854736 0.360502 0.093470
O O1 0.670605 0.750000 0.884537
O O2 0.689624 0.905266 0.947596
O O3 0.684244 0.904463 0.774232
O O4 0.364266 0.867524 0.136672
O O5 0.665864 0.514433 0.460239
O O6 0.862908 0.407902 0.183494
O O7 0.028789 0.456007 0.188393
O O8 0.980414 0.587639 0.109917
O O9 0.198390 0.750000 0.164043
O O10 0.269688 0.583863 0.050261
O O11 0.999337 0.607441 0.407673
O O12 0.404255 0.472176 0.812206
O O13 0.335295 0.106849 0.389358
O O14 0.632879 0.127680 0.246186
O O15 0.746560 0.750000 0.635025
O O16 0.906572 0.250000 0.054910
#
# Coordination Sequence:
#
# PCOD8073238 Si02
#       7
#     4   4   4   4   4   4   4
#     4  10  22  38  53  80 120 158 201 243 279 335
#     4  10  23  42  60  90 121 147 193 245 291 355
#     4  10  20  34  52  79 114 148 192 241 284 336
#     4  11  22  36  59  84 115 160 193 234 291 342
#     4  11  21  37  59  89 117 149 192 240 291 349
#     4  10  20  33  54  83 114 150 192 238 289 338
#     4  10  23  42  65  88 116 152 190 239 298 356
#
# _framework density 19.501035000000002
#
# number of rings (size 3 to 8) (size 9 to 14) (size 15 to 20)
#    0.000    1.714    2.857    1.286    0.000    5.714 
#    0.000    0.714    0.000    0.000    0.000    0.000 
#    0.000    0.000    0.000    0.000    0.000    0.000 
#
# Total GULP energy -347163.710488 kJ/mol
# GULP energy per Si atom -12398.703946 kJ/mol
# Density = 1.945665 g / cm^3
# Si number density = 19.501035 Si / 1000 Ang^3
#
#
#
# Elastic Constant Matrix: (Units=GPa)
#
#
# Indices 1 2 3 4 5 6 
#
# 1 114.2269 59.0425 29.8338 0.0000 -0.5074 0.0000
# 2 59.0425 84.9726 37.1133 0.0000 -0.4620 0.0000
# 3 29.8338 37.1133 105.4599 0.0000 -5.1240 0.0000
# 4 0.0000 0.0000 0.0000 16.5203 0.0000 -2.8681
# 5 -0.5074 -0.4620 -5.1240 0.0000 25.1546 0.0000
# 6 0.0000 0.0000 0.0000 -2.8681 0.0000 12.5679
#
#
#
# Elastic Compliance Matrix: (Units=1/GPa)
#
#
# Indices 1 2 3 4 5 6 
#
# 1 0.013695 -0.009244 -0.000622 0.000000 -0.000020 0.000000
# 2 -0.009244 0.020160 -0.004515 0.000000 -0.000736 0.000000
# 3 -0.000622 -0.004515 0.011355 0.000000 0.002218 0.000000
# 4 0.000000 0.000000 0.000000 0.063029 0.000000 0.014384
# 5 -0.000020 -0.000736 0.002218 0.000000 0.040192 0.000000
# 6 0.000000 0.000000 0.000000 0.014384 0.000000 0.082850
#
#
# Mechanical properties :
#
#
# Convention : Reuss Voigt Hill
#
# Bulk Modulus (GPa) = 60.80184 61.84872 61.32528
# Shear Modulus (GPa) = 18.83052 22.75990 20.79521
#
# Velocity S-wave (km/s) = 3.11081 3.42001 3.26907
# Velocity P-wave (km/s) = 6.64449 6.88329 6.76495
#
# Compressibility (1/GPa) = 0.01644687
#
# Stress axis : x y z
#
# Youngs Moduli (GPa) = 73.01817 49.60298 88.06710
#
# Poissons Ratio (x) = 0.45855 0.05477
# Poissons Ratio (y) = 0.67501 0.39765
# Poissons Ratio (z) = 0.04541 0.22397
#
# Static dielectric constant tensor:
#      x y z
#    x 3.631260 0.000000 -0.095880 
#    y 0.000000 3.287430 0.000000 
#    z -0.095880 0.000000 3.818250 
# 
# 
# High freq. dielectric constant tensor:
#      x y z
#    x 1.769640 0.000000 -0.009160 
#    y 0.000000 1.734100 0.000000 
#    z -0.009160 0.000000 1.769280 
# 
# From -- ./inp_files/52445.got.cif
#   From: 2010.06.25/outbox.cif.g09.slc.cpg/sg11_27_cif.got.tgz:52445.got - 2010.06.27 23:14:04.
