data_PCOD8073324
_publ_section_title
;
Structure prediction by ZEFSAII (Michael W. Deem and Ramdas Pophale) SiO2 
 PCOD8073324
Probable space group: P 21/M
;
_chemical_formula_sum "Si O2"
_cell_formula_units_Z 32
_cell_length_a 15.720407
_cell_length_b 8.812968
_cell_length_c 23.145301
_cell_angle_alpha 90.000000
_cell_angle_beta 30.327778
_cell_angle_gamma 90.000000
_cell_volume 1619.175338
_symmetry_space_group_name_H-M "P 21/M"
_symmetry_group_IT_number 11
_symmetry_cell_setting 'monoclinic'
loop_
_space_group_symop_operation_xyz
x,y,z
-x,1/2+y,-z
-x,-y,-z
x,1/2-y,z
loop_
_atom_site_type_symbol
_atom_site_label
_atom_site_fract_x
_atom_site_fract_y
_atom_site_fract_z
Si Si1 0.688766 0.570997 0.558839
Si Si2 0.022157 0.569256 0.423814
Si Si3 0.353289 0.925485 0.815228
Si Si4 0.487301 0.571812 0.569352
Si Si5 0.164633 0.922710 0.036853
Si Si6 0.332410 0.425485 0.037609
Si Si7 0.685444 0.926776 0.820887
Si Si8 0.190156 0.426349 0.809009
O O1 0.702548 0.750000 0.549540
O O2 0.543529 0.521526 0.689419
O O3 0.635757 0.512753 0.525762
O O4 0.867958 0.505433 0.474642
O O5 0.019714 0.750000 0.430437
O O6 0.195038 0.518157 0.292560
O O7 0.000000 0.500000 0.500000
O O8 0.325904 0.750000 0.813519
O O9 0.218827 0.025702 0.858514
O O10 0.322259 0.949081 0.901375
O O11 0.500000 0.500000 0.500000
O O12 0.499965 0.750000 0.555107
O O13 0.308050 0.528033 0.699968
O O14 0.157947 0.750000 0.063057
O O15 0.998994 0.964541 0.098270
O O16 0.182293 0.031539 0.081868
O O17 0.381777 0.250000 0.003993
O O18 0.492642 0.524701 0.924754
O O19 0.267530 0.463873 0.140096
O O20 0.703434 0.750000 0.795889
O O21 0.233094 0.250000 0.775448
#
# Coordination Sequence:
#
# PCOD8073324 Si02
#       8
#     4   4   4   4   4   4   4   4
#     4   8  18  36  56  79 111 149 189 231 288 348
#     4  11  23  39  61  90 119 154 199 247 296 353
#     4   9  18  35  56  78 109 153 193 231 283 338
#     4  10  20  37  59  82 109 149 191 234 288 346
#     4  10  21  34  55  84 115 152 191 231 285 345
#     4  10  22  39  61  88 113 147 197 245 292 346
#     4  10  22  42  62  82 116 154 188 239 300 356
#     4  10  20  34  51  80 115 149 189 233 280 335
#
# _framework density 19.763145000000002
#
# number of rings (size 3 to 8) (size 9 to 14) (size 15 to 20)
#    0.000    2.250    0.000    3.000    1.750    4.000 
#    0.000   10.000    0.000    0.000    0.000    0.000 
#    0.000    0.000    0.000    0.000    0.000    0.000 
#
# Total GULP energy -396766.405048 kJ/mol
# GULP energy per Si atom -12398.950158 kJ/mol
# Density = 1.971816 g / cm^3
# Si number density = 19.763145 Si / 1000 Ang^3
#
#
#
# Elastic Constant Matrix: (Units=GPa)
#
#
# Indices 1 2 3 4 5 6 
#
# 1 99.6453 38.9638 39.3369 0.0000 9.7379 0.0000
# 2 38.9638 64.3636 30.2899 0.0000 5.1829 0.0000
# 3 39.3369 30.2899 80.4467 0.0000 9.0683 0.0000
# 4 0.0000 0.0000 0.0000 29.9734 0.0000 1.7676
# 5 9.7379 5.1829 9.0683 0.0000 28.4367 0.0000
# 6 0.0000 0.0000 0.0000 1.7676 0.0000 34.6143
#
#
#
# Elastic Compliance Matrix: (Units=1/GPa)
#
#
# Indices 1 2 3 4 5 6 
#
# 1 0.014565 -0.006563 -0.004381 0.000000 -0.002394 0.000000
# 2 -0.006563 0.021880 -0.005013 0.000000 -0.000142 0.000000
# 3 -0.004381 -0.005013 0.016792 0.000000 -0.002941 0.000000
# 4 0.000000 0.000000 0.000000 0.033464 0.000000 -0.001709
# 5 -0.002394 -0.000142 -0.002941 0.000000 0.036949 0.000000
# 6 0.000000 0.000000 0.000000 -0.001709 0.000000 0.028977
#
#
# Mechanical properties :
#
#
# Convention : Reuss Voigt Hill
#
# Bulk Modulus (GPa) = 46.89761 51.29298 49.09530
# Shear Modulus (GPa) = 26.08916 27.66256 26.87586
#
# Velocity S-wave (km/s) = 3.63725 3.74532 3.69168
# Velocity P-wave (km/s) = 6.43590 6.68681 6.56255
#
# Compressibility (1/GPa) = 0.02132305
#
# Stress axis : x y z
#
# Youngs Moduli (GPa) = 68.65593 45.70307 59.55187
#
# Poissons Ratio (x) = 0.29994 0.26091
# Poissons Ratio (y) = 0.45057 0.29856
# Poissons Ratio (z) = 0.30080 0.22913
#
# Static dielectric constant tensor:
#      x y z
#    x 3.805050 0.000000 -0.039550 
#    y 0.000000 3.762710 0.000000 
#    z -0.039550 0.000000 3.578850 
# 
# 
# High freq. dielectric constant tensor:
#      x y z
#    x 1.778710 0.000000 0.002550 
#    y 0.000000 1.761850 0.000000 
#    z 0.002550 0.000000 1.764960 
# 
# From -- ./inp_files/69004.got.cif
#   From: 2010.06.25/outbox.cif.g09.slc.cpg/sg11_35_cif.got.tgz:69004.got - 2010.06.27 23:14:04.
