data_PCOD8073579
_publ_section_title
;
Structure prediction by ZEFSAII (Michael W. Deem and Ramdas Pophale) SiO2 
 PCOD8073579
Probable space group: P 21/M
;
_chemical_formula_sum "Si O2"
_cell_formula_units_Z 24
_cell_length_a 14.892273
_cell_length_b 9.102605
_cell_length_c 14.649742
_cell_angle_alpha 90.000000
_cell_angle_beta 139.432159
_cell_angle_gamma 90.000000
_cell_volume 1291.523874
_symmetry_space_group_name_H-M "P 21/M"
_symmetry_group_IT_number 11
_symmetry_cell_setting 'monoclinic'
loop_
_space_group_symop_operation_xyz
x,y,z
-x,1/2+y,-z
-x,-y,-z
x,1/2-y,z
loop_
_atom_site_type_symbol
_atom_site_label
_atom_site_fract_x
_atom_site_fract_y
_atom_site_fract_z
Si Si1 0.297496 0.078217 0.884958
Si Si2 0.576850 0.576824 0.374788
Si Si3 0.803189 0.580619 0.695264
Si Si4 0.732631 0.077356 0.822635
Si Si5 0.890835 0.079479 0.124785
Si Si6 0.589800 0.077956 0.197344
O O1 0.278742 0.250000 0.852603
O O2 0.164451 0.015223 0.833625
O O3 0.308765 0.997515 0.796846
O O4 0.431565 0.043674 0.049649
O O5 0.582820 0.750000 0.358792
O O6 0.680199 0.528933 0.534565
O O7 0.425159 0.525848 0.288455
O O8 0.622770 0.490823 0.320432
O O9 0.786726 0.750000 0.708565
O O10 0.800678 0.492263 0.786625
O O11 0.946437 0.551176 0.754442
O O12 0.743103 0.250000 0.818883
O O13 0.818999 0.023565 0.976573
O O14 0.855054 0.250000 0.114084
O O15 0.620991 0.250000 0.222942
#
# Coordination Sequence:
#
# PCOD8073579 Si02
#       6
#     4   4   4   4   4   4
#     4  10  20  34  56  84 109 137 175 221 268 317
#     4  10  20  36  55  79 110 143 179 221 267 314
#     4  10  22  36  53  78 111 146 179 220 268 316
#     4  10  20  34  55  78 105 144 185 224 264 310
#     4  10  20  36  55  79 110 143 179 221 267 314
#     4  10  20  34  56  84 109 137 175 221 268 317
#
# _framework density 18.582699000000002
#
# number of rings (size 3 to 8) (size 9 to 14) (size 15 to 20)
#    0.000    2.000    1.667    2.000    0.000    4.000 
#    0.000    0.833    0.000    0.000    0.000    0.000 
#    0.000    0.000    0.000    0.000    0.000    0.000 
#
# Total GULP energy -297736.794409 kJ/mol
# GULP energy per Si atom -12405.699767 kJ/mol
# Density = 1.854040 g / cm^3
# Si number density = 18.582699 Si / 1000 Ang^3
#
#
#
# Elastic Constant Matrix: (Units=GPa)
#
#
# Indices 1 2 3 4 5 6 
#
# 1 97.2893 40.9116 11.5300 0.0000 -8.7259 0.0000
# 2 40.9116 58.4758 12.2602 0.0000 -6.2439 0.0000
# 3 11.5300 12.2602 47.8910 0.0000 12.0355 0.0000
# 4 0.0000 0.0000 0.0000 17.6799 0.0000 -7.5018
# 5 -8.7259 -6.2439 12.0355 0.0000 25.1267 0.0000
# 6 0.0000 0.0000 0.0000 -7.5018 0.0000 39.5205
#
#
#
# Elastic Compliance Matrix: (Units=1/GPa)
#
#
# Indices 1 2 3 4 5 6 
#
# 1 0.014894 -0.009578 -0.002087 0.000000 0.003792 0.000000
# 2 -0.009578 0.025613 -0.005701 0.000000 0.005770 0.000000
# 3 -0.002087 -0.005701 0.026580 0.000000 -0.014873 0.000000
# 4 0.000000 0.000000 0.000000 0.061516 0.000000 0.011677
# 5 0.003792 0.005770 -0.014873 0.000000 0.049673 0.000000
# 6 0.000000 0.000000 0.000000 0.011677 0.000000 0.027520
#
#
# Mechanical properties :
#
#
# Convention : Reuss Voigt Hill
#
# Bulk Modulus (GPa) = 30.90585 37.00664 33.95625
# Shear Modulus (GPa) = 19.89552 25.72903 22.81228
#
# Velocity S-wave (km/s) = 3.27563 3.72502 3.50753
# Velocity P-wave (km/s) = 5.56542 6.20152 5.89206
#
# Compressibility (1/GPa) = 0.03235633
#
# Stress axis : x y z
#
# Youngs Moduli (GPa) = 67.14328 39.04223 37.62158
#
# Poissons Ratio (x) = 0.37393 0.07850
# Poissons Ratio (y) = 0.64307 0.21449
# Poissons Ratio (z) = 0.14011 0.22259
#
# Static dielectric constant tensor:
#      x y z
#    x 3.378930 0.000000 0.027670 
#    y 0.000000 3.283380 0.000000 
#    z 0.027670 0.000000 3.371430 
# 
# 
# High freq. dielectric constant tensor:
#      x y z
#    x 1.730090 0.000000 -0.003400 
#    y 0.000000 1.718740 0.000000 
#    z -0.003400 0.000000 1.709820 
# 
# From -- ./inp_files/43171.got.cif
#   From: 2010.06.25/outbox.cif.g09.slc.cpg/sg11_22_cif.got.tgz:43171.got - 2010.06.27 23:14:04.
