data_PCOD8073597
_publ_section_title
;
Structure prediction by ZEFSAII (Michael W. Deem and Ramdas Pophale) SiO2 
 PCOD8073597
Probable space group: P 21/M
;
_chemical_formula_sum "Si O2"
_cell_formula_units_Z 28
_cell_length_a 13.761321
_cell_length_b 9.256222
_cell_length_c 17.442692
_cell_angle_alpha 90.000000
_cell_angle_beta 136.469086
_cell_angle_gamma 90.000000
_cell_volume 1530.264122
_symmetry_space_group_name_H-M "P 21/M"
_symmetry_group_IT_number 11
_symmetry_cell_setting 'monoclinic'
loop_
_space_group_symop_operation_xyz
x,y,z
-x,1/2+y,-z
-x,-y,-z
x,1/2-y,z
loop_
_atom_site_type_symbol
_atom_site_label
_atom_site_fract_x
_atom_site_fract_y
_atom_site_fract_z
Si Si1 0.662694 0.580164 0.936880
Si Si2 0.184875 0.917485 0.846192
Si Si3 0.392036 0.585348 0.240276
Si Si4 0.640754 0.081055 0.605002
Si Si5 0.342716 0.581049 0.785463
Si Si6 0.288448 0.084424 0.608483
Si Si7 0.140600 0.083245 0.371047
O O1 0.687012 0.750000 0.948679
O O2 0.685922 0.518302 0.864807
O O3 0.507024 0.537661 0.877694
O O4 0.777282 0.509779 0.057837
O O5 0.216136 0.750000 0.880954
O O6 0.278569 0.973755 0.828700
O O7 0.023133 0.945272 0.734412
O O8 0.366545 0.750000 0.199687
O O9 0.328726 0.555894 0.287729
O O10 0.558062 0.550097 0.338616
O O11 0.621947 0.250000 0.575667
O O12 0.500000 0.000000 0.500000
O O13 0.774975 0.018741 0.638001
O O14 0.319581 0.750000 0.762429
O O15 0.258933 0.508041 0.667548
O O16 0.274242 0.250000 0.624806
O O17 0.175880 0.042115 0.478997
O O18 0.182689 0.250000 0.379539
#
# Coordination Sequence:
#
# PCOD8073597 Si02
#       7
#     4   4   4   4   4   4   4
#     4  10  20  34  55  81 108 136 181 232 267 312
#     4  10  21  37  55  74 108 150 182 220 271 325
#     4   9  18  34  55  79 107 138 174 215 267 321
#     4  11  21  35  58  85 111 141 177 220 266 321
#     4   9  19  34  53  80 107 139 182 226 270 316
#     4   9  17  32  52  77 108 140 174 218 268 320
#     4  10  21  37  54  78 111 146 182 219 268 325
#
# _framework density 18.297495000000001
#
# number of rings (size 3 to 8) (size 9 to 14) (size 15 to 20)
#    0.000    2.286    1.429    1.286    0.000    4.000 
#    0.000    0.714    0.000    0.000    0.000    0.000 
#    0.000    0.000    0.000    0.000    0.000    0.000 
#
# Total GULP energy -347295.373565 kJ/mol
# GULP energy per Si atom -12403.406199 kJ/mol
# Density = 1.825585 g / cm^3
# Si number density = 18.297495 Si / 1000 Ang^3
#
#
#
# Elastic Constant Matrix: (Units=GPa)
#
#
# Indices 1 2 3 4 5 6 
#
# 1 42.7813 30.4766 31.6847 0.0000 -13.7907 0.0000
# 2 30.4766 76.2245 58.6275 0.0000 -12.3799 0.0000
# 3 31.6847 58.6275 132.9155 0.0000 -18.8768 0.0000
# 4 0.0000 0.0000 0.0000 33.2428 0.0000 -6.6029
# 5 -13.7907 -12.3799 -18.8768 0.0000 22.4257 0.0000
# 6 0.0000 0.0000 0.0000 -6.6029 0.0000 28.5788
#
#
#
# Elastic Compliance Matrix: (Units=1/GPa)
#
#
# Indices 1 2 3 4 5 6 
#
# 1 0.037655 -0.011094 -0.001890 0.000000 0.015441 0.000000
# 2 -0.011094 0.023457 -0.007760 0.000000 -0.000405 0.000000
# 3 -0.001890 -0.007760 0.012066 0.000000 0.004711 0.000000
# 4 0.000000 0.000000 0.000000 0.031529 0.000000 0.007284
# 5 0.015441 -0.000405 0.004711 0.000000 0.057829 0.000000
# 6 0.000000 0.000000 0.000000 0.007284 0.000000 0.036674
#
#
# Mechanical properties :
#
#
# Convention : Reuss Voigt Hill
#
# Bulk Modulus (GPa) = 31.55472 54.83322 43.19397
# Shear Modulus (GPa) = 19.89967 25.59162 22.74565
#
# Velocity S-wave (km/s) = 3.30140 3.74390 3.52959
# Velocity P-wave (km/s) = 5.64049 6.98009 6.34574
#
# Compressibility (1/GPa) = 0.03169098
#
# Stress axis : x y z
#
# Youngs Moduli (GPa) = 26.55686 42.63047 82.87916
#
# Poissons Ratio (x) = 0.47295 0.15663
# Poissons Ratio (y) = 0.29463 0.64311
# Poissons Ratio (z) = 0.05019 0.33080
#
# Static dielectric constant tensor:
#      x y z
#    x 3.339010 0.000000 -0.148160 
#    y 0.000000 3.371860 0.000000 
#    z -0.148160 0.000000 3.334160 
# 
# 
# High freq. dielectric constant tensor:
#      x y z
#    x 1.698600 0.000000 -0.015270 
#    y 0.000000 1.709340 0.000000 
#    z -0.015270 0.000000 1.709190 
# 
# From -- ./inp_files/37678.got.cif
#   From: 2010.06.25/outbox.cif.g09.slc.cpg/sg11_19_cif.got.tgz:37678.got - 2010.06.27 23:14:04.
