data_PCOD8073811
_publ_section_title
;
Structure prediction by ZEFSAII (Michael W. Deem and Ramdas Pophale) SiO2 
 PCOD8073811
Probable space group: P 21/M
;
_chemical_formula_sum "Si O2"
_cell_formula_units_Z 32
_cell_length_a 11.927437
_cell_length_b 14.061441
_cell_length_c 18.270353
_cell_angle_alpha 90.000000
_cell_angle_beta 149.043260
_cell_angle_gamma 90.000000
_cell_volume 1576.220755
_symmetry_space_group_name_H-M "P 21/M"
_symmetry_group_IT_number 11
_symmetry_cell_setting 'monoclinic'
loop_
_space_group_symop_operation_xyz
x,y,z
-x,1/2+y,-z
-x,-y,-z
x,1/2-y,z
loop_
_atom_site_type_symbol
_atom_site_label
_atom_site_fract_x
_atom_site_fract_y
_atom_site_fract_z
Si Si1 0.982971 0.016208 0.199327
Si Si2 0.118454 0.469551 0.431130
Si Si3 0.613502 0.902084 0.044507
Si Si4 0.410685 0.645818 0.069242
Si Si5 0.202516 0.005057 0.168244
Si Si6 0.600172 0.361510 0.357837
Si Si7 0.480708 0.138839 0.711855
Si Si8 0.723156 0.355284 0.260775
O O1 0.862737 0.918251 0.157558
O O2 0.133258 0.003711 0.213605
O O3 0.798202 0.092208 0.078001
O O4 0.130595 0.049634 0.350578
O O5 0.205340 0.576808 0.495521
O O6 0.253472 0.391539 0.550574
O O7 0.873393 0.445123 0.321186
O O8 0.601049 0.845121 0.114363
O O9 0.485042 0.849296 0.908559
O O10 0.500000 0.000000 0.000000
O O11 0.325860 0.750000 0.042433
O O12 0.505908 0.599575 0.196938
O O13 0.328313 0.906933 0.228488
O O14 0.361632 0.095511 0.243781
O O15 0.000000 0.000000 0.000000
O O16 0.612200 0.250000 0.388706
O O17 0.631155 0.374093 0.289343
O O18 0.505259 0.250000 0.720542
O O19 0.837286 0.250000 0.321017
#
# Coordination Sequence:
#
# PCOD8073811 Si02
#       8
#     4   4   4   4   4   4   4   4
#     4  11  23  39  63  91 120 168 212 248 314 373
#     4  11  23  40  66  89 128 165 207 255 316 375
#     4  10  20  34  60  89 126 153 202 262 311 363
#     4  10  20  37  61  89 123 159 203 257 309 366
#     4  11  22  41  67  88 122 166 211 256 309 363
#     4  10  25  42  61  91 128 167 210 257 312 375
#     4  10  23  40  62  94 126 160 210 264 310 366
#     4  11  21  38  64  95 126 165 211 256 316 375
#
# _framework density 20.301725000000001
#
# number of rings (size 3 to 8) (size 9 to 14) (size 15 to 20)
#    0.000    1.500    3.750    1.875    5.250    4.500 
#    0.000    5.625    0.000    0.000    0.000    0.000 
#    0.000    0.000    0.000    0.000    0.000    0.000 
#
# Total GULP energy -396536.089309 kJ/mol
# GULP energy per Si atom -12391.752791 kJ/mol
# Density = 2.025552 g / cm^3
# Si number density = 20.301725 Si / 1000 Ang^3
#
#
#
# Elastic Constant Matrix: (Units=GPa)
#
#
# Indices 1 2 3 4 5 6 
#
# 1 166.7833 39.5798 57.2332 0.0000 -24.1670 0.0000
# 2 39.5798 113.5469 37.7913 0.0000 -4.9829 0.0000
# 3 57.2332 37.7913 109.7304 0.0000 -24.7000 0.0000
# 4 0.0000 0.0000 0.0000 21.4258 0.0000 3.8860
# 5 -24.1670 -4.9829 -24.7000 0.0000 37.9295 0.0000
# 6 0.0000 0.0000 0.0000 3.8860 0.0000 20.7694
#
#
#
# Elastic Compliance Matrix: (Units=1/GPa)
#
#
# Indices 1 2 3 4 5 6 
#
# 1 0.007779 -0.001639 -0.002842 0.000000 0.002890 0.000000
# 2 -0.001639 0.010330 -0.003085 0.000000 -0.001696 0.000000
# 3 -0.002842 -0.003085 0.013076 0.000000 0.006299 0.000000
# 4 0.000000 0.000000 0.000000 0.048312 0.000000 -0.009039
# 5 0.002890 -0.001696 0.006299 0.000000 0.032085 0.000000
# 6 0.000000 0.000000 0.000000 -0.009039 0.000000 0.049839
#
#
# Mechanical properties :
#
#
# Convention : Reuss Voigt Hill
#
# Bulk Modulus (GPa) = 62.29148 73.25213 67.77180
# Shear Modulus (GPa) = 27.48692 33.05536 30.27114
#
# Velocity S-wave (km/s) = 3.68356 4.03948 3.86562
# Velocity P-wave (km/s) = 6.98863 7.61029 7.30608
#
# Compressibility (1/GPa) = 0.01605356
#
# Stress axis : x y z
#
# Youngs Moduli (GPa) = 128.55379 96.80135 76.47552
#
# Poissons Ratio (x) = 0.15863 0.21737
# Poissons Ratio (y) = 0.21066 0.23591
# Poissons Ratio (z) = 0.36540 0.29862
#
# Static dielectric constant tensor:
#      x y z
#    x 4.367770 0.000000 -0.118940 
#    y 0.000000 4.032970 0.000000 
#    z -0.118940 0.000000 4.131120 
# 
# 
# High freq. dielectric constant tensor:
#      x y z
#    x 1.794540 0.000000 -0.017280 
#    y 0.000000 1.791540 0.000000 
#    z -0.017280 0.000000 1.794310 
# 
# From -- ./inp_files/59483.got.cif
#   From: 2010.06.25/outbox.cif.g09.slc.cpg/sg11_30_cif.got.tgz:59483.got - 2010.06.27 23:14:04.
