data_PCOD8073404
_publ_section_title
;
Structure prediction by ZEFSAII (Michael W. Deem and Ramdas Pophale) SiO2 
 PCOD8073404
Probable space group: P 21/M
;
_chemical_formula_sum "Si O2"
_cell_formula_units_Z 28
_cell_length_a 15.842046
_cell_length_b 9.127282
_cell_length_c 18.220145
_cell_angle_alpha 90.000000
_cell_angle_beta 144.398035
_cell_angle_gamma 90.000000
_cell_volume 1533.698906
_symmetry_space_group_name_H-M "P 21/M"
_symmetry_group_IT_number 11
_symmetry_cell_setting 'monoclinic'
loop_
_space_group_symop_operation_xyz
x,y,z
-x,1/2+y,-z
-x,-y,-z
x,1/2-y,z
loop_
_atom_site_type_symbol
_atom_site_label
_atom_site_fract_x
_atom_site_fract_y
_atom_site_fract_z
Si Si1 0.339901 0.923410 0.590729
Si Si2 0.827462 0.414440 0.945042
Si Si3 0.388386 0.414786 0.129173
Si Si4 0.638350 0.424591 0.560615
Si Si5 0.845856 0.075061 0.405546
Si Si6 0.832843 0.584233 0.805228
Si Si7 0.427943 0.914399 0.882830
O O1 0.339559 0.750000 0.593722
O O2 0.491429 0.979388 0.730393
O O3 0.331866 0.979648 0.501491
O O4 0.208687 0.976145 0.551585
O O5 0.776141 0.250000 0.891313
O O6 0.749546 0.477941 0.962260
O O7 0.779532 0.519197 0.844584
O O8 0.996049 0.418630 0.079544
O O9 0.342026 0.250000 0.117810
O O10 0.447493 0.418421 0.089485
O O11 0.500000 0.500000 0.500000
O O12 0.621043 0.250000 0.552321
O O13 0.778862 0.478824 0.702934
O O14 0.863625 0.250000 0.414958
O O15 0.724822 0.024761 0.259064
O O16 0.000000 0.000000 0.500000
O O17 0.771901 0.750000 0.754683
O O18 0.398961 0.750000 0.889449
O O19 0.500000 0.000000 0.000000
#
# Coordination Sequence:
#
# PCOD8073404 Si02
#       7
#     4   4   4   4   4   4   4
#     4   8  17  34  54  75 103 137 173 213 259 316
#     4  10  20  34  53  76 101 135 176 218 265 312
#     4   9  17  33  56  77 100 135 174 213 264 319
#     4  11  21  34  54  79 106 139 177 219 266 315
#     4   9  18  36  58  80 107 142 182 224 274 328
#     4  10  21  36  51  71 105 141 173 215 261 312
#     4   9  19  35  55  80 110 142 179 224 274 329
#
# _framework density 18.256516999999999
#
# number of rings (size 3 to 8) (size 9 to 14) (size 15 to 20)
#    0.000    2.571    0.000    3.857    0.000    4.000 
#    2.571    4.286    0.000    0.000    0.000    0.000 
#    0.000    0.000    0.000    0.000    0.000    0.000 
#
# Total GULP energy -347015.091324 kJ/mol
# GULP energy per Si atom -12393.396119 kJ/mol
# Density = 1.821496 g / cm^3
# Si number density = 18.256517 Si / 1000 Ang^3
#
#
#
# Elastic Constant Matrix: (Units=GPa)
#
#
# Indices 1 2 3 4 5 6 
#
# 1 111.0628 52.7983 55.8212 0.0000 2.5555 0.0000
# 2 52.7983 82.3712 48.4318 0.0000 1.7494 0.0000
# 3 55.8212 48.4318 83.9600 0.0000 -19.6939 0.0000
# 4 0.0000 0.0000 0.0000 33.0680 0.0000 1.9060
# 5 2.5555 1.7494 -19.6939 0.0000 27.9965 0.0000
# 6 0.0000 0.0000 0.0000 1.9060 0.0000 31.6148
#
#
#
# Elastic Compliance Matrix: (Units=1/GPa)
#
#
# Indices 1 2 3 4 5 6 
#
# 1 0.016527 -0.004150 -0.010644 0.000000 -0.008736 0.000000
# 2 -0.004150 0.022282 -0.012373 0.000000 -0.009717 0.000000
# 3 -0.010644 -0.012373 0.031777 0.000000 0.024098 0.000000
# 4 0.000000 0.000000 0.000000 0.030346 0.000000 -0.001830
# 5 -0.008736 -0.009717 0.024098 0.000000 0.054075 0.000000
# 6 0.000000 0.000000 0.000000 -0.001830 0.000000 0.031741
#
#
# Mechanical properties :
#
#
# Convention : Reuss Voigt Hill
#
# Bulk Modulus (GPa) = 61.53060 65.72184 63.62622
# Shear Modulus (GPa) = 20.28406 26.55872 23.42139
#
# Velocity S-wave (km/s) = 3.33687 3.81826 3.58565
# Velocity P-wave (km/s) = 6.97301 7.45091 7.21592
#
# Compressibility (1/GPa) = 0.01625208
#
# Stress axis : x y z
#
# Youngs Moduli (GPa) = 60.50542 44.87986 31.46959
#
# Poissons Ratio (x) = 0.18625 0.33495
# Poissons Ratio (y) = 0.25110 0.38938
# Poissons Ratio (z) = 0.64400 0.55531
#
# Static dielectric constant tensor:
#      x y z
#    x 3.505120 0.000000 -0.091690 
#    y 0.000000 3.382320 0.000000 
#    z -0.091690 0.000000 3.395410 
# 
# 
# High freq. dielectric constant tensor:
#      x y z
#    x 1.712130 0.000000 0.002950 
#    y 0.000000 1.698090 0.000000 
#    z 0.002950 0.000000 1.701090 
# 
# From -- ./inp_files/60155.got.cif
#   From: 2010.06.25/outbox.cif.g09.slc.cpg/sg11_31_cif.got.tgz:60155.got - 2010.06.27 23:14:04.
