data_PCOD8073802
_publ_section_title
;
Structure prediction by ZEFSAII (Michael W. Deem and Ramdas Pophale) SiO2 
 PCOD8073802
Probable space group: P 21/M
;
_chemical_formula_sum "Si O2"
_cell_formula_units_Z 32
_cell_length_a 13.932575
_cell_length_b 8.859625
_cell_length_c 23.736009
_cell_angle_alpha 90.000000
_cell_angle_beta 146.722541
_cell_angle_gamma 90.000000
_cell_volume 1607.624456
_symmetry_space_group_name_H-M "P 21/M"
_symmetry_group_IT_number 11
_symmetry_cell_setting 'monoclinic'
loop_
_space_group_symop_operation_xyz
x,y,z
-x,1/2+y,-z
-x,-y,-z
x,1/2-y,z
loop_
_atom_site_type_symbol
_atom_site_label
_atom_site_fract_x
_atom_site_fract_y
_atom_site_fract_z
Si Si1 0.476469 0.072637 0.928315
Si Si2 0.185511 0.575125 0.715961
Si Si3 0.514884 0.072638 0.567861
Si Si4 0.156760 0.928305 0.195873
Si Si5 0.194867 0.570963 0.985054
Si Si6 0.691568 0.426932 0.344733
Si Si7 0.794708 0.575670 0.506324
Si Si8 0.710327 0.571247 0.852202
O O1 0.476867 0.250000 0.935790
O O2 0.631716 0.019599 0.963077
O O3 0.290851 0.020722 0.813016
O O4 0.500000 0.000000 0.000000
O O5 0.239671 0.750000 0.748180
O O6 0.230755 0.514037 0.675954
O O7 0.980586 0.550679 0.627946
O O8 0.493080 0.250000 0.549948
O O9 0.699249 0.029658 0.686632
O O10 0.358118 0.006697 0.529615
O O11 0.500000 0.000000 0.500000
O O12 0.152060 0.750000 0.182312
O O13 0.194823 0.015626 0.157029
O O14 0.970167 0.990117 0.126252
O O15 0.169808 0.750000 0.971641
O O16 0.203309 0.512978 0.052943
O O17 0.714058 0.250000 0.360706
O O18 0.801284 0.498733 0.448866
O O19 0.491019 0.477383 0.250791
O O20 0.756480 0.750000 0.476440
O O21 0.733922 0.750000 0.871209
#
# Coordination Sequence:
#
# PCOD8073802 Si02
#       8
#     4   4   4   4   4   4   4   4
#     4  11  25  43  64  87 117 157 201 250 300 353
#     4  10  21  39  62  90 123 156 194 242 297 354
#     4  10  23  41  60  84 114 154 199 243 293 343
#     4  11  23  40  62  89 122 159 198 245 297 355
#     4  11  24  41  62  90 120 156 199 245 299 356
#     4  10  20  34  58  91 123 156 193 238 293 351
#     4  10  21  38  61  88 121 157 194 241 294 353
#     4  11  21  36  61  91 123 159 195 242 297 353
#
# _framework density 19.905145999999998
#
# number of rings (size 3 to 8) (size 9 to 14) (size 15 to 20)
#    0.000    1.500    2.500    2.250    0.000    5.500 
#    0.000    3.750    0.000    0.000    0.000    0.000 
#    0.000    0.000    0.000    0.000    0.000    0.000 
#
# Total GULP energy -396964.271645 kJ/mol
# GULP energy per Si atom -12405.133489 kJ/mol
# Density = 1.985984 g / cm^3
# Si number density = 19.905146 Si / 1000 Ang^3
#
#
#
# Elastic Constant Matrix: (Units=GPa)
#
#
# Indices 1 2 3 4 5 6 
#
# 1 63.1816 26.9904 53.6683 0.0000 -14.7402 0.0000
# 2 26.9904 52.3102 45.2422 0.0000 -0.9273 0.0000
# 3 53.6683 45.2422 138.2542 0.0000 -5.3310 0.0000
# 4 0.0000 0.0000 0.0000 37.3793 0.0000 -4.1270
# 5 -14.7402 -0.9273 -5.3310 0.0000 36.7789 0.0000
# 6 0.0000 0.0000 0.0000 -4.1270 0.0000 31.6430
#
#
#
# Elastic Compliance Matrix: (Units=1/GPa)
#
#
# Indices 1 2 3 4 5 6 
#
# 1 0.028214 -0.007309 -0.008177 0.000000 0.009938 0.000000
# 2 -0.007309 0.028569 -0.006634 0.000000 -0.003171 0.000000
# 3 -0.008177 -0.006634 0.012515 0.000000 -0.001631 0.000000
# 4 0.000000 0.000000 0.000000 0.027144 0.000000 0.003540
# 5 0.009938 -0.003171 -0.001631 0.000000 0.030856 0.000000
# 6 0.000000 0.000000 0.000000 0.003540 0.000000 0.032064
#
#
# Mechanical properties :
#
#
# Convention : Reuss Voigt Hill
#
# Bulk Modulus (GPa) = 39.90694 56.17199 48.03946
# Shear Modulus (GPa) = 23.58964 29.68322 26.63643
#
# Velocity S-wave (km/s) = 3.44627 3.86584 3.66207
# Velocity P-wave (km/s) = 5.99398 6.94315 6.48595
#
# Compressibility (1/GPa) = 0.02505830
#
# Stress axis : x y z
#
# Youngs Moduli (GPa) = 35.44279 35.00246 79.90115
#
# Poissons Ratio (x) = 0.25584 0.65339
# Poissons Ratio (y) = 0.25905 0.53007
# Poissons Ratio (z) = 0.28983 0.23221
#
# Static dielectric constant tensor:
#      x y z
#    x 3.632210 0.000000 0.372600 
#    y 0.000000 3.528560 0.000000 
#    z 0.372600 0.000000 3.522950 
# 
# 
# High freq. dielectric constant tensor:
#      x y z
#    x 1.776390 0.000000 0.010150 
#    y 0.000000 1.773220 0.000000 
#    z 0.010150 0.000000 1.789700 
# 
# From -- ./inp_files/69157.got.cif
#   From: 2010.06.25/outbox.cif.g09.slc.cpg/sg11_35_cif.got.tgz:69157.got - 2010.06.27 23:14:04.
