data_PCOD8073978
_publ_section_title
;
Structure prediction by ZEFSAII (Michael W. Deem and Ramdas Pophale) SiO2 
 PCOD8073978
Probable space group: P 21/M
;
_chemical_formula_sum "Si O2"
_cell_formula_units_Z 32
_cell_length_a 31.192685
_cell_length_b 8.984072
_cell_length_c 11.951622
_cell_angle_alpha 90.000000
_cell_angle_beta 30.128016
_cell_angle_gamma 90.000000
_cell_volume 1681.121869
_symmetry_space_group_name_H-M "P 21/M"
_symmetry_group_IT_number 11
_symmetry_cell_setting 'monoclinic'
loop_
_space_group_symop_operation_xyz
x,y,z
-x,1/2+y,-z
-x,-y,-z
x,1/2-y,z
loop_
_atom_site_type_symbol
_atom_site_label
_atom_site_fract_x
_atom_site_fract_y
_atom_site_fract_z
Si Si1 0.527940 0.074377 0.551120
Si Si2 0.229786 0.923095 0.191267
Si Si3 0.385004 0.920757 0.001927
Si Si4 0.295025 0.421018 0.831744
Si Si5 0.261601 0.421017 0.658880
Si Si6 0.915780 0.423520 0.315452
Si Si7 0.893013 0.574429 0.140664
Si Si8 0.591065 0.077962 0.799727
O O1 0.526772 0.250000 0.539552
O O2 0.500000 0.000000 0.500000
O O3 0.621999 0.021788 0.368307
O O4 0.464406 0.025593 0.792677
O O5 0.237232 0.750000 0.142660
O O6 0.303100 0.967853 0.114261
O O7 0.138279 0.961485 0.451952
O O8 0.236319 0.020620 0.064983
O O9 0.410441 0.750000 0.919765
O O10 0.365389 0.944166 0.176997
O O11 0.320726 0.250000 0.797021
O O12 0.243636 0.436690 0.831733
O O13 0.277774 0.250000 0.589249
O O14 0.178000 0.485471 0.785311
O O15 0.345924 0.510696 0.434669
O O16 0.910057 0.250000 0.300248
O O17 0.874152 0.507103 0.304540
O O18 0.013395 0.475653 0.114643
O O19 0.888261 0.750000 0.161705
O O20 0.577008 0.250000 0.803080
O O21 0.500000 0.000000 0.000000
#
# Coordination Sequence:
#
# PCOD8073978 Si02
#       8
#     4   4   4   4   4   4   4   4
#     4  12  23  36  55  79 107 142 184 227 274 325
#     4  10  20  35  55  79 108 142 180 226 279 329
#     4  10  21  36  54  78 109 142 180 227 277 326
#     4  11  23  38  55  77 108 147 190 232 274 324
#     4  10  22  39  57  79 112 152 189 228 275 328
#     4   9  18  34  58  87 115 142 178 227 280 330
#     4   9  18  35  59  85 113 147 183 222 274 333
#     4  11  23  38  57  82 112 146 184 229 276 328
#
# _framework density 19.034908000000001
#
# number of rings (size 3 to 8) (size 9 to 14) (size 15 to 20)
#    0.000    1.750    1.250    3.375    0.000    7.000 
#    0.000    0.625    0.000    0.000    0.000    0.000 
#    0.000    0.000    0.000    0.000    0.000    0.000 
#
# Total GULP energy -396906.045962 kJ/mol
# GULP energy per Si atom -12403.313936 kJ/mol
# Density = 1.899158 g / cm^3
# Si number density = 19.034908 Si / 1000 Ang^3
#
#
#
# Elastic Constant Matrix: (Units=GPa)
#
#
# Indices 1 2 3 4 5 6 
#
# 1 110.0304 40.6347 49.0714 0.0000 0.1387 0.0000
# 2 40.6347 83.9891 42.1327 0.0000 3.2696 0.0000
# 3 49.0714 42.1327 112.1821 0.0000 4.3270 0.0000
# 4 0.0000 0.0000 0.0000 29.5728 0.0000 5.9937
# 5 0.1387 3.2696 4.3270 0.0000 29.9865 0.0000
# 6 0.0000 0.0000 0.0000 5.9937 0.0000 27.5798
#
#
#
# Elastic Compliance Matrix: (Units=1/GPa)
#
#
# Indices 1 2 3 4 5 6 
#
# 1 0.012322 -0.004037 -0.003910 0.000000 0.000947 0.000000
# 2 -0.004037 0.016012 -0.004205 0.000000 -0.001121 0.000000
# 3 -0.003910 -0.004205 0.012254 0.000000 -0.001292 0.000000
# 4 0.000000 0.000000 0.000000 0.035373 0.000000 -0.007687
# 5 0.000947 -0.001121 -0.001292 0.000000 0.033652 0.000000
# 6 0.000000 0.000000 0.000000 -0.007687 0.000000 0.037929
#
#
# Mechanical properties :
#
#
# Convention : Reuss Voigt Hill
#
# Bulk Modulus (GPa) = 61.41008 63.31993 62.36501
# Shear Modulus (GPa) = 28.20494 29.05202 28.62848
#
# Velocity S-wave (km/s) = 3.85352 3.91096 3.88235
# Velocity P-wave (km/s) = 7.22021 7.33018 7.27540
#
# Compressibility (1/GPa) = 0.01628397
#
# Stress axis : x y z
#
# Youngs Moduli (GPa) = 81.15603 62.45220 81.60854
#
# Poissons Ratio (x) = 0.25210 0.31912
# Poissons Ratio (y) = 0.32760 0.34315
# Poissons Ratio (z) = 0.31735 0.26260
#
# Static dielectric constant tensor:
#      x y z
#    x 3.370050 0.000000 0.058410 
#    y 0.000000 3.375510 0.000000 
#    z 0.058410 0.000000 3.560370 
# 
# 
# High freq. dielectric constant tensor:
#      x y z
#    x 1.739140 0.000000 0.004810 
#    y 0.000000 1.739400 0.000000 
#    z 0.004810 0.000000 1.738320 
# 
# From -- ./inp_files/45218.got.cif
#   From: 2010.06.25/outbox.cif.g09.slc.cpg/sg11_23_cif.got.tgz:45218.got - 2010.06.27 23:14:04.
