data_PCOD8073660
_publ_section_title
;
Structure prediction by ZEFSAII (Michael W. Deem and Ramdas Pophale) SiO2 
 PCOD8073660
Probable space group: P 21/M
;
_chemical_formula_sum "Si O2"
_cell_formula_units_Z 32
_cell_length_a 12.831552
_cell_length_b 13.317886
_cell_length_c 19.421134
_cell_angle_alpha 90.000000
_cell_angle_beta 28.496204
_cell_angle_gamma 90.000000
_cell_volume 1583.430368
_symmetry_space_group_name_H-M "P 21/M"
_symmetry_group_IT_number 11
_symmetry_cell_setting 'monoclinic'
loop_
_space_group_symop_operation_xyz
x,y,z
-x,1/2+y,-z
-x,-y,-z
x,1/2-y,z
loop_
_atom_site_type_symbol
_atom_site_label
_atom_site_fract_x
_atom_site_fract_y
_atom_site_fract_z
Si Si1 0.238418 0.869243 0.077351
Si Si2 0.075794 0.507848 0.662134
Si Si3 0.251864 0.867516 0.914441
Si Si4 0.490865 0.038043 0.354914
Si Si5 0.737865 0.362360 0.330672
Si Si6 0.673257 0.630694 0.904233
Si Si7 0.774778 0.637078 0.994062
Si Si8 0.766381 0.631895 0.149719
O O1 0.210695 0.750000 0.092129
O O2 0.025700 0.913461 0.238067
O O3 0.261222 0.913447 0.986544
O O4 0.451350 0.902226 0.996913
O O5 0.226382 0.472656 0.510587
O O6 0.245283 0.566537 0.612978
O O7 0.882828 0.580232 0.745533
O O8 0.290839 0.750000 0.897743
O O9 0.443005 0.909126 0.754790
O O10 0.017421 0.893711 0.018831
O O11 0.552284 0.103011 0.385859
O O12 0.609352 0.929150 0.291914
O O13 0.681425 0.250000 0.388558
O O14 0.964583 0.363644 0.158058
O O15 0.709169 0.750000 0.882588
O O16 0.676744 0.586480 0.981271
O O17 0.684032 0.750000 0.047493
O O18 0.708636 0.589196 0.106065
O O19 0.720972 0.750000 0.184293
#
# Coordination Sequence:
#
# PCOD8073660 Si02
#       8
#     4   4   4   4   4   4   4   4
#     4  10  22  40  62  85 111 152 201 249 290 341
#     4  11  23  37  56  90 116 151 192 244 297 343
#     4  10  21  37  58  83 113 152 195 236 289 349
#     4  12  23  34  55  88 122 156 183 232 300 353
#     4  10  20  36  57  81 116 157 196 230 279 346
#     4   9  19  38  64  84 109 151 204 249 288 338
#     4   8  15  30  55  83 103 139 195 242 278 319
#     4  10  20  34  55  84 117 152 194 238 283 347
#
# _framework density 20.209288000000001
#
# number of rings (size 3 to 8) (size 9 to 14) (size 15 to 20)
#    0.000    2.000    1.250    3.375    3.500    2.000 
#    0.000    1.875    0.000    0.000    0.000    0.000 
#    0.000    0.000    0.000    0.000    0.000    0.000 
#
# Total GULP energy -396732.221438 kJ/mol
# GULP energy per Si atom -12397.881920 kJ/mol
# Density = 2.016329 g / cm^3
# Si number density = 20.209288 Si / 1000 Ang^3
#
#
#
# Elastic Constant Matrix: (Units=GPa)
#
#
# Indices 1 2 3 4 5 6 
#
# 1 102.2170 39.3235 53.2143 0.0000 -4.1775 0.0000
# 2 39.3235 49.9081 46.8186 0.0000 0.1275 0.0000
# 3 53.2143 46.8186 140.1235 0.0000 6.2143 0.0000
# 4 0.0000 0.0000 0.0000 16.6259 0.0000 -1.5163
# 5 -4.1775 0.1275 6.2143 0.0000 15.5883 0.0000
# 6 0.0000 0.0000 0.0000 -1.5163 0.0000 31.8406
#
#
#
# Elastic Compliance Matrix: (Units=1/GPa)
#
#
# Indices 1 2 3 4 5 6 
#
# 1 0.015013 -0.009141 -0.002880 0.000000 0.005246 0.000000
# 2 -0.009141 0.034963 -0.008235 0.000000 0.000547 0.000000
# 3 -0.002880 -0.008235 0.011211 0.000000 -0.005174 0.000000
# 4 0.000000 0.000000 0.000000 0.060409 0.000000 0.002877
# 5 0.005246 0.000547 -0.005174 0.000000 0.067615 0.000000
# 6 0.000000 0.000000 0.000000 0.002877 0.000000 0.031543
#
#
# Mechanical properties :
#
#
# Convention : Reuss Voigt Hill
#
# Bulk Modulus (GPa) = 48.36563 63.44015 55.90289
# Shear Modulus (GPa) = 18.64570 23.00378 20.82474
#
# Velocity S-wave (km/s) = 3.04078 3.37750 3.21355
# Velocity P-wave (km/s) = 6.02601 6.83152 6.44137
#
# Compressibility (1/GPa) = 0.02067584
#
# Stress axis : x y z
#
# Youngs Moduli (GPa) = 66.60685 28.60194 89.19681
#
# Poissons Ratio (x) = 0.26145 0.25689
# Poissons Ratio (y) = 0.60885 0.73451
# Poissons Ratio (z) = 0.19183 0.23553
#
# Static dielectric constant tensor:
#      x y z
#    x 3.675290 0.000000 0.113660 
#    y 0.000000 3.906850 0.000000 
#    z 0.113660 0.000000 3.386240 
# 
# 
# High freq. dielectric constant tensor:
#      x y z
#    x 1.774170 0.000000 0.009070 
#    y 0.000000 1.817900 0.000000 
#    z 0.009070 0.000000 1.758000 
# 
# From -- ./inp_files/59466.got.cif
#   From: 2010.06.25/outbox.cif.g09.slc.cpg/sg11_30_cif.got.tgz:59466.got - 2010.06.27 23:14:04.
