data_PCOD8073112
_publ_section_title
;
Structure prediction by ZEFSAII (Michael W. Deem and Ramdas Pophale) SiO2 
 PCOD8073112
Probable space group: P 21/M
;
_chemical_formula_sum "Si O2"
_cell_formula_units_Z 32
_cell_length_a 30.619197
_cell_length_b 9.613594
_cell_length_c 11.833800
_cell_angle_alpha 90.000000
_cell_angle_beta 150.958962
_cell_angle_gamma 90.000000
_cell_volume 1690.969314
_symmetry_space_group_name_H-M "P 21/M"
_symmetry_group_IT_number 11
_symmetry_cell_setting 'monoclinic'
loop_
_space_group_symop_operation_xyz
x,y,z
-x,1/2+y,-z
-x,-y,-z
x,1/2-y,z
loop_
_atom_site_type_symbol
_atom_site_label
_atom_site_fract_x
_atom_site_fract_y
_atom_site_fract_z
Si Si1 0.141539 0.532186 0.897235
Si Si2 0.336281 0.907752 0.955634
Si Si3 0.852798 0.592902 0.854898
Si Si4 0.528903 0.589878 0.458773
Si Si5 0.054769 0.104248 0.508723
Si Si6 0.204313 0.085001 0.516263
Si Si7 0.682818 0.403112 0.828804
Si Si8 0.059101 0.911602 0.315593
O O1 0.114966 0.400765 0.758671
O O2 0.050248 0.620998 0.696362
O O3 0.174126 0.497413 0.097707
O O4 0.222501 0.612061 0.019902
O O5 0.303765 0.750000 0.855101
O O6 0.292455 0.018433 0.771819
O O7 0.444433 0.916992 0.182021
O O8 0.306071 0.948703 0.014851
O O9 0.839683 0.750000 0.864465
O O10 0.789807 0.558175 0.605280
O O11 0.955534 0.568400 0.048078
O O12 0.500000 0.500000 0.500000
O O13 0.550941 0.750000 0.539417
O O14 0.619482 0.514172 0.618294
O O15 0.081032 0.250000 0.506647
O O16 0.074816 0.969975 0.477563
O O17 0.197906 0.250000 0.527860
O O18 0.116480 0.004487 0.360589
O O19 0.636825 0.250000 0.724341
O O20 0.089031 0.750000 0.380163
#
# Coordination Sequence:
#
# PCOD8073112 Si02
#       8
#     4   4   4   4   4   4   4   4
#     4  10  20  33  52  75 106 140 171 209 257 303
#     4   9  19  35  53  77 109 136 160 201 259 310
#     4   9  20  36  50  70 102 139 176 215 256 296
#     4   9  18  33  54  79 106 134 163 202 254 309
#     4  10  20  33  52  77 104 136 175 215 253 300
#     4  11  21  33  53  77 100 131 176 220 253 298
#     4  10  20  34  54  80 109 136 165 205 253 308
#     4  10  20  35  53  72 101 137 171 214 266 307
#
# _framework density 18.924057999999999
#
# number of rings (size 3 to 8) (size 9 to 14) (size 15 to 20)
#    0.000    2.250    0.000    3.750    0.000    8.000 
#    0.000    6.875    0.000    0.750    0.000    0.000 
#    0.000    0.000    0.000    0.000    0.000    0.000 
#
# Total GULP energy -396482.466102 kJ/mol
# GULP energy per Si atom -12390.077066 kJ/mol
# Density = 1.888099 g / cm^3
# Si number density = 18.924058 Si / 1000 Ang^3
#
#
#
# Elastic Constant Matrix: (Units=GPa)
#
#
# Indices 1 2 3 4 5 6 
#
# 1 63.3825 32.0642 40.3195 0.0000 -10.2516 0.0000
# 2 32.0642 130.7811 53.1925 0.0000 -12.9188 0.0000
# 3 40.3195 53.1925 92.6033 0.0000 -13.2345 0.0000
# 4 0.0000 0.0000 0.0000 7.9366 0.0000 1.5637
# 5 -10.2516 -12.9188 -13.2345 0.0000 24.5184 0.0000
# 6 0.0000 0.0000 0.0000 1.5637 0.0000 16.2424
#
#
#
# Elastic Compliance Matrix: (Units=1/GPa)
#
#
# Indices 1 2 3 4 5 6 
#
# 1 0.022566 -0.001790 -0.008218 0.000000 0.004057 0.000000
# 2 -0.001790 0.010245 -0.004812 0.000000 0.002052 0.000000
# 3 -0.008218 -0.004812 0.017649 0.000000 0.003555 0.000000
# 4 0.000000 0.000000 0.000000 0.128435 0.000000 -0.012365
# 5 0.004057 0.002052 0.003555 0.000000 0.045482 0.000000
# 6 0.000000 0.000000 0.000000 -0.012365 0.000000 0.062758
#
#
# Mechanical properties :
#
#
# Convention : Reuss Voigt Hill
#
# Bulk Modulus (GPa) = 48.02806 59.76880 53.89843
# Shear Modulus (GPa) = 15.44569 20.48554 17.96562
#
# Velocity S-wave (km/s) = 2.86001 3.29373 3.08450
# Velocity P-wave (km/s) = 6.02832 6.79094 6.42096
#
# Compressibility (1/GPa) = 0.02082116
#
# Stress axis : x y z
#
# Youngs Moduli (GPa) = 44.31424 97.60634 56.66017
#
# Poissons Ratio (x) = 0.17467 0.46561
# Poissons Ratio (y) = 0.07930 0.27268
# Poissons Ratio (z) = 0.36415 0.46973
#
# Static dielectric constant tensor:
#      x y z
#    x 3.247160 0.000000 0.124610 
#    y 0.000000 3.574910 0.000000 
#    z 0.124610 0.000000 3.641240 
# 
# 
# High freq. dielectric constant tensor:
#      x y z
#    x 1.702350 0.000000 0.002360 
#    y 0.000000 1.744910 0.000000 
#    z 0.002360 0.000000 1.725660 
# 
# From -- ./inp_files/45264.got.cif
#   From: 2010.06.25/outbox.cif.g09.slc.cpg/sg11_23_cif.got.tgz:45264.got - 2010.06.27 23:14:04.
