data_PCOD8073859
_publ_section_title
;
Structure prediction by ZEFSAII (Michael W. Deem and Ramdas Pophale) SiO2 
 PCOD8073859
Probable space group: P 21/M
;
_chemical_formula_sum "Si O2"
_cell_formula_units_Z 28
_cell_length_a 18.744836
_cell_length_b 8.653700
_cell_length_c 14.912933
_cell_angle_alpha 90.000000
_cell_angle_beta 142.343275
_cell_angle_gamma 90.000000
_cell_volume 1477.874222
_symmetry_space_group_name_H-M "P 21/M"
_symmetry_group_IT_number 11
_symmetry_cell_setting 'monoclinic'
loop_
_space_group_symop_operation_xyz
x,y,z
-x,1/2+y,-z
-x,-y,-z
x,1/2-y,z
loop_
_atom_site_type_symbol
_atom_site_label
_atom_site_fract_x
_atom_site_fract_y
_atom_site_fract_z
Si Si1 0.909769 0.430410 0.730242
Si Si2 0.732301 0.577528 0.433483
Si Si3 0.768261 0.567993 0.750231
Si Si4 0.625295 0.571330 0.868165
Si Si5 0.539595 0.068273 0.132727
Si Si6 0.558169 0.921432 0.425961
Si Si7 0.843339 0.429478 0.010068
O O1 0.891001 0.250000 0.729716
O O2 0.845693 0.478268 0.573972
O O3 0.860459 0.526443 0.764884
O O4 0.045361 0.468351 0.854166
O O5 0.771495 0.750000 0.444811
O O6 0.647198 0.582672 0.432681
O O7 0.666227 0.499721 0.283970
O O8 0.779443 0.750000 0.781519
O O9 0.634819 0.525201 0.588156
O O10 0.797415 0.469206 0.865820
O O11 0.659094 0.750000 0.901336
O O12 0.556366 0.521228 0.888593
O O13 0.742746 0.470828 0.981574
O O14 0.546342 0.538855 0.700821
O O15 0.551887 0.250000 0.137935
O O16 0.500000 0.000000 0.000000
O O17 0.505478 0.750000 0.388314
O O18 0.875421 0.250000 0.048210
#
# Coordination Sequence:
#
# PCOD8073859 Si02
#       7
#     4   4   4   4   4   4   4
#     4  11  21  35  54  76 105 140 181 223 262 307
#     4   9  17  32  54  80 108 137 173 214 257 306
#     4  10  20  35  53  75 103 137 182 228 266 305
#     4  10  21  36  53  76 106 138 173 213 261 316
#     4  10  20  35  59  88 113 137 168 209 259 314
#     4   8  16  31  51  73 100 135 172 214 261 308
#     4  12  24  36  51  72 102 142 183 222 266 311
#
# _framework density 18.946131000000001
#
# number of rings (size 3 to 8) (size 9 to 14) (size 15 to 20)
#    0.000    2.000    0.000    5.571    0.000    6.286 
#    0.000    0.000    0.000    0.857    0.000    0.000 
#    0.000    0.000    0.000    0.000    0.000    0.000 
#
# Total GULP energy -347225.119442 kJ/mol
# GULP energy per Si atom -12400.897123 kJ/mol
# Density = 1.890301 g / cm^3
# Si number density = 18.946131 Si / 1000 Ang^3
#
#
#
# Elastic Constant Matrix: (Units=GPa)
#
#
# Indices 1 2 3 4 5 6 
#
# 1 47.5298 14.3222 34.5955 0.0000 0.2065 0.0000
# 2 14.3222 66.8736 11.8422 0.0000 -7.4556 0.0000
# 3 34.5955 11.8422 93.9552 0.0000 -16.8375 0.0000
# 4 0.0000 0.0000 0.0000 37.7792 0.0000 0.8469
# 5 0.2065 -7.4556 -16.8375 0.0000 24.2132 0.0000
# 6 0.0000 0.0000 0.0000 0.8469 0.0000 24.7624
#
#
#
# Elastic Compliance Matrix: (Units=1/GPa)
#
#
# Indices 1 2 3 4 5 6 
#
# 1 0.032506 -0.005875 -0.013254 0.000000 -0.011303 0.000000
# 2 -0.005875 0.016677 0.001131 0.000000 0.005972 0.000000
# 3 -0.013254 0.001131 0.017665 0.000000 0.012746 0.000000
# 4 0.000000 0.000000 0.000000 0.026490 0.000000 -0.000906
# 5 -0.011303 0.005972 0.012746 0.000000 0.052098 0.000000
# 6 0.000000 0.000000 0.000000 -0.000906 0.000000 0.040415
#
#
# Mechanical properties :
#
#
# Convention : Reuss Voigt Hill
#
# Bulk Modulus (GPa) = 32.41147 36.65316 34.53231
# Shear Modulus (GPa) = 21.53952 27.19088 24.36520
#
# Velocity S-wave (km/s) = 3.37543 3.79247 3.59001
# Velocity P-wave (km/s) = 5.68644 6.21008 5.95402
#
# Compressibility (1/GPa) = 0.03085327
#
# Stress axis : x y z
#
# Youngs Moduli (GPa) = 30.76337 59.96198 56.60814
#
# Poissons Ratio (x) = 0.35226 0.75030
# Poissons Ratio (y) = 0.18073 -0.06405
# Poissons Ratio (z) = 0.40775 -0.06784
#
# Static dielectric constant tensor:
#      x y z
#    x 3.168490 0.000000 0.102070 
#    y 0.000000 3.569000 0.000000 
#    z 0.102070 0.000000 3.714620 
# 
# 
# High freq. dielectric constant tensor:
#      x y z
#    x 1.698110 0.000000 0.010990 
#    y 0.000000 1.748750 0.000000 
#    z 0.010990 0.000000 1.740720 
# 
# From -- ./inp_files/54594.got.cif
#   From: 2010.06.25/outbox.cif.g09.slc.cpg/sg11_28_cif.got.tgz:54594.got - 2010.06.27 23:14:04.
