data_PCOD8073253
_publ_section_title
;
Structure prediction by ZEFSAII (Michael W. Deem and Ramdas Pophale) SiO2 
 PCOD8073253
Probable space group: P 21/M
;
_chemical_formula_sum "Si O2"
_cell_formula_units_Z 32
_cell_length_a 20.463507
_cell_length_b 10.248792
_cell_length_c 11.679290
_cell_angle_alpha 90.000000
_cell_angle_beta 43.779416
_cell_angle_gamma 90.000000
_cell_volume 1694.737218
_symmetry_space_group_name_H-M "P 21/M"
_symmetry_group_IT_number 11
_symmetry_cell_setting 'monoclinic'
loop_
_space_group_symop_operation_xyz
x,y,z
-x,1/2+y,-z
-x,-y,-z
x,1/2-y,z
loop_
_atom_site_type_symbol
_atom_site_label
_atom_site_fract_x
_atom_site_fract_y
_atom_site_fract_z
Si Si1 0.941804 0.394096 0.003570
Si Si2 0.325157 0.594950 0.221318
Si Si3 0.061264 0.978785 0.247967
Si Si4 0.606048 0.098958 0.620315
Si Si5 0.248333 0.393940 0.960953
Si Si6 0.597420 0.602029 0.046029
Si Si7 0.727119 0.099236 0.261392
Si Si8 0.118058 0.894719 0.415896
O O1 0.976702 0.250000 0.996645
O O2 0.953344 0.401560 0.851560
O O3 0.833008 0.412718 0.176105
O O4 0.000000 0.500000 0.000000
O O5 0.343056 0.750000 0.177539
O O6 0.343115 0.551387 0.328594
O O7 0.220597 0.549558 0.317883
O O8 0.398652 0.507917 0.056366
O O9 0.103645 0.891052 0.296862
O O10 0.959421 0.024630 0.417872
O O11 0.136983 0.094077 0.131144
O O12 0.627298 0.250000 0.581360
O O13 0.494546 0.068321 0.761037
O O14 0.656263 0.037576 0.445359
O O15 0.263155 0.250000 0.887170
O O16 0.307980 0.406205 0.000504
O O17 0.284969 0.508911 0.833783
O O18 0.585666 0.750000 0.010249
O O19 0.705028 0.250000 0.255152
O O20 0.110893 0.750000 0.473591
#
# Coordination Sequence:
#
# PCOD8073253 Si02
#       8
#     4   4   4   4   4   4   4   4
#     4  10  22  37  57  81 111 147 184 224 269 324
#     4  10  20  35  57  83 108 142 185 227 267 321
#     4  10  20  36  54  79 114 145 181 220 275 319
#     4   9  19  36  58  80 109 142 182 227 270 320
#     4  10  20  35  55  80 113 145 179 222 274 325
#     4  10  20  36  56  81 111 145 177 220 280 329
#     4   9  20  38  58  79 106 144 185 225 268 316
#     4  10  20  33  56  83 108 142 186 227 266 320
#
# _framework density 18.881983000000002
#
# number of rings (size 3 to 8) (size 9 to 14) (size 15 to 20)
#    0.000    2.250    1.250    1.125    1.750    4.000 
#    0.000    1.875    0.000    0.000    0.000    0.000 
#    0.000    0.000    0.000    0.000    0.000    0.000 
#
# Total GULP energy -396634.519816 kJ/mol
# GULP energy per Si atom -12394.828744 kJ/mol
# Density = 1.883901 g / cm^3
# Si number density = 18.881983 Si / 1000 Ang^3
#
#
#
# Elastic Constant Matrix: (Units=GPa)
#
#
# Indices 1 2 3 4 5 6 
#
# 1 59.9598 23.8735 19.4932 0.0000 -1.8622 0.0000
# 2 23.8735 87.1998 40.7730 0.0000 4.3779 0.0000
# 3 19.4932 40.7730 107.7988 0.0000 5.7821 0.0000
# 4 0.0000 0.0000 0.0000 20.0953 0.0000 -2.0452
# 5 -1.8622 4.3779 5.7821 0.0000 23.5854 0.0000
# 6 0.0000 0.0000 0.0000 -2.0452 0.0000 22.6725
#
#
#
# Elastic Compliance Matrix: (Units=1/GPa)
#
#
# Indices 1 2 3 4 5 6 
#
# 1 0.019179 -0.004495 -0.001919 0.000000 0.002819 0.000000
# 2 -0.004495 0.015025 -0.004764 0.000000 -0.001976 0.000000
# 3 -0.001919 -0.004764 0.011538 0.000000 -0.002096 0.000000
# 4 0.000000 0.000000 0.000000 0.050224 0.000000 0.004530
# 5 0.002819 -0.001976 -0.002096 0.000000 0.043502 0.000000
# 6 0.000000 0.000000 0.000000 0.004530 0.000000 0.044515
#
#
# Mechanical properties :
#
#
# Convention : Reuss Voigt Hill
#
# Bulk Modulus (GPa) = 42.76148 47.02643 44.89395
# Shear Modulus (GPa) = 23.34964 24.65854 24.00409
#
# Velocity S-wave (km/s) = 3.52036 3.61769 3.56935
# Velocity P-wave (km/s) = 6.26257 6.51227 6.38864
#
# Compressibility (1/GPa) = 0.02338553
#
# Stress axis : x y z
#
# Youngs Moduli (GPa) = 52.14024 66.55369 86.66995
#
# Poissons Ratio (x) = 0.29916 0.16634
# Poissons Ratio (y) = 0.23437 0.41292
# Poissons Ratio (z) = 0.10007 0.31708
#
# Static dielectric constant tensor:
#      x y z
#    x 3.408820 0.000000 -0.043180 
#    y 0.000000 3.389900 0.000000 
#    z -0.043180 0.000000 3.576010 
# 
# 
# High freq. dielectric constant tensor:
#      x y z
#    x 1.731710 0.000000 -0.006860 
#    y 0.000000 1.720560 0.000000 
#    z -0.006860 0.000000 1.737360 
# 
# From -- ./inp_files/43120.got.cif
#   From: 2010.06.25/outbox.cif.g09.slc.cpg/sg11_22_cif.got.tgz:43120.got - 2010.06.27 23:14:04.
