data_PCOD8073092
_publ_section_title
;
Structure prediction by ZEFSAII (Michael W. Deem and Ramdas Pophale) SiO2 
 PCOD8073092
Probable space group: P 21/M
;
_chemical_formula_sum "Si O2"
_cell_formula_units_Z 28
_cell_length_a 28.775247
_cell_length_b 9.923582
_cell_length_c 5.218830
_cell_angle_alpha 90.000000
_cell_angle_beta 67.894361
_cell_angle_gamma 90.000000
_cell_volume 1380.709009
_symmetry_space_group_name_H-M "P 21/M"
_symmetry_group_IT_number 11
_symmetry_cell_setting 'monoclinic'
loop_
_space_group_symop_operation_xyz
x,y,z
-x,1/2+y,-z
-x,-y,-z
x,1/2-y,z
loop_
_atom_site_type_symbol
_atom_site_label
_atom_site_fract_x
_atom_site_fract_y
_atom_site_fract_z
Si Si1 0.519701 0.250000 0.777927
Si Si2 0.023900 0.100645 0.752577
Si Si3 0.399221 0.523228 0.438765
Si Si4 0.074903 0.603029 0.346182
Si Si5 0.826026 0.093370 0.120944
Si Si6 0.340927 0.593891 0.066952
Si Si7 0.546598 0.750000 0.584227
Si Si8 0.772491 0.089200 0.730316
O O1 0.552472 0.116766 0.686544
O O2 0.478610 0.250000 0.641468
O O3 0.494957 0.250000 0.108636
O O4 0.038821 0.250000 0.830341
O O5 0.981753 0.123442 0.626874
O O6 0.073690 0.023842 0.543413
O O7 0.000000 0.000000 0.000000
O O8 0.363719 0.576386 0.737973
O O9 0.417110 0.376061 0.472496
O O10 0.370626 0.515124 0.226653
O O11 0.091195 0.750000 0.436757
O O12 0.114198 0.567709 0.038224
O O13 0.813441 0.250000 0.158796
O O14 0.805853 0.029453 0.426863
O O15 0.796507 0.029797 0.940355
O O16 0.342515 0.750000 0.141853
O O17 0.284337 0.537824 0.179144
O O18 0.773882 0.250000 0.733771
#
# Coordination Sequence:
#
# PCOD8073092 Si02
#       8
#     2   4   4   4   4   4   2   4
#     4  12  22  42  60  86 122 152 196 236 286 329
#     4  10  20  33  51  78 107 148 188 229 277 326
#     4  12  23  39  62  86 117 157 193 234 288 336
#     4   9  19  33  52  76 109 141 183 231 279 344
#     4   9  17  30  49  81 112 142 175 231 301 336
#     4  11  20  37  59  88 116 148 194 240 286 340
#     4  12  26  40  58  90 120 156 194 236 278 343
#     4   9  18  30  52  83 114 137 179 240 290 335
#
# _framework density 20.279437000000001
#
# number of rings (size 3 to 8) (size 9 to 14) (size 15 to 20)
#    0.000    1.714    1.429    3.857    2.000    2.857 
#    0.000    0.000    0.000    0.000   11.143    0.000 
#    0.000    0.000    0.000    0.000    0.000    0.000 
#
# Total GULP energy -347043.431279 kJ/mol
# GULP energy per Si atom -12394.408260 kJ/mol
# Density = 2.023328 g / cm^3
# Si number density = 20.279437 Si / 1000 Ang^3
#
#
#
# Elastic Constant Matrix: (Units=GPa)
#
#
# Indices 1 2 3 4 5 6 
#
# 1 53.2147 -1.5350 7.7124 0.0000 -4.4395 0.0000
# 2 -1.5350 86.1557 7.3847 0.0000 -7.0185 0.0000
# 3 7.7124 7.3847 107.4303 0.0000 -6.0522 0.0000
# 4 0.0000 0.0000 0.0000 18.0720 0.0000 -4.3878
# 5 -4.4395 -7.0185 -6.0522 0.0000 38.8674 0.0000
# 6 0.0000 0.0000 0.0000 -4.3878 0.0000 0.5382
#
#
#
# Elastic Compliance Matrix: (Units=1/GPa)
#
#
# Indices 1 2 3 4 5 6 
#
# 1 0.019174 0.000624 -0.001301 0.000000 0.002100 0.000000
# 2 0.000624 0.011852 -0.000741 0.000000 0.002096 0.000000
# 3 -0.001301 -0.000741 0.009520 0.000000 0.001200 0.000000
# 4 0.000000 0.000000 0.000000 -0.056487 0.000000 -0.460556
# 5 0.002100 0.002096 0.001200 0.000000 0.026534 0.000000
# 6 0.000000 0.000000 0.000000 -0.460556 0.000000 -1.896879
#
#
# Mechanical properties :
#
#
# Convention : Reuss Voigt Hill
#
# Bulk Modulus (GPa) = 26.51843 30.43610 28.47727
# Shear Modulus (GPa) = -2.67254 27.04476 12.18611
#
# Velocity S-wave (km/s) = -1.14922 3.65582 2.45401
# Velocity P-wave (km/s) = 3.36808 5.73245 4.70132
#
# Compressibility (1/GPa) = 0.03770962
#
# Stress axis : x y z
#
# Youngs Moduli (GPa) = 52.15512 84.37169 105.03838
#
# Poissons Ratio (x) = -0.05267 0.13666
# Poissons Ratio (y) = -0.03256 0.07788
# Poissons Ratio (z) = 0.06786 0.06256
#
# Static dielectric constant tensor:
#      x y z
#    x 3.881830 0.000000 -0.019030 
#    y 0.000000 3.726380 0.000000 
#    z -0.019030 0.000000 3.913030 
# 
# 
# High freq. dielectric constant tensor:
#      x y z
#    x 1.788630 0.000000 -0.003180 
#    y 0.000000 1.752440 0.000000 
#    z -0.003180 0.000000 1.807290 
# 
# From -- ./inp_files/9650.got.cif
#   From: 2010.06.25/outbox.cif.g09.slc.cpg/sg11_5_cif.got.tgz:9650.got - 2010.06.27 23:14:04.
