data_PCOD8073963
_publ_section_title
;
Structure prediction by ZEFSAII (Michael W. Deem and Ramdas Pophale) SiO2 
 PCOD8073963
Probable space group: P 21/M
;
_chemical_formula_sum "Si O2"
_cell_formula_units_Z 32
_cell_length_a 28.740360
_cell_length_b 11.876368
_cell_length_c 9.040496
_cell_angle_alpha 90.000000
_cell_angle_beta 147.727308
_cell_angle_gamma 90.000000
_cell_volume 1647.662400
_symmetry_space_group_name_H-M "P 21/M"
_symmetry_group_IT_number 11
_symmetry_cell_setting 'monoclinic'
loop_
_space_group_symop_operation_xyz
x,y,z
-x,1/2+y,-z
-x,-y,-z
x,1/2-y,z
loop_
_atom_site_type_symbol
_atom_site_label
_atom_site_fract_x
_atom_site_fract_y
_atom_site_fract_z
Si Si1 0.962278 0.424636 0.617217
Si Si2 0.204119 0.984783 0.680826
Si Si3 0.303911 0.121824 0.186979
Si Si4 0.768189 0.505816 0.720009
Si Si5 0.494732 0.382069 0.582381
Si Si6 0.060395 0.872976 0.770231
Si Si7 0.124871 0.129190 0.219741
Si Si8 0.327192 0.876504 0.785329
O O1 0.861290 0.414090 0.391800
O O2 0.973733 0.366571 0.489446
O O3 0.993920 0.554164 0.689443
O O4 0.023168 0.365862 0.902209
O O5 0.274469 0.904437 0.793639
O O6 0.142211 0.036829 0.389365
O O7 0.253159 0.079637 0.906007
O O8 0.275964 0.250000 0.140966
O O9 0.406147 0.110640 0.434867
O O10 0.280919 0.047495 0.266957
O O11 0.817847 0.607529 0.772968
O O12 0.696660 0.455494 0.416113
O O13 0.840342 0.414794 0.959385
O O14 0.500000 0.500000 0.500000
O O15 0.499754 0.250000 0.523370
O O16 0.571341 0.391895 0.907333
O O17 0.057311 0.750000 0.833538
O O18 0.152233 0.250000 0.357272
O O19 0.304776 0.750000 0.678382
#
# Coordination Sequence:
#
# PCOD8073963 Si02
#       8
#     4   4   4   4   4   4   4   4
#     4  10  21  36  51  82 113 147 197 246 288 354
#     4  11  21  38  58  87 117 149 205 247 298 362
#     4  11  22  38  63  90 121 157 200 255 304 364
#     4  10  21  39  57  86 119 150 202 241 292 357
#     4  10  21  41  65  94 127 163 201 250 314 373
#     4  10  20  35  55  78 114 155 191 240 297 348
#     4  10  21  36  55  79 115 156 191 242 299 347
#     4  10  22  40  63  87 123 161 195 249 309 365
#
# _framework density 19.421454000000001
#
# number of rings (size 3 to 8) (size 9 to 14) (size 15 to 20)
#    0.000    1.750    2.500    1.875    0.000    2.500 
#    0.000    1.875    0.000    0.000    0.000    0.000 
#    0.000    0.000    0.000    0.000    0.000    0.000 
#
# Total GULP energy -396590.815695 kJ/mol
# GULP energy per Si atom -12393.462990 kJ/mol
# Density = 1.937725 g / cm^3
# Si number density = 19.421454 Si / 1000 Ang^3
#
#
#
# Elastic Constant Matrix: (Units=GPa)
#
#
# Indices 1 2 3 4 5 6 
#
# 1 73.8155 16.2344 27.6923 0.0000 5.7495 0.0000
# 2 16.2344 106.4747 19.7413 0.0000 0.9672 0.0000
# 3 27.6923 19.7413 109.2804 0.0000 7.9350 0.0000
# 4 0.0000 0.0000 0.0000 9.5671 0.0000 1.1518
# 5 5.7495 0.9672 7.9350 0.0000 29.5589 0.0000
# 6 0.0000 0.0000 0.0000 1.1518 0.0000 16.7736
#
#
#
# Elastic Compliance Matrix: (Units=1/GPa)
#
#
# Indices 1 2 3 4 5 6 
#
# 1 0.015366 -0.001686 -0.003443 0.000000 -0.002009 0.000000
# 2 -0.001686 0.009903 -0.001389 0.000000 0.000377 0.000000
# 3 -0.003443 -0.001389 0.010426 0.000000 -0.002083 0.000000
# 4 0.000000 0.000000 0.000000 0.105396 0.000000 -0.007237
# 5 -0.002009 0.000377 -0.002083 0.000000 0.034769 0.000000
# 6 0.000000 0.000000 0.000000 -0.007237 0.000000 0.060115
#
#
# Mechanical properties :
#
#
# Convention : Reuss Voigt Hill
#
# Bulk Modulus (GPa) = 44.13507 46.32295 45.22901
# Shear Modulus (GPa) = 19.48830 26.24010 22.86420
#
# Velocity S-wave (km/s) = 3.17115 3.67970 3.43485
# Velocity P-wave (km/s) = 6.01519 6.47741 6.25057
#
# Compressibility (1/GPa) = 0.02265772
#
# Stress axis : x y z
#
# Youngs Moduli (GPa) = 65.07664 100.97818 95.91805
#
# Poissons Ratio (x) = 0.17028 0.33029
# Poissons Ratio (y) = 0.10974 0.13323
# Poissons Ratio (z) = 0.22409 0.14026
#
# Static dielectric constant tensor:
#      x y z
#    x 3.392630 0.000000 0.051190 
#    y 0.000000 3.861410 0.000000 
#    z 0.051190 0.000000 3.576810 
# 
# 
# High freq. dielectric constant tensor:
#      x y z
#    x 1.742020 0.000000 0.003560 
#    y 0.000000 1.762070 0.000000 
#    z 0.003560 0.000000 1.765660 
# 
# From -- ./inp_files/21532.got.cif
#   From: 2010.06.25/outbox.cif.g09.slc.cpg/sg11_11_cif.got.tgz:21532.got - 2010.06.27 23:14:04.
