data_PCOD8073247
_publ_section_title
;
Structure prediction by ZEFSAII (Michael W. Deem and Ramdas Pophale) SiO2 
 PCOD8073247
Probable space group: P 21/M
;
_chemical_formula_sum "Si O2"
_cell_formula_units_Z 32
_cell_length_a 6.828562
_cell_length_b 14.100474
_cell_length_c 16.259916
_cell_angle_alpha 90.000000
_cell_angle_beta 81.179329
_cell_angle_gamma 90.000000
_cell_volume 1547.085459
_symmetry_space_group_name_H-M "P 21/M"
_symmetry_group_IT_number 11
_symmetry_cell_setting 'monoclinic'
loop_
_space_group_symop_operation_xyz
x,y,z
-x,1/2+y,-z
-x,-y,-z
x,1/2-y,z
loop_
_atom_site_type_symbol
_atom_site_label
_atom_site_fract_x
_atom_site_fract_y
_atom_site_fract_z
Si Si1 0.265198 0.857193 0.166449
Si Si2 0.362706 0.643334 0.342581
Si Si3 0.939676 0.994782 0.151715
Si Si4 0.252225 0.472798 0.666100
Si Si5 0.234390 0.139846 0.189216
Si Si6 0.028148 0.142612 0.542991
Si Si7 0.545795 0.000293 0.092359
Si Si8 0.992536 0.359030 0.362514
O O1 0.249441 0.750000 0.137898
O O2 0.237608 0.870197 0.266229
O O3 0.108508 0.916965 0.122310
O O4 0.482089 0.897942 0.131517
O O5 0.459638 0.750000 0.335565
O O6 0.519372 0.558821 0.345740
O O7 0.206831 0.634579 0.426167
O O8 0.834707 0.951608 0.238883
O O9 0.781876 0.008073 0.089008
O O10 0.044711 0.097089 0.153751
O O11 0.149579 0.417052 0.599661
O O12 0.206153 0.583933 0.651949
O O13 0.260917 0.250000 0.164566
O O14 0.433903 0.083817 0.150850
O O15 0.180809 0.125485 0.289397
O O16 0.102416 0.250000 0.547386
O O17 0.066066 0.106231 0.447525
O O18 0.500000 0.000000 0.000000
O O19 0.924794 0.250000 0.368622
#
# Coordination Sequence:
#
# PCOD8073247 Si02
#       8
#     4   4   4   4   4   4   4   4
#     4  10  21  38  60  90 124 157 195 243 303 364
#     4  10  20  33  55  87 119 152 197 246 297 360
#     4  10  21  38  62  88 118 157 202 245 299 363
#     4  11  19  33  59  84 116 161 206 244 302 355
#     4   9  21  42  65  86 116 160 205 247 297 356
#     4  10  20  35  55  86 125 158 199 254 302 351
#     4  11  24  42  63  92 124 154 195 252 307 365
#     4   9  20  38  58  84 122 162 206 254 295 347
#
# _framework density 20.684054
#
# number of rings (size 3 to 8) (size 9 to 14) (size 15 to 20)
#    0.000    2.000    2.500    0.750    0.000    4.500 
#    0.000    3.750    0.000    8.250    0.000    0.000 
#    0.000    0.000    0.000    0.000    0.000    0.000 
#
# Total GULP energy -396616.500780 kJ/mol
# GULP energy per Si atom -12394.265649 kJ/mol
# Density = 2.063698 g / cm^3
# Si number density = 20.684054 Si / 1000 Ang^3
#
#
#
# Elastic Constant Matrix: (Units=GPa)
#
#
# Indices 1 2 3 4 5 6 
#
# 1 90.5904 40.5740 9.4139 0.0000 16.9145 0.0000
# 2 40.5740 109.0380 32.5092 0.0000 6.8092 0.0000
# 3 9.4139 32.5092 61.2838 0.0000 7.9508 0.0000
# 4 0.0000 0.0000 0.0000 17.6536 0.0000 -2.7939
# 5 16.9145 6.8092 7.9508 0.0000 28.1791 0.0000
# 6 0.0000 0.0000 0.0000 -2.7939 0.0000 25.6335
#
#
#
# Elastic Compliance Matrix: (Units=1/GPa)
#
#
# Indices 1 2 3 4 5 6 
#
# 1 0.014840 -0.005525 0.001696 0.000000 -0.008051 0.000000
# 2 -0.005525 0.012980 -0.006291 0.000000 0.001955 0.000000
# 3 0.001696 -0.006291 0.020063 0.000000 -0.005159 0.000000
# 4 0.000000 0.000000 0.000000 0.057640 0.000000 0.006282
# 5 -0.008051 0.001955 -0.005159 0.000000 0.041303 0.000000
# 6 0.000000 0.000000 0.000000 0.006282 0.000000 0.039696
#
#
# Mechanical properties :
#
#
# Convention : Reuss Voigt Hill
#
# Bulk Modulus (GPa) = 36.17375 47.32294 41.74835
# Shear Modulus (GPa) = 23.15049 26.18757 24.66903
#
# Velocity S-wave (km/s) = 3.34914 3.56206 3.45724
# Velocity P-wave (km/s) = 5.69933 6.31239 6.01368
#
# Compressibility (1/GPa) = 0.02764436
#
# Stress axis : x y z
#
# Youngs Moduli (GPa) = 67.38385 77.03872 49.84217
#
# Poissons Ratio (x) = 0.42564 -0.08452
# Poissons Ratio (y) = 0.37230 0.31354
# Poissons Ratio (z) = -0.11427 0.48462
#
# Static dielectric constant tensor:
#      x y z
#    x 3.561750 0.000000 -0.095190 
#    y 0.000000 3.925300 0.000000 
#    z -0.095190 0.000000 3.761220 
# 
# 
# High freq. dielectric constant tensor:
#      x y z
#    x 1.789330 0.000000 -0.003780 
#    y 0.000000 1.814360 0.000000 
#    z -0.003780 0.000000 1.805580 
# 
# From -- ./inp_files/57054.got.cif
#   From: 2010.06.25/outbox.cif.g09.slc.cpg/sg11_29_cif.got.tgz:57054.got - 2010.06.27 23:14:04.
