data_PCOD8073569
_publ_section_title
;
Structure prediction by ZEFSAII (Michael W. Deem and Ramdas Pophale) SiO2 
 PCOD8073569
Probable space group: P 21/M
;
_chemical_formula_sum "Si O2"
_cell_formula_units_Z 28
_cell_length_a 12.208061
_cell_length_b 8.795919
_cell_length_c 14.887505
_cell_angle_alpha 90.000000
_cell_angle_beta 120.794836
_cell_angle_gamma 90.000000
_cell_volume 1373.238755
_symmetry_space_group_name_H-M "P 21/M"
_symmetry_group_IT_number 11
_symmetry_cell_setting 'monoclinic'
loop_
_space_group_symop_operation_xyz
x,y,z
-x,1/2+y,-z
-x,-y,-z
x,1/2-y,z
loop_
_atom_site_type_symbol
_atom_site_label
_atom_site_fract_x
_atom_site_fract_y
_atom_site_fract_z
Si Si1 0.751343 0.082818 0.062587
Si Si2 0.971978 0.917095 0.896689
Si Si3 0.616194 0.070012 0.493405
Si Si4 0.879515 0.429315 0.688281
Si Si5 0.849719 0.574581 0.268286
Si Si6 0.474731 0.070449 0.088098
Si Si7 0.641929 0.573764 0.313139
O O1 0.686581 0.250000 0.037793
O O2 0.895298 0.097409 0.096090
O O3 0.751647 0.017220 0.163878
O O4 0.675332 0.971947 0.962076
O O5 0.913482 0.750000 0.890370
O O6 0.880206 0.008056 0.790539
O O7 0.000000 0.000000 0.000000
O O8 0.606376 0.250000 0.496461
O O9 0.750926 0.008588 0.588524
O O10 0.500000 0.000000 0.500000
O O11 0.610987 0.022456 0.387908
O O12 0.875797 0.250000 0.693682
O O13 0.003071 0.481711 0.680439
O O14 0.842855 0.750000 0.235590
O O15 0.790821 0.552699 0.343778
O O16 0.498371 0.250000 0.103063
O O17 0.550132 0.984658 0.196865
O O18 0.500000 0.000000 0.000000
O O19 0.613148 0.750000 0.320685
#
# Coordination Sequence:
#
# PCOD8073569 Si02
#       7
#     4   4   4   4   4   4   4
#     4  10  20  34  54  83 120 158 197 243 297 357
#     4  10  21  36  58  88 119 155 199 247 298 358
#     4  11  25  45  66  88 120 162 209 260 308 360
#     4   9  20  40  64  88 118 157 198 249 308 362
#     4   9  18  35  60  89 120 153 193 241 302 367
#     4  12  23  36  57  87 124 163 201 244 299 360
#     4  11  23  39  62  92 124 161 206 253 305 370
#
# _framework density 20.389755000000001
#
# number of rings (size 3 to 8) (size 9 to 14) (size 15 to 20)
#    0.000    1.714    1.429    3.000    0.000    5.143 
#    0.000    1.429    0.000    0.000    0.000    0.000 
#    0.000    0.000    0.000    0.000    0.000    0.000 
#
# Total GULP energy -347014.562172 kJ/mol
# GULP energy per Si atom -12393.377220 kJ/mol
# Density = 2.034335 g / cm^3
# Si number density = 20.389755 Si / 1000 Ang^3
#
#
#
# Elastic Constant Matrix: (Units=GPa)
#
#
# Indices 1 2 3 4 5 6 
#
# 1 89.8126 30.4117 61.6135 0.0000 -1.9837 0.0000
# 2 30.4117 66.4707 25.8633 0.0000 -0.7295 0.0000
# 3 61.6135 25.8633 131.1734 0.0000 -1.3028 0.0000
# 4 0.0000 0.0000 0.0000 35.5686 0.0000 -2.5240
# 5 -1.9837 -0.7295 -1.3028 0.0000 34.1136 0.0000
# 6 0.0000 0.0000 0.0000 -2.5240 0.0000 27.8926
#
#
#
# Elastic Compliance Matrix: (Units=1/GPa)
#
#
# Indices 1 2 3 4 5 6 
#
# 1 0.018053 -0.005367 -0.007415 0.000000 0.000652 0.000000
# 2 -0.005367 0.017892 -0.001006 0.000000 0.000032 0.000000
# 3 -0.007415 -0.001006 0.011305 0.000000 -0.000021 0.000000
# 4 0.000000 0.000000 0.000000 0.028296 0.000000 0.002561
# 5 0.000652 0.000032 -0.000021 0.000000 0.029352 0.000000
# 6 0.000000 0.000000 0.000000 0.002561 0.000000 0.036084
#
#
# Mechanical properties :
#
#
# Convention : Reuss Voigt Hill
#
# Bulk Modulus (GPa) = 50.83314 58.13707 54.48510
# Shear Modulus (GPa) = 28.55263 30.81950 29.68606
#
# Velocity S-wave (km/s) = 3.74617 3.89204 3.81981
# Velocity P-wave (km/s) = 6.61034 6.98370 6.79959
#
# Compressibility (1/GPa) = 0.01967221
#
# Stress axis : x y z
#
# Youngs Moduli (GPa) = 55.39269 55.89161 88.45998
#
# Poissons Ratio (x) = 0.29999 0.65592
# Poissons Ratio (y) = 0.29731 0.08902
# Poissons Ratio (z) = 0.41073 0.05624
#
# Static dielectric constant tensor:
#      x y z
#    x 6.029290 0.000000 -1.113750 
#    y 0.000000 4.215970 0.000000 
#    z -1.113750 0.000000 4.748060 
# 
# 
# High freq. dielectric constant tensor:
#      x y z
#    x 1.802230 0.000000 0.007810 
#    y 0.000000 1.804170 0.000000 
#    z 0.007810 0.000000 1.786720 
# 
# From -- ./inp_files/49474.got.cif
#   From: 2010.06.25/outbox.cif.g09.slc.cpg/sg11_25_cif.got.tgz:49474.got - 2010.06.27 23:14:04.
