data_PCOD8073679
_publ_section_title
;
Structure prediction by ZEFSAII (Michael W. Deem and Ramdas Pophale) SiO2 
 PCOD8073679
Probable space group: P 21/M
;
_chemical_formula_sum "Si O2"
_cell_formula_units_Z 28
_cell_length_a 16.390056
_cell_length_b 8.919130
_cell_length_c 12.375433
_cell_angle_alpha 90.000000
_cell_angle_beta 56.262730
_cell_angle_gamma 90.000000
_cell_volume 1504.437584
_symmetry_space_group_name_H-M "P 21/M"
_symmetry_group_IT_number 11
_symmetry_cell_setting 'monoclinic'
loop_
_space_group_symop_operation_xyz
x,y,z
-x,1/2+y,-z
-x,-y,-z
x,1/2-y,z
loop_
_atom_site_type_symbol
_atom_site_label
_atom_site_fract_x
_atom_site_fract_y
_atom_site_fract_z
Si Si1 0.703061 0.921135 0.241012
Si Si2 0.439798 0.927158 0.949430
Si Si3 0.715026 0.074489 0.448298
Si Si4 0.914049 0.075977 0.706248
Si Si5 0.242949 0.427602 0.035979
Si Si6 0.507037 0.076067 0.687447
Si Si7 0.884910 0.075516 0.483056
O O1 0.729906 0.750000 0.240880
O O2 0.585549 0.945662 0.323445
O O3 0.748269 0.009547 0.308616
O O4 0.753224 0.976801 0.092737
O O5 0.435832 0.750000 0.966067
O O6 0.493651 0.970695 0.799834
O O7 0.500000 0.000000 0.000000
O O8 0.329936 0.991103 0.036011
O O9 0.717633 0.250000 0.433950
O O10 0.605386 0.019696 0.556601
O O11 0.788562 0.023069 0.489033
O O12 0.907989 0.250000 0.741770
O O13 0.866478 0.045386 0.623552
O O14 0.858812 0.979233 0.837300
O O15 0.026399 0.024869 0.625159
O O16 0.257321 0.250000 0.035663
O O17 0.514814 0.250000 0.718808
O O18 0.910031 0.250000 0.444990
#
# Coordination Sequence:
#
# PCOD8073679 Si02
#       7
#     4   4   4   4   4   4   4
#     4   9  19  35  53  78 112 146 182 225 272 326
#     4  11  22  35  52  79 112 146 185 227 268 324
#     4  10  20  34  56  81 109 145 185 228 275 324
#     4  10  20  36  59  84 108 141 182 225 278 336
#     4  10  21  38  58  80 109 146 182 224 279 327
#     4   9  19  35  53  77 111 149 183 224 275 321
#     4   9  20  37  55  81 112 142 177 226 280 328
#
# _framework density 18.611605999999998
#
# number of rings (size 3 to 8) (size 9 to 14) (size 15 to 20)
#    0.000    2.286    0.000    3.429    2.000    4.571 
#    0.000    0.714    0.000    0.000    0.000    0.000 
#    0.000    0.000    0.000    0.000    0.000    0.000 
#
# Total GULP energy -347243.762730 kJ/mol
# GULP energy per Si atom -12401.562955 kJ/mol
# Density = 1.856925 g / cm^3
# Si number density = 18.611606 Si / 1000 Ang^3
#
#
#
# Elastic Constant Matrix: (Units=GPa)
#
#
# Indices 1 2 3 4 5 6 
#
# 1 75.5017 27.4361 42.4088 0.0000 5.9363 0.0000
# 2 27.4361 72.1929 35.0854 0.0000 0.0394 0.0000
# 3 42.4088 35.0854 101.1767 0.0000 -7.8384 0.0000
# 4 0.0000 0.0000 0.0000 34.3584 0.0000 1.1560
# 5 5.9363 0.0394 -7.8384 0.0000 18.8966 0.0000
# 6 0.0000 0.0000 0.0000 1.1560 0.0000 29.6821
#
#
#
# Elastic Compliance Matrix: (Units=1/GPa)
#
#
# Indices 1 2 3 4 5 6 
#
# 1 0.019639 -0.003736 -0.007660 0.000000 -0.009339 0.000000
# 2 -0.003736 0.017486 -0.004556 0.000000 -0.000753 0.000000
# 3 -0.007660 -0.004556 0.015355 0.000000 0.008785 0.000000
# 4 0.000000 0.000000 0.000000 0.029143 0.000000 -0.001135
# 5 -0.009339 -0.000753 0.008785 0.000000 0.059499 0.000000
# 6 0.000000 0.000000 0.000000 -0.001135 0.000000 0.033735
#
#
# Mechanical properties :
#
#
# Convention : Reuss Voigt Hill
#
# Bulk Modulus (GPa) = 48.59924 50.97023 49.78473
# Shear Modulus (GPa) = 23.40607 26.18346 24.79477
#
# Velocity S-wave (km/s) = 3.55012 3.75485 3.65392
# Velocity P-wave (km/s) = 6.55542 6.80031 6.67899
#
# Compressibility (1/GPa) = 0.02057645
#
# Stress axis : x y z
#
# Youngs Moduli (GPa) = 50.91894 57.18782 65.12554
#
# Poissons Ratio (x) = 0.21364 0.49885
# Poissons Ratio (y) = 0.19023 0.29672
# Poissons Ratio (z) = 0.39003 0.26056
#
# Static dielectric constant tensor:
#      x y z
#    x 3.243460 0.000000 -0.125950 
#    y 0.000000 3.357590 0.000000 
#    z -0.125950 0.000000 3.451970 
# 
# 
# High freq. dielectric constant tensor:
#      x y z
#    x 1.712960 0.000000 0.003830 
#    y 0.000000 1.722980 0.000000 
#    z 0.003830 0.000000 1.723280 
# 
# From -- ./inp_files/37769.got.cif
#   From: 2010.06.25/outbox.cif.g09.slc.cpg/sg11_19_cif.got.tgz:37769.got - 2010.06.27 23:14:04.
