data_PCOD8073695
_publ_section_title
;
Structure prediction by ZEFSAII (Michael W. Deem and Ramdas Pophale) SiO2 
 PCOD8073695
Probable space group: P 21/M
;
_chemical_formula_sum "Si O2"
_cell_formula_units_Z 24
_cell_length_a 17.888294
_cell_length_b 9.060597
_cell_length_c 15.086104
_cell_angle_alpha 90.000000
_cell_angle_beta 29.439114
_cell_angle_gamma 90.000000
_cell_volume 1201.779895
_symmetry_space_group_name_H-M "P 21/M"
_symmetry_group_IT_number 11
_symmetry_cell_setting 'monoclinic'
loop_
_space_group_symop_operation_xyz
x,y,z
-x,1/2+y,-z
-x,-y,-z
x,1/2-y,z
loop_
_atom_site_type_symbol
_atom_site_label
_atom_site_fract_x
_atom_site_fract_y
_atom_site_fract_z
Si Si1 0.656242 0.078882 0.818163
Si Si2 0.155146 0.076849 0.026019
Si Si3 0.716000 0.418022 0.948567
Si Si4 0.639652 0.578510 0.665285
Si Si5 0.813804 0.080551 0.335355
Si Si6 0.655843 0.078912 0.316609
O O1 0.625533 0.250000 0.830555
O O2 0.726289 0.003718 0.657635
O O3 0.760009 0.059537 0.799144
O O4 0.500000 0.000000 0.000000
O O5 0.182816 0.250000 0.987126
O O6 0.180000 0.028090 0.101972
O O7 0.276808 0.991431 0.841302
O O8 0.986730 0.030551 0.170798
O O9 0.749233 0.250000 0.943196
O O10 0.539142 0.455573 0.147291
O O11 0.675378 0.750000 0.637580
O O12 0.702926 0.520278 0.507393
O O13 0.789672 0.250000 0.388794
O O14 0.775275 0.055831 0.272502
O O15 0.622574 0.250000 0.332863
O O16 0.500000 0.000000 0.500000
#
# Coordination Sequence:
#
# PCOD8073695 Si02
#       6
#     4   4   4   4   4   4
#     4   9  17  31  53  80 111 144 182 229 275 321
#     4  11  23  38  57  82 112 146 183 223 271 326
#     4   9  19  35  55  82 112 144 184 228 273 322
#     4  10  20  34  56  84 111 143 185 230 275 324
#     4  10  23  40  56  79 112 148 183 222 271 325
#     4  11  23  40  62  85 110 141 180 226 272 322
#
# _framework density 19.970379999999999
#
# number of rings (size 3 to 8) (size 9 to 14) (size 15 to 20)
#    0.000    2.000    0.000    4.500    0.000    9.333 
#    0.000    0.833    0.000    0.000    0.000    0.000 
#    0.000    0.000    0.000    0.000    0.000    0.000 
#
# Total GULP energy -297636.822314 kJ/mol
# GULP energy per Si atom -12401.534263 kJ/mol
# Density = 1.992493 g / cm^3
# Si number density = 19.970380 Si / 1000 Ang^3
#
#
#
# Elastic Constant Matrix: (Units=GPa)
#
#
# Indices 1 2 3 4 5 6 
#
# 1 100.7984 42.1754 8.3871 0.0000 -2.6295 0.0000
# 2 42.1754 97.5703 14.6737 0.0000 -2.5087 0.0000
# 3 8.3871 14.6737 22.1840 0.0000 -5.0500 0.0000
# 4 0.0000 0.0000 0.0000 30.7860 0.0000 7.0611
# 5 -2.6295 -2.5087 -5.0500 0.0000 29.6104 0.0000
# 6 0.0000 0.0000 0.0000 7.0611 0.0000 37.5060
#
#
#
# Elastic Compliance Matrix: (Units=1/GPa)
#
#
# Indices 1 2 3 4 5 6 
#
# 1 0.012148 -0.005068 -0.001137 0.000000 0.000456 0.000000
# 2 -0.005068 0.013499 -0.007132 0.000000 -0.000523 0.000000
# 3 -0.001137 -0.007132 0.052086 0.000000 0.008178 0.000000
# 4 0.000000 0.000000 0.000000 0.033948 0.000000 -0.006391
# 5 0.000456 -0.000523 0.008178 0.000000 0.035163 0.000000
# 6 0.000000 0.000000 0.000000 -0.006391 0.000000 0.027866
#
#
# Mechanical properties :
#
#
# Convention : Reuss Voigt Hill
#
# Bulk Modulus (GPa) = 19.58487 39.00277 29.29382
# Shear Modulus (GPa) = 22.89344 29.93492 26.41418
#
# Velocity S-wave (km/s) = 3.38948 3.87585 3.64080
# Velocity P-wave (km/s) = 5.01461 6.29304 5.68985
#
# Compressibility (1/GPa) = 0.05105983
#
# Stress axis : x y z
#
# Youngs Moduli (GPa) = 82.31867 74.07982 19.19891
#
# Poissons Ratio (x) = 0.37546 0.02182
# Poissons Ratio (y) = 0.41722 0.13692
# Poissons Ratio (z) = 0.09356 0.52832
#
# Static dielectric constant tensor:
#      x y z
#    x 3.845160 0.000000 0.166960 
#    y 0.000000 3.783760 0.000000 
#    z 0.166960 0.000000 3.391830 
# 
# 
# High freq. dielectric constant tensor:
#      x y z
#    x 1.792700 0.000000 0.017040 
#    y 0.000000 1.788620 0.000000 
#    z 0.017040 0.000000 1.754860 
# 
# From -- ./inp_files/20589.got.cif
#   From: 2010.06.25/outbox.cif.g09.slc.cpg/sg11_11_cif.got.tgz:20589.got - 2010.06.27 23:14:04.
