data_PCOD8073402
_publ_section_title
;
Structure prediction by ZEFSAII (Michael W. Deem and Ramdas Pophale) SiO2 
 PCOD8073402
Probable space group: P 21/M
;
_chemical_formula_sum "Si O2"
_cell_formula_units_Z 28
_cell_length_a 17.736390
_cell_length_b 9.053746
_cell_length_c 17.347224
_cell_angle_alpha 90.000000
_cell_angle_beta 34.354764
_cell_angle_gamma 90.000000
_cell_volume 1571.974201
_symmetry_space_group_name_H-M "P 21/M"
_symmetry_group_IT_number 11
_symmetry_cell_setting 'monoclinic'
loop_
_space_group_symop_operation_xyz
x,y,z
-x,1/2+y,-z
-x,-y,-z
x,1/2-y,z
loop_
_atom_site_type_symbol
_atom_site_label
_atom_site_fract_x
_atom_site_fract_y
_atom_site_fract_z
Si Si1 0.809484 0.077582 0.120264
Si Si2 0.185832 0.575918 0.157483
Si Si3 0.342685 0.425426 0.326742
Si Si4 0.367559 0.574889 0.867281
Si Si5 0.104479 0.425697 0.636510
Si Si6 0.632181 0.424736 0.856150
Si Si7 0.899985 0.577537 0.187173
O O1 0.796947 0.250000 0.146331
O O2 0.690214 0.018800 0.165893
O O3 0.799972 0.998753 0.210999
O O4 0.947388 0.037872 0.961185
O O5 0.179865 0.750000 0.150075
O O6 0.245519 0.536405 0.190308
O O7 0.036227 0.510364 0.276532
O O8 0.280734 0.507362 0.010864
O O9 0.339468 0.250000 0.314821
O O10 0.479557 0.475026 0.252673
O O11 0.222917 0.481650 0.481847
O O12 0.327075 0.508687 0.259703
O O13 0.355506 0.750000 0.880354
O O14 0.099985 0.250000 0.641113
O O15 0.130323 0.483030 0.701588
O O16 0.607756 0.250000 0.871075
O O17 0.500000 0.500000 0.000000
O O18 0.873203 0.750000 0.204379
#
# Coordination Sequence:
#
# PCOD8073402 Si02
#       7
#     4   4   4   4   4   4   4
#     4   9  16  27  48  72  94 125 166 203 242 291
#     4   9  16  29  51  74  97 129 167 203 240 292
#     4  10  20  34  53  76 101 130 168 208 246 293
#     4   9  15  28  49  72  96 128 168 201 236 293
#     4   9  17  31  51  74 100 134 169 201 242 299
#     4  11  21  34  54  77 102 131 167 208 251 293
#     4   9  16  28  47  71  97 124 160 206 248 285
#
# _framework density 17.811997999999999
#
# number of rings (size 3 to 8) (size 9 to 14) (size 15 to 20)
#    0.000    2.571    2.857    0.429    0.000    0.571 
#    0.000    2.143    0.000    2.571    0.000    0.000 
#    0.000    0.000    0.000    0.000    0.000    0.000 
#
# Total GULP energy -347128.377389 kJ/mol
# GULP energy per Si atom -12397.442050 kJ/mol
# Density = 1.777146 g / cm^3
# Si number density = 17.811998 Si / 1000 Ang^3
#
#
#
# Elastic Constant Matrix: (Units=GPa)
#
#
# Indices 1 2 3 4 5 6 
#
# 1 190.4949 38.1283 95.4219 0.0000 4.4354 0.0000
# 2 38.1283 27.8190 29.2812 0.0000 4.8242 0.0000
# 3 95.4219 29.2812 141.5069 0.0000 2.8188 0.0000
# 4 0.0000 0.0000 0.0000 13.5203 0.0000 6.4703
# 5 4.4354 4.8242 2.8188 0.0000 31.9678 0.0000
# 6 0.0000 0.0000 0.0000 6.4703 0.0000 28.3565
#
#
#
# Elastic Compliance Matrix: (Units=1/GPa)
#
#
# Indices 1 2 3 4 5 6 
#
# 1 0.009043 -0.007699 -0.004511 0.000000 0.000305 0.000000
# 2 -0.007699 0.053733 -0.005797 0.000000 -0.006529 0.000000
# 3 -0.004511 -0.005797 0.011298 0.000000 0.000504 0.000000
# 4 0.000000 0.000000 0.000000 0.083029 0.000000 -0.018945
# 5 0.000305 -0.006529 0.000504 0.000000 0.032180 0.000000
# 6 0.000000 0.000000 0.000000 -0.018945 0.000000 0.039588
#
#
# Mechanical properties :
#
#
# Convention : Reuss Voigt Hill
#
# Bulk Modulus (GPa) = 26.27416 76.16486 51.21951
# Shear Modulus (GPa) = 18.01336 27.90153 22.95745
#
# Velocity S-wave (km/s) = 3.18355 3.96213 3.59399
# Velocity P-wave (km/s) = 5.31942 7.98652 6.78530
#
# Compressibility (1/GPa) = 0.03806021
#
# Stress axis : x y z
#
# Youngs Moduli (GPa) = 110.58352 18.61062 88.51091
#
# Poissons Ratio (x) = 0.14328 0.39926
# Poissons Ratio (y) = 0.85139 0.51308
# Poissons Ratio (z) = 0.49883 0.10788
#
# Static dielectric constant tensor:
#      x y z
#    x 3.649630 0.000000 -0.027350 
#    y 0.000000 2.888990 0.000000 
#    z -0.027350 0.000000 3.365350 
# 
# 
# High freq. dielectric constant tensor:
#      x y z
#    x 1.709040 0.000000 0.001290 
#    y 0.000000 1.641700 0.000000 
#    z 0.001290 0.000000 1.675820 
# 
# From -- ./inp_files/52146.got.cif
#   From: 2010.06.25/outbox.cif.g09.slc.cpg/sg11_27_cif.got.tgz:52146.got - 2010.06.27 23:14:04.
