data_PCOD8073938
_publ_section_title
;
Structure prediction by ZEFSAII (Michael W. Deem and Ramdas Pophale) SiO2 
 PCOD8073938
Probable space group: P 21/M
;
_chemical_formula_sum "Si O2"
_cell_formula_units_Z 32
_cell_length_a 12.249034
_cell_length_b 9.101859
_cell_length_c 14.433994
_cell_angle_alpha 90.000000
_cell_angle_beta 98.012317
_cell_angle_gamma 90.000000
_cell_volume 1593.522163
_symmetry_space_group_name_H-M "P 21/M"
_symmetry_group_IT_number 11
_symmetry_cell_setting 'monoclinic'
loop_
_space_group_symop_operation_xyz
x,y,z
-x,1/2+y,-z
-x,-y,-z
x,1/2-y,z
loop_
_atom_site_type_symbol
_atom_site_label
_atom_site_fract_x
_atom_site_fract_y
_atom_site_fract_z
Si Si1 0.401221 0.589701 0.526500
Si Si2 0.259141 0.081164 0.839634
Si Si3 0.514611 0.073084 0.100063
Si Si4 0.221308 0.911746 0.345560
Si Si5 0.090433 0.409705 0.460260
Si Si6 0.698506 0.073915 0.846229
Si Si7 0.729146 0.591356 0.361760
Si Si8 0.119677 0.074304 0.000894
O O1 0.500000 0.500000 0.500000
O O2 0.445781 0.750000 0.554373
O O3 0.308691 0.591708 0.437823
O O4 0.361923 0.527927 0.621248
O O5 0.296215 0.250000 0.862099
O O6 0.211315 0.057355 0.729641
O O7 0.363959 0.973488 0.853379
O O8 0.164247 0.039885 0.902281
O O9 0.504218 0.250000 0.095503
O O10 0.419008 0.003576 0.152236
O O11 0.500000 0.000000 0.000000
O O12 0.169984 0.750000 0.325231
O O13 0.274085 0.965343 0.256415
O O14 0.123818 0.019346 0.365962
O O15 0.043062 0.250000 0.430468
O O16 0.188589 0.399760 0.543785
O O17 0.000000 0.500000 0.500000
O O18 0.692118 0.250000 0.863786
O O19 0.793204 0.000689 0.919908
O O20 0.669558 0.750000 0.345150
O O21 0.111525 0.250000 0.017560
O O22 0.000000 0.000000 0.000000
#
# Coordination Sequence:
#
# PCOD8073938 Si02
#       8
#     4   4   4   4   4   4   4   4
#     4  10  20  35  54  81 115 153 191 234 287 343
#     4  10  22  41  63  87 120 161 204 249 303 364
#     4  12  24  39  62  91 123 160 202 251 306 364
#     4   9  21  39  58  82 115 155 198 242 293 352
#     4  10  20  36  60  87 117 155 198 249 300 352
#     4  11  23  41  64  90 122 162 205 253 307 365
#     4   9  20  38  58  82 113 152 196 240 290 349
#     4  11  24  42  64  90 122 161 202 252 305 364
#
# _framework density 20.081301
#
# number of rings (size 3 to 8) (size 9 to 14) (size 15 to 20)
#    0.000    1.750    1.250    2.625    1.750    4.000 
#    0.000    2.500    0.000    0.000    0.000    0.000 
#    0.000    0.000    0.000    0.000    0.000    0.000 
#
# Total GULP energy -396548.929262 kJ/mol
# GULP energy per Si atom -12392.154039 kJ/mol
# Density = 2.003560 g / cm^3
# Si number density = 20.081301 Si / 1000 Ang^3
#
#
#
# Elastic Constant Matrix: (Units=GPa)
#
#
# Indices 1 2 3 4 5 6 
#
# 1 104.1152 67.3968 34.9549 0.0000 -40.5931 0.0000
# 2 67.3968 162.9711 54.1268 0.0000 -36.6049 0.0000
# 3 34.9549 54.1268 127.4158 0.0000 -44.3446 0.0000
# 4 0.0000 0.0000 0.0000 30.0408 0.0000 -5.8650
# 5 -40.5931 -36.6049 -44.3446 0.0000 37.6577 0.0000
# 6 0.0000 0.0000 0.0000 -5.8650 0.0000 40.2375
#
#
#
# Elastic Compliance Matrix: (Units=1/GPa)
#
#
# Indices 1 2 3 4 5 6 
#
# 1 0.019572 -0.004641 0.004024 0.000000 0.021326 0.000000
# 2 -0.004641 0.009051 -0.002119 0.000000 0.001300 0.000000
# 3 0.004024 -0.002119 0.014297 0.000000 0.019113 0.000000
# 4 0.000000 0.000000 0.000000 0.034263 0.000000 0.004994
# 5 0.021326 0.001300 0.019113 0.000000 0.073313 0.000000
# 6 0.000000 0.000000 0.000000 0.004994 0.000000 0.025580
#
#
# Mechanical properties :
#
#
# Convention : Reuss Voigt Hill
#
# Bulk Modulus (GPa) = 26.70405 78.60656 52.65530
# Shear Modulus (GPa) = 25.76904 37.45543 31.61223
#
# Velocity S-wave (km/s) = 3.58611 4.32347 3.97194
# Velocity P-wave (km/s) = 5.52031 8.00951 6.87845
#
# Compressibility (1/GPa) = 0.03744751
#
# Stress axis : x y z
#
# Youngs Moduli (GPa) = 51.09241 110.48391 69.94708
#
# Poissons Ratio (x) = 0.51272 -0.28146
# Poissons Ratio (y) = 0.23710 0.14825
# Poissons Ratio (z) = -0.20559 0.23417
#
# Static dielectric constant tensor:
#      x y z
#    x 3.602390 0.000000 -0.201150 
#    y 0.000000 4.277130 0.000000 
#    z -0.201150 0.000000 3.757730 
# 
# 
# High freq. dielectric constant tensor:
#      x y z
#    x 1.772120 0.000000 -0.018540 
#    y 0.000000 1.798500 0.000000 
#    z -0.018540 0.000000 1.792400 
# 
# From -- ./inp_files/49313.got.cif
#   From: 2010.06.25/outbox.cif.g09.slc.cpg/sg11_25_cif.got.tgz:49313.got - 2010.06.27 23:14:04.
