data_PCOD8073105
_publ_section_title
;
Structure prediction by ZEFSAII (Michael W. Deem and Ramdas Pophale) SiO2 
 PCOD8073105
Probable space group: P 21/M
;
_chemical_formula_sum "Si O2"
_cell_formula_units_Z 32
_cell_length_a 21.843788
_cell_length_b 9.399901
_cell_length_c 28.135853
_cell_angle_alpha 90.000000
_cell_angle_beta 162.574951
_cell_angle_gamma 90.000000
_cell_volume 1730.004209
_symmetry_space_group_name_H-M "P 21/M"
_symmetry_group_IT_number 11
_symmetry_cell_setting 'monoclinic'
loop_
_space_group_symop_operation_xyz
x,y,z
-x,1/2+y,-z
-x,-y,-z
x,1/2-y,z
loop_
_atom_site_type_symbol
_atom_site_label
_atom_site_fract_x
_atom_site_fract_y
_atom_site_fract_z
Si Si1 0.834917 0.588021 0.018886
Si Si2 0.142656 0.412149 0.071551
Si Si3 0.908364 0.904698 0.471654
Si Si4 0.609964 0.084056 0.410871
Si Si5 0.347682 0.918975 0.957628
Si Si6 0.565320 0.581106 0.285162
Si Si7 0.994345 0.913984 0.237690
Si Si8 0.309877 0.907167 0.821380
O O1 0.748968 0.750000 0.956773
O O2 0.993839 0.563010 0.179916
O O3 0.929924 0.561415 0.036889
O O4 0.655408 0.475608 0.892406
O O5 0.111613 0.250000 0.063021
O O6 0.379306 0.456733 0.255870
O O7 0.000000 0.500000 0.000000
O O8 0.866538 0.750000 0.418460
O O9 0.701033 0.964249 0.340646
O O10 0.072023 0.896582 0.634706
O O11 0.000000 0.000000 0.500000
O O12 0.618192 0.250000 0.403389
O O13 0.777559 0.045628 0.575324
O O14 0.661789 0.992202 0.402963
O O15 0.353597 0.750000 0.971396
O O16 0.305857 0.964089 0.872304
O O17 0.177551 0.987521 0.865656
O O18 0.573555 0.990226 0.130862
O O19 0.561183 0.750000 0.290234
O O20 0.944991 0.750000 0.213654
O O21 0.411818 0.750000 0.894220
#
# Coordination Sequence:
#
# PCOD8073105 Si02
#       8
#     4   4   4   4   4   4   4   4
#     4   9  20  37  56  80 110 145 181 216 262 324
#     4   9  18  35  58  83 111 143 179 213 253 308
#     4  10  22  35  48  68  97 132 174 222 271 318
#     4   9  19  36  58  83 108 141 181 215 256 318
#     4  10  20  33  52  74 100 131 170 223 273 319
#     4  10  20  35  54  77 106 138 178 229 276 319
#     4  10  20  35  56  79 107 141 179 220 265 316
#     4   9  19  36  50  66  95 134 177 217 268 328
#
# _framework density 18.497066
#
# number of rings (size 3 to 8) (size 9 to 14) (size 15 to 20)
#    0.000    2.500    0.000    2.250    1.750    6.000 
#    0.000    0.625    0.000    0.000    0.000    0.000 
#    0.000    0.000    0.000    0.000    0.000    0.000 
#
# Total GULP energy -396567.970656 kJ/mol
# GULP energy per Si atom -12392.749083 kJ/mol
# Density = 1.845497 g / cm^3
# Si number density = 18.497066 Si / 1000 Ang^3
#
#
#
# Elastic Constant Matrix: (Units=GPa)
#
#
# Indices 1 2 3 4 5 6 
#
# 1 127.7058 61.9305 49.9691 0.0000 7.5055 0.0000
# 2 61.9305 82.4677 32.9208 0.0000 10.3920 0.0000
# 3 49.9691 32.9208 65.8327 0.0000 -7.3382 0.0000
# 4 0.0000 0.0000 0.0000 24.1685 0.0000 5.3212
# 5 7.5055 10.3920 -7.3382 0.0000 30.3087 0.0000
# 6 0.0000 0.0000 0.0000 5.3212 0.0000 34.8191
#
#
#
# Elastic Compliance Matrix: (Units=1/GPa)
#
#
# Indices 1 2 3 4 5 6 
#
# 1 0.014689 -0.007606 -0.007667 0.000000 -0.002886 0.000000
# 2 -0.007606 0.020802 -0.005359 0.000000 -0.006546 0.000000
# 3 -0.007667 -0.005359 0.024774 0.000000 0.009734 0.000000
# 4 0.000000 0.000000 0.000000 0.042817 0.000000 -0.006543
# 5 -0.002886 -0.006546 0.009734 0.000000 0.038310 0.000000
# 6 0.000000 0.000000 0.000000 -0.006543 0.000000 0.029720
#
#
# Mechanical properties :
#
#
# Convention : Reuss Voigt Hill
#
# Bulk Modulus (GPa) = 52.62942 62.84967 57.73954
# Shear Modulus (GPa) = 22.86128 26.60499 24.73314
#
# Velocity S-wave (km/s) = 3.51941 3.79665 3.66066
# Velocity P-wave (km/s) = 6.71041 7.29873 7.01074
#
# Compressibility (1/GPa) = 0.01900078
#
# Stress axis : x y z
#
# Youngs Moduli (GPa) = 68.07868 48.07177 40.36420
#
# Poissons Ratio (x) = 0.36566 0.30948
# Poissons Ratio (y) = 0.51784 0.21630
# Poissons Ratio (z) = 0.52198 0.25760
#
# Static dielectric constant tensor:
#      x y z
#    x 3.316140 0.000000 -0.174880 
#    y 0.000000 3.247390 0.000000 
#    z -0.174880 0.000000 3.987910 
# 
# 
# High freq. dielectric constant tensor:
#      x y z
#    x 1.706040 0.000000 -0.011140 
#    y 0.000000 1.720880 0.000000 
#    z -0.011140 0.000000 1.713230 
# 
# From -- ./inp_files/67113.got.cif
#   From: 2010.06.25/outbox.cif.g09.slc.cpg/sg11_34_cif.got.tgz:67113.got - 2010.06.27 23:14:04.
