data_PCOD8073838
_publ_section_title
;
Structure prediction by ZEFSAII (Michael W. Deem and Ramdas Pophale) SiO2 
 PCOD8073838
Probable space group: P 21/M
;
_chemical_formula_sum "Si O2"
_cell_formula_units_Z 24
_cell_length_a 23.444666
_cell_length_b 8.660374
_cell_length_c 11.913527
_cell_angle_alpha 90.000000
_cell_angle_beta 146.535020
_cell_angle_gamma 90.000000
_cell_volume 1333.856885
_symmetry_space_group_name_H-M "P 21/M"
_symmetry_group_IT_number 11
_symmetry_cell_setting 'monoclinic'
loop_
_space_group_symop_operation_xyz
x,y,z
-x,1/2+y,-z
-x,-y,-z
x,1/2-y,z
loop_
_atom_site_type_symbol
_atom_site_label
_atom_site_fract_x
_atom_site_fract_y
_atom_site_fract_z
Si Si1 0.429947 0.923591 0.242719
Si Si2 0.888101 0.569046 0.298777
Si Si3 0.742690 0.434400 0.879586
Si Si4 0.644994 0.934127 0.516917
Si Si5 0.265115 0.923860 0.786629
Si Si6 0.609642 0.067478 0.218593
O O1 0.450628 0.750000 0.315483
O O2 0.359179 0.001765 0.222616
O O3 0.540901 0.003113 0.404993
O O4 0.371743 0.929553 0.029306
O O5 0.894923 0.750000 0.291398
O O6 0.819872 0.534989 0.297668
O O7 0.000000 0.500000 0.500000
O O8 0.842296 0.492989 0.110622
O O9 0.745985 0.250000 0.883881
O O10 0.740224 0.502989 0.749253
O O11 0.645728 0.750000 0.511904
O O12 0.651705 0.999633 0.403538
O O13 0.219566 0.750000 0.713231
O O14 0.298080 0.976660 0.716335
O O15 0.595797 0.250000 0.204431
O O16 0.500000 0.000000 0.000000
#
# Coordination Sequence:
#
# PCOD8073838 Si02
#       6
#     4   4   4   4   4   4
#     4   8  15  29  48  71 104 142 178 219 262 308
#     4  11  22  38  61  86 107 135 174 224 280 330
#     4  10  20  35  52  76 108 142 180 223 272 323
#     4  11  20  32  49  75 110 149 187 222 264 317
#     4   9  18  35  54  77 109 144 183 227 267 314
#     4  11  21  34  52  76 110 152 191 225 264 312
#
# _framework density 17.992934000000002
#
# number of rings (size 3 to 8) (size 9 to 14) (size 15 to 20)
#    0.000    2.000    1.667    4.500    0.000    1.333 
#    0.000    1.667    0.000    1.000    0.000    0.000 
#    0.000    0.000    0.000    0.000    0.000    0.000 
#
# Total GULP energy -297480.670212 kJ/mol
# GULP energy per Si atom -12395.027926 kJ/mol
# Density = 1.795198 g / cm^3
# Si number density = 17.992934 Si / 1000 Ang^3
#
#
#
# Elastic Constant Matrix: (Units=GPa)
#
#
# Indices 1 2 3 4 5 6 
#
# 1 85.4027 46.5827 75.1717 0.0000 -22.5047 0.0000
# 2 46.5827 95.9598 43.8591 0.0000 -7.4721 0.0000
# 3 75.1717 43.8591 109.3848 0.0000 -17.1340 0.0000
# 4 0.0000 0.0000 0.0000 29.7313 0.0000 -4.2204
# 5 -22.5047 -7.4721 -17.1340 0.0000 31.3304 0.0000
# 6 0.0000 0.0000 0.0000 -4.2204 0.0000 27.3962
#
#
#
# Elastic Compliance Matrix: (Units=1/GPa)
#
#
# Indices 1 2 3 4 5 6 
#
# 1 0.037924 -0.007848 -0.020716 0.000000 0.014040 0.000000
# 2 -0.007848 0.014385 -0.000788 0.000000 -0.002637 0.000000
# 3 -0.020716 -0.000788 0.023333 0.000000 -0.002308 0.000000
# 4 0.000000 0.000000 0.000000 0.034387 0.000000 0.005297
# 5 0.014040 -0.002637 -0.002308 0.000000 0.040112 0.000000
# 6 0.000000 0.000000 0.000000 0.005297 0.000000 0.037317
#
#
# Mechanical properties :
#
#
# Convention : Reuss Voigt Hill
#
# Bulk Modulus (GPa) = 59.03743 69.10825 64.07284
# Shear Modulus (GPa) = 19.85629 26.03384 22.94506
#
# Velocity S-wave (km/s) = 3.32559 3.80793 3.57491
# Velocity P-wave (km/s) = 6.90136 7.60432 7.26135
#
# Compressibility (1/GPa) = 0.01693841
#
# Stress axis : x y z
#
# Youngs Moduli (GPa) = 26.36827 69.51445 42.85752
#
# Poissons Ratio (x) = 0.54556 0.88786
# Poissons Ratio (y) = 0.20694 0.03376
# Poissons Ratio (z) = 0.54626 0.05476
#
# Static dielectric constant tensor:
#      x y z
#    x 3.396530 0.000000 -0.166520 
#    y 0.000000 3.266110 0.000000 
#    z -0.166520 0.000000 3.240750 
# 
# 
# High freq. dielectric constant tensor:
#      x y z
#    x 1.686060 0.000000 -0.019940 
#    y 0.000000 1.694520 0.000000 
#    z -0.019940 0.000000 1.682210 
# 
# From -- ./inp_files/37251.got.cif
#   From: 2010.06.25/outbox.cif.g09.slc.cpg/sg11_19_cif.got.tgz:37251.got - 2010.06.27 23:14:04.
