data_PCOD8073333
_publ_section_title
;
Structure prediction by ZEFSAII (Michael W. Deem and Ramdas Pophale) SiO2 
 PCOD8073333
Probable space group: P 21/M
;
_chemical_formula_sum "Si O2"
_cell_formula_units_Z 32
_cell_length_a 14.880892
_cell_length_b 8.678241
_cell_length_c 30.557713
_cell_angle_alpha 90.000000
_cell_angle_beta 151.414769
_cell_angle_gamma 90.000000
_cell_volume 1888.131211
_symmetry_space_group_name_H-M "P 21/M"
_symmetry_group_IT_number 11
_symmetry_cell_setting 'monoclinic'
loop_
_space_group_symop_operation_xyz
x,y,z
-x,1/2+y,-z
-x,-y,-z
x,1/2-y,z
loop_
_atom_site_type_symbol
_atom_site_label
_atom_site_fract_x
_atom_site_fract_y
_atom_site_fract_z
Si Si1 0.056063 0.428539 0.088160
Si Si2 0.701380 0.072085 0.882374
Si Si3 0.624155 0.429468 0.374766
Si Si4 0.677379 0.070860 0.297132
Si Si5 0.671778 0.571976 0.630761
Si Si6 0.244701 0.570707 0.246498
Si Si7 0.279337 0.428779 0.446531
Si Si8 0.952788 0.428891 0.581172
O O1 0.107523 0.250000 0.103362
O O2 0.197322 0.528258 0.119402
O O3 0.087399 0.479161 0.151515
O O4 0.840865 0.460835 0.982646
O O5 0.643093 0.250000 0.854932
O O6 0.516493 0.969786 0.810308
O O7 0.570774 0.250000 0.355683
O O8 0.662272 0.477465 0.341263
O O9 0.453469 0.528160 0.320367
O O10 0.810147 0.471616 0.481260
O O11 0.723154 0.250000 0.311237
O O12 0.839607 0.972448 0.344394
O O13 0.688747 0.750000 0.650534
O O14 0.783063 0.474404 0.714628
O O15 0.452319 0.529643 0.537665
O O16 0.761679 0.535010 0.621950
O O17 0.209434 0.750000 0.225289
O O18 0.330370 0.250000 0.474594
O O19 0.097587 0.475186 0.396750
O O20 0.944456 0.250000 0.589292
#
# Coordination Sequence:
#
# PCOD8073333 Si02
#       8
#     4   4   4   4   4   4   4   4
#     4  10  20  34  52  73 103 135 167 210 259 308
#     4  10  20  34  52  75 100 132 173 213 255 304
#     4  10  21  35  49  70 102 140 176 211 252 295
#     4  11  22  35  52  72 102 140 178 217 254 300
#     4  10  20  34  52  73 103 135 167 210 259 308
#     4  12  22  31  51  78 104 136 173 211 252 309
#     4  10  20  34  52  75 100 132 173 213 255 304
#     4  11  22  35  52  72 102 140 178 217 254 300
#
# _framework density 16.947975
#
# number of rings (size 3 to 8) (size 9 to 14) (size 15 to 20)
#    0.000    1.500    2.500    3.750    0.000    4.000 
#    0.000    0.000    0.000    0.000    0.000    0.875 
#    0.000    0.000    0.000    0.000    0.000    0.000 
#
# Total GULP energy -396957.101751 kJ/mol
# GULP energy per Si atom -12404.909430 kJ/mol
# Density = 1.690940 g / cm^3
# Si number density = 16.947975 Si / 1000 Ang^3
#
#
#
# Elastic Constant Matrix: (Units=GPa)
#
#
# Indices 1 2 3 4 5 6 
#
# 1 82.0648 22.6173 43.2259 0.0000 -8.7256 0.0000
# 2 22.6173 51.3893 25.6338 0.0000 -3.6312 0.0000
# 3 43.2259 25.6338 97.3385 0.0000 -8.1519 0.0000
# 4 0.0000 0.0000 0.0000 27.3097 0.0000 0.3015
# 5 -8.7256 -3.6312 -8.1519 0.0000 22.6011 0.0000
# 6 0.0000 0.0000 0.0000 0.3015 0.0000 26.3915
#
#
#
# Elastic Compliance Matrix: (Units=1/GPa)
#
#
# Indices 1 2 3 4 5 6 
#
# 1 0.016944 -0.004142 -0.006127 0.000000 0.003666 0.000000
# 2 -0.004142 0.023465 -0.004288 0.000000 0.000624 0.000000
# 3 -0.006127 -0.004288 0.014299 0.000000 0.002103 0.000000
# 4 0.000000 0.000000 0.000000 0.036622 0.000000 -0.000418
# 5 0.003666 0.000624 0.002103 0.000000 0.046520 0.000000
# 6 0.000000 0.000000 0.000000 -0.000418 0.000000 0.037896
#
#
# Mechanical properties :
#
#
# Convention : Reuss Voigt Hill
#
# Bulk Modulus (GPa) = 39.06928 45.97186 42.52057
# Shear Modulus (GPa) = 23.43116 24.54816 23.98966
#
# Velocity S-wave (km/s) = 3.72228 3.80997 3.76638
# Velocity P-wave (km/s) = 6.44797 6.82192 6.63758
#
# Compressibility (1/GPa) = 0.02559556
#
# Stress axis : x y z
#
# Youngs Moduli (GPa) = 59.01806 42.61616 69.93290
#
# Poissons Ratio (x) = 0.17653 0.42845
# Poissons Ratio (y) = 0.24447 0.29985
# Poissons Ratio (z) = 0.36158 0.18273
#
# Static dielectric constant tensor:
#      x y z
#    x 3.103990 0.000000 -0.215300 
#    y 0.000000 3.220310 0.000000 
#    z -0.215300 0.000000 3.206930 
# 
# 
# High freq. dielectric constant tensor:
#      x y z
#    x 1.632290 0.000000 -0.015670 
#    y 0.000000 1.669020 0.000000 
#    z -0.015670 0.000000 1.641340 
# 
# From -- ./inp_files/73321.got.cif
#   From: 2010.06.25/outbox.cif.g09.slc.cpg/sg11_37_cif.got.tgz:73321.got - 2010.06.27 23:14:04.
