data_PCOD8073509
_publ_section_title
;
Structure prediction by ZEFSAII (Michael W. Deem and Ramdas Pophale) SiO2 
 PCOD8073509
Probable space group: P 21/M
;
_chemical_formula_sum "Si O2"
_cell_formula_units_Z 24
_cell_length_a 22.647308
_cell_length_b 13.535461
_cell_length_c 11.531232
_cell_angle_alpha 90.000000
_cell_angle_beta 21.289295
_cell_angle_gamma 90.000000
_cell_volume 1283.406591
_symmetry_space_group_name_H-M "P 21/M"
_symmetry_group_IT_number 11
_symmetry_cell_setting 'monoclinic'
loop_
_space_group_symop_operation_xyz
x,y,z
-x,1/2+y,-z
-x,-y,-z
x,1/2-y,z
loop_
_atom_site_type_symbol
_atom_site_label
_atom_site_fract_x
_atom_site_fract_y
_atom_site_fract_z
Si Si1 0.159301 0.509189 0.284771
Si Si2 0.447103 0.638461 0.672505
Si Si3 0.568549 0.861432 0.192885
Si Si4 0.142385 0.132708 0.744647
Si Si5 0.336324 0.482750 0.557715
Si Si6 0.978151 0.005457 0.219358
O O1 0.115231 0.541730 0.496023
O O2 0.000000 0.500000 0.500000
O O3 0.274031 0.592303 0.021011
O O4 0.249831 0.403311 0.123481
O O5 0.448900 0.750000 0.714078
O O6 0.471684 0.632501 0.490556
O O7 0.594946 0.581657 0.462315
O O8 0.580229 0.750000 0.124157
O O9 0.463583 0.928947 0.295542
O O10 0.151141 0.250000 0.720917
O O11 0.116666 0.087375 0.663811
O O12 0.309478 0.087740 0.493979
O O13 0.990818 0.097018 0.104171
O O14 0.162332 0.528183 0.915567
#
# Coordination Sequence:
#
# PCOD8073509 Si02
#       6
#     4   4   4   4   4   4
#     4  11  21  36  56  82 118 141 178 235 281 327
#     4  10  20  34  54  79 111 152 188 221 271 333
#     4  10  21  35  53  80 115 153 188 222 275 333
#     4   9  19  36  59  83 109 147 189 227 275 330
#     4   9  17  36  56  78 104 145 189 226 268 322
#     4   9  20  35  57  86 109 142 185 232 278 321
#
# _framework density 18.700230000000001
#
# number of rings (size 3 to 8) (size 9 to 14) (size 15 to 20)
#    1.000    1.333    0.000    4.500    0.000    2.667 
#    0.000    3.333    0.000    2.000    0.000    0.000 
#    0.000    0.000    0.000    0.000    0.000    0.000 
#
# Total GULP energy -297444.868228 kJ/mol
# GULP energy per Si atom -12393.536176 kJ/mol
# Density = 1.865767 g / cm^3
# Si number density = 18.700230 Si / 1000 Ang^3
#
#
#
# Elastic Constant Matrix: (Units=GPa)
#
#
# Indices 1 2 3 4 5 6 
#
# 1 77.9237 35.3322 29.8442 0.0000 -11.4642 0.0000
# 2 35.3322 133.3468 17.9095 0.0000 -25.3872 0.0000
# 3 29.8442 17.9095 68.6797 0.0000 -12.6465 0.0000
# 4 0.0000 0.0000 0.0000 16.9320 0.0000 -0.6168
# 5 -11.4642 -25.3872 -12.6465 0.0000 34.5795 0.0000
# 6 0.0000 0.0000 0.0000 -0.6168 0.0000 24.0046
#
#
#
# Elastic Compliance Matrix: (Units=1/GPa)
#
#
# Indices 1 2 3 4 5 6 
#
# 1 0.016948 -0.003502 -0.006316 0.000000 0.000738 0.000000
# 2 -0.003502 0.009531 0.000119 0.000000 0.005880 0.000000
# 3 -0.006316 0.000119 0.018125 0.000000 0.004622 0.000000
# 4 0.000000 0.000000 0.000000 0.059115 0.000000 0.001519
# 5 0.000738 0.005880 0.004622 0.000000 0.035171 0.000000
# 6 0.000000 0.000000 0.000000 0.001519 0.000000 0.041698
#
#
# Mechanical properties :
#
#
# Convention : Reuss Voigt Hill
#
# Bulk Modulus (GPa) = 39.67196 49.56914 44.62055
# Shear Modulus (GPa) = 23.99389 28.22751 26.11070
#
# Velocity S-wave (km/s) = 3.58590 3.88941 3.74073
# Velocity P-wave (km/s) = 6.19723 6.83628 6.52458
#
# Compressibility (1/GPa) = 0.02520672
#
# Stress axis : x y z
#
# Youngs Moduli (GPa) = 59.00269 104.92599 55.17295
#
# Poissons Ratio (x) = 0.36745 0.34845
# Poissons Ratio (y) = 0.20663 -0.00657
# Poissons Ratio (z) = 0.37264 -0.01250
#
# Static dielectric constant tensor:
#      x y z
#    x 3.381330 0.000000 -0.123760 
#    y 0.000000 3.544060 0.000000 
#    z -0.123760 0.000000 3.275330 
# 
# 
# High freq. dielectric constant tensor:
#      x y z
#    x 1.724530 0.000000 -0.011870 
#    y 0.000000 1.719020 0.000000 
#    z -0.011870 0.000000 1.710370 
# 
# From -- ./inp_files/44302.got.cif
#   From: 2010.06.25/outbox.cif.g09.slc.cpg/sg11_23_cif.got.tgz:44302.got - 2010.06.27 23:14:04.
