data_PCOD8073364
_publ_section_title
;
Structure prediction by ZEFSAII (Michael W. Deem and Ramdas Pophale) SiO2 
 PCOD8073364
Probable space group: P 21/M
;
_chemical_formula_sum "Si O2"
_cell_formula_units_Z 32
_cell_length_a 19.146112
_cell_length_b 9.050649
_cell_length_c 24.663631
_cell_angle_alpha 90.000000
_cell_angle_beta 23.658108
_cell_angle_gamma 90.000000
_cell_volume 1714.995072
_symmetry_space_group_name_H-M "P 21/M"
_symmetry_group_IT_number 11
_symmetry_cell_setting 'monoclinic'
loop_
_space_group_symop_operation_xyz
x,y,z
-x,1/2+y,-z
-x,-y,-z
x,1/2-y,z
loop_
_atom_site_type_symbol
_atom_site_label
_atom_site_fract_x
_atom_site_fract_y
_atom_site_fract_z
Si Si1 0.174652 0.587177 0.117719
Si Si2 0.977300 0.580080 0.364115
Si Si3 0.659560 0.426348 0.416330
Si Si4 0.546389 0.582918 0.812273
Si Si5 0.032697 0.422021 0.121655
Si Si6 0.612919 0.923913 0.176325
Si Si7 0.653227 0.422231 0.545269
Si Si8 0.133440 0.925066 0.366033
O O1 0.105059 0.750000 0.148918
O O2 0.096289 0.459723 0.136367
O O3 0.120377 0.550911 0.216853
O O4 0.381123 0.585830 0.968745
O O5 0.923080 0.750000 0.407838
O O6 0.800966 0.493403 0.477292
O O7 0.072310 0.523374 0.350270
O O8 0.500000 0.500000 0.500000
O O9 0.641358 0.250000 0.427546
O O10 0.657666 0.482953 0.480384
O O11 0.833827 0.482880 0.259975
O O12 0.615621 0.750000 0.752300
O O13 0.502894 0.510175 0.785207
O O14 0.678734 0.486515 0.752677
O O15 0.017187 0.250000 0.125887
O O16 0.182273 0.479414 0.972720
O O17 0.604696 0.750000 0.168158
O O18 0.533753 0.955369 0.292504
O O19 0.691237 0.250000 0.517166
O O20 0.134484 0.750000 0.371679
O O21 0.000000 0.000000 0.500000
#
# Coordination Sequence:
#
# PCOD8073364 Si02
#       8
#     4   4   4   4   4   4   4   4
#     4   9  18  33  53  77 103 134 172 217 265 310
#     4  10  21  35  53  76 103 136 176 221 266 311
#     4  10  21  36  55  80 109 139 172 211 258 312
#     4  10  20  34  52  76 107 139 176 219 264 315
#     4   9  17  33  55  79 106 137 175 213 255 312
#     4   9  18  33  56  80 105 140 177 219 266 307
#     4  10  20  35  55  81 107 133 174 220 260 311
#     4  11  23  37  51  71 102 140 180 222 269 318
#
# _framework density 18.658944999999999
#
# number of rings (size 3 to 8) (size 9 to 14) (size 15 to 20)
#    0.000    2.250    1.250    1.500    0.000    5.500 
#    0.000    0.625    0.000    0.000    0.000    0.000 
#    0.000    0.000    0.000    0.000    0.000    0.000 
#
# Total GULP energy -396544.435253 kJ/mol
# GULP energy per Si atom -12392.013602 kJ/mol
# Density = 1.861648 g / cm^3
# Si number density = 18.658945 Si / 1000 Ang^3
#
#
#
# Elastic Constant Matrix: (Units=GPa)
#
#
# Indices 1 2 3 4 5 6 
#
# 1 64.0997 21.2678 52.6775 0.0000 -7.9611 0.0000
# 2 21.2678 31.8590 30.6490 0.0000 -3.4122 0.0000
# 3 52.6775 30.6490 132.9642 0.0000 -1.7710 0.0000
# 4 0.0000 0.0000 0.0000 25.8530 0.0000 -6.1968
# 5 -7.9611 -3.4122 -1.7710 0.0000 33.1921 0.0000
# 6 0.0000 0.0000 0.0000 -6.1968 0.0000 26.7105
#
#
#
# Elastic Compliance Matrix: (Units=1/GPa)
#
#
# Indices 1 2 3 4 5 6 
#
# 1 0.025828 -0.008919 -0.008112 0.000000 0.004845 0.000000
# 2 -0.008919 0.043859 -0.006549 0.000000 0.002020 0.000000
# 3 -0.008112 -0.006549 0.012218 0.000000 -0.001967 0.000000
# 4 0.000000 0.000000 0.000000 0.040958 0.000000 0.009502
# 5 0.004845 0.002020 -0.001967 0.000000 0.031393 0.000000
# 6 0.000000 0.000000 0.000000 0.009502 0.000000 0.039643
#
#
# Mechanical properties :
#
#
# Convention : Reuss Voigt Hill
#
# Bulk Modulus (GPa) = 28.78142 48.67906 38.73024
# Shear Modulus (GPa) = 19.79084 25.43966 22.61525
#
# Velocity S-wave (km/s) = 3.26031 3.69643 3.48520
# Velocity P-wave (km/s) = 5.44347 6.66061 6.08256
#
# Compressibility (1/GPa) = 0.03474464
#
# Stress axis : x y z
#
# Youngs Moduli (GPa) = 38.71706 22.80020 81.84517
#
# Poissons Ratio (x) = 0.20335 0.66395
# Poissons Ratio (y) = 0.34532 0.53604
# Poissons Ratio (z) = 0.31408 0.14933
#
# Static dielectric constant tensor:
#      x y z
#    x 3.220460 0.000000 0.180560 
#    y 0.000000 3.418840 0.000000 
#    z 0.180560 0.000000 3.861400 
# 
# 
# High freq. dielectric constant tensor:
#      x y z
#    x 1.698000 0.000000 0.007400 
#    y 0.000000 1.719900 0.000000 
#    z 0.007400 0.000000 1.747590 
# 
# From -- ./inp_files/72063.got.cif
#   From: 2010.06.25/outbox.cif.g09.slc.cpg/sg11_37_cif.got.tgz:72063.got - 2010.06.27 23:14:04.
