data_PCOD8073111
_publ_section_title
;
Structure prediction by ZEFSAII (Michael W. Deem and Ramdas Pophale) SiO2 
 PCOD8073111
Probable space group: P 21/M
;
_chemical_formula_sum "Si O2"
_cell_formula_units_Z 32
_cell_length_a 22.711889
_cell_length_b 8.700747
_cell_length_c 27.800492
_cell_angle_alpha 90.000000
_cell_angle_beta 17.696172
_cell_angle_gamma 90.000000
_cell_volume 1669.906528
_symmetry_space_group_name_H-M "P 21/M"
_symmetry_group_IT_number 11
_symmetry_cell_setting 'monoclinic'
loop_
_space_group_symop_operation_xyz
x,y,z
-x,1/2+y,-z
-x,-y,-z
x,1/2-y,z
loop_
_atom_site_type_symbol
_atom_site_label
_atom_site_fract_x
_atom_site_fract_y
_atom_site_fract_z
Si Si1 0.779724 0.932798 0.404138
Si Si2 0.530544 0.931064 0.028045
Si Si3 0.704525 0.567471 0.355378
Si Si4 0.965627 0.432141 0.974651
Si Si5 0.199210 0.566971 0.109021
Si Si6 0.486939 0.428509 0.210100
Si Si7 0.543428 0.433250 0.271798
Si Si8 0.208372 0.070217 0.345136
O O1 0.777383 0.750000 0.405689
O O2 0.756028 0.994641 0.368396
O O3 0.606597 0.998909 0.571951
O O4 0.982798 0.991836 0.267469
O O5 0.544394 0.750000 0.013765
O O6 0.348508 0.979878 0.201105
O O7 0.500000 0.000000 0.000000
O O8 0.729004 0.996082 0.896528
O O9 0.500000 0.500000 0.500000
O O10 0.692275 0.750000 0.364389
O O11 0.868886 0.508454 0.190609
O O12 0.968656 0.250000 0.975795
O O13 0.758505 0.491218 0.116844
O O14 0.000000 0.500000 0.000000
O O15 0.212513 0.750000 0.102713
O O16 0.337107 0.504068 0.958810
O O17 0.529914 0.250000 0.183174
O O18 0.484700 0.501964 0.265149
O O19 0.281710 0.456170 0.342976
O O20 0.533300 0.250000 0.279908
O O21 0.210233 0.250000 0.330670
O O22 0.000000 0.000000 0.500000
#
# Coordination Sequence:
#
# PCOD8073111 Si02
#       8
#     4   4   4   4   4   4   4   4
#     4   9  17  29  49  75 103 134 174 219 266 320
#     4  11  22  37  56  79 108 143 182 225 271 325
#     4  10  20  34  52  77 106 141 180 221 267 317
#     4  10  20  33  52  75 103 136 174 217 262 310
#     4   9  17  32  52  74 100 132 170 216 267 323
#     4   8  15  28  47  70  98 130 168 210 255 306
#     4   9  16  28  48  75 100 128 169 216 258 306
#     4  10  20  35  55  81 111 144 180 222 270 323
#
# _framework density 19.162748000000001
#
# number of rings (size 3 to 8) (size 9 to 14) (size 15 to 20)
#    0.000    2.500    0.000    3.750    0.000    5.500 
#    0.000    3.125    0.000    7.500    0.000    0.000 
#    0.000    0.000    0.000    0.000    0.000    0.000 
#
# Total GULP energy -396744.279754 kJ/mol
# GULP energy per Si atom -12398.258742 kJ/mol
# Density = 1.911913 g / cm^3
# Si number density = 19.162748 Si / 1000 Ang^3
#
#
#
# Elastic Constant Matrix: (Units=GPa)
#
#
# Indices 1 2 3 4 5 6 
#
# 1 196.8820 33.1245 95.3574 0.0000 -3.6744 0.0000
# 2 33.1245 41.2005 26.1415 0.0000 -4.3166 0.0000
# 3 95.3574 26.1415 166.8019 0.0000 -13.8785 0.0000
# 4 0.0000 0.0000 0.0000 24.7782 0.0000 -3.8103
# 5 -3.6744 -4.3166 -13.8785 0.0000 37.7133 0.0000
# 6 0.0000 0.0000 0.0000 -3.8103 0.0000 25.8206
#
#
#
# Elastic Compliance Matrix: (Units=1/GPa)
#
#
# Indices 1 2 3 4 5 6 
#
# 1 0.007537 -0.003756 -0.003811 0.000000 -0.001098 0.000000
# 2 -0.003756 0.028915 -0.002207 0.000000 0.002131 0.000000
# 3 -0.003811 -0.002207 0.008735 0.000000 0.002591 0.000000
# 4 0.000000 0.000000 0.000000 0.041295 0.000000 0.006094
# 5 -0.001098 0.002131 0.002591 0.000000 0.027606 0.000000
# 6 0.000000 0.000000 0.000000 0.006094 0.000000 0.039628
#
#
# Mechanical properties :
#
#
# Convention : Reuss Voigt Hill
#
# Bulk Modulus (GPa) = 39.00406 79.34790 59.17598
# Shear Modulus (GPa) = 27.50106 34.34647 30.92377
#
# Velocity S-wave (km/s) = 3.79242 4.23822 4.02150
# Velocity P-wave (km/s) = 6.29086 8.08995 7.24645
#
# Compressibility (1/GPa) = 0.02563836
#
# Stress axis : x y z
#
# Youngs Moduli (GPa) = 132.68682 34.58406 114.47722
#
# Poissons Ratio (x) = 0.12990 0.43630
# Poissons Ratio (y) = 0.49839 0.25265
# Poissons Ratio (z) = 0.50570 0.07633
#
# Static dielectric constant tensor:
#      x y z
#    x 3.890150 0.000000 0.010870 
#    y 0.000000 3.021630 0.000000 
#    z 0.010870 0.000000 3.715410 
# 
# 
# High freq. dielectric constant tensor:
#      x y z
#    x 1.762860 0.000000 -0.005510 
#    y 0.000000 1.701380 0.000000 
#    z -0.005510 0.000000 1.751990 
# 
# From -- ./inp_files/72085.got.cif
#   From: 2010.06.25/outbox.cif.g09.slc.cpg/sg11_37_cif.got.tgz:72085.got - 2010.06.27 23:14:04.
