data_PCOD8073847
_publ_section_title
;
Structure prediction by ZEFSAII (Michael W. Deem and Ramdas Pophale) SiO2 
 PCOD8073847
Probable space group: P 21/M
;
_chemical_formula_sum "Si O2"
_cell_formula_units_Z 32
_cell_length_a 31.770899
_cell_length_b 9.339845
_cell_length_c 22.847607
_cell_angle_alpha 90.000000
_cell_angle_beta 15.245129
_cell_angle_gamma 90.000000
_cell_volume 1782.714240
_symmetry_space_group_name_H-M "P 21/M"
_symmetry_group_IT_number 11
_symmetry_cell_setting 'monoclinic'
loop_
_space_group_symop_operation_xyz
x,y,z
-x,1/2+y,-z
-x,-y,-z
x,1/2-y,z
loop_
_atom_site_type_symbol
_atom_site_label
_atom_site_fract_x
_atom_site_fract_y
_atom_site_fract_z
Si Si1 0.415443 0.417917 0.843475
Si Si2 0.915951 0.917116 0.030480
Si Si3 0.767127 0.084713 0.328480
Si Si4 0.834451 0.418668 0.898308
Si Si5 0.294927 0.584132 0.346428
Si Si6 0.181257 0.415792 0.391584
Si Si7 0.055114 0.084671 0.140969
Si Si8 0.600161 0.917681 0.005327
O O1 0.374133 0.250000 0.892175
O O2 0.600566 0.449701 0.582931
O O3 0.376692 0.478758 0.960399
O O4 0.313244 0.507717 0.935011
O O5 0.888301 0.750000 0.076170
O O6 0.894958 0.961038 0.991173
O O7 0.093246 0.962015 0.814066
O O8 0.781740 0.998290 0.248236
O O9 0.781249 0.250000 0.292831
O O10 0.805179 0.250000 0.942538
O O11 0.847615 0.483742 0.945535
O O12 0.994558 0.456018 0.646714
O O13 0.323494 0.750000 0.293507
O O14 0.287329 0.503161 0.295070
O O15 0.441707 0.518708 0.186833
O O16 0.134393 0.559620 0.598872
O O17 0.209359 0.250000 0.368254
O O18 0.242600 0.454047 0.244053
O O19 0.097896 0.250000 0.096767
O O20 0.571321 0.750000 0.050900
#
# Coordination Sequence:
#
# PCOD8073847 Si02
#       8
#     4   4   4   4   4   4   4   4
#     4  10  20  35  53  70  93 129 169 202 235 281
#     4   9  17  31  53  79 104 127 153 189 236 291
#     4   9  18  32  51  77 105 128 153 192 240 286
#     4  10  21  35  49  68  97 130 164 205 246 280
#     4   9  16  28  49  75 100 125 157 197 238 285
#     4   9  18  32  48  69  99 130 159 197 245 288
#     4   9  17  31  52  75  97 126 164 198 232 283
#     4   9  17  30  50  73  96 126 162 199 241 288
#
# _framework density 17.950157000000001
#
# number of rings (size 3 to 8) (size 9 to 14) (size 15 to 20)
#    0.000    2.750    0.000    1.500    0.000    5.000 
#    0.000    1.875    0.000    3.000    0.000    0.000 
#    0.000    0.000    0.000    0.000    0.000    0.000 
#
# Total GULP energy -396818.875415 kJ/mol
# GULP energy per Si atom -12400.589857 kJ/mol
# Density = 1.790930 g / cm^3
# Si number density = 17.950157 Si / 1000 Ang^3
#
#
#
# Elastic Constant Matrix: (Units=GPa)
#
#
# Indices 1 2 3 4 5 6 
#
# 1 121.2058 50.2211 53.1990 0.0000 17.1209 0.0000
# 2 50.2211 53.8370 33.1059 0.0000 6.0298 0.0000
# 3 53.1990 33.1059 58.6062 0.0000 16.5035 0.0000
# 4 0.0000 0.0000 0.0000 22.6187 0.0000 3.1744
# 5 17.1209 6.0298 16.5035 0.0000 32.4496 0.0000
# 6 0.0000 0.0000 0.0000 3.1744 0.0000 26.1591
#
#
#
# Elastic Compliance Matrix: (Units=1/GPa)
#
#
# Indices 1 2 3 4 5 6 
#
# 1 0.016462 -0.009676 -0.008798 0.000000 -0.002413 0.000000
# 2 -0.009676 0.034468 -0.012046 0.000000 0.004827 0.000000
# 3 -0.008798 -0.012046 0.034917 0.000000 -0.010878 0.000000
# 4 0.000000 0.000000 0.000000 0.044977 0.000000 -0.005458
# 5 -0.002413 0.004827 -0.010878 0.000000 0.036726 0.000000
# 6 0.000000 0.000000 0.000000 -0.005458 0.000000 0.038890
#
#
# Mechanical properties :
#
#
# Convention : Reuss Voigt Hill
#
# Bulk Modulus (GPa) = 40.31184 56.30014 48.30599
# Shear Modulus (GPa) = 18.13240 22.72035 20.42638
#
# Velocity S-wave (km/s) = 3.18174 3.56159 3.37701
# Velocity P-wave (km/s) = 6.00036 6.95313 6.49424
#
# Compressibility (1/GPa) = 0.02480660
#
# Stress axis : x y z
#
# Youngs Moduli (GPa) = 60.74599 29.01253 28.63913
#
# Poissons Ratio (x) = 0.28073 0.25196
# Poissons Ratio (y) = 0.58779 0.34500
# Poissons Ratio (z) = 0.53442 0.34950
#
# Static dielectric constant tensor:
#      x y z
#    x 3.375730 0.000000 0.117130 
#    y 0.000000 3.178210 0.000000 
#    z 0.117130 0.000000 3.297810 
# 
# 
# High freq. dielectric constant tensor:
#      x y z
#    x 1.694050 0.000000 0.008580 
#    y 0.000000 1.677660 0.000000 
#    z 0.008580 0.000000 1.691250 
# 
# From -- ./inp_files/67424.got.cif
#   From: 2010.06.25/outbox.cif.g09.slc.cpg/sg11_34_cif.got.tgz:67424.got - 2010.06.27 23:14:04.
