data_PCOD8073591
_publ_section_title
;
Structure prediction by ZEFSAII (Michael W. Deem and Ramdas Pophale) SiO2 
 PCOD8073591
Probable space group: P 21/M
;
_chemical_formula_sum "Si O2"
_cell_formula_units_Z 24
_cell_length_a 14.709957
_cell_length_b 18.977417
_cell_length_c 8.689620
_cell_angle_alpha 90.000000
_cell_angle_beta 147.823268
_cell_angle_gamma 90.000000
_cell_volume 1291.800595
_symmetry_space_group_name_H-M "P 21/M"
_symmetry_group_IT_number 11
_symmetry_cell_setting 'monoclinic'
loop_
_space_group_symop_operation_xyz
x,y,z
-x,1/2+y,-z
-x,-y,-z
x,1/2-y,z
loop_
_atom_site_type_symbol
_atom_site_label
_atom_site_fract_x
_atom_site_fract_y
_atom_site_fract_z
Si Si1 0.474635 0.937648 0.166527
Si Si2 0.319013 0.422970 0.837421
Si Si3 0.317740 0.830799 0.165248
Si Si4 0.808108 0.562352 0.833474
Si Si5 0.347509 0.169201 0.165250
Si Si6 0.981593 0.077030 0.162581
O O1 0.541250 0.912832 0.095917
O O2 0.367232 0.873649 0.083094
O O3 0.631483 0.959761 0.500001
O O4 0.352431 0.005075 0.978226
O O5 0.129298 0.425739 0.500001
O O6 0.337854 0.356729 0.976545
O O7 0.299124 0.750000 0.088598
O O8 0.459953 0.840785 0.499999
O O9 0.138691 0.856729 0.976542
O O10 0.784138 0.626351 0.916907
O O11 0.945332 0.587169 0.904080
O O12 0.874209 0.494926 0.021778
O O13 0.289478 0.250000 0.088601
#
# Coordination Sequence:
#
# PCOD8073591 Si02
#       6
#     4   4   4   4   4   4
#     4   9  19  36  56  76 102 138 175 209 251 308
#     4  10  20  34  55  81 105 131 169 218 263 300
#     4  10  21  36  53  74 103 140 176 208 250 308
#     4   9  19  36  56  76 102 138 175 209 251 308
#     4  10  21  36  53  74 103 140 176 208 250 308
#     4  10  20  34  55  81 105 131 169 218 263 300
#
# _framework density 18.578719
#
# number of rings (size 3 to 8) (size 9 to 14) (size 15 to 20)
#    0.000    2.333    0.000    2.000    0.000    8.667 
#    0.000    3.333    0.000    0.000    0.000    0.000 
#    0.000    0.000    0.000    0.000    0.000    0.000 
#
# Total GULP energy -297724.728542 kJ/mol
# GULP energy per Si atom -12405.197023 kJ/mol
# Density = 1.853643 g / cm^3
# Si number density = 18.578719 Si / 1000 Ang^3
#
#
#
# Elastic Constant Matrix: (Units=GPa)
#
#
# Indices 1 2 3 4 5 6 
#
# 1 80.5663 55.3121 41.9115 0.0000 -0.7852 0.0000
# 2 55.3121 122.7047 51.2188 0.0000 0.1311 0.0000
# 3 41.9115 51.2188 71.8755 0.0000 1.0636 0.0000
# 4 0.0000 0.0000 0.0000 30.0725 0.0000 -0.1406
# 5 -0.7852 0.1311 1.0636 0.0000 31.5663 0.0000
# 6 0.0000 0.0000 0.0000 -0.1406 0.0000 25.6722
#
#
#
# Elastic Compliance Matrix: (Units=1/GPa)
#
#
# Indices 1 2 3 4 5 6 
#
# 1 0.020589 -0.006072 -0.007691 0.000000 0.000797 0.000000
# 2 -0.006072 0.013392 -0.006003 0.000000 -0.000004 0.000000
# 3 -0.007691 -0.006003 0.022689 0.000000 -0.000931 0.000000
# 4 0.000000 0.000000 0.000000 0.033254 0.000000 0.000182
# 5 0.000797 -0.000004 -0.000931 0.000000 0.031731 0.000000
# 6 0.000000 0.000000 0.000000 0.000182 0.000000 0.038954
#
#
# Mechanical properties :
#
#
# Convention : Reuss Voigt Hill
#
# Bulk Modulus (GPa) = 58.34419 63.55904 60.95161
# Shear Modulus (GPa) = 24.28919 25.90913 25.09916
#
# Velocity S-wave (km/s) = 3.61967 3.73843 3.67953
# Velocity P-wave (km/s) = 6.99581 7.27457 7.13655
#
# Compressibility (1/GPa) = 0.01713967
#
# Stress axis : x y z
#
# Youngs Moduli (GPa) = 48.56904 74.66981 44.07404
#
# Poissons Ratio (x) = 0.45337 0.33897
# Poissons Ratio (y) = 0.29489 0.26457
# Poissons Ratio (z) = 0.37354 0.44824
#
# Static dielectric constant tensor:
#      x y z
#    x 3.511240 0.000000 0.003010 
#    y 0.000000 3.376560 0.000000 
#    z 0.003010 0.000000 3.417100 
# 
# 
# High freq. dielectric constant tensor:
#      x y z
#    x 1.729120 0.000000 0.000270 
#    y 0.000000 1.715180 0.000000 
#    z 0.000270 0.000000 1.720540 
# 
# From -- ./inp_files/13262.got.cif
#   From: 2010.06.25/outbox.cif.g09.slc.cpg/sg11_7_cif.got.tgz:13262.got - 2010.06.27 23:14:04.
