data_PCOD8073061
_publ_section_title
;
Structure prediction by ZEFSAII (Michael W. Deem and Ramdas Pophale) SiO2 
 PCOD8073061
Probable space group: P 21/M
;
_chemical_formula_sum "Si O2"
_cell_formula_units_Z 24
_cell_length_a 9.119950
_cell_length_b 9.092502
_cell_length_c 18.838429
_cell_angle_alpha 90.000000
_cell_angle_beta 58.116310
_cell_angle_gamma 90.000000
_cell_volume 1326.449375
_symmetry_space_group_name_H-M "P 21/M"
_symmetry_group_IT_number 11
_symmetry_cell_setting 'monoclinic'
loop_
_space_group_symop_operation_xyz
x,y,z
-x,1/2+y,-z
-x,-y,-z
x,1/2-y,z
loop_
_atom_site_type_symbol
_atom_site_label
_atom_site_fract_x
_atom_site_fract_y
_atom_site_fract_z
Si Si1 0.514775 0.579580 0.070402
Si Si2 0.483975 0.420842 0.578447
Si Si3 0.155477 0.920881 0.998776
Si Si4 0.866616 0.084608 0.827841
Si Si5 0.864321 0.418690 0.486372
Si Si6 0.153642 0.576960 0.671458
O O1 0.564121 0.750000 0.046750
O O2 0.326646 0.565695 0.155494
O O3 0.500000 0.500000 0.000000
O O4 0.667163 0.497630 0.074671
O O5 0.500000 0.500000 0.500000
O O6 0.441980 0.250000 0.577999
O O7 0.670871 0.440702 0.568464
O O8 0.324670 0.497462 0.660656
O O9 0.160656 0.750000 0.976777
O O10 0.134993 0.944775 0.087863
O O11 0.000000 0.000000 0.000000
O O12 0.933247 0.250000 0.795520
O O13 0.988800 0.966902 0.759575
O O14 0.917963 0.250000 0.473479
O O15 0.873746 0.476008 0.402729
O O16 0.000000 0.500000 0.500000
O O17 0.183508 0.750000 0.668465
#
# Coordination Sequence:
#
# PCOD8073061 Si02
#       6
#     4   4   4   4   4   4
#     4   9  17  31  51  74 100 132 170 207 247 300
#     4   9  17  31  50  72  98 129 166 203 242 294
#     4  10  20  34  53  77 103 132 169 210 253 302
#     4   9  19  34  52  75 101 131 166 204 248 298
#     4   9  19  33  50  74  99 126 162 201 242 290
#     4  10  20  33  51  76 101 128 166 207 247 294
#
# _framework density 18.093415
#
# number of rings (size 3 to 8) (size 9 to 14) (size 15 to 20)
#    0.000    2.667    0.000    4.000    0.000    8.000 
#    0.000    1.667    0.000    2.000    0.000    0.000 
#    0.000    0.000    0.000    0.000    0.000    0.000 
#
# Total GULP energy -297429.030549 kJ/mol
# GULP energy per Si atom -12392.876273 kJ/mol
# Density = 1.805223 g / cm^3
# Si number density = 18.093415 Si / 1000 Ang^3
#
#
#
# Elastic Constant Matrix: (Units=GPa)
#
#
# Indices 1 2 3 4 5 6 
#
# 1 121.1507 65.5841 36.7672 0.0000 -30.4274 0.0000
# 2 65.5841 124.6166 44.1191 0.0000 -22.8928 0.0000
# 3 36.7672 44.1191 70.1713 0.0000 -24.9358 0.0000
# 4 0.0000 0.0000 0.0000 32.0239 0.0000 -7.1783
# 5 -30.4274 -22.8928 -24.9358 0.0000 26.3265 0.0000
# 6 0.0000 0.0000 0.0000 -7.1783 0.0000 37.2995
#
#
#
# Elastic Compliance Matrix: (Units=1/GPa)
#
#
# Indices 1 2 3 4 5 6 
#
# 1 0.014014 -0.005268 0.000146 0.000000 0.011754 0.000000
# 2 -0.005268 0.012630 -0.005188 0.000000 -0.000019 0.000000
# 3 0.000146 -0.005188 0.023956 0.000000 0.018349 0.000000
# 4 0.000000 0.000000 0.000000 0.032634 0.000000 0.006281
# 5 0.011754 -0.000019 0.018349 0.000000 0.068933 0.000000
# 6 0.000000 0.000000 0.000000 0.006281 0.000000 0.028019
#
#
# Mechanical properties :
#
#
# Convention : Reuss Voigt Hill
#
# Bulk Modulus (GPa) = 33.35337 67.65326 50.50331
# Shear Modulus (GPa) = 23.71943 30.42787 27.07365
#
# Velocity S-wave (km/s) = 3.62462 4.10531 3.87243
# Velocity P-wave (km/s) = 5.99927 7.74233 6.92585
#
# Compressibility (1/GPa) = 0.02998198
#
# Stress axis : x y z
#
# Youngs Moduli (GPa) = 71.35970 79.17652 41.74291
#
# Poissons Ratio (x) = 0.41707 -0.00611
# Poissons Ratio (y) = 0.37589 0.21655
# Poissons Ratio (z) = -0.01045 0.41074
#
# Static dielectric constant tensor:
#      x y z
#    x 3.546510 0.000000 -0.439040 
#    y 0.000000 3.679030 0.000000 
#    z -0.439040 0.000000 3.093850 
# 
# 
# High freq. dielectric constant tensor:
#      x y z
#    x 1.696220 0.000000 -0.037050 
#    y 0.000000 1.715830 0.000000 
#    z -0.037050 0.000000 1.673170 
# 
# From -- ./inp_files/23763.got.cif
#   From: 2010.06.25/outbox.cif.g09.slc.cpg/sg11_12_cif.got.tgz:23763.got - 2010.06.27 23:14:04.
