data_PCOD8073672
_publ_section_title
;
Structure prediction by ZEFSAII (Michael W. Deem and Ramdas Pophale) SiO2 
 PCOD8073672
Probable space group: P 21/M
;
_chemical_formula_sum "Si O2"
_cell_formula_units_Z 32
_cell_length_a 13.735997
_cell_length_b 14.431471
_cell_length_c 8.881619
_cell_angle_alpha 90.000000
_cell_angle_beta 62.713080
_cell_angle_gamma 90.000000
_cell_volume 1564.691836
_symmetry_space_group_name_H-M "P 21/M"
_symmetry_group_IT_number 11
_symmetry_cell_setting 'monoclinic'
loop_
_space_group_symop_operation_xyz
x,y,z
-x,1/2+y,-z
-x,-y,-z
x,1/2-y,z
loop_
_atom_site_type_symbol
_atom_site_label
_atom_site_fract_x
_atom_site_fract_y
_atom_site_fract_z
Si Si1 0.154371 0.034571 0.596857
Si Si2 0.631448 0.643393 0.520913
Si Si3 0.375808 0.858786 0.205403
Si Si4 0.399908 0.354552 0.107080
Si Si5 0.184362 0.854377 0.758517
Si Si6 0.419540 0.857222 0.506661
Si Si7 0.051846 0.558413 0.095977
Si Si8 0.785182 0.507266 0.779447
O O1 0.262790 0.081379 0.589863
O O2 0.049204 0.094459 0.729158
O O3 0.141510 0.928852 0.666347
O O4 0.153881 0.038548 0.416790
O O5 0.657170 0.750000 0.460842
O O6 0.595412 0.635345 0.718153
O O7 0.530543 0.599565 0.497255
O O8 0.351562 0.750000 0.220423
O O9 0.390107 0.899977 0.364211
O O10 0.271373 0.907807 0.205556
O O11 0.483482 0.887001 0.037870
O O12 0.374936 0.250000 0.073045
O O13 0.304612 0.417660 0.106313
O O14 0.163867 0.750000 0.710191
O O15 0.314973 0.870390 0.690529
O O16 0.124541 0.862419 0.963386
O O17 0.446402 0.750000 0.463076
O O18 0.128919 0.495903 0.146614
O O19 0.000000 0.500000 0.000000
#
# Coordination Sequence:
#
# PCOD8073672 Si02
#       8
#     4   4   4   4   4   4   4   4
#     4  10  21  40  60  86 115 158 201 248 291 351
#     4   9  19  35  58  86 121 157 193 241 294 347
#     4  10  20  34  55  87 122 153 193 238 291 358
#     4   9  20  37  56  85 120 154 193 239 291 354
#     4  10  21  39  59  85 120 153 191 242 298 353
#     4   9  18  34  56  85 119 154 191 236 291 353
#     4  10  24  41  58  82 113 152 202 254 294 344
#     4  11  21  38  61  84 115 157 199 245 302 348
#
# _framework density 20.451312000000001
#
# number of rings (size 3 to 8) (size 9 to 14) (size 15 to 20)
#    0.000    2.250    1.250    0.750    1.750    3.500 
#    0.000    2.500    0.000    4.500    0.000    0.000 
#    0.000    0.000    0.000    0.000    0.000    0.000 
#
# Total GULP energy -396703.579968 kJ/mol
# GULP energy per Si atom -12396.986874 kJ/mol
# Density = 2.040476 g / cm^3
# Si number density = 20.451312 Si / 1000 Ang^3
#
#
#
# Elastic Constant Matrix: (Units=GPa)
#
#
# Indices 1 2 3 4 5 6 
#
# 1 135.1059 34.8083 50.2730 0.0000 2.8371 0.0000
# 2 34.8083 64.8178 35.1450 0.0000 -5.4290 0.0000
# 3 50.2730 35.1450 107.1000 0.0000 -24.6640 0.0000
# 4 0.0000 0.0000 0.0000 26.9442 0.0000 -3.4261
# 5 2.8371 -5.4290 -24.6640 0.0000 34.9392 0.0000
# 6 0.0000 0.0000 0.0000 -3.4261 0.0000 18.6228
#
#
#
# Elastic Compliance Matrix: (Units=1/GPa)
#
#
# Indices 1 2 3 4 5 6 
#
# 1 0.010105 -0.003238 -0.004759 0.000000 -0.004683 0.000000
# 2 -0.003238 0.019891 -0.005057 0.000000 -0.000216 0.000000
# 3 -0.004759 -0.005057 0.015689 0.000000 0.010676 0.000000
# 4 0.000000 0.000000 0.000000 0.038003 0.000000 0.006991
# 5 -0.004683 -0.000216 0.010676 0.000000 0.036504 0.000000
# 6 0.000000 0.000000 0.000000 0.006991 0.000000 0.054984
#
#
# Mechanical properties :
#
#
# Convention : Reuss Voigt Hill
#
# Bulk Modulus (GPa) = 51.08298 60.83070 55.95684
# Shear Modulus (GPa) = 24.06049 28.55441 26.30745
#
# Velocity S-wave (km/s) = 3.43370 3.74065 3.59046
# Velocity P-wave (km/s) = 6.38377 6.96170 6.67899
#
# Compressibility (1/GPa) = 0.01957599
#
# Stress axis : x y z
#
# Youngs Moduli (GPa) = 98.95901 50.27474 63.73896
#
# Poissons Ratio (x) = 0.16281 0.30335
# Poissons Ratio (y) = 0.32047 0.32232
# Poissons Ratio (z) = 0.47097 0.25423
#
# Static dielectric constant tensor:
#      x y z
#    x 3.709990 0.000000 -0.273440 
#    y 0.000000 3.647370 0.000000 
#    z -0.273440 0.000000 4.061240 
# 
# 
# High freq. dielectric constant tensor:
#      x y z
#    x 1.789080 0.000000 -0.015140 
#    y 0.000000 1.787070 0.000000 
#    z -0.015140 0.000000 1.808210 
# 
# From -- ./inp_files/22181.got.cif
#   From: 2010.06.25/outbox.cif.g09.slc.cpg/sg11_12_cif.got.tgz:22181.got - 2010.06.27 23:14:04.
