data_PCOD8073283
_publ_section_title
;
Structure prediction by ZEFSAII (Michael W. Deem and Ramdas Pophale) SiO2 
 PCOD8073283
Probable space group: P 21/M
;
_chemical_formula_sum "Si O2"
_cell_formula_units_Z 32
_cell_length_a 20.748869
_cell_length_b 9.307207
_cell_length_c 26.627168
_cell_angle_alpha 90.000000
_cell_angle_beta 19.446404
_cell_angle_gamma 90.000000
_cell_volume 1711.926490
_symmetry_space_group_name_H-M "P 21/M"
_symmetry_group_IT_number 11
_symmetry_cell_setting 'monoclinic'
loop_
_space_group_symop_operation_xyz
x,y,z
-x,1/2+y,-z
-x,-y,-z
x,1/2-y,z
loop_
_atom_site_type_symbol
_atom_site_label
_atom_site_fract_x
_atom_site_fract_y
_atom_site_fract_z
Si Si1 0.806762 0.412927 0.134022
Si Si2 0.656686 0.590189 0.327122
Si Si3 0.412864 0.418026 0.899131
Si Si4 0.148766 0.584487 0.424310
Si Si5 0.808982 0.419187 0.492512
Si Si6 0.785860 0.089334 0.319142
Si Si7 0.968049 0.918570 0.768150
Si Si8 0.569966 0.086427 0.211709
O O1 0.830753 0.250000 0.135224
O O2 0.645088 0.492139 0.286172
O O3 0.746431 0.417655 0.120560
O O4 0.000000 0.500000 0.000000
O O5 0.738920 0.750000 0.255167
O O6 0.440499 0.602366 0.504881
O O7 0.806260 0.517619 0.256962
O O8 0.401869 0.250000 0.893255
O O9 0.632445 0.458711 0.753047
O O10 0.352441 0.507302 0.894728
O O11 0.259123 0.457538 0.056124
O O12 0.111783 0.750000 0.440682
O O13 0.109565 0.547801 0.511617
O O14 0.000000 0.500000 0.500000
O O15 0.764715 0.250000 0.519529
O O16 0.960469 0.476129 0.338809
O O17 0.611120 0.505001 0.630413
O O18 0.866530 0.250000 0.247421
O O19 0.900803 0.021594 0.282312
O O20 0.998600 0.750000 0.744940
O O21 0.509427 0.250000 0.243453
#
# Coordination Sequence:
#
# PCOD8073283 Si02
#       8
#     4   4   4   4   4   4   4   4
#     4  11  24  37  50  70  99 134 178 225 274 322
#     4  10  20  34  50  71 100 133 175 222 269 321
#     4   9  19  35  56  82 108 140 179 217 265 320
#     4   9  18  33  55  81 110 145 180 213 253 307
#     4   9  18  35  59  84 107 138 179 216 258 317
#     4   9  18  32  52  75  99 133 171 214 269 325
#     4   9  17  32  56  81 104 133 177 224 264 314
#     4  10  21  36  53  76 106 138 177 225 272 320
#
# _framework density 18.692392000000002
#
# number of rings (size 3 to 8) (size 9 to 14) (size 15 to 20)
#    0.000    2.500    0.000    2.625    1.750    5.500 
#    0.000    1.875    0.000    0.000    0.000    0.000 
#    0.000    0.000    0.000    0.000    0.000    0.000 
#
# Total GULP energy -396663.346601 kJ/mol
# GULP energy per Si atom -12395.729581 kJ/mol
# Density = 1.864985 g / cm^3
# Si number density = 18.692392 Si / 1000 Ang^3
#
#
#
# Elastic Constant Matrix: (Units=GPa)
#
#
# Indices 1 2 3 4 5 6 
#
# 1 93.1135 39.8522 49.5082 0.0000 -8.1869 0.0000
# 2 39.8522 95.5753 33.4357 0.0000 -2.4265 0.0000
# 3 49.5082 33.4357 97.6585 0.0000 8.8205 0.0000
# 4 0.0000 0.0000 0.0000 18.5972 0.0000 -1.8519
# 5 -8.1869 -2.4265 8.8205 0.0000 27.6898 0.0000
# 6 0.0000 0.0000 0.0000 -1.8519 0.0000 29.8763
#
#
#
# Elastic Compliance Matrix: (Units=1/GPa)
#
#
# Indices 1 2 3 4 5 6 
#
# 1 0.017521 -0.004292 -0.008079 0.000000 0.007378 0.000000
# 2 -0.004292 0.013096 -0.002365 0.000000 0.000632 0.000000
# 3 -0.008079 -0.002365 0.015835 0.000000 -0.007640 0.000000
# 4 0.000000 0.000000 0.000000 0.054106 0.000000 0.003354
# 5 0.007378 0.000632 -0.007640 0.000000 0.040785 0.000000
# 6 0.000000 0.000000 0.000000 0.003354 0.000000 0.033679
#
#
# Mechanical properties :
#
#
# Convention : Reuss Voigt Hill
#
# Bulk Modulus (GPa) = 58.89311 59.10440 58.99875
# Shear Modulus (GPa) = 23.79207 26.13607 24.96407
#
# Velocity S-wave (km/s) = 3.57153 3.74333 3.65844
# Velocity P-wave (km/s) = 6.97013 7.09729 7.03400
#
# Compressibility (1/GPa) = 0.01697992
#
# Stress axis : x y z
#
# Youngs Moduli (GPa) = 57.07477 76.35925 63.15020
#
# Poissons Ratio (x) = 0.32773 0.51020
# Poissons Ratio (y) = 0.24497 0.14935
# Poissons Ratio (z) = 0.46111 0.18059
#
# Static dielectric constant tensor:
#      x y z
#    x 3.538410 0.000000 0.356110 
#    y 0.000000 3.627620 0.000000 
#    z 0.356110 0.000000 3.649450 
# 
# 
# High freq. dielectric constant tensor:
#      x y z
#    x 1.711330 0.000000 0.008720 
#    y 0.000000 1.717680 0.000000 
#    z 0.008720 0.000000 1.722820 
# 
# From -- ./inp_files/67072.got.cif
#   From: 2010.06.25/outbox.cif.g09.slc.cpg/sg11_34_cif.got.tgz:67072.got - 2010.06.27 23:14:04.
