data_PCOD8073291
_publ_section_title
;
Structure prediction by ZEFSAII (Michael W. Deem and Ramdas Pophale) SiO2 
 PCOD8073291
Probable space group: P 21/M
;
_chemical_formula_sum "Si O2"
_cell_formula_units_Z 24
_cell_length_a 9.595408
_cell_length_b 18.873228
_cell_length_c 12.131553
_cell_angle_alpha 90.000000
_cell_angle_beta 142.127561
_cell_angle_gamma 90.000000
_cell_volume 1348.738007
_symmetry_space_group_name_H-M "P 21/M"
_symmetry_group_IT_number 11
_symmetry_cell_setting 'monoclinic'
loop_
_space_group_symop_operation_xyz
x,y,z
-x,1/2+y,-z
-x,-y,-z
x,1/2-y,z
loop_
_atom_site_type_symbol
_atom_site_label
_atom_site_fract_x
_atom_site_fract_y
_atom_site_fract_z
Si Si1 0.343567 0.533885 0.495398
Si Si2 0.972882 0.328588 0.186842
Si Si3 0.548769 0.171001 0.779067
Si Si4 0.431555 0.026196 0.786713
Si Si5 0.510022 0.829676 0.512542
Si Si6 0.143819 0.972694 0.798483
O O1 0.500000 0.500000 0.500000
O O2 0.432388 0.511095 0.669782
O O3 0.363973 0.618897 0.498980
O O4 0.084855 0.512761 0.311795
O O5 0.958859 0.250000 0.233561
O O6 0.900554 0.387741 0.231389
O O7 0.224303 0.343038 0.299313
O O8 0.810617 0.332944 0.979409
O O9 0.447868 0.250000 0.739382
O O10 0.405191 0.111558 0.755591
O O11 0.541372 0.152790 0.646387
O O12 0.220412 0.997288 0.725240
O O13 0.667209 0.006515 0.993586
O O14 0.438012 0.750000 0.497695
#
# Coordination Sequence:
#
# PCOD8073291 Si02
#       6
#     4   4   4   4   4   4
#     4  12  21  34  55  82 104 138 173 217 266 311
#     4   9  17  31  52  75 101 137 178 215 254 308
#     4   9  17  31  52  75 101 137 178 215 254 308
#     4  10  21  36  54  79 109 140 176 218 262 312
#     4  10  20  34  50  76 109 136 171 215 263 312
#     4  10  21  36  54  79 109 140 176 218 262 312
#
# _framework density 17.794411
#
# number of rings (size 3 to 8) (size 9 to 14) (size 15 to 20)
#    0.000    2.000    3.333    0.500    0.000    2.000 
#    0.000    1.667    0.000    2.000    0.000    0.000 
#    0.000    0.000    0.000    0.000    0.000    0.000 
#
# Total GULP energy -297545.011801 kJ/mol
# GULP energy per Si atom -12397.708825 kJ/mol
# Density = 1.775391 g / cm^3
# Si number density = 17.794411 Si / 1000 Ang^3
#
#
#
# Elastic Constant Matrix: (Units=GPa)
#
#
# Indices 1 2 3 4 5 6 
#
# 1 87.4499 41.4866 24.4655 0.0000 7.2493 0.0000
# 2 41.4866 111.6551 14.0627 0.0000 9.7708 0.0000
# 3 24.4655 14.0627 61.1805 0.0000 6.7921 0.0000
# 4 0.0000 0.0000 0.0000 21.1141 0.0000 -0.2912
# 5 7.2493 9.7708 6.7921 0.0000 25.9174 0.0000
# 6 0.0000 0.0000 0.0000 -0.2912 0.0000 30.1019
#
#
#
# Elastic Compliance Matrix: (Units=1/GPa)
#
#
# Indices 1 2 3 4 5 6 
#
# 1 0.015228 -0.004952 -0.004826 0.000000 -0.001128 0.000000
# 2 -0.004952 0.011067 -0.000262 0.000000 -0.002719 0.000000
# 3 -0.004826 -0.000262 0.018719 0.000000 -0.003457 0.000000
# 4 0.000000 0.000000 0.000000 0.047368 0.000000 0.000458
# 5 -0.001128 -0.002719 -0.003457 0.000000 0.040830 0.000000
# 6 0.000000 0.000000 0.000000 0.000458 0.000000 0.033225
#
#
# Mechanical properties :
#
#
# Convention : Reuss Voigt Hill
#
# Bulk Modulus (GPa) = 40.10499 46.70168 43.40334
# Shear Modulus (GPa) = 25.66373 27.44474 26.55424
#
# Velocity S-wave (km/s) = 3.80180 3.93150 3.86719
# Velocity P-wave (km/s) = 6.46981 6.84917 6.66219
#
# Compressibility (1/GPa) = 0.02493455
#
# Stress axis : x y z
#
# Youngs Moduli (GPa) = 65.66929 90.36014 53.42174
#
# Poissons Ratio (x) = 0.44742 0.25782
# Poissons Ratio (y) = 0.32516 0.01399
# Poissons Ratio (z) = 0.31693 0.02366
#
# Static dielectric constant tensor:
#      x y z
#    x 3.068140 0.000000 0.033370 
#    y 0.000000 3.747150 0.000000 
#    z 0.033370 0.000000 3.486600 
# 
# 
# High freq. dielectric constant tensor:
#      x y z
#    x 1.645990 0.000000 0.000720 
#    y 0.000000 1.704090 0.000000 
#    z 0.000720 0.000000 1.708610 
# 
# From -- ./inp_files/19259.got.cif
#   From: 2010.06.25/outbox.cif.g09.slc.cpg/sg11_10_cif.got.tgz:19259.got - 2010.06.27 23:14:04.
