data_PCOD8073990
_publ_section_title
;
Structure prediction by ZEFSAII (Michael W. Deem and Ramdas Pophale) SiO2 
 PCOD8073990
Probable space group: P 21/M
;
_chemical_formula_sum "Si O2"
_cell_formula_units_Z 28
_cell_length_a 9.714504
_cell_length_b 8.836665
_cell_length_c 25.927128
_cell_angle_alpha 90.000000
_cell_angle_beta 41.674340
_cell_angle_gamma 90.000000
_cell_volume 1479.847941
_symmetry_space_group_name_H-M "P 21/M"
_symmetry_group_IT_number 11
_symmetry_cell_setting 'monoclinic'
loop_
_space_group_symop_operation_xyz
x,y,z
-x,1/2+y,-z
-x,-y,-z
x,1/2-y,z
loop_
_atom_site_type_symbol
_atom_site_label
_atom_site_fract_x
_atom_site_fract_y
_atom_site_fract_z
Si Si1 0.125467 0.925591 0.119458
Si Si2 0.996598 0.075494 0.578667
Si Si3 0.673102 0.923725 0.598937
Si Si4 0.000702 0.427311 0.313717
Si Si5 0.247392 0.425286 0.703334
Si Si6 0.627941 0.926744 0.861918
Si Si7 0.838562 0.428266 0.006212
O O1 0.178257 0.750000 0.102520
O O2 0.122632 0.991974 0.062348
O O3 0.902032 0.958896 0.206667
O O4 0.307743 0.998560 0.102137
O O5 0.926720 0.250000 0.595565
O O6 0.208644 0.050967 0.487999
O O7 0.818054 0.969912 0.605823
O O8 0.037342 0.025636 0.625238
O O9 0.605861 0.750000 0.625051
O O10 0.476712 0.032162 0.656045
O O11 0.992093 0.250000 0.329095
O O12 0.219869 0.476291 0.227051
O O13 0.816094 0.469201 0.326633
O O14 0.235805 0.250000 0.690135
O O15 0.646270 0.750000 0.866508
O O16 0.394919 0.973588 0.911752
O O17 0.872004 0.250000 0.998589
O O18 0.000000 0.500000 0.000000
#
# Coordination Sequence:
#
# PCOD8073990 Si02
#       7
#     4   4   4   4   4   4   4
#     4   9  19  35  55  78 104 136 174 214 257 308
#     4  10  21  37  56  78 105 139 177 216 262 315
#     4  10  21  37  56  78 105 139 177 216 262 315
#     4  10  20  35  55  80 108 138 175 218 263 311
#     4  10  20  35  55  80 108 138 175 218 263 311
#     4   9  19  35  55  78 104 136 174 214 257 308
#     4  10  21  36  52  76 108 138 173 214 256 304
#
# _framework density 18.920864000000002
#
# number of rings (size 3 to 8) (size 9 to 14) (size 15 to 20)
#    0.000    2.286    0.000    2.143    0.000    5.714 
#    0.000    2.857    0.000    0.000    0.000    0.000 
#    0.000    0.000    0.000    0.000    0.000    0.000 
#
# Total GULP energy -347281.774974 kJ/mol
# GULP energy per Si atom -12402.920535 kJ/mol
# Density = 1.887780 g / cm^3
# Si number density = 18.920864 Si / 1000 Ang^3
#
#
#
# Elastic Constant Matrix: (Units=GPa)
#
#
# Indices 1 2 3 4 5 6 
#
# 1 64.6686 21.0813 18.6497 0.0000 -9.0568 0.0000
# 2 21.0813 48.1935 23.9610 0.0000 -2.8955 0.0000
# 3 18.6497 23.9610 45.3703 0.0000 -12.3713 0.0000
# 4 0.0000 0.0000 0.0000 24.0885 0.0000 -2.7667
# 5 -9.0568 -2.8955 -12.3713 0.0000 33.7906 0.0000
# 6 0.0000 0.0000 0.0000 -2.7667 0.0000 39.0162
#
#
#
# Elastic Compliance Matrix: (Units=1/GPa)
#
#
# Indices 1 2 3 4 5 6 
#
# 1 0.019019 -0.006343 -0.003584 0.000000 0.003242 0.000000
# 2 -0.006343 0.030602 -0.014778 0.000000 -0.004488 0.000000
# 3 -0.003584 -0.014778 0.034117 0.000000 0.010264 0.000000
# 4 0.000000 0.000000 0.000000 0.041854 0.000000 0.002968
# 5 0.003242 -0.004488 0.010264 0.000000 0.033836 0.000000
# 6 0.000000 0.000000 0.000000 0.002968 0.000000 0.025841
#
#
# Mechanical properties :
#
#
# Convention : Reuss Voigt Hill
#
# Bulk Modulus (GPa) = 29.13045 31.73513 30.43279
# Shear Modulus (GPa) = 20.31511 25.68175 22.99843
#
# Velocity S-wave (km/s) = 3.28027 3.68819 3.49019
# Velocity P-wave (km/s) = 5.45676 5.91151 5.68868
#
# Compressibility (1/GPa) = 0.03432834
#
# Stress axis : x y z
#
# Youngs Moduli (GPa) = 52.57973 32.67764 29.31049
#
# Poissons Ratio (x) = 0.20726 0.10505
# Poissons Ratio (y) = 0.33349 0.43316
# Poissons Ratio (z) = 0.18845 0.48292
#
# Static dielectric constant tensor:
#      x y z
#    x 3.352530 0.000000 0.036610 
#    y 0.000000 3.444880 0.000000 
#    z 0.036610 0.000000 3.641470 
# 
# 
# High freq. dielectric constant tensor:
#      x y z
#    x 1.731180 0.000000 0.000000 
#    y 0.000000 1.737730 0.000000 
#    z 0.000000 0.000000 1.740510 
# 
# From -- ./inp_files/28626.got.cif
#   From: 2010.06.25/outbox.cif.g09.slc.cpg/sg11_15_cif.got.tgz:28626.got - 2010.06.27 23:14:04.
