data_PCOD8073981
_publ_section_title
;
Structure prediction by ZEFSAII (Michael W. Deem and Ramdas Pophale) SiO2 
 PCOD8073981
Probable space group: P 21/M
;
_chemical_formula_sum "Si O2"
_cell_formula_units_Z 32
_cell_length_a 10.966620
_cell_length_b 14.884399
_cell_length_c 14.976070
_cell_angle_alpha 90.000000
_cell_angle_beta 41.352541
_cell_angle_gamma 90.000000
_cell_volume 1615.101785
_symmetry_space_group_name_H-M "P 21/M"
_symmetry_group_IT_number 11
_symmetry_cell_setting 'monoclinic'
loop_
_space_group_symop_operation_xyz
x,y,z
-x,1/2+y,-z
-x,-y,-z
x,1/2-y,z
loop_
_atom_site_type_symbol
_atom_site_label
_atom_site_fract_x
_atom_site_fract_y
_atom_site_fract_z
Si Si1 0.905304 0.018479 0.181868
Si Si2 0.948155 0.354836 0.789387
Si Si3 0.837201 0.355350 0.373582
Si Si4 0.970500 0.143184 0.578883
Si Si5 0.443006 0.925736 0.959494
Si Si6 0.175408 0.147052 0.299097
Si Si7 0.281784 0.033997 0.892216
Si Si8 0.623047 0.145864 0.665496
O O1 0.770745 0.012386 0.171811
O O2 0.947889 0.918343 0.196636
O O3 0.799388 0.084074 0.307733
O O4 0.097928 0.065179 0.045880
O O5 0.997441 0.250000 0.781376
O O6 0.013262 0.389232 0.655767
O O7 0.726552 0.365869 0.912966
O O8 0.840077 0.250000 0.345621
O O9 0.677297 0.376006 0.533372
O O10 0.033148 0.392067 0.304240
O O11 0.960036 0.250000 0.587748
O O12 0.774235 0.103495 0.650796
O O13 0.131246 0.107663 0.422758
O O14 0.617614 0.862543 0.847429
O O15 0.394985 0.964596 0.889543
O O16 0.500000 0.000000 0.000000
O O17 0.119110 0.250000 0.336926
O O18 0.415261 0.116925 0.800071
O O19 0.628856 0.250000 0.678965
#
# Coordination Sequence:
#
# PCOD8073981 Si02
#       8
#     4   4   4   4   4   4   4   4
#     4  10  22  39  54  75 108 147 188 223 264 320
#     4  10  20  35  55  79 110 144 181 226 270 317
#     4   9  19  36  57  81 109 142 179 221 269 322
#     4   8  16  31  52  80 108 135 171 216 267 321
#     4  11  21  34  53  79 107 137 176 221 273 327
#     4   9  17  32  54  78 106 136 170 215 268 324
#     4  10  22  37  52  75 107 139 180 227 266 317
#     4   9  18  34  56  81 108 138 177 226 275 319
#
# _framework density 19.812994
#
# number of rings (size 3 to 8) (size 9 to 14) (size 15 to 20)
#    0.000    2.500    0.000    4.125    0.000    2.500 
#    0.000   11.875    0.000    3.000    0.000    0.000 
#    0.000    0.000    0.000    0.000    0.000    0.000 
#
# Total GULP energy -396621.461243 kJ/mol
# GULP energy per Si atom -12394.420664 kJ/mol
# Density = 1.976790 g / cm^3
# Si number density = 19.812994 Si / 1000 Ang^3
#
#
#
# Elastic Constant Matrix: (Units=GPa)
#
#
# Indices 1 2 3 4 5 6 
#
# 1 88.1115 26.3003 27.2768 0.0000 23.8572 0.0000
# 2 26.3003 50.2464 28.0808 0.0000 13.7114 0.0000
# 3 27.2768 28.0808 76.3777 0.0000 18.1872 0.0000
# 4 0.0000 0.0000 0.0000 34.4198 0.0000 2.0419
# 5 23.8572 13.7114 18.1872 0.0000 30.9960 0.0000
# 6 0.0000 0.0000 0.0000 2.0419 0.0000 14.9978
#
#
#
# Elastic Compliance Matrix: (Units=1/GPa)
#
#
# Indices 1 2 3 4 5 6 
#
# 1 0.015755 -0.004841 -0.001708 0.000000 -0.008983 0.000000
# 2 -0.004841 0.027754 -0.007485 0.000000 -0.004160 0.000000
# 3 -0.001708 -0.007485 0.017847 0.000000 -0.005846 0.000000
# 4 0.000000 0.000000 0.000000 0.029290 0.000000 -0.003988
# 5 -0.008983 -0.004160 -0.005846 0.000000 0.044447 0.000000
# 6 0.000000 0.000000 0.000000 -0.003988 0.000000 0.067220
#
#
# Mechanical properties :
#
#
# Convention : Reuss Voigt Hill
#
# Bulk Modulus (GPa) = 30.04000 42.00572 36.02286
# Shear Modulus (GPa) = 20.70615 24.95456 22.83036
#
# Velocity S-wave (km/s) = 3.23628 3.55280 3.39823
# Velocity P-wave (km/s) = 5.39994 6.17065 5.79812
#
# Compressibility (1/GPa) = 0.03328895
#
# Stress axis : x y z
#
# Youngs Moduli (GPa) = 63.47132 36.03125 56.03301
#
# Poissons Ratio (x) = 0.17443 0.09569
# Poissons Ratio (y) = 0.30726 0.41938
# Poissons Ratio (z) = 0.10839 0.26968
#
# Static dielectric constant tensor:
#      x y z
#    x 3.606110 0.000000 0.121630 
#    y 0.000000 3.287110 0.000000 
#    z 0.121630 0.000000 3.914300 
# 
# 
# High freq. dielectric constant tensor:
#      x y z
#    x 1.758640 0.000000 0.012990 
#    y 0.000000 1.755900 0.000000 
#    z 0.012990 0.000000 1.784790 
# 
# From -- ./inp_files/39684.got.cif
#   From: 2010.06.25/outbox.cif.g09.slc.cpg/sg11_20_cif.got.tgz:39684.got - 2010.06.27 23:14:04.
