data_PCOD8073667
_publ_section_title
;
Structure prediction by ZEFSAII (Michael W. Deem and Ramdas Pophale) SiO2 
 PCOD8073667
Probable space group: P 21/M
;
_chemical_formula_sum "Si O2"
_cell_formula_units_Z 28
_cell_length_a 21.580047
_cell_length_b 9.054169
_cell_length_c 14.999221
_cell_angle_alpha 90.000000
_cell_angle_beta 151.984667
_cell_angle_gamma 90.000000
_cell_volume 1376.567428
_symmetry_space_group_name_H-M "P 21/M"
_symmetry_group_IT_number 11
_symmetry_cell_setting 'monoclinic'
loop_
_space_group_symop_operation_xyz
x,y,z
-x,1/2+y,-z
-x,-y,-z
x,1/2-y,z
loop_
_atom_site_type_symbol
_atom_site_label
_atom_site_fract_x
_atom_site_fract_y
_atom_site_fract_z
Si Si1 0.639657 0.924853 0.700367
Si Si2 0.919835 0.575508 0.978362
Si Si3 0.899428 0.423684 0.629571
Si Si4 0.302277 0.916304 0.046174
Si Si5 0.683050 0.914598 0.288901
Si Si6 0.009499 0.583883 0.603852
Si Si7 0.383409 0.915441 0.961166
O O1 0.620897 0.750000 0.671844
O O2 0.500000 0.000000 0.500000
O O3 0.675912 0.969959 0.846284
O O4 0.764245 0.970409 0.793091
O O5 0.930763 0.750000 0.978085
O O6 0.997122 0.523605 0.165020
O O7 0.000000 0.500000 0.000000
O O8 0.902422 0.250000 0.624245
O O9 0.750685 0.486106 0.454475
O O10 0.920238 0.500892 0.561375
O O11 0.345159 0.750000 0.130092
O O12 0.153038 0.919351 0.827298
O O13 0.383991 0.972991 0.063995
O O14 0.743190 0.750000 0.366413
O O15 0.702237 0.982167 0.213335
O O16 0.530965 0.910278 0.116119
O O17 0.959505 0.750000 0.525746
O O18 0.000000 0.500000 0.500000
O O19 0.320828 0.750000 0.880175
#
# Coordination Sequence:
#
# PCOD8073667 Si02
#       7
#     4   4   4   4   4   4   4
#     4  11  24  44  67  94 126 163 209 265 325 387
#     4  10  24  44  67  93 124 163 210 267 327 387
#     4  11  22  39  59  83 119 158 201 252 307 367
#     4  10  21  38  60  87 119 157 200 250 307 366
#     4  10  20  34  55  85 119 160 206 249 303 367
#     4  11  22  35  58  91 125 162 201 244 300 365
#     4   9  19  36  56  82 121 162 201 249 304 367
#
# _framework density 20.340447999999999
#
# number of rings (size 3 to 8) (size 9 to 14) (size 15 to 20)
#    0.000    1.714    1.429    2.571    0.000    6.286 
#    0.000    4.286    0.000    0.000    0.000    0.000 
#    0.000    0.000    0.000    0.000    0.000    0.000 
#
# Total GULP energy -346966.729328 kJ/mol
# GULP energy per Si atom -12391.668905 kJ/mol
# Density = 2.029415 g / cm^3
# Si number density = 20.340448 Si / 1000 Ang^3
#
#
#
# Elastic Constant Matrix: (Units=GPa)
#
#
# Indices 1 2 3 4 5 6 
#
# 1 114.4470 47.2049 47.0971 0.0000 -1.7629 0.0000
# 2 47.2049 102.6701 57.2830 0.0000 -4.3088 0.0000
# 3 47.0971 57.2830 111.5698 0.0000 -4.5286 0.0000
# 4 0.0000 0.0000 0.0000 34.6933 0.0000 -2.1773
# 5 -1.7629 -4.3088 -4.5286 0.0000 18.2482 0.0000
# 6 0.0000 0.0000 0.0000 -2.1773 0.0000 33.8963
#
#
#
# Elastic Compliance Matrix: (Units=1/GPa)
#
#
# Indices 1 2 3 4 5 6 
#
# 1 0.011455 -0.003613 -0.003000 0.000000 -0.000491 0.000000
# 2 -0.003613 0.014831 -0.006022 0.000000 0.001658 0.000000
# 3 -0.003000 -0.006022 0.013387 0.000000 0.001610 0.000000
# 4 0.000000 0.000000 0.000000 0.028941 0.000000 0.001859
# 5 -0.000491 0.001658 0.001610 0.000000 0.055544 0.000000
# 6 0.000000 0.000000 0.000000 0.001859 0.000000 0.029621
#
#
# Mechanical properties :
#
#
# Convention : Reuss Voigt Hill
#
# Bulk Modulus (GPa) = 69.43763 70.20633 69.82198
# Shear Modulus (GPa) = 27.19614 29.17435 28.18524
#
# Velocity S-wave (km/s) = 3.66053 3.79133 3.72650
# Velocity P-wave (km/s) = 7.21650 7.33186 7.27440
#
# Compressibility (1/GPa) = 0.01440141
#
# Stress axis : x y z
#
# Youngs Moduli (GPa) = 87.29680 67.42783 74.70126
#
# Poissons Ratio (x) = 0.24365 0.22412
# Poissons Ratio (y) = 0.31544 0.44984
# Poissons Ratio (z) = 0.26191 0.40604
#
# Static dielectric constant tensor:
#      x y z
#    x 3.520710 0.000000 0.020680 
#    y 0.000000 4.037900 0.000000 
#    z 0.020680 0.000000 3.657070 
# 
# 
# High freq. dielectric constant tensor:
#      x y z
#    x 1.793210 0.000000 0.012840 
#    y 0.000000 1.796320 0.000000 
#    z 0.012840 0.000000 1.808320 
# 
# From -- ./inp_files/54603.got.cif
#   From: 2010.06.25/outbox.cif.g09.slc.cpg/sg11_28_cif.got.tgz:54603.got - 2010.06.27 23:14:04.
