data_PCOD8073259
_publ_section_title
;
Structure prediction by ZEFSAII (Michael W. Deem and Ramdas Pophale) SiO2 
 PCOD8073259
Probable space group: P 21/M
;
_chemical_formula_sum "Si O2"
_cell_formula_units_Z 28
_cell_length_a 15.598353
_cell_length_b 8.706450
_cell_length_c 20.138938
_cell_angle_alpha 90.000000
_cell_angle_beta 30.959388
_cell_angle_gamma 90.000000
_cell_volume 1406.964122
_symmetry_space_group_name_H-M "P 21/M"
_symmetry_group_IT_number 11
_symmetry_cell_setting 'monoclinic'
loop_
_space_group_symop_operation_xyz
x,y,z
-x,1/2+y,-z
-x,-y,-z
x,1/2-y,z
loop_
_atom_site_type_symbol
_atom_site_label
_atom_site_fract_x
_atom_site_fract_y
_atom_site_fract_z
Si Si1 0.144483 0.424882 0.483782
Si Si2 0.789910 0.078746 0.692479
Si Si3 0.965306 0.432245 0.095673
Si Si4 0.303455 0.430447 0.940617
Si Si5 0.478665 0.924769 0.943514
Si Si6 0.554439 0.069957 0.658598
Si Si7 0.617038 0.931281 0.365098
O O1 0.185443 0.250000 0.434152
O O2 0.156421 0.552469 0.418632
O O3 0.270826 0.477388 0.457601
O O4 0.950003 0.432351 0.635483
O O5 0.709891 0.250000 0.751484
O O6 0.659292 0.944611 0.791637
O O7 0.950686 0.250000 0.098352
O O8 0.801894 0.497161 0.241060
O O9 0.000000 0.500000 0.000000
O O10 0.120539 0.481343 0.038616
O O11 0.314090 0.250000 0.940165
O O12 0.338018 0.501154 0.990023
O O13 0.441225 0.486489 0.795625
O O14 0.428828 0.750000 0.985925
O O15 0.500000 0.000000 0.000000
O O16 0.590119 0.250000 0.638440
O O17 0.463042 0.025400 0.651904
O O18 0.632157 0.750000 0.365615
O O19 0.500000 0.000000 0.500000
#
# Coordination Sequence:
#
# PCOD8073259 Si02
#       7
#     4   4   4   4   4   4   4
#     4  10  20  33  56  88 115 147 195 246 294 349
#     4  10  20  36  56  81 117 153 191 242 298 354
#     4  11  22  40  68  99 131 169 214 267 321 384
#     4  10  21  40  64  92 124 161 206 259 316 376
#     4  12  25  41  62  87 118 160 206 257 315 373
#     4  10  20  37  62  88 122 161 199 250 311 373
#     4  11  24  44  65  93 129 170 211 259 323 385
#
# _framework density 19.901005000000001
#
# number of rings (size 3 to 8) (size 9 to 14) (size 15 to 20)
#    0.000    1.429    2.857    3.000    0.000    4.000 
#    2.571    0.000    0.000    0.000    0.000    0.000 
#    0.000    0.000    0.000    0.000    0.000    0.000 
#
# Total GULP energy -347079.560552 kJ/mol
# GULP energy per Si atom -12395.698591 kJ/mol
# Density = 1.985571 g / cm^3
# Si number density = 19.901005 Si / 1000 Ang^3
#
#
#
# Elastic Constant Matrix: (Units=GPa)
#
#
# Indices 1 2 3 4 5 6 
#
# 1 154.8762 55.3105 58.1162 0.0000 -19.3646 0.0000
# 2 55.3105 76.8734 35.8988 0.0000 -12.3352 0.0000
# 3 58.1162 35.8988 94.2797 0.0000 -18.0791 0.0000
# 4 0.0000 0.0000 0.0000 32.9604 0.0000 -2.4989
# 5 -19.3646 -12.3352 -18.0791 0.0000 40.5191 0.0000
# 6 0.0000 0.0000 0.0000 -2.4989 0.0000 35.8033
#
#
#
# Elastic Compliance Matrix: (Units=1/GPa)
#
#
# Indices 1 2 3 4 5 6 
#
# 1 0.009916 -0.005081 -0.003899 0.000000 0.001452 0.000000
# 2 -0.005081 0.018628 -0.003652 0.000000 0.001613 0.000000
# 3 -0.003899 -0.003652 0.015124 0.000000 0.003773 0.000000
# 4 0.000000 0.000000 0.000000 0.030501 0.000000 0.002129
# 5 0.001452 0.001613 0.003773 0.000000 0.027549 0.000000
# 6 0.000000 0.000000 0.000000 0.002129 0.000000 0.028079
#
#
# Mechanical properties :
#
#
# Convention : Reuss Voigt Hill
#
# Bulk Modulus (GPa) = 54.33316 69.40892 61.87104
# Shear Modulus (GPa) = 31.01823 33.63681 32.32752
#
# Velocity S-wave (km/s) = 3.95223 4.11567 4.03478
# Velocity P-wave (km/s) = 6.94174 7.58537 7.27068
#
# Compressibility (1/GPa) = 0.01840497
#
# Stress axis : x y z
#
# Youngs Moduli (GPa) = 100.84706 53.68228 66.11811
#
# Poissons Ratio (x) = 0.27274 0.25782
# Poissons Ratio (y) = 0.51236 0.24145
# Poissons Ratio (z) = 0.39324 0.19604
#
# Static dielectric constant tensor:
#      x y z
#    x 4.741300 0.000000 1.510630 
#    y 0.000000 3.576400 0.000000 
#    z 1.510630 0.000000 6.720880 
# 
# 
# High freq. dielectric constant tensor:
#      x y z
#    x 1.777810 0.000000 -0.024340 
#    y 0.000000 1.782230 0.000000 
#    z -0.024340 0.000000 1.768190 
# 
# From -- ./inp_files/65362.got.cif
#   From: 2010.06.25/outbox.cif.g09.slc.cpg/sg11_33_cif.got.tgz:65362.got - 2010.06.27 23:14:04.
