data_PCOD8073346
_publ_section_title
;
Structure prediction by ZEFSAII (Michael W. Deem and Ramdas Pophale) SiO2 
 PCOD8073346
Probable space group: P 21/M
;
_chemical_formula_sum "Si O2"
_cell_formula_units_Z 32
_cell_length_a 16.899157
_cell_length_b 8.963964
_cell_length_c 25.621709
_cell_angle_alpha 90.000000
_cell_angle_beta 153.814082
_cell_angle_gamma 90.000000
_cell_volume 1712.745018
_symmetry_space_group_name_H-M "P 21/M"
_symmetry_group_IT_number 11
_symmetry_cell_setting 'monoclinic'
loop_
_space_group_symop_operation_xyz
x,y,z
-x,1/2+y,-z
-x,-y,-z
x,1/2-y,z
loop_
_atom_site_type_symbol
_atom_site_label
_atom_site_fract_x
_atom_site_fract_y
_atom_site_fract_z
Si Si1 0.430233 0.576304 0.534503
Si Si2 0.039215 0.073991 0.467361
Si Si3 0.555017 0.579323 0.829454
Si Si4 0.409675 0.916272 0.993708
Si Si5 0.382488 0.578383 0.624472
Si Si6 0.707224 0.914777 0.256015
Si Si7 0.850647 0.926308 0.085307
Si Si8 0.220431 0.424734 0.323571
O O1 0.386285 0.750000 0.502049
O O2 0.439902 0.527353 0.600664
O O3 0.272398 0.486955 0.411538
O O4 0.621687 0.536130 0.623246
O O5 0.037779 0.250000 0.471104
O O6 0.220528 0.023378 0.547401
O O7 0.000000 0.000000 0.500000
O O8 0.872177 0.016301 0.333361
O O9 0.519874 0.750000 0.824946
O O10 0.553629 0.559925 0.765457
O O11 0.384050 0.485304 0.746907
O O12 0.740076 0.528194 0.967094
O O13 0.343810 0.750000 0.938625
O O14 0.244161 0.009534 0.918956
O O15 0.562591 0.902999 0.126249
O O16 0.500000 0.000000 0.000000
O O17 0.318644 0.750000 0.586437
O O18 0.777243 0.750000 0.313054
O O19 0.867515 0.750000 0.101347
O O20 0.046077 0.996943 0.196606
O O21 0.183917 0.250000 0.306747
#
# Coordination Sequence:
#
# PCOD8073346 Si02
#       8
#     4   4   4   4   4   4   4   4
#     4   9  20  38  60  84 111 144 180 228 284 336
#     4  12  23  34  51  77 108 144 183 222 266 319
#     4   9  18  33  54  78 106 142 180 220 267 324
#     4  10  21  36  54  78 109 144 183 228 275 323
#     4  10  20  36  57  81 110 143 183 229 279 330
#     4  10  20  34  52  74 103 141 182 223 268 318
#     4  10  20  35  57  82 108 144 186 226 273 329
#     4  10  20  37  60  84 111 144 185 229 280 335
#
# _framework density 18.683458999999999
#
# number of rings (size 3 to 8) (size 9 to 14) (size 15 to 20)
#    0.000    2.000    1.250    2.625    0.000    4.000 
#    0.000    1.875    0.000    0.000    0.000    0.000 
#    0.000    0.000    0.000    0.000    0.000    0.000 
#
# Total GULP energy -396698.511976 kJ/mol
# GULP energy per Si atom -12396.828499 kJ/mol
# Density = 1.864093 g / cm^3
# Si number density = 18.683459 Si / 1000 Ang^3
#
#
#
# Elastic Constant Matrix: (Units=GPa)
#
#
# Indices 1 2 3 4 5 6 
#
# 1 107.3050 47.4304 51.0975 0.0000 -10.6057 0.0000
# 2 47.4304 115.1868 52.7020 0.0000 3.3032 0.0000
# 3 51.0975 52.7020 109.1149 0.0000 6.7466 0.0000
# 4 0.0000 0.0000 0.0000 31.5259 0.0000 5.0611
# 5 -10.6057 3.3032 6.7466 0.0000 22.0716 0.0000
# 6 0.0000 0.0000 0.0000 5.0611 0.0000 25.6989
#
#
#
# Elastic Compliance Matrix: (Units=1/GPa)
#
#
# Indices 1 2 3 4 5 6 
#
# 1 0.014526 -0.003687 -0.005593 0.000000 0.009241 0.000000
# 2 -0.003687 0.012080 -0.003962 0.000000 -0.002369 0.000000
# 3 -0.005593 -0.003962 0.014093 0.000000 -0.006402 0.000000
# 4 0.000000 0.000000 0.000000 0.032756 0.000000 -0.006451
# 5 0.009241 -0.002369 -0.006402 0.000000 0.052059 0.000000
# 6 0.000000 0.000000 0.000000 -0.006451 0.000000 0.040183
#
#
# Mechanical properties :
#
#
# Convention : Reuss Voigt Hill
#
# Bulk Modulus (GPa) = 70.34418 70.45182 70.39800
# Shear Modulus (GPa) = 25.39132 27.88440 26.63786
#
# Velocity S-wave (km/s) = 3.69050 3.86743 3.78000
# Velocity P-wave (km/s) = 7.47609 7.59820 7.53740
#
# Compressibility (1/GPa) = 0.01421582
#
# Stress axis : x y z
#
# Youngs Moduli (GPa) = 68.84390 82.77890 70.95785
#
# Poissons Ratio (x) = 0.30524 0.39684
# Poissons Ratio (y) = 0.25385 0.28110
# Poissons Ratio (z) = 0.38502 0.32793
#
# Static dielectric constant tensor:
#      x y z
#    x 2.970330 0.000000 0.097020 
#    y 0.000000 3.745390 0.000000 
#    z 0.097020 0.000000 3.547930 
# 
# 
# High freq. dielectric constant tensor:
#      x y z
#    x 1.704830 0.000000 -0.010820 
#    y 0.000000 1.736340 0.000000 
#    z -0.010820 0.000000 1.731340 
# 
# From -- ./inp_files/69112.got.cif
#   From: 2010.06.25/outbox.cif.g09.slc.cpg/sg11_35_cif.got.tgz:69112.got - 2010.06.27 23:14:04.
