data_PCOD8073819
_publ_section_title
;
Structure prediction by ZEFSAII (Michael W. Deem and Ramdas Pophale) SiO2 
 PCOD8073819
Probable space group: P 21/M
;
_chemical_formula_sum "Si O2"
_cell_formula_units_Z 28
_cell_length_a 9.974901
_cell_length_b 14.066475
_cell_length_c 15.226683
_cell_angle_alpha 90.000000
_cell_angle_beta 46.987801
_cell_angle_gamma 90.000000
_cell_volume 1562.213541
_symmetry_space_group_name_H-M "P 21/M"
_symmetry_group_IT_number 11
_symmetry_cell_setting 'monoclinic'
loop_
_space_group_symop_operation_xyz
x,y,z
-x,1/2+y,-z
-x,-y,-z
x,1/2-y,z
loop_
_atom_site_type_symbol
_atom_site_label
_atom_site_fract_x
_atom_site_fract_y
_atom_site_fract_z
Si Si1 0.767235 0.482626 0.339699
Si Si2 0.700571 0.645108 0.940514
Si Si3 0.085266 0.505701 0.058184
Si Si4 0.695318 0.639028 0.667514
Si Si5 0.409517 0.637736 0.932967
Si Si6 0.998168 0.643863 0.655057
Si Si7 0.426986 0.137830 0.468331
O O1 0.670646 0.582093 0.408358
O O2 0.626696 0.406473 0.361282
O O3 0.920782 0.505691 0.200461
O O4 0.844451 0.431885 0.392916
O O5 0.669114 0.750000 0.994612
O O6 0.768472 0.579053 0.990044
O O7 0.512374 0.608362 0.978244
O O8 0.856533 0.649260 0.797864
O O9 0.201598 0.601028 0.021145
O O10 0.000000 0.500000 0.000000
O O11 0.687395 0.750000 0.691974
O O12 0.524234 0.595066 0.798615
O O13 0.891688 0.603635 0.616863
O O14 0.688109 0.617893 0.568044
O O15 0.395611 0.750000 0.933894
O O16 0.081673 0.750000 0.602004
O O17 0.440537 0.250000 0.484110
#
# Coordination Sequence:
#
# PCOD8073819 Si02
#       7
#     4   4   4   4   4   4   4
#     4  10  21  33  48  72  94 127 166 193 241 288
#     4   8  16  31  49  69  95 129 164 195 233 284
#     4  11  21  31  48  75 103 128 160 203 244 285
#     4   8  15  29  51  75  94 121 158 193 233 278
#     4   9  17  31  51  73  98 127 157 193 242 296
#     4   8  14  28  50  74  97 117 151 200 235 273
#     4  10  20  35  51  66  93 127 161 200 236 283
#
# _framework density 17.923286000000001
#
# number of rings (size 3 to 8) (size 9 to 14) (size 15 to 20)
#    0.000    2.857    0.000    3.429    0.000    2.286 
#    0.000    0.000    0.000    0.000    0.000    4.000 
#    0.000    0.000    0.000    0.000    0.000    0.000 
#
# Total GULP energy -346992.650726 kJ/mol
# GULP energy per Si atom -12392.594669 kJ/mol
# Density = 1.788249 g / cm^3
# Si number density = 17.923286 Si / 1000 Ang^3
#
#
#
# Elastic Constant Matrix: (Units=GPa)
#
#
# Indices 1 2 3 4 5 6 
#
# 1 110.9670 42.0025 16.1839 0.0000 7.8990 0.0000
# 2 42.0025 78.5766 24.6811 0.0000 4.6419 0.0000
# 3 16.1839 24.6811 46.7962 0.0000 -0.2469 0.0000
# 4 0.0000 0.0000 0.0000 16.8482 0.0000 -5.5672
# 5 7.8990 4.6419 -0.2469 0.0000 21.4374 0.0000
# 6 0.0000 0.0000 0.0000 -5.5672 0.0000 31.3709
#
#
#
# Elastic Compliance Matrix: (Units=1/GPa)
#
#
# Indices 1 2 3 4 5 6 
#
# 1 0.011517 -0.005659 -0.001015 0.000000 -0.003030 0.000000
# 2 -0.005659 0.018285 -0.007697 0.000000 -0.001963 0.000000
# 3 -0.001015 -0.007697 0.025792 0.000000 0.002338 0.000000
# 4 0.000000 0.000000 0.000000 0.063051 0.000000 0.011189
# 5 -0.003030 -0.001963 0.002338 0.000000 0.048216 0.000000
# 6 0.000000 0.000000 0.000000 0.011189 0.000000 0.033862
#
#
# Mechanical properties :
#
#
# Convention : Reuss Voigt Hill
#
# Bulk Modulus (GPa) = 37.23931 44.67496 40.95714
# Shear Modulus (GPa) = 20.97182 24.16279 22.56731
#
# Velocity S-wave (km/s) = 3.42437 3.67566 3.55224
# Velocity P-wave (km/s) = 6.03798 6.55696 6.30282
#
# Compressibility (1/GPa) = 0.02685334
#
# Stress axis : x y z
#
# Youngs Moduli (GPa) = 86.82604 54.68981 38.77164
#
# Poissons Ratio (x) = 0.30948 0.03934
# Poissons Ratio (y) = 0.49133 0.29843
# Poissons Ratio (z) = 0.08809 0.42095
#
# Static dielectric constant tensor:
#      x y z
#    x 3.694140 0.000000 -0.087880 
#    y 0.000000 3.315120 0.000000 
#    z -0.087880 0.000000 2.926990 
# 
# 
# High freq. dielectric constant tensor:
#      x y z
#    x 1.710430 0.000000 -0.007600 
#    y 0.000000 1.684790 0.000000 
#    z -0.007600 0.000000 1.655780 
# 
# From -- ./inp_files/21800.got.cif
#   From: 2010.06.25/outbox.cif.g09.slc.cpg/sg11_11_cif.got.tgz:21800.got - 2010.06.27 23:14:04.
