data_PCOD8073380
_publ_section_title
;
Structure prediction by ZEFSAII (Michael W. Deem and Ramdas Pophale) SiO2 
 PCOD8073380
Probable space group: P 21/M
;
_chemical_formula_sum "Si O2"
_cell_formula_units_Z 28
_cell_length_a 17.053910
_cell_length_b 8.980626
_cell_length_c 22.997401
_cell_angle_alpha 90.000000
_cell_angle_beta 155.640896
_cell_angle_gamma 90.000000
_cell_volume 1452.730910
_symmetry_space_group_name_H-M "P 21/M"
_symmetry_group_IT_number 11
_symmetry_cell_setting 'monoclinic'
loop_
_space_group_symop_operation_xyz
x,y,z
-x,1/2+y,-z
-x,-y,-z
x,1/2-y,z
loop_
_atom_site_type_symbol
_atom_site_label
_atom_site_fract_x
_atom_site_fract_y
_atom_site_fract_z
Si Si1 0.543886 0.927050 0.809682
Si Si2 0.212966 0.425853 0.788517
Si Si3 0.466473 0.425368 0.066455
Si Si4 0.076232 0.074836 0.993491
Si Si5 0.623361 0.080059 0.504920
Si Si6 0.213630 0.573648 0.506812
Si Si7 0.219676 0.419037 0.280457
O O1 0.547378 0.750000 0.813042
O O2 0.573271 0.986568 0.895343
O O3 0.342120 0.985227 0.647467
O O4 0.713404 0.982218 0.881986
O O5 0.218981 0.250000 0.783527
O O6 0.341399 0.499622 0.826165
O O7 0.000345 0.491015 0.636392
O O8 0.289754 0.467738 0.905021
O O9 0.501031 0.250000 0.090078
O O10 0.072910 0.250000 0.001119
O O11 0.942166 0.030817 0.849558
O O12 0.000000 0.000000 0.000000
O O13 0.690812 0.250000 0.562444
O O14 0.683325 0.022705 0.482372
O O15 0.396051 0.069527 0.355252
O O16 0.720172 0.968196 0.614988
O O17 0.202268 0.750000 0.501155
O O18 0.143384 0.250000 0.231058
#
# Coordination Sequence:
#
# PCOD8073380 Si02
#       7
#     4   4   4   4   4   4   4
#     4   9  19  34  54  79 106 141 182 222 261 317
#     4   9  18  32  54  79 104 135 173 220 269 317
#     4   9  18  34  54  77 105 136 175 218 264 320
#     4  11  22  36  56  78 107 145 186 226 272 321
#     4   9  18  33  54  76 104 140 181 224 268 320
#     4   9  17  31  53  78 103 136 179 222 262 314
#     4  10  20  34  52  78 108 140 181 227 274 320
#
# _framework density 19.274044
#
# number of rings (size 3 to 8) (size 9 to 14) (size 15 to 20)
#    0.000    2.571    0.000    1.714    2.000    3.429 
#    0.000    2.143    0.000    2.571    0.000    0.000 
#    0.000    0.000    0.000    0.000    0.000    0.000 
#
# Total GULP energy -347145.701195 kJ/mol
# GULP energy per Si atom -12398.060757 kJ/mol
# Density = 1.923018 g / cm^3
# Si number density = 19.274044 Si / 1000 Ang^3
#
#
#
# Elastic Constant Matrix: (Units=GPa)
#
#
# Indices 1 2 3 4 5 6 
#
# 1 137.4603 27.6333 71.3796 0.0000 -1.9844 0.0000
# 2 27.6333 36.8393 25.9852 0.0000 2.0324 0.0000
# 3 71.3796 25.9852 144.9414 0.0000 7.7264 0.0000
# 4 0.0000 0.0000 0.0000 24.1116 0.0000 1.1026
# 5 -1.9844 2.0324 7.7264 0.0000 21.7134 0.0000
# 6 0.0000 0.0000 0.0000 1.1026 0.0000 25.1397
#
#
#
# Elastic Compliance Matrix: (Units=1/GPa)
#
#
# Indices 1 2 3 4 5 6 
#
# 1 0.010669 -0.004980 -0.004524 0.000000 0.003051 0.000000
# 2 -0.004980 0.033418 -0.003412 0.000000 -0.002369 0.000000
# 3 -0.004524 -0.003412 0.009933 0.000000 -0.003628 0.000000
# 4 0.000000 0.000000 0.000000 0.041557 0.000000 -0.001823
# 5 0.003051 -0.002369 -0.003628 0.000000 0.047846 0.000000
# 6 0.000000 0.000000 0.000000 -0.001823 0.000000 0.039858
#
#
# Mechanical properties :
#
#
# Convention : Reuss Voigt Hill
#
# Bulk Modulus (GPa) = 35.47775 63.24857 49.36316
# Shear Modulus (GPa) = 22.88225 27.14247 25.01236
#
# Velocity S-wave (km/s) = 3.44932 3.75672 3.60630
# Velocity P-wave (km/s) = 5.85754 7.19055 6.55800
#
# Compressibility (1/GPa) = 0.02818668
#
# Stress axis : x y z
#
# Youngs Moduli (GPa) = 93.72696 29.92377 100.67942
#
# Poissons Ratio (x) = 0.14903 0.45548
# Poissons Ratio (y) = 0.46678 0.34355
# Poissons Ratio (z) = 0.42403 0.10211
#
# Static dielectric constant tensor:
#      x y z
#    x 3.601820 0.000000 -0.003410 
#    y 0.000000 3.217960 0.000000 
#    z -0.003410 0.000000 3.809580 
# 
# 
# High freq. dielectric constant tensor:
#      x y z
#    x 1.751620 0.000000 -0.002690 
#    y 0.000000 1.715400 0.000000 
#    z -0.002690 0.000000 1.759030 
# 
# From -- ./inp_files/53275.got.cif
#   From: 2010.06.25/outbox.cif.g09.slc.cpg/sg11_27_cif.got.tgz:53275.got - 2010.06.27 23:14:04.
