data_PCOD8073722
_publ_section_title
;
Structure prediction by ZEFSAII (Michael W. Deem and Ramdas Pophale) SiO2 
 PCOD8073722
Probable space group: P 21/M
;
_chemical_formula_sum "Si O2"
_cell_formula_units_Z 28
_cell_length_a 12.505324
_cell_length_b 9.086447
_cell_length_c 13.568889
_cell_angle_alpha 90.000000
_cell_angle_beta 112.833162
_cell_angle_gamma 90.000000
_cell_volume 1420.999884
_symmetry_space_group_name_H-M "P 21/M"
_symmetry_group_IT_number 11
_symmetry_cell_setting 'monoclinic'
loop_
_space_group_symop_operation_xyz
x,y,z
-x,1/2+y,-z
-x,-y,-z
x,1/2-y,z
loop_
_atom_site_type_symbol
_atom_site_label
_atom_site_fract_x
_atom_site_fract_y
_atom_site_fract_z
Si Si1 0.674995 0.579192 0.816210
Si Si2 0.240240 0.420118 0.727961
Si Si3 0.533125 0.076865 0.112655
Si Si4 0.175510 0.423395 0.485632
Si Si5 0.089623 0.575308 0.104024
Si Si6 0.614645 0.921358 0.573192
Si Si7 0.007463 0.919524 0.288898
O O1 0.710150 0.750000 0.838914
O O2 0.567594 0.538003 0.846581
O O3 0.783994 0.479208 0.884163
O O4 0.638954 0.537458 0.693725
O O5 0.280214 0.250000 0.739652
O O6 0.345376 0.518289 0.803243
O O7 0.200780 0.474074 0.605805
O O8 0.131580 0.442223 0.762632
O O9 0.544245 0.250000 0.099369
O O10 0.500000 0.000000 0.000000
O O11 0.158577 0.250000 0.473256
O O12 0.280721 0.480477 0.455892
O O13 0.058885 0.495234 0.401244
O O14 0.080648 0.750000 0.090747
O O15 0.060610 0.522724 0.205017
O O16 0.000000 0.500000 0.000000
O O17 0.596310 0.750000 0.550437
O O18 0.500000 0.000000 0.500000
O O19 0.038750 0.750000 0.315861
#
# Coordination Sequence:
#
# PCOD8073722 Si02
#       7
#     4   4   4   4   4   4   4
#     4  10  22  42  63  86 121 157 196 249 302 353
#     4  10  22  40  61  89 125 161 199 245 297 355
#     4  11  25  43  64  89 118 158 203 250 303 358
#     4  10  20  36  60  89 121 158 199 243 293 352
#     4  11  24  40  62  91 121 159 203 250 303 358
#     4  10  20  34  56  86 118 154 194 238 290 346
#     4  10  22  39  60  89 124 160 197 243 300 355
#
# _framework density 19.704435
#
# number of rings (size 3 to 8) (size 9 to 14) (size 15 to 20)
#    0.000    1.714    1.429    2.143    2.000    4.000 
#    0.000    0.000    0.000    0.000    0.000    0.000 
#    0.000    0.000    0.000    0.000    0.000    0.000 
#
# Total GULP energy -347321.431001 kJ/mol
# GULP energy per Si atom -12404.336821 kJ/mol
# Density = 1.965959 g / cm^3
# Si number density = 19.704435 Si / 1000 Ang^3
#
#
#
# Elastic Constant Matrix: (Units=GPa)
#
#
# Indices 1 2 3 4 5 6 
#
# 1 115.7837 42.4041 48.4369 0.0000 14.2547 0.0000
# 2 42.4041 62.9113 48.3069 0.0000 17.2516 0.0000
# 3 48.4369 48.3069 105.8676 0.0000 16.7721 0.0000
# 4 0.0000 0.0000 0.0000 39.4478 0.0000 9.1761
# 5 14.2547 17.2516 16.7721 0.0000 32.2784 0.0000
# 6 0.0000 0.0000 0.0000 9.1761 0.0000 33.8473
#
#
#
# Elastic Compliance Matrix: (Units=1/GPa)
#
#
# Indices 1 2 3 4 5 6 
#
# 1 0.011988 -0.005769 -0.002727 0.000000 -0.000794 0.000000
# 2 -0.005769 0.029260 -0.009413 0.000000 -0.008200 0.000000
# 3 -0.002727 -0.009413 0.015256 0.000000 -0.001692 0.000000
# 4 0.000000 0.000000 0.000000 0.027056 0.000000 -0.007335
# 5 -0.000794 -0.008200 -0.001692 0.000000 0.036593 0.000000
# 6 0.000000 0.000000 0.000000 -0.007335 0.000000 0.031533
#
#
# Mechanical properties :
#
#
# Convention : Reuss Voigt Hill
#
# Bulk Modulus (GPa) = 48.33757 62.53982 55.43870
# Shear Modulus (GPa) = 25.72027 30.80900 28.26463
#
# Velocity S-wave (km/s) = 3.61682 3.95847 3.79150
# Velocity P-wave (km/s) = 6.48278 7.25951 6.88211
#
# Compressibility (1/GPa) = 0.02068784
#
# Stress axis : x y z
#
# Youngs Moduli (GPa) = 83.41688 34.17635 65.54607
#
# Poissons Ratio (x) = 0.19716 0.17873
# Poissons Ratio (y) = 0.48121 0.61697
# Poissons Ratio (z) = 0.22745 0.32170
#
# Static dielectric constant tensor:
#      x y z
#    x 3.763010 0.000000 -0.151520 
#    y 0.000000 3.470660 0.000000 
#    z -0.151520 0.000000 3.689730 
# 
# 
# High freq. dielectric constant tensor:
#      x y z
#    x 1.783860 0.000000 -0.001880 
#    y 0.000000 1.761840 0.000000 
#    z -0.001880 0.000000 1.776760 
# 
# From -- ./inp_files/49032.got.cif
#   From: 2010.06.25/outbox.cif.g09.slc.cpg/sg11_25_cif.got.tgz:49032.got - 2010.06.27 23:14:04.
