data_PCOD8073435
_publ_section_title
;
Structure prediction by ZEFSAII (Michael W. Deem and Ramdas Pophale) SiO2 
 PCOD8073435
Probable space group: P 21/M
;
_chemical_formula_sum "Si O2"
_cell_formula_units_Z 32
_cell_length_a 21.994818
_cell_length_b 9.058801
_cell_length_c 28.129787
_cell_angle_alpha 90.000000
_cell_angle_beta 18.721697
_cell_angle_gamma 90.000000
_cell_volume 1798.971261
_symmetry_space_group_name_H-M "P 21/M"
_symmetry_group_IT_number 11
_symmetry_cell_setting 'monoclinic'
loop_
_space_group_symop_operation_xyz
x,y,z
-x,1/2+y,-z
-x,-y,-z
x,1/2-y,z
loop_
_atom_site_type_symbol
_atom_site_label
_atom_site_fract_x
_atom_site_fract_y
_atom_site_fract_z
Si Si1 0.011571 0.076765 0.194996
Si Si2 0.001068 0.924412 0.948716
Si Si3 0.697594 0.423026 0.844238
Si Si4 0.299109 0.425092 0.903929
Si Si5 0.279430 0.921624 0.420094
Si Si6 0.015386 0.078855 0.685425
Si Si7 0.300179 0.577895 0.650126
Si Si8 0.966557 0.577086 0.574475
O O1 0.024201 0.250000 0.196874
O O2 0.820636 0.039639 0.307403
O O3 0.016923 0.987448 0.239253
O O4 0.192350 0.021343 0.030589
O O5 0.998527 0.750000 0.957592
O O6 0.185834 0.973032 0.781799
O O7 0.814392 0.978560 0.058641
O O8 0.000000 0.000000 0.000000
O O9 0.669970 0.250000 0.854375
O O10 0.828390 0.451491 0.793040
O O11 0.787515 0.499533 0.731501
O O12 0.500000 0.500000 0.000000
O O13 0.298551 0.250000 0.905236
O O14 0.512320 0.487238 0.744784
O O15 0.288189 0.750000 0.426767
O O16 0.153946 0.950344 0.466634
O O17 0.196834 0.004300 0.526856
O O18 0.060132 0.250000 0.656978
O O19 0.500000 0.500000 0.500000
O O20 0.338771 0.750000 0.624194
O O21 0.923557 0.750000 0.599721
O O22 0.000000 0.500000 0.500000
#
# Coordination Sequence:
#
# PCOD8073435 Si02
#       8
#     4   4   4   4   4   4   4   4
#     4   9  18  34  54  74  99 134 172 208 249 301
#     4   9  18  33  51  72  99 128 161 204 249 294
#     4  10  21  37  55  76 104 137 173 213 259 310
#     4   8  16  33  54  73  95 126 167 209 243 285
#     4   9  18  34  55  76  98 131 172 206 243 298
#     4  10  21  35  51  76 107 134 163 206 256 300
#     4   9  19  34  51  73 101 133 170 210 252 299
#     4  10  20  34  53  78 107 137 171 212 256 305
#
# _framework density 17.787942999999999
#
# number of rings (size 3 to 8) (size 9 to 14) (size 15 to 20)
#    0.000    2.750    0.000    2.625    0.000    5.000 
#    0.000    8.125    0.000    0.000    0.000    0.000 
#    0.000    0.000    0.000    0.000    0.000    0.000 
#
# Total GULP energy -396785.662573 kJ/mol
# GULP energy per Si atom -12399.551955 kJ/mol
# Density = 1.774746 g / cm^3
# Si number density = 17.787943 Si / 1000 Ang^3
#
#
#
# Elastic Constant Matrix: (Units=GPa)
#
#
# Indices 1 2 3 4 5 6 
#
# 1 124.8569 59.6309 82.0674 0.0000 27.9821 0.0000
# 2 59.6309 76.8139 67.9780 0.0000 8.7039 0.0000
# 3 82.0674 67.9780 177.8012 0.0000 2.7731 0.0000
# 4 0.0000 0.0000 0.0000 28.6583 0.0000 4.1890
# 5 27.9821 8.7039 2.7731 0.0000 26.0042 0.0000
# 6 0.0000 0.0000 0.0000 4.1890 0.0000 35.1471
#
#
#
# Elastic Compliance Matrix: (Units=1/GPa)
#
#
# Indices 1 2 3 4 5 6 
#
# 1 0.019627 -0.008240 -0.005632 0.000000 -0.017761 0.000000
# 2 -0.008240 0.024047 -0.005412 0.000000 0.001395 0.000000
# 3 -0.005632 -0.005412 0.010187 0.000000 0.006785 0.000000
# 4 0.000000 0.000000 0.000000 0.035513 0.000000 -0.004233
# 5 -0.017761 0.001395 0.006785 0.000000 0.056376 0.000000
# 6 0.000000 0.000000 0.000000 -0.004233 0.000000 0.028956
#
#
# Mechanical properties :
#
#
# Convention : Reuss Voigt Hill
#
# Bulk Modulus (GPa) = 65.38984 88.75832 77.07408
# Shear Modulus (GPa) = 22.89687 29.28163 26.08925
#
# Velocity S-wave (km/s) = 3.59167 4.06168 3.83388
# Velocity P-wave (km/s) = 7.35124 8.48544 7.93862
#
# Compressibility (1/GPa) = 0.01529290
#
# Stress axis : x y z
#
# Youngs Moduli (GPa) = 50.95152 41.58594 98.16377
#
# Poissons Ratio (x) = 0.34266 0.55283
# Poissons Ratio (y) = 0.41983 0.53128
# Poissons Ratio (z) = 0.28694 0.22507
#
# Static dielectric constant tensor:
#      x y z
#    x 3.317090 0.000000 -0.102020 
#    y 0.000000 3.237710 0.000000 
#    z -0.102020 0.000000 3.942210 
# 
# 
# High freq. dielectric constant tensor:
#      x y z
#    x 1.689570 0.000000 0.003830 
#    y 0.000000 1.678600 0.000000 
#    z 0.003830 0.000000 1.697230 
# 
# From -- ./inp_files/67158.got.cif
#   From: 2010.06.25/outbox.cif.g09.slc.cpg/sg11_34_cif.got.tgz:67158.got - 2010.06.27 23:14:04.
