data_PCOD8073977
_publ_section_title
;
Structure prediction by ZEFSAII (Michael W. Deem and Ramdas Pophale) SiO2 
 PCOD8073977
Probable space group: P 21/M
;
_chemical_formula_sum "Si O2"
_cell_formula_units_Z 32
_cell_length_a 19.624743
_cell_length_b 8.849831
_cell_length_c 14.069274
_cell_angle_alpha 90.000000
_cell_angle_beta 134.295650
_cell_angle_gamma 90.000000
_cell_volume 1748.917909
_symmetry_space_group_name_H-M "P 21/M"
_symmetry_group_IT_number 11
_symmetry_cell_setting 'monoclinic'
loop_
_space_group_symop_operation_xyz
x,y,z
-x,1/2+y,-z
-x,-y,-z
x,1/2-y,z
loop_
_atom_site_type_symbol
_atom_site_label
_atom_site_fract_x
_atom_site_fract_y
_atom_site_fract_z
Si Si1 0.764261 0.573950 0.122896
Si Si2 0.601118 0.425541 0.613640
Si Si3 0.753175 0.570283 0.402302
Si Si4 0.600686 0.923310 0.103524
Si Si5 0.896778 0.070769 0.402943
Si Si6 0.243257 0.572824 0.391531
Si Si7 0.258030 0.074522 0.113663
Si Si8 0.101438 0.427213 0.115411
O O1 0.792889 0.750000 0.160016
O O2 0.659697 0.546219 0.064715
O O3 0.841729 0.475660 0.253660
O O4 0.762752 0.518272 0.012956
O O5 0.500000 0.500000 0.500000
O O6 0.585276 0.250000 0.612309
O O7 0.666760 0.462480 0.587230
O O8 0.650512 0.487867 0.756815
O O9 0.766525 0.750000 0.411649
O O10 0.661450 0.517236 0.252443
O O11 0.846087 0.493667 0.447620
O O12 0.736989 0.513574 0.492288
O O13 0.578756 0.750000 0.096810
O O14 0.500000 0.000000 0.000000
O O15 0.903041 0.250000 0.416126
O O16 0.000000 0.000000 0.500000
O O17 0.229345 0.750000 0.395969
O O18 0.147754 0.506669 0.251893
O O19 0.284273 0.250000 0.140497
O O20 0.164518 0.039347 0.084042
O O21 0.091573 0.250000 0.126083
O O22 0.000000 0.500000 0.000000
#
# Coordination Sequence:
#
# PCOD8073977 Si02
#       8
#     4   4   4   4   4   4   4   4
#     4   9  19  37  56  77 106 140 179 224 269 316
#     4  10  21  36  55  79 110 144 182 225 269 320
#     4  10  21  38  57  80 109 142 180 225 273 321
#     4   9  19  34  53  76 105 137 171 214 264 316
#     4  11  22  37  57  81 110 144 181 223 268 321
#     4  10  21  37  56  80 108 142 182 225 272 324
#     4   9  19  36  57  78 104 139 179 222 269 315
#     4  10  20  35  55  79 108 142 178 222 270 321
#
# _framework density 18.297028999999998
#
# number of rings (size 3 to 8) (size 9 to 14) (size 15 to 20)
#    0.000    2.250    0.000    3.375    0.000    7.000 
#    0.000    7.500    0.000    0.000    0.000    0.000 
#    0.000    0.000    0.000    0.000    0.000    0.000 
#
# Total GULP energy -396886.712231 kJ/mol
# GULP energy per Si atom -12402.709757 kJ/mol
# Density = 1.825538 g / cm^3
# Si number density = 18.297029 Si / 1000 Ang^3
#
#
#
# Elastic Constant Matrix: (Units=GPa)
#
#
# Indices 1 2 3 4 5 6 
#
# 1 81.7235 45.3401 68.1673 0.0000 -1.6685 0.0000
# 2 45.3401 94.4565 54.2676 0.0000 5.5691 0.0000
# 3 68.1673 54.2676 113.4461 0.0000 4.1703 0.0000
# 4 0.0000 0.0000 0.0000 39.0920 0.0000 2.7910
# 5 -1.6685 5.5691 4.1703 0.0000 44.2474 0.0000
# 6 0.0000 0.0000 0.0000 2.7910 0.0000 32.2853
#
#
#
# Elastic Compliance Matrix: (Units=1/GPa)
#
#
# Indices 1 2 3 4 5 6 
#
# 1 0.026411 -0.005061 -0.013556 0.000000 0.002910 0.000000
# 2 -0.005061 0.015631 -0.004372 0.000000 -0.001746 0.000000
# 3 -0.013556 -0.004372 0.019116 0.000000 -0.001763 0.000000
# 4 0.000000 0.000000 0.000000 0.025740 0.000000 -0.002225
# 5 0.002910 -0.001746 -0.001763 0.000000 0.023096 0.000000
# 6 0.000000 0.000000 0.000000 -0.002225 0.000000 0.031166
#
#
# Mechanical properties :
#
#
# Convention : Reuss Voigt Hill
#
# Bulk Modulus (GPa) = 65.87308 69.46401 67.66854
# Shear Modulus (GPa) = 26.01502 31.24833 28.63168
#
# Velocity S-wave (km/s) = 3.77479 4.13708 3.96008
# Velocity P-wave (km/s) = 7.42152 7.80177 7.61402
#
# Compressibility (1/GPa) = 0.01518071
#
# Stress axis : x y z
#
# Youngs Moduli (GPa) = 37.86359 63.97576 52.31168
#
# Poissons Ratio (x) = 0.32378 0.70912
# Poissons Ratio (y) = 0.19162 0.22871
# Poissons Ratio (z) = 0.51326 0.27970
#
# Static dielectric constant tensor:
#      x y z
#    x 3.265660 0.000000 -0.451100 
#    y 0.000000 3.479120 0.000000 
#    z -0.451100 0.000000 2.679860 
# 
# 
# High freq. dielectric constant tensor:
#      x y z
#    x 1.710110 0.000000 -0.000980 
#    y 0.000000 1.717610 0.000000 
#    z -0.000980 0.000000 1.715640 
# 
# From -- ./inp_files/54304.got.cif
#   From: 2010.06.25/outbox.cif.g09.slc.cpg/sg11_28_cif.got.tgz:54304.got - 2010.06.27 23:14:04.
