data_PCOD8073606
_publ_section_title
;
Structure prediction by ZEFSAII (Michael W. Deem and Ramdas Pophale) SiO2 
 PCOD8073606
Probable space group: P 21/M
;
_chemical_formula_sum "Si O2"
_cell_formula_units_Z 32
_cell_length_a 19.195619
_cell_length_b 11.132408
_cell_length_c 20.350699
_cell_angle_alpha 90.000000
_cell_angle_beta 157.616786
_cell_angle_gamma 90.000000
_cell_volume 1656.025159
_symmetry_space_group_name_H-M "P 21/M"
_symmetry_group_IT_number 11
_symmetry_cell_setting 'monoclinic'
loop_
_space_group_symop_operation_xyz
x,y,z
-x,1/2+y,-z
-x,-y,-z
x,1/2-y,z
loop_
_atom_site_type_symbol
_atom_site_label
_atom_site_fract_x
_atom_site_fract_y
_atom_site_fract_z
Si Si1 0.164648 0.384357 0.934344
Si Si2 0.938574 0.037355 0.343576
Si Si3 0.218305 0.615580 0.661537
Si Si4 0.049407 0.383783 0.302019
Si Si5 0.766936 0.970475 0.867348
Si Si6 0.621058 0.613769 0.006142
Si Si7 0.602987 0.613901 0.471806
Si Si8 0.140908 0.114187 0.190521
O O1 0.072078 0.250000 0.843647
O O2 0.238865 0.387487 0.073293
O O3 0.333703 0.394889 0.031768
O O4 0.036526 0.500423 0.809700
O O5 0.885070 0.119073 0.358754
O O6 0.004597 0.116531 0.340072
O O7 0.107027 0.953359 0.509175
O O8 0.763589 0.958617 0.173700
O O9 0.239794 0.750000 0.653835
O O10 0.420310 0.557405 0.843030
O O11 0.983034 0.250000 0.218253
O O12 0.266722 0.393393 0.478810
O O13 0.581951 0.045171 0.704128
O O14 0.776564 0.890208 0.810497
O O15 0.945472 0.052566 0.025619
O O16 0.627814 0.750000 0.037857
O O17 0.546206 0.750000 0.438599
O O18 0.713835 0.557632 0.630967
O O19 0.107581 0.250000 0.183011
#
# Coordination Sequence:
#
# PCOD8073606 Si02
#       8
#     4   4   4   4   4   4   4   4
#     4  10  21  38  59  87 120 152 198 244 291 348
#     4  10  20  34  56  81 112 146 194 237 285 337
#     4  10  20  34  55  81 111 149 190 237 294 345
#     4  10  21  39  61  85 121 157 195 242 290 345
#     4  11  21  35  61  83 115 152 194 235 294 341
#     4   9  19  35  54  77 111 149 188 236 291 345
#     4  10  21  37  58  85 115 153 196 238 290 349
#     4  10  21  38  57  83 116 150 192 242 290 344
#
# _framework density 19.323378000000002
#
# number of rings (size 3 to 8) (size 9 to 14) (size 15 to 20)
#    0.000    2.000    1.250    2.250    1.750    1.000 
#    0.000    1.250    0.000    3.750    0.000    0.000 
#    0.000    0.000    0.000    0.000    0.000    0.000 
#
# Total GULP energy -396587.519216 kJ/mol
# GULP energy per Si atom -12393.359975 kJ/mol
# Density = 1.927940 g / cm^3
# Si number density = 19.323378 Si / 1000 Ang^3
#
#
#
# Elastic Constant Matrix: (Units=GPa)
#
#
# Indices 1 2 3 4 5 6 
#
# 1 77.6590 21.6627 24.9669 0.0000 -4.6960 0.0000
# 2 21.6627 99.7249 47.8450 0.0000 3.4741 0.0000
# 3 24.9669 47.8450 112.3989 0.0000 11.4841 0.0000
# 4 0.0000 0.0000 0.0000 28.3974 0.0000 2.4096
# 5 -4.6960 3.4741 11.4841 0.0000 27.7195 0.0000
# 6 0.0000 0.0000 0.0000 2.4096 0.0000 28.7647
#
#
#
# Elastic Compliance Matrix: (Units=1/GPa)
#
#
# Indices 1 2 3 4 5 6 
#
# 1 0.014555 -0.001955 -0.002796 0.000000 0.003869 0.000000
# 2 -0.001955 0.012876 -0.005062 0.000000 0.000152 0.000000
# 3 -0.002796 -0.005062 0.012172 0.000000 -0.004882 0.000000
# 4 0.000000 0.000000 0.000000 0.035467 0.000000 -0.002971
# 5 0.003869 0.000152 -0.004882 0.000000 0.038735 0.000000
# 6 0.000000 0.000000 0.000000 -0.002971 0.000000 0.035014
#
#
# Mechanical properties :
#
#
# Convention : Reuss Voigt Hill
#
# Bulk Modulus (GPa) = 50.06088 53.19245 51.62666
# Shear Modulus (GPa) = 28.55472 29.99686 29.27579
#
# Velocity S-wave (km/s) = 3.84829 3.94428 3.89658
# Velocity P-wave (km/s) = 6.76084 6.95200 6.85709
#
# Compressibility (1/GPa) = 0.01997568
#
# Stress axis : x y z
#
# Youngs Moduli (GPa) = 68.70445 77.66645 82.15851
#
# Poissons Ratio (x) = 0.15183 0.22974
# Poissons Ratio (y) = 0.13431 0.41589
# Poissons Ratio (z) = 0.19212 0.39315
#
# Static dielectric constant tensor:
#      x y z
#    x 3.756160 0.000000 -0.023220 
#    y 0.000000 3.491390 0.000000 
#    z -0.023220 0.000000 3.431980 
# 
# 
# High freq. dielectric constant tensor:
#      x y z
#    x 1.768960 0.000000 0.000870 
#    y 0.000000 1.747770 0.000000 
#    z 0.000870 0.000000 1.739850 
# 
# From -- ./inp_files/66573.got.cif
#   From: 2010.06.25/outbox.cif.g09.slc.cpg/sg11_34_cif.got.tgz:66573.got - 2010.06.27 23:14:04.
