data_PCOD8073362
_publ_section_title
;
Structure prediction by ZEFSAII (Michael W. Deem and Ramdas Pophale) SiO2 
 PCOD8073362
Probable space group: P 21/M
;
_chemical_formula_sum "Si O2"
_cell_formula_units_Z 32
_cell_length_a 27.840850
_cell_length_b 8.987032
_cell_length_c 9.873874
_cell_angle_alpha 90.000000
_cell_angle_beta 45.285469
_cell_angle_gamma 90.000000
_cell_volume 1755.595398
_symmetry_space_group_name_H-M "P 21/M"
_symmetry_group_IT_number 11
_symmetry_cell_setting 'monoclinic'
loop_
_space_group_symop_operation_xyz
x,y,z
-x,1/2+y,-z
-x,-y,-z
x,1/2-y,z
loop_
_atom_site_type_symbol
_atom_site_label
_atom_site_fract_x
_atom_site_fract_y
_atom_site_fract_z
Si Si1 0.169096 0.075376 0.800147
Si Si2 0.569666 0.924613 0.211184
Si Si3 0.417162 0.575156 0.541229
Si Si4 0.062903 0.576948 0.201975
Si Si5 0.330071 0.421815 0.219294
Si Si6 0.177484 0.080468 0.472206
Si Si7 0.075780 0.922683 0.486209
Si Si8 0.690984 0.425784 0.463331
O O1 0.176403 0.250000 0.809710
O O2 0.156403 0.039652 0.667462
O O3 0.237782 0.999635 0.714914
O O4 0.107220 0.013097 0.007965
O O5 0.576764 0.750000 0.218194
O O6 0.491972 0.973859 0.343973
O O7 0.601406 0.001045 0.279743
O O8 0.612147 0.976989 0.997277
O O9 0.413535 0.750000 0.568666
O O10 0.363263 0.519611 0.538880
O O11 0.065221 0.750000 0.159814
O O12 0.090130 0.546957 0.299421
O O13 0.986592 0.520373 0.338257
O O14 0.339382 0.250000 0.243941
O O15 0.257306 0.443436 0.293856
O O16 0.337104 0.523426 0.336576
O O17 0.156960 0.250000 0.479331
O O18 0.141383 0.969636 0.440217
O O19 0.059311 0.750000 0.543723
O O20 0.700447 0.250000 0.444010
#
# Coordination Sequence:
#
# PCOD8073362 Si02
#       8
#     4   4   4   4   4   4   4   4
#     4  10  21  37  56  78 104 136 175 214 254 305
#     4   9  18  34  54  75 102 137 175 215 259 307
#     4   9  19  34  51  75 106 136 171 216 261 308
#     4  10  21  37  56  79 107 137 170 211 257 303
#     4   9  19  35  53  75 103 135 174 215 255 306
#     4   9  19  35  53  75 103 134 170 214 259 303
#     4  10  21  36  55  79 105 136 173 210 252 305
#     4  10  20  34  52  76 106 137 170 212 261 308
#
# _framework density 18.227435
#
# number of rings (size 3 to 8) (size 9 to 14) (size 15 to 20)
#    0.000    2.500    0.000    2.250    0.000    7.500 
#    0.000    2.500    0.000    0.000    0.000    0.000 
#    0.000    0.000    0.000    0.000    0.000    0.000 
#
# Total GULP energy -396895.962549 kJ/mol
# GULP energy per Si atom -12402.998830 kJ/mol
# Density = 1.818595 g / cm^3
# Si number density = 18.227435 Si / 1000 Ang^3
#
#
#
# Elastic Constant Matrix: (Units=GPa)
#
#
# Indices 1 2 3 4 5 6 
#
# 1 66.7151 20.5394 -17.4847 0.0000 3.0247 0.0000
# 2 20.5394 50.2972 7.2145 0.0000 2.5954 0.0000
# 3 -17.4847 7.2145 46.2921 0.0000 -5.5176 0.0000
# 4 0.0000 0.0000 0.0000 32.2251 0.0000 0.6650
# 5 3.0247 2.5954 -5.5176 0.0000 12.5882 0.0000
# 6 0.0000 0.0000 0.0000 0.6650 0.0000 30.6099
#
#
#
# Elastic Compliance Matrix: (Units=1/GPa)
#
#
# Indices 1 2 3 4 5 6 
#
# 1 0.020382 -0.009728 0.009359 0.000000 0.001210 0.000000
# 2 -0.009728 0.025402 -0.008419 0.000000 -0.006590 0.000000
# 3 0.009359 -0.008419 0.027842 0.000000 0.011691 0.000000
# 4 0.000000 0.000000 0.000000 0.031046 0.000000 -0.000674
# 5 0.001210 -0.006590 0.011691 0.000000 0.085632 0.000000
# 6 0.000000 0.000000 0.000000 -0.000674 0.000000 0.032684
#
#
# Mechanical properties :
#
#
# Convention : Reuss Voigt Hill
#
# Bulk Modulus (GPa) = 17.84115 20.42697 19.13406
# Shear Modulus (GPa) = 19.28670 25.28700 22.28685
#
# Velocity S-wave (km/s) = 3.25639 3.72869 3.50052
# Velocity P-wave (km/s) = 4.89368 5.45606 5.18251
#
# Compressibility (1/GPa) = 0.05605021
#
# Stress axis : x y z
#
# Youngs Moduli (GPa) = 49.06320 39.36714 35.91677
#
# Poissons Ratio (x) = 0.38296 -0.33613
# Poissons Ratio (y) = 0.47729 0.30237
# Poissons Ratio (z) = -0.45917 0.33141
#
# Static dielectric constant tensor:
#      x y z
#    x 3.355340 0.000000 -0.025050 
#    y 0.000000 3.342410 0.000000 
#    z -0.025050 0.000000 3.398760 
# 
# 
# High freq. dielectric constant tensor:
#      x y z
#    x 1.705110 0.000000 -0.002170 
#    y 0.000000 1.711000 0.000000 
#    z -0.002170 0.000000 1.708260 
# 
# From -- ./inp_files/28052.got.cif
#   From: 2010.06.25/outbox.cif.g09.slc.cpg/sg11_15_cif.got.tgz:28052.got - 2010.06.27 23:14:04.
