data_PCOD8073214
_publ_section_title
;
Structure prediction by ZEFSAII (Michael W. Deem and Ramdas Pophale) SiO2 
 PCOD8073214
Probable space group: P 21/M
;
_chemical_formula_sum "Si O2"
_cell_formula_units_Z 32
_cell_length_a 12.291520
_cell_length_b 8.505686
_cell_length_c 16.297098
_cell_angle_alpha 90.000000
_cell_angle_beta 101.655331
_cell_angle_gamma 90.000000
_cell_volume 1668.694048
_symmetry_space_group_name_H-M "P 21/M"
_symmetry_group_IT_number 11
_symmetry_cell_setting 'monoclinic'
loop_
_space_group_symop_operation_xyz
x,y,z
-x,1/2+y,-z
-x,-y,-z
x,1/2-y,z
loop_
_atom_site_type_symbol
_atom_site_label
_atom_site_fract_x
_atom_site_fract_y
_atom_site_fract_z
Si Si1 0.051276 0.565356 0.717649
Si Si2 0.611084 0.564635 0.782615
Si Si3 0.198425 0.433961 0.300615
Si Si4 0.710111 0.428624 0.521149
Si Si5 0.731687 0.565579 0.220360
Si Si6 0.603938 0.434074 0.347960
Si Si7 0.484202 0.065466 0.907817
Si Si8 0.107094 0.432601 0.557160
O O1 0.045287 0.750000 0.695069
O O2 0.155561 0.526580 0.793837
O O3 0.090223 0.452834 0.650648
O O4 0.928714 0.503323 0.726157
O O5 0.615049 0.750000 0.796209
O O6 0.727578 0.498802 0.763223
O O7 0.517002 0.515949 0.702623
O O8 0.587690 0.486633 0.866841
O O9 0.194223 0.250000 0.290685
O O10 0.261114 0.466150 0.396205
O O11 0.707360 0.250000 0.552059
O O12 0.602912 0.472237 0.447113
O O13 0.800029 0.452699 0.463706
O O14 0.750115 0.750000 0.211876
O O15 0.697652 0.529524 0.310334
O O16 0.631372 0.501902 0.147881
O O17 0.627264 0.250000 0.337054
O O18 0.481921 0.250000 0.911617
O O19 0.500000 0.000000 0.000000
O O20 0.128682 0.250000 0.537988
O O21 0.000000 0.500000 0.500000
#
# Coordination Sequence:
#
# PCOD8073214 Si02
#       8
#     4   4   4   4   4   4   4   4
#     4  11  21  33  50  74 106 145 185 224 269 318
#     4   9  19  38  58  78 107 144 179 219 269 323
#     4  10  22  36  51  72 105 149 191 226 268 318
#     4  11  21  31  47  72 102 142 190 235 276 316
#     4  10  20  33  53  82 111 137 173 220 269 316
#     4   9  18  32  51  73 102 139 183 229 275 321
#     4  10  21  38  63  93 115 135 165 209 265 325
#     4  12  22  32  47  69  99 139 187 239 282 315
#
# _framework density 19.176673999999998
#
# number of rings (size 3 to 8) (size 9 to 14) (size 15 to 20)
#    0.000    1.750    2.500    2.625    0.000    3.500 
#    0.000    0.000    0.000    0.750    0.000    0.000 
#    0.000    0.000    0.000    0.000    0.000    0.000 
#
# Total GULP energy -396451.348370 kJ/mol
# GULP energy per Si atom -12389.104637 kJ/mol
# Density = 1.913303 g / cm^3
# Si number density = 19.176674 Si / 1000 Ang^3
#
#
#
# Elastic Constant Matrix: (Units=GPa)
#
#
# Indices 1 2 3 4 5 6 
#
# 1 108.7566 20.4890 56.0002 0.0000 -14.6856 0.0000
# 2 20.4890 32.0902 8.6402 0.0000 -2.4214 0.0000
# 3 56.0002 8.6402 101.9632 0.0000 -7.1598 0.0000
# 4 0.0000 0.0000 0.0000 26.0709 0.0000 1.8039
# 5 -14.6856 -2.4214 -7.1598 0.0000 20.7373 0.0000
# 6 0.0000 0.0000 0.0000 1.8039 0.0000 20.6687
#
#
#
# Elastic Compliance Matrix: (Units=1/GPa)
#
#
# Indices 1 2 3 4 5 6 
#
# 1 0.015318 -0.007257 -0.007272 0.000000 0.007490 0.000000
# 2 -0.007257 0.035494 0.000931 0.000000 -0.000673 0.000000
# 3 -0.007272 0.000931 0.013701 0.000000 -0.000311 0.000000
# 4 0.000000 0.000000 0.000000 0.038590 0.000000 -0.003368
# 5 0.007490 -0.000673 -0.000311 0.000000 0.053340 0.000000
# 6 0.000000 0.000000 0.000000 -0.003368 0.000000 0.048676
#
#
# Mechanical properties :
#
#
# Convention : Reuss Voigt Hill
#
# Bulk Modulus (GPa) = 26.79811 45.89655 36.34733
# Shear Modulus (GPa) = 20.42864 24.00743 22.21804
#
# Velocity S-wave (km/s) = 3.26741 3.54207 3.40751
# Velocity P-wave (km/s) = 5.31407 6.38074 5.87168
#
# Compressibility (1/GPa) = 0.03731606
#
# Stress axis : x y z
#
# Youngs Moduli (GPa) = 65.28359 28.17361 72.98907
#
# Poissons Ratio (x) = 0.20446 0.53077
# Poissons Ratio (y) = 0.47377 -0.06793
# Poissons Ratio (z) = 0.47474 -0.02622
#
# Static dielectric constant tensor:
#      x y z
#    x 4.053140 0.000000 0.119920 
#    y 0.000000 5.232370 0.000000 
#    z 0.119920 0.000000 3.267620 
# 
# 
# High freq. dielectric constant tensor:
#      x y z
#    x 1.754790 0.000000 0.012140 
#    y 0.000000 1.741140 0.000000 
#    z 0.012140 0.000000 1.709320 
# 
# From -- ./inp_files/42920.got.cif
#   From: 2010.06.25/outbox.cif.g09.slc.cpg/sg11_22_cif.got.tgz:42920.got - 2010.06.27 23:14:04.
