data_PCOD8073277
_publ_section_title
;
Structure prediction by ZEFSAII (Michael W. Deem and Ramdas Pophale) SiO2 
 PCOD8073277
Probable space group: P 21/M
;
_chemical_formula_sum "Si O2"
_cell_formula_units_Z 32
_cell_length_a 16.024971
_cell_length_b 8.833962
_cell_length_c 12.180900
_cell_angle_alpha 90.000000
_cell_angle_beta 98.288957
_cell_angle_gamma 90.000000
_cell_volume 1706.363203
_symmetry_space_group_name_H-M "P 21/M"
_symmetry_group_IT_number 11
_symmetry_cell_setting 'monoclinic'
loop_
_space_group_symop_operation_xyz
x,y,z
-x,1/2+y,-z
-x,-y,-z
x,1/2-y,z
loop_
_atom_site_type_symbol
_atom_site_label
_atom_site_fract_x
_atom_site_fract_y
_atom_site_fract_z
Si Si1 0.070015 0.583606 0.079268
Si Si2 0.284103 0.572047 0.262867
Si Si3 0.198555 0.069497 0.795124
Si Si4 0.850917 0.928973 0.603245
Si Si5 0.010728 0.083721 0.704076
Si Si6 0.589752 0.074607 0.526999
Si Si7 0.739789 0.070320 0.403100
Si Si8 0.233565 0.072738 0.048183
O O1 0.091677 0.750000 0.032924
O O2 0.038792 0.608460 0.194305
O O3 0.147775 0.470337 0.092430
O O4 0.000000 0.500000 0.000000
O O5 0.266028 0.750000 0.253107
O O6 0.202462 0.500487 0.307031
O O7 0.367818 0.534270 0.348199
O O8 0.301352 0.507958 0.142296
O O9 0.204180 0.250000 0.789219
O O10 0.229541 0.014255 0.921636
O O11 0.103203 0.014637 0.748914
O O12 0.261493 0.989507 0.721762
O O13 0.841729 0.750000 0.607520
O O14 0.950696 0.972856 0.622123
O O15 0.816604 0.990059 0.480785
O O16 0.020294 0.250000 0.648941
O O17 0.573868 0.250000 0.513219
O O18 0.651498 0.020182 0.441118
O O19 0.500000 0.000000 0.500000
O O20 0.752262 0.250000 0.411846
O O21 0.249859 0.250000 0.053755
#
# Coordination Sequence:
#
# PCOD8073277 Si02
#       8
#     4   4   4   4   4   4   4   4
#     4  11  20  31  48  70 103 144 188 241 283 317
#     4  10  20  35  54  83 117 144 174 222 276 322
#     4  10  22  38  53  74 107 148 192 231 269 317
#     4  11  21  33  53  78 104 142 189 234 278 324
#     4  10  20  34  49  70 105 146 188 239 282 316
#     4   9  20  38  63  91 115 135 165 211 266 327
#     4  10  22  40  58  80 110 142 177 220 272 329
#     4  11  21  34  52  78 109 145 189 232 272 321
#
# _framework density 18.753333999999999
#
# number of rings (size 3 to 8) (size 9 to 14) (size 15 to 20)
#    0.000    1.750    2.500    3.375    0.000    5.500 
#    0.000    0.000    0.000    0.750    0.000    0.000 
#    0.000    0.000    0.000    0.000    0.000    0.000 
#
# Total GULP energy -396588.227192 kJ/mol
# GULP energy per Si atom -12393.382100 kJ/mol
# Density = 1.871065 g / cm^3
# Si number density = 18.753334 Si / 1000 Ang^3
#
#
#
# Elastic Constant Matrix: (Units=GPa)
#
#
# Indices 1 2 3 4 5 6 
#
# 1 82.5963 38.5481 54.2951 0.0000 8.7293 0.0000
# 2 38.5481 75.3268 47.6412 0.0000 6.1189 0.0000
# 3 54.2951 47.6412 124.6780 0.0000 1.9723 0.0000
# 4 0.0000 0.0000 0.0000 30.8994 0.0000 1.7064
# 5 8.7293 6.1189 1.9723 0.0000 18.9358 0.0000
# 6 0.0000 0.0000 0.0000 1.7064 0.0000 27.4262
#
#
#
# Elastic Compliance Matrix: (Units=1/GPa)
#
#
# Indices 1 2 3 4 5 6 
#
# 1 0.019487 -0.005456 -0.006298 0.000000 -0.006564 0.000000
# 2 -0.005456 0.019513 -0.005029 0.000000 -0.003266 0.000000
# 3 -0.006298 -0.005029 0.012634 0.000000 0.003212 0.000000
# 4 0.000000 0.000000 0.000000 0.032475 0.000000 -0.002021
# 5 -0.006564 -0.003266 0.003212 0.000000 0.056557 0.000000
# 6 0.000000 0.000000 0.000000 -0.002021 0.000000 0.036587
#
#
# Mechanical properties :
#
#
# Convention : Reuss Voigt Hill
#
# Bulk Modulus (GPa) = 55.34161 62.61886 58.98024
# Shear Modulus (GPa) = 23.05840 24.92674 23.99257
#
# Velocity S-wave (km/s) = 3.51032 3.64976 3.58072
# Velocity P-wave (km/s) = 6.78263 7.15711 6.97239
#
# Compressibility (1/GPa) = 0.01806958
#
# Stress axis : x y z
#
# Youngs Moduli (GPa) = 51.31632 51.24688 79.15280
#
# Poissons Ratio (x) = 0.27961 0.49847
# Poissons Ratio (y) = 0.27999 0.39803
# Poissons Ratio (z) = 0.32317 0.25770
#
# Static dielectric constant tensor:
#      x y z
#    x 3.298610 0.000000 0.087630 
#    y 0.000000 3.503740 0.000000 
#    z 0.087630 0.000000 3.635900 
# 
# 
# High freq. dielectric constant tensor:
#      x y z
#    x 1.690070 0.000000 0.012600 
#    y 0.000000 1.733490 0.000000 
#    z 0.012600 0.000000 1.735060 
# 
# From -- ./inp_files/38124.got.cif
#   From: 2010.06.25/outbox.cif.g09.slc.cpg/sg11_20_cif.got.tgz:38124.got - 2010.06.27 23:14:04.
