data_PCOD8073888
_publ_section_title
;
Structure prediction by ZEFSAII (Michael W. Deem and Ramdas Pophale) SiO2 
 PCOD8073888
Probable space group: P 21/M
;
_chemical_formula_sum "Si O2"
_cell_formula_units_Z 32
_cell_length_a 19.682496
_cell_length_b 12.616266
_cell_length_c 8.735424
_cell_angle_alpha 90.000000
_cell_angle_beta 128.297703
_cell_angle_gamma 90.000000
_cell_volume 1702.372779
_symmetry_space_group_name_H-M "P 21/M"
_symmetry_group_IT_number 11
_symmetry_cell_setting 'monoclinic'
loop_
_space_group_symop_operation_xyz
x,y,z
-x,1/2+y,-z
-x,-y,-z
x,1/2-y,z
loop_
_atom_site_type_symbol
_atom_site_label
_atom_site_fract_x
_atom_site_fract_y
_atom_site_fract_z
Si Si1 0.981255 0.129415 0.129620
Si Si2 0.601705 0.626525 0.661889
Si Si3 0.131892 0.499035 0.242282
Si Si4 0.802648 0.626424 0.957863
Si Si5 0.481827 0.997468 0.720749
Si Si6 0.906539 0.471426 0.306703
Si Si7 0.787616 0.129117 0.395784
Si Si8 0.590747 0.370704 0.103519
O O1 0.003014 0.250000 0.135198
O O2 0.919774 0.112270 0.189071
O O3 0.931837 0.088605 0.911135
O O4 0.073984 0.071533 0.276852
O O5 0.581341 0.750000 0.603586
O O6 0.701205 0.609715 0.848041
O O7 0.581877 0.559784 0.481676
O O8 0.542815 0.585249 0.717943
O O9 0.174182 0.426649 0.171272
O O10 0.205751 0.557696 0.442429
O O11 0.827162 0.750000 0.984681
O O12 0.857008 0.574973 0.172585
O O13 0.424338 0.932971 0.760276
O O14 0.539118 0.083282 0.888542
O O15 0.851306 0.413322 0.356453
O O16 0.000000 0.500000 0.500000
O O17 0.811799 0.250000 0.469990
O O18 0.690814 0.120915 0.197723
O O19 0.561336 0.250000 0.087567
#
# Coordination Sequence:
#
# PCOD8073888 Si02
#       8
#     4   4   4   4   4   4   4   4
#     4  10  20  35  54  75 102 139 183 227 269 320
#     4  10  20  36  58  85 112 145 187 228 278 332
#     4  10  20  36  54  79 107 140 185 227 273 327
#     4  10  22  38  58  82 113 147 184 233 280 328
#     4  10  20  36  59  83 114 150 181 232 273 334
#     4  11  22  39  54  79 109 145 186 227 273 335
#     4  11  22  37  57  82 114 147 185 233 280 328
#     4  10  21  36  56  84 114 148 185 225 279 335
#
# _framework density 18.797291999999999
#
# number of rings (size 3 to 8) (size 9 to 14) (size 15 to 20)
#    0.000    1.750    1.250    3.375    0.000    1.000 
#    0.000    0.000    0.000   17.250    0.000    0.000 
#    0.000    0.000    0.000    0.000    0.000    0.000 
#
# Total GULP energy -396873.664499 kJ/mol
# GULP energy per Si atom -12402.302016 kJ/mol
# Density = 1.875451 g / cm^3
# Si number density = 18.797292 Si / 1000 Ang^3
#
#
#
# Elastic Constant Matrix: (Units=GPa)
#
#
# Indices 1 2 3 4 5 6 
#
# 1 80.3167 36.7114 28.9406 0.0000 10.5937 0.0000
# 2 36.7114 131.2327 52.0211 0.0000 11.7732 0.0000
# 3 28.9406 52.0211 86.2199 0.0000 11.4526 0.0000
# 4 0.0000 0.0000 0.0000 27.6209 0.0000 2.2255
# 5 10.5937 11.7732 11.4526 0.0000 22.6097 0.0000
# 6 0.0000 0.0000 0.0000 2.2255 0.0000 26.3365
#
#
#
# Elastic Compliance Matrix: (Units=1/GPa)
#
#
# Indices 1 2 3 4 5 6 
#
# 1 0.015321 -0.002746 -0.002919 0.000000 -0.004270 0.000000
# 2 -0.002746 0.010621 -0.005278 0.000000 -0.001571 0.000000
# 3 -0.002919 -0.005278 0.016313 0.000000 -0.004147 0.000000
# 4 0.000000 0.000000 0.000000 0.036453 0.000000 -0.003080
# 5 -0.004270 -0.001571 -0.004147 0.000000 0.049148 0.000000
# 6 0.000000 0.000000 0.000000 -0.003080 0.000000 0.038230
#
#
# Mechanical properties :
#
#
# Convention : Reuss Voigt Hill
#
# Bulk Modulus (GPa) = 49.09113 59.23505 54.16309
# Shear Modulus (GPa) = 25.67237 27.31986 26.49612
#
# Velocity S-wave (km/s) = 3.69961 3.81648 3.75850
# Velocity P-wave (km/s) = 6.66500 7.14154 6.90738
#
# Compressibility (1/GPa) = 0.02037028
#
# Stress axis : x y z
#
# Youngs Moduli (GPa) = 65.27119 94.15004 61.29929
#
# Poissons Ratio (x) = 0.25852 0.17891
# Poissons Ratio (y) = 0.17922 0.32355
# Poissons Ratio (z) = 0.19050 0.49694
#
# Static dielectric constant tensor:
#      x y z
#    x 3.551100 0.000000 0.075360 
#    y 0.000000 3.529450 0.000000 
#    z 0.075360 0.000000 3.529150 
# 
# 
# High freq. dielectric constant tensor:
#      x y z
#    x 1.738630 0.000000 0.000400 
#    y 0.000000 1.739620 0.000000 
#    z 0.000400 0.000000 1.731110 
# 
# From -- ./inp_files/26597.got.cif
#   From: 2010.06.25/outbox.cif.g09.slc.cpg/sg11_14_cif.got.tgz:26597.got - 2010.06.27 23:14:04.
