data_PCOD8073955
_publ_section_title
;
Structure prediction by ZEFSAII (Michael W. Deem and Ramdas Pophale) SiO2 
 PCOD8073955
Probable space group: P 21/M
;
_chemical_formula_sum "Si O2"
_cell_formula_units_Z 32
_cell_length_a 22.141402
_cell_length_b 9.215144
_cell_length_c 13.773673
_cell_angle_alpha 90.000000
_cell_angle_beta 38.143026
_cell_angle_gamma 90.000000
_cell_volume 1735.733462
_symmetry_space_group_name_H-M "P 21/M"
_symmetry_group_IT_number 11
_symmetry_cell_setting 'monoclinic'
loop_
_space_group_symop_operation_xyz
x,y,z
-x,1/2+y,-z
-x,-y,-z
x,1/2-y,z
loop_
_atom_site_type_symbol
_atom_site_label
_atom_site_fract_x
_atom_site_fract_y
_atom_site_fract_z
Si Si1 0.344005 0.418174 0.068658
Si Si2 0.887458 0.915570 0.936362
Si Si3 0.888506 0.415865 0.328636
Si Si4 0.523601 0.420294 0.370709
Si Si5 0.295408 0.915537 0.321268
Si Si6 0.269692 0.580570 0.983707
Si Si7 0.549273 0.416156 0.715493
Si Si8 0.100086 0.416035 0.864442
O O1 0.316140 0.250000 0.099588
O O2 0.325262 0.475503 0.199768
O O3 0.275416 0.502595 0.080114
O O4 0.456772 0.446335 0.901354
O O5 0.874357 0.750000 0.916710
O O6 0.001137 0.963397 0.784145
O O7 0.846625 0.929263 0.098633
O O8 0.826451 0.023826 0.947704
O O9 0.889329 0.250000 0.291925
O O10 0.819263 0.436682 0.509523
O O11 0.842787 0.509725 0.297323
O O12 0.500000 0.500000 0.500000
O O13 0.504051 0.250000 0.407226
O O14 0.635475 0.454827 0.201142
O O15 0.452676 0.481031 0.376243
O O16 0.317656 0.750000 0.260870
O O17 0.355296 0.953569 0.342850
O O18 0.258729 0.750000 0.016893
O O19 0.549662 0.250000 0.678548
O O20 0.079736 0.250000 0.863721
O O21 0.000000 0.500000 0.000000
#
# Coordination Sequence:
#
# PCOD8073955 Si02
#       8
#     4   4   4   4   4   4   4   4
#     4  10  20  35  55  78 104 133 169 214 259 307
#     4   9  18  33  52  75 103 136 173 212 255 301
#     4   9  19  34  51  75 107 138 170 212 257 301
#     4  10  21  36  54  78 109 140 171 210 254 303
#     4  10  20  35  55  78 106 137 169 211 260 307
#     4  10  21  36  55  77 100 134 177 214 253 305
#     4   9  19  35  55  79 106 137 171 208 254 306
#     4   9  17  30  49  72 100 133 168 207 250 298
#
# _framework density 18.43601
#
# number of rings (size 3 to 8) (size 9 to 14) (size 15 to 20)
#    0.000    2.500    0.000    2.625    0.000    6.500 
#    0.000    4.375    0.000    0.000    0.000    0.000 
#    0.000    0.000    0.000    0.000    0.000    0.000 
#
# Total GULP energy -396782.636873 kJ/mol
# GULP energy per Si atom -12399.457402 kJ/mol
# Density = 1.839405 g / cm^3
# Si number density = 18.436010 Si / 1000 Ang^3
#
#
#
# Elastic Constant Matrix: (Units=GPa)
#
#
# Indices 1 2 3 4 5 6 
#
# 1 98.5054 57.4441 42.5037 0.0000 5.1287 0.0000
# 2 57.4441 108.2611 49.7371 0.0000 12.6242 0.0000
# 3 42.5037 49.7371 80.5610 0.0000 13.1011 0.0000
# 4 0.0000 0.0000 0.0000 32.6405 0.0000 8.2762
# 5 5.1287 12.6242 13.1011 0.0000 22.2734 0.0000
# 6 0.0000 0.0000 0.0000 8.2762 0.0000 35.8611
#
#
#
# Elastic Compliance Matrix: (Units=1/GPa)
#
#
# Indices 1 2 3 4 5 6 
#
# 1 0.015905 -0.006568 -0.004806 0.000000 0.002887 0.000000
# 2 -0.006568 0.015779 -0.005604 0.000000 -0.004135 0.000000
# 3 -0.004806 -0.005604 0.019585 0.000000 -0.007237 0.000000
# 4 0.000000 0.000000 0.000000 0.032541 0.000000 -0.007510
# 5 0.002887 -0.004135 -0.007237 0.000000 0.050832 0.000000
# 6 0.000000 0.000000 0.000000 -0.007510 0.000000 0.029619
#
#
# Mechanical properties :
#
#
# Convention : Reuss Voigt Hill
#
# Bulk Modulus (GPa) = 57.75930 65.18861 61.47395
# Shear Modulus (GPa) = 24.51124 27.33119 25.92121
#
# Velocity S-wave (km/s) = 3.65023 3.85449 3.75375
# Velocity P-wave (km/s) = 7.01165 7.43274 7.22526
#
# Compressibility (1/GPa) = 0.01731323
#
# Stress axis : x y z
#
# Youngs Moduli (GPa) = 62.87141 63.37663 51.05891
#
# Poissons Ratio (x) = 0.41627 0.24539
# Poissons Ratio (y) = 0.41295 0.28612
# Poissons Ratio (z) = 0.30217 0.35515
#
# Static dielectric constant tensor:
#      x y z
#    x 3.369560 0.000000 0.170900 
#    y 0.000000 3.594910 0.000000 
#    z 0.170900 0.000000 3.743030 
# 
# 
# High freq. dielectric constant tensor:
#      x y z
#    x 1.705720 0.000000 0.006060 
#    y 0.000000 1.722720 0.000000 
#    z 0.006060 0.000000 1.705460 
# 
# From -- ./inp_files/42762.got.cif
#   From: 2010.06.25/outbox.cif.g09.slc.cpg/sg11_22_cif.got.tgz:42762.got - 2010.06.27 23:14:04.
