data_PCOD8073670
_publ_section_title
;
Structure prediction by ZEFSAII (Michael W. Deem and Ramdas Pophale) SiO2 
 PCOD8073670
Probable space group: P 21/M
;
_chemical_formula_sum "Si O2"
_cell_formula_units_Z 28
_cell_length_a 15.461349
_cell_length_b 8.955927
_cell_length_c 12.489340
_cell_angle_alpha 90.000000
_cell_angle_beta 127.092140
_cell_angle_gamma 90.000000
_cell_volume 1379.490974
_symmetry_space_group_name_H-M "P 21/M"
_symmetry_group_IT_number 11
_symmetry_cell_setting 'monoclinic'
loop_
_space_group_symop_operation_xyz
x,y,z
-x,1/2+y,-z
-x,-y,-z
x,1/2-y,z
loop_
_atom_site_type_symbol
_atom_site_label
_atom_site_fract_x
_atom_site_fract_y
_atom_site_fract_z
Si Si1 0.999708 0.081935 0.609389
Si Si2 0.433988 0.570562 0.049196
Si Si3 0.871744 0.589481 0.668025
Si Si4 0.349539 0.076932 0.406916
Si Si5 0.931384 0.086381 0.035300
Si Si6 0.207858 0.423313 0.911271
Si Si7 0.508581 0.574010 0.683643
O O1 0.980218 0.250000 0.566318
O O2 0.112468 0.056891 0.754723
O O3 0.000000 0.000000 0.500000
O O4 0.891161 0.032028 0.591270
O O5 0.439716 0.750000 0.048173
O O6 0.482388 0.514436 0.198362
O O7 0.500000 0.500000 0.000000
O O8 0.310450 0.515402 0.945676
O O9 0.837044 0.750000 0.591569
O O10 0.778861 0.540401 0.683071
O O11 0.987243 0.611968 0.807469
O O12 0.377549 0.250000 0.449542
O O13 0.389393 0.033846 0.317508
O O14 0.402589 0.978144 0.540165
O O15 0.892055 0.250000 0.963962
O O16 0.829671 0.989346 0.001538
O O17 0.000000 0.000000 0.000000
O O18 0.239271 0.250000 0.951959
O O19 0.501978 0.750000 0.703446
#
# Coordination Sequence:
#
# PCOD8073670 Si02
#       7
#     4   4   4   4   4   4   4
#     4  10  21  37  59  85 115 153 192 239 293 350
#     4  12  26  44  65  90 119 159 208 257 309 371
#     4   9  19  35  55  81 114 151 191 236 287 346
#     4   9  19  37  60  87 120 159 200 247 303 361
#     4  10  20  34  55  86 119 156 195 237 291 353
#     4  10  22  41  61  85 119 156 196 246 297 353
#     4  10  21  38  61  88 120 158 200 252 307 361
#
# _framework density 20.297343000000001
#
# number of rings (size 3 to 8) (size 9 to 14) (size 15 to 20)
#    0.000    2.000    0.000    3.000    2.000    4.571 
#    0.000    1.429    0.000    0.000    0.000    0.000 
#    0.000    0.000    0.000    0.000    0.000    0.000 
#
# Total GULP energy -347025.511935 kJ/mol
# GULP energy per Si atom -12393.768283 kJ/mol
# Density = 2.025115 g / cm^3
# Si number density = 20.297343 Si / 1000 Ang^3
#
#
#
# Elastic Constant Matrix: (Units=GPa)
#
#
# Indices 1 2 3 4 5 6 
#
# 1 155.7124 70.1580 34.1797 0.0000 -16.9579 0.0000
# 2 70.1580 157.0667 47.8038 0.0000 -19.2990 0.0000
# 3 34.1797 47.8038 50.1495 0.0000 -22.7759 0.0000
# 4 0.0000 0.0000 0.0000 32.7893 0.0000 -4.1069
# 5 -16.9579 -19.2990 -22.7759 0.0000 33.5125 0.0000
# 6 0.0000 0.0000 0.0000 -4.1069 0.0000 37.9339
#
#
#
# Elastic Compliance Matrix: (Units=1/GPa)
#
#
# Indices 1 2 3 4 5 6 
#
# 1 0.008366 -0.002837 -0.002628 0.000000 0.000813 0.000000
# 2 -0.002837 0.009951 -0.008102 0.000000 -0.001211 0.000000
# 3 -0.002628 -0.008102 0.038666 0.000000 0.020283 0.000000
# 4 0.000000 0.000000 0.000000 0.030917 0.000000 0.003347
# 5 0.000813 -0.001211 0.020283 0.000000 0.043338 0.000000
# 6 0.000000 0.000000 0.000000 0.003347 0.000000 0.026724
#
#
# Mechanical properties :
#
#
# Convention : Reuss Voigt Hill
#
# Bulk Modulus (GPa) = 33.50220 74.13461 53.81841
# Shear Modulus (GPa) = 25.63490 34.89962 30.26726
#
# Velocity S-wave (km/s) = 3.55768 4.15109 3.86579
# Velocity P-wave (km/s) = 5.78080 7.71874 6.81897
#
# Compressibility (1/GPa) = 0.02984879
#
# Stress axis : x y z
#
# Youngs Moduli (GPa) = 119.53444 100.49227 25.86222
#
# Poissons Ratio (x) = 0.28510 0.06797
# Poissons Ratio (y) = 0.33912 0.20954
# Poissons Ratio (z) = 0.31414 0.81421
#
# Static dielectric constant tensor:
#      x y z
#    x 3.818290 0.000000 0.046060 
#    y 0.000000 4.393860 0.000000 
#    z 0.046060 0.000000 3.392220 
# 
# 
# High freq. dielectric constant tensor:
#      x y z
#    x 1.802050 0.000000 -0.003830 
#    y 0.000000 1.807450 0.000000 
#    z -0.003830 0.000000 1.774620 
# 
# From -- ./inp_files/38500.got.cif
#   From: 2010.06.25/outbox.cif.g09.slc.cpg/sg11_20_cif.got.tgz:38500.got - 2010.06.27 23:14:04.
