data_PCOD8073979
_publ_section_title
;
Structure prediction by ZEFSAII (Michael W. Deem and Ramdas Pophale) SiO2 
 PCOD8073979
Probable space group: P 21/M
;
_chemical_formula_sum "Si O2"
_cell_formula_units_Z 32
_cell_length_a 15.786901
_cell_length_b 8.670229
_cell_length_c 25.550215
_cell_angle_alpha 90.000000
_cell_angle_beta 150.421745
_cell_angle_gamma 90.000000
_cell_volume 1726.265456
_symmetry_space_group_name_H-M "P 21/M"
_symmetry_group_IT_number 11
_symmetry_cell_setting 'monoclinic'
loop_
_space_group_symop_operation_xyz
x,y,z
-x,1/2+y,-z
-x,-y,-z
x,1/2-y,z
loop_
_atom_site_type_symbol
_atom_site_label
_atom_site_fract_x
_atom_site_fract_y
_atom_site_fract_z
Si Si1 0.349730 0.067530 0.454030
Si Si2 0.602298 0.070053 0.206183
Si Si3 0.994063 0.568518 0.237060
Si Si4 0.840387 0.931883 0.944272
Si Si5 0.480632 0.069422 0.731251
Si Si6 0.104134 0.074939 0.700316
Si Si7 0.287855 0.929219 0.531540
Si Si8 0.231344 0.068202 0.978848
O O1 0.367218 0.250000 0.468583
O O2 0.500000 0.000000 0.500000
O O3 0.170703 0.024571 0.330467
O O4 0.365860 0.991531 0.519611
O O5 0.589177 0.250000 0.212363
O O6 0.619213 0.981862 0.270144
O O7 0.765519 0.039225 0.257922
O O8 0.429931 0.014144 0.083391
O O9 0.036340 0.750000 0.254006
O O10 0.892594 0.538015 0.236298
O O11 0.876539 0.499246 0.127368
O O12 0.845531 0.750000 0.942817
O O13 0.664401 0.988450 0.823822
O O14 0.850247 0.986634 0.010020
O O15 0.000000 0.000000 0.000000
O O16 0.511345 0.250000 0.749048
O O17 0.364535 0.025745 0.619943
O O18 0.162557 0.250000 0.721163
O O19 0.915851 0.045206 0.576363
O O20 0.335416 0.750000 0.562556
O O21 0.222039 0.250000 0.968733
#
# Coordination Sequence:
#
# PCOD8073979 Si02
#       8
#     4   4   4   4   4   4   4   4
#     4  11  22  37  56  81 111 143 181 222 269 322
#     4  10  20  35  55  79 109 144 181 222 267 321
#     4   9  18  36  57  77 106 142 181 225 271 318
#     4  10  20  36  56  80 111 145 183 226 272 322
#     4  11  22  37  57  81 109 142 181 225 274 325
#     4   9  19  34  54  79 107 139 175 221 276 328
#     4  10  21  39  59  80 108 142 181 225 273 324
#     4   8  17  34  55  77 104 141 181 221 265 313
#
# _framework density 18.537127000000002
#
# number of rings (size 3 to 8) (size 9 to 14) (size 15 to 20)
#    0.000    2.250    0.000    4.875    0.000    4.500 
#    0.000    7.500    0.000    0.000    0.000    0.000 
#    0.000    0.000    0.000    0.000    0.000    0.000 
#
# Total GULP energy -396852.259555 kJ/mol
# GULP energy per Si atom -12401.633111 kJ/mol
# Density = 1.849494 g / cm^3
# Si number density = 18.537127 Si / 1000 Ang^3
#
#
#
# Elastic Constant Matrix: (Units=GPa)
#
#
# Indices 1 2 3 4 5 6 
#
# 1 120.5351 32.8255 67.4845 0.0000 11.7296 0.0000
# 2 32.8255 69.4840 21.8418 0.0000 8.4010 0.0000
# 3 67.4845 21.8418 107.1422 0.0000 -16.3287 0.0000
# 4 0.0000 0.0000 0.0000 27.7797 0.0000 3.9909
# 5 11.7296 8.4010 -16.3287 0.0000 30.3790 0.0000
# 6 0.0000 0.0000 0.0000 3.9909 0.0000 33.6677
#
#
#
# Elastic Compliance Matrix: (Units=1/GPa)
#
#
# Indices 1 2 3 4 5 6 
#
# 1 0.016934 -0.002764 -0.011963 0.000000 -0.012204 0.000000
# 2 -0.002764 0.017091 -0.002506 0.000000 -0.005006 0.000000
# 3 -0.011963 -0.002506 0.019811 0.000000 0.015960 0.000000
# 4 0.000000 0.000000 0.000000 0.036621 0.000000 -0.004341
# 5 -0.012204 -0.005006 0.015960 0.000000 0.047592 0.000000
# 6 0.000000 0.000000 0.000000 -0.004341 0.000000 0.030217
#
#
# Mechanical properties :
#
#
# Convention : Reuss Voigt Hill
#
# Bulk Modulus (GPa) = 51.62393 60.16278 55.89335
# Shear Modulus (GPa) = 23.90185 30.03259 26.96722
#
# Velocity S-wave (km/s) = 3.59472 4.02945 3.81828
# Velocity P-wave (km/s) = 6.71854 7.36033 7.04674
#
# Compressibility (1/GPa) = 0.01937086
#
# Stress axis : x y z
#
# Youngs Moduli (GPa) = 59.05193 58.51164 50.47603
#
# Poissons Ratio (x) = 0.16174 0.60382
# Poissons Ratio (y) = 0.16323 0.12649
# Poissons Ratio (z) = 0.70641 0.14663
#
# Static dielectric constant tensor:
#      x y z
#    x 3.423360 0.000000 -0.111680 
#    y 0.000000 3.356980 0.000000 
#    z -0.111680 0.000000 3.579160 
# 
# 
# High freq. dielectric constant tensor:
#      x y z
#    x 1.722320 0.000000 -0.002280 
#    y 0.000000 1.717420 0.000000 
#    z -0.002280 0.000000 1.723210 
# 
# From -- ./inp_files/68986.got.cif
#   From: 2010.06.25/outbox.cif.g09.slc.cpg/sg11_35_cif.got.tgz:68986.got - 2010.06.27 23:14:04.
