data_PCOD8073829
_publ_section_title
;
Structure prediction by ZEFSAII (Michael W. Deem and Ramdas Pophale) SiO2 
 PCOD8073829
Probable space group: P 21/M
;
_chemical_formula_sum "Si O2"
_cell_formula_units_Z 32
_cell_length_a 21.438740
_cell_length_b 9.197739
_cell_length_c 27.628020
_cell_angle_alpha 90.000000
_cell_angle_beta 17.800990
_cell_angle_gamma 90.000000
_cell_volume 1665.490812
_symmetry_space_group_name_H-M "P 21/M"
_symmetry_group_IT_number 11
_symmetry_cell_setting 'monoclinic'
loop_
_space_group_symop_operation_xyz
x,y,z
-x,1/2+y,-z
-x,-y,-z
x,1/2-y,z
loop_
_atom_site_type_symbol
_atom_site_label
_atom_site_fract_x
_atom_site_fract_y
_atom_site_fract_z
Si Si1 0.566072 0.913116 0.716022
Si Si2 0.108598 0.577230 0.061167
Si Si3 0.279524 0.089421 0.203608
Si Si4 0.029514 0.921862 0.742742
Si Si5 0.872410 0.577485 0.053081
Si Si6 0.599559 0.081632 0.597678
Si Si7 0.636685 0.588833 0.970807
Si Si8 0.951743 0.585498 0.488115
O O1 0.556460 0.750000 0.702661
O O2 0.344041 0.960807 0.898572
O O3 0.712768 0.927383 0.653504
O O4 0.656531 0.008366 0.606070
O O5 0.065760 0.750000 0.088564
O O6 0.055368 0.496906 0.050300
O O7 0.978144 0.509332 0.201205
O O8 0.231647 0.250000 0.259828
O O9 0.339926 0.100534 0.103749
O O10 0.080780 0.988111 0.350073
O O11 0.450593 0.023932 0.114176
O O12 0.026959 0.750000 0.755363
O O13 0.840843 0.966688 0.847154
O O14 0.243315 0.970606 0.559973
O O15 0.915855 0.750000 0.018668
O O16 0.635679 0.545739 0.241054
O O17 0.000000 0.500000 0.000000
O O18 0.634167 0.250000 0.580884
O O19 0.580002 0.750000 0.032577
O O20 0.024064 0.750000 0.439958
O O21 0.000000 0.500000 0.500000
#
# Coordination Sequence:
#
# PCOD8073829 Si02
#       8
#     4   4   4   4   4   4   4   4
#     4   9  20  37  55  76 107 142 185 235 281 333
#     4  10  21  37  57  85 117 149 186 229 277 332
#     4  10  20  35  52  72 100 136 183 234 284 338
#     4  10  20  35  55  82 114 145 183 230 278 331
#     4  10  20  38  64  91 118 152 186 222 268 324
#     4   9  19  36  60  87 114 145 184 224 272 330
#     4   9  19  34  53  75 102 139 180 226 280 337
#     4  11  23  36  50  72 102 138 182 233 286 337
#
# _framework density 19.213556000000001
#
# number of rings (size 3 to 8) (size 9 to 14) (size 15 to 20)
#    0.000    2.250    0.000    2.250    1.750    4.500 
#    0.000    0.625    0.000    0.000    0.000    0.000 
#    0.000    0.000    0.000    0.000    0.000    0.000 
#
# Total GULP energy -396684.416457 kJ/mol
# GULP energy per Si atom -12396.388014 kJ/mol
# Density = 1.916982 g / cm^3
# Si number density = 19.213556 Si / 1000 Ang^3
#
#
#
# Elastic Constant Matrix: (Units=GPa)
#
#
# Indices 1 2 3 4 5 6 
#
# 1 100.6068 51.5084 44.1857 0.0000 0.4910 0.0000
# 2 51.5084 103.5997 38.0672 0.0000 3.3093 0.0000
# 3 44.1857 38.0672 77.8099 0.0000 13.3467 0.0000
# 4 0.0000 0.0000 0.0000 28.3829 0.0000 2.7420
# 5 0.4910 3.3093 13.3467 0.0000 27.4861 0.0000
# 6 0.0000 0.0000 0.0000 2.7420 0.0000 33.4577
#
#
#
# Elastic Compliance Matrix: (Units=1/GPa)
#
#
# Indices 1 2 3 4 5 6 
#
# 1 0.015727 -0.005390 -0.006934 0.000000 0.003735 0.000000
# 2 -0.005390 0.013673 -0.003668 0.000000 0.000231 0.000000
# 3 -0.006934 -0.003668 0.020167 0.000000 -0.009227 0.000000
# 4 0.000000 0.000000 0.000000 0.035514 0.000000 -0.002910
# 5 0.003735 0.000231 -0.009227 0.000000 0.040768 0.000000
# 6 0.000000 0.000000 0.000000 -0.002910 0.000000 0.030127
#
#
# Mechanical properties :
#
#
# Convention : Reuss Voigt Hill
#
# Bulk Modulus (GPa) = 56.87843 61.05988 58.96916
# Shear Modulus (GPa) = 25.79709 27.74901 26.77305
#
# Velocity S-wave (km/s) = 3.66819 3.80444 3.73694
# Velocity P-wave (km/s) = 6.89989 7.15171 7.02692
#
# Compressibility (1/GPa) = 0.01758136
#
# Stress axis : x y z
#
# Youngs Moduli (GPa) = 63.58616 73.13713 49.58678
#
# Poissons Ratio (x) = 0.39424 0.34384
# Poissons Ratio (y) = 0.34276 0.18188
# Poissons Ratio (z) = 0.44092 0.26825
#
# Static dielectric constant tensor:
#      x y z
#    x 3.269900 0.000000 -0.127760 
#    y 0.000000 4.360090 0.000000 
#    z -0.127760 0.000000 4.115280 
# 
# 
# High freq. dielectric constant tensor:
#      x y z
#    x 1.734630 0.000000 0.002830 
#    y 0.000000 1.756490 0.000000 
#    z 0.002830 0.000000 1.743550 
# 
# From -- ./inp_files/66968.got.cif
#   From: 2010.06.25/outbox.cif.g09.slc.cpg/sg11_34_cif.got.tgz:66968.got - 2010.06.27 23:14:04.
