data_PCOD8073039
_publ_section_title
;
Structure prediction by ZEFSAII (Michael W. Deem and Ramdas Pophale) SiO2 
 PCOD8073039
Probable space group: P 21/M
;
_chemical_formula_sum "Si O2"
_cell_formula_units_Z 28
_cell_length_a 30.051283
_cell_length_b 9.375578
_cell_length_c 5.288654
_cell_angle_alpha 90.000000
_cell_angle_beta 110.010555
_cell_angle_gamma 90.000000
_cell_volume 1400.112436
_symmetry_space_group_name_H-M "P 21/M"
_symmetry_group_IT_number 11
_symmetry_cell_setting 'monoclinic'
loop_
_space_group_symop_operation_xyz
x,y,z
-x,1/2+y,-z
-x,-y,-z
x,1/2-y,z
loop_
_atom_site_type_symbol
_atom_site_label
_atom_site_fract_x
_atom_site_fract_y
_atom_site_fract_z
Si Si1 0.476365 0.903057 0.751888
Si Si2 0.712477 0.920001 0.715316
Si Si3 0.427679 0.096554 0.329482
Si Si4 0.337407 0.416733 0.878491
Si Si5 0.869719 0.916444 0.495573
Si Si6 0.180091 0.079642 0.101333
Si Si7 0.980668 0.921333 0.712414
O O1 0.461014 0.750000 0.835323
O O2 0.517599 0.878885 0.628367
O O3 0.428618 0.975236 0.546574
O O4 0.500000 0.000000 0.000000
O O5 0.711293 0.750000 0.713406
O O6 0.681677 0.983511 0.420472
O O7 0.690456 0.980142 0.932981
O O8 0.766027 0.975225 0.793469
O O9 0.408059 0.250000 0.397879
O O10 0.393675 0.050088 0.030311
O O11 0.327350 0.250000 0.843516
O O12 0.858862 0.750000 0.474633
O O13 0.846258 0.983084 0.197684
O O14 0.924983 0.947781 0.604320
O O15 0.845852 0.983233 0.700367
O O16 0.177425 0.250000 0.095828
O O17 0.992395 0.750000 0.735175
O O18 0.000000 0.000000 0.500000
O O19 0.000000 0.000000 0.000000
#
# Coordination Sequence:
#
# PCOD8073039 Si02
#       7
#     4   4   4   4   4   4   4
#     4  10  20  33  51  72  96 128 166 207 250 296
#     4   9  16  25  40  65  97 132 163 201 253 314
#     4   9  19  33  49  69  97 132 164 201 248 304
#     4   9  17  27  42  65  95 129 163 197 250 311
#     4   9  17  28  45  68  99 141 179 215 267 324
#     4   9  15  25  41  64  97 134 172 210 257 319
#     4  11  22  37  56  81 115 155 194 238 288 341
#
# _framework density 19.998391999999999
#
# number of rings (size 3 to 8) (size 9 to 14) (size 15 to 20)
#    0.000    2.571    0.000    2.571    2.000    6.286 
#    0.000    0.000    0.000    0.000    0.000    0.000 
#    0.000   22.857    0.000    0.000    0.000    0.000 
#
# Total GULP energy -346876.081423 kJ/mol
# GULP energy per Si atom -12388.431479 kJ/mol
# Density = 1.995288 g / cm^3
# Si number density = 19.998392 Si / 1000 Ang^3
#
#
#
# Elastic Constant Matrix: (Units=GPa)
#
#
# Indices 1 2 3 4 5 6 
#
# 1 58.9125 -2.8352 30.7185 0.0000 3.7550 0.0000
# 2 -2.8352 70.7330 32.9807 0.0000 5.3953 0.0000
# 3 30.7185 32.9807 172.6893 0.0000 6.8663 0.0000
# 4 0.0000 0.0000 0.0000 22.6902 0.0000 1.4304
# 5 3.7550 5.3953 6.8663 0.0000 41.3845 0.0000
# 6 0.0000 0.0000 0.0000 1.4304 0.0000 11.9096
#
#
#
# Elastic Compliance Matrix: (Units=1/GPa)
#
#
# Indices 1 2 3 4 5 6 
#
# 1 0.019216 0.002687 -0.003874 0.000000 -0.001451 0.000000
# 2 0.002687 0.015994 -0.003463 0.000000 -0.001754 0.000000
# 3 -0.003874 -0.003463 0.007156 0.000000 -0.000384 0.000000
# 4 0.000000 0.000000 0.000000 0.044408 0.000000 -0.005334
# 5 -0.001451 -0.001754 -0.000384 0.000000 0.024588 0.000000
# 6 0.000000 0.000000 0.000000 -0.005334 0.000000 0.084606
#
#
# Mechanical properties :
#
#
# Convention : Reuss Voigt Hill
#
# Bulk Modulus (GPa) = 30.24120 47.11810 38.67965
# Shear Modulus (GPa) = 23.11718 31.29494 27.20606
#
# Velocity S-wave (km/s) = 3.40362 3.96014 3.69238
# Velocity P-wave (km/s) = 5.53180 6.67251 6.12875
#
# Compressibility (1/GPa) = 0.03306747
#
# Stress axis : x y z
#
# Youngs Moduli (GPa) = 52.04003 62.52434 139.73458
#
# Poissons Ratio (x) = -0.16801 0.54129
# Poissons Ratio (y) = -0.13984 0.48387
# Poissons Ratio (z) = 0.20159 0.21651
#
# Static dielectric constant tensor:
#      x y z
#    x 2.298390 0.000000 -0.094540 
#    y 0.000000 3.420330 0.000000 
#    z -0.094540 0.000000 3.972270 
# 
# 
# High freq. dielectric constant tensor:
#      x y z
#    x 1.779500 0.000000 0.002850 
#    y 0.000000 1.709030 0.000000 
#    z 0.002850 0.000000 1.801170 
# 
# From -- ./inp_files/9641.got.cif
#   From: 2010.06.25/outbox.cif.g09.slc.cpg/sg11_5_cif.got.tgz:9641.got - 2010.06.27 23:14:04.
