data_PCOD8073601
_publ_section_title
;
Structure prediction by ZEFSAII (Michael W. Deem and Ramdas Pophale) SiO2 
 PCOD8073601
Probable space group: P 21/M
;
_chemical_formula_sum "Si O2"
_cell_formula_units_Z 24
_cell_length_a 12.588574
_cell_length_b 8.772472
_cell_length_c 11.841898
_cell_angle_alpha 90.000000
_cell_angle_beta 89.940802
_cell_angle_gamma 90.000000
_cell_volume 1307.734593
_symmetry_space_group_name_H-M "P 21/M"
_symmetry_group_IT_number 11
_symmetry_cell_setting 'monoclinic'
loop_
_space_group_symop_operation_xyz
x,y,z
-x,1/2+y,-z
-x,-y,-z
x,1/2-y,z
loop_
_atom_site_type_symbol
_atom_site_label
_atom_site_fract_x
_atom_site_fract_y
_atom_site_fract_z
Si Si1 0.615317 0.072138 0.630752
Si Si2 0.626757 0.928931 0.393230
Si Si3 0.985731 0.430742 0.622008
Si Si4 0.202935 0.429645 0.241660
Si Si5 0.814146 0.569513 0.236516
Si Si6 0.115813 0.070155 0.002546
O O1 0.639101 0.250000 0.642469
O O2 0.491507 0.033993 0.649282
O O3 0.653374 0.017608 0.507784
O O4 0.678091 0.981424 0.727765
O O5 0.641200 0.750000 0.417839
O O6 0.707516 0.990419 0.297542
O O7 0.985399 0.250000 0.613665
O O8 0.875409 0.486328 0.673024
O O9 0.000000 0.500000 0.500000
O O10 0.081625 0.492256 0.699696
O O11 0.190105 0.250000 0.256408
O O12 0.179196 0.481944 0.113658
O O13 0.813986 0.750000 0.240694
O O14 0.817871 0.512361 0.106796
O O15 0.101166 0.250000 0.998836
O O16 0.000000 0.000000 0.000000
#
# Coordination Sequence:
#
# PCOD8073601 Si02
#       6
#     4   4   4   4   4   4
#     4  10  20  34  55  81 109 142 179 222 271 323
#     4   9  18  35  58  81 107 140 178 221 273 329
#     4  11  21  33  53  80 111 140 173 220 272 328
#     4  11  22  35  53  77 108 144 182 222 267 322
#     4   9  18  34  55  77 103 137 175 219 271 322
#     4  10  20  36  56  77 103 141 183 223 269 321
#
# _framework density 18.352347999999999
#
# number of rings (size 3 to 8) (size 9 to 14) (size 15 to 20)
#    0.000    2.000    1.667    2.500    0.000    2.667 
#    0.000    2.500    0.000    0.000    0.000    0.000 
#    0.000    0.000    0.000    0.000    0.000    0.000 
#
# Total GULP energy -297642.241667 kJ/mol
# GULP energy per Si atom -12401.760069 kJ/mol
# Density = 1.831058 g / cm^3
# Si number density = 18.352348 Si / 1000 Ang^3
#
#
#
# Elastic Constant Matrix: (Units=GPa)
#
#
# Indices 1 2 3 4 5 6 
#
# 1 105.3195 24.5498 60.9833 0.0000 7.7084 0.0000
# 2 24.5498 48.8689 35.8981 0.0000 7.5538 0.0000
# 3 60.9833 35.8981 140.3791 0.0000 11.9792 0.0000
# 4 0.0000 0.0000 0.0000 24.2920 0.0000 2.6715
# 5 7.7084 7.5538 11.9792 0.0000 33.7837 0.0000
# 6 0.0000 0.0000 0.0000 2.6715 0.0000 26.9355
#
#
#
# Elastic Compliance Matrix: (Units=1/GPa)
#
#
# Indices 1 2 3 4 5 6 
#
# 1 0.013031 -0.002872 -0.004875 0.000000 -0.000602 0.000000
# 2 -0.002872 0.026226 -0.005171 0.000000 -0.003375 0.000000
# 3 -0.004875 -0.005171 0.010694 0.000000 -0.001523 0.000000
# 4 0.000000 0.000000 0.000000 0.041620 0.000000 -0.004128
# 5 -0.000602 -0.003375 -0.001523 0.000000 0.031032 0.000000
# 6 0.000000 0.000000 0.000000 -0.004128 0.000000 0.037535
#
#
# Mechanical properties :
#
#
# Convention : Reuss Voigt Hill
#
# Bulk Modulus (GPa) = 41.46847 59.71445 50.59146
# Shear Modulus (GPa) = 25.77150 28.54466 27.15808
#
# Velocity S-wave (km/s) = 3.75141 3.94809 3.85101
# Velocity P-wave (km/s) = 6.43498 7.30696 6.88479
#
# Compressibility (1/GPa) = 0.02411471
#
# Stress axis : x y z
#
# Youngs Moduli (GPa) = 76.73774 38.13028 93.51265
#
# Poissons Ratio (x) = 0.10951 0.45589
# Poissons Ratio (y) = 0.22040 0.48354
# Poissons Ratio (z) = 0.37411 0.19717
#
# Static dielectric constant tensor:
#      x y z
#    x 3.472260 0.000000 -0.014420 
#    y 0.000000 3.266770 0.000000 
#    z -0.014420 0.000000 3.679880 
# 
# 
# High freq. dielectric constant tensor:
#      x y z
#    x 1.713610 0.000000 0.002450 
#    y 0.000000 1.701270 0.000000 
#    z 0.002450 0.000000 1.715250 
# 
# From -- ./inp_files/33764.got.cif
#   From: 2010.06.25/outbox.cif.g09.slc.cpg/sg11_17_cif.got.tgz:33764.got - 2010.06.27 23:14:04.
