data_PCOD8073230
_publ_section_title
;
Structure prediction by ZEFSAII (Michael W. Deem and Ramdas Pophale) SiO2 
 PCOD8073230
Probable space group: P 21/M
;
_chemical_formula_sum "Si O2"
_cell_formula_units_Z 28
_cell_length_a 15.195642
_cell_length_b 9.644343
_cell_length_c 20.807835
_cell_angle_alpha 90.000000
_cell_angle_beta 28.588031
_cell_angle_gamma 90.000000
_cell_volume 1459.177744
_symmetry_space_group_name_H-M "P 21/M"
_symmetry_group_IT_number 11
_symmetry_cell_setting 'monoclinic'
loop_
_space_group_symop_operation_xyz
x,y,z
-x,1/2+y,-z
-x,-y,-z
x,1/2-y,z
loop_
_atom_site_type_symbol
_atom_site_label
_atom_site_fract_x
_atom_site_fract_y
_atom_site_fract_z
Si Si1 0.437593 0.413819 0.852031
Si Si2 0.262431 0.090873 0.599135
Si Si3 0.379418 0.404793 0.033674
Si Si4 0.166110 0.405859 0.917744
Si Si5 0.853038 0.414095 0.553038
Si Si6 0.968321 0.096236 0.335725
Si Si7 0.591520 0.901669 0.360958
O O1 0.434809 0.250000 0.845417
O O2 0.278552 0.471960 0.905980
O O3 0.645137 0.465358 0.702604
O O4 0.378529 0.462231 0.961247
O O5 0.254575 0.250000 0.582895
O O6 0.260786 0.070552 0.677099
O O7 0.088690 0.011975 0.682192
O O8 0.444489 0.023306 0.452603
O O9 0.463482 0.250000 0.978120
O O10 0.186102 0.403183 0.193257
O O11 0.500000 0.500000 0.000000
O O12 0.092508 0.250000 0.980532
O O13 0.312541 0.398240 0.767924
O O14 0.000000 0.500000 0.000000
O O15 0.877933 0.250000 0.550969
O O16 0.893897 0.449963 0.452760
O O17 0.000000 0.500000 0.500000
O O18 0.891523 0.250000 0.369142
O O19 0.499025 0.750000 0.433272
#
# Coordination Sequence:
#
# PCOD8073230 Si02
#       7
#     4   4   4   4   4   4   4
#     4   9  19  36  57  79 109 149 185 219 274 341
#     4  10  20  33  54  82 107 139 183 228 273 326
#     4  10  21  37  56  80 108 143 184 225 276 335
#     4  10  21  37  57  80 111 151 192 232 276 332
#     4  10  20  36  58  82 108 142 182 227 283 338
#     4  10  21  35  54  79 109 143 179 222 280 338
#     4   9  19  36  54  76 111 146 179 225 281 327
#
# _framework density 19.188887999999999
#
# number of rings (size 3 to 8) (size 9 to 14) (size 15 to 20)
#    0.000    2.286    0.000    2.143    2.000    4.571 
#    0.000    1.429    0.000    0.000    0.000    0.000 
#    0.000    0.000    0.000    0.000    0.000    0.000 
#
# Total GULP energy -347080.477337 kJ/mol
# GULP energy per Si atom -12395.731333 kJ/mol
# Density = 1.914521 g / cm^3
# Si number density = 19.188888 Si / 1000 Ang^3
#
#
#
# Elastic Constant Matrix: (Units=GPa)
#
#
# Indices 1 2 3 4 5 6 
#
# 1 141.5495 59.0662 44.9719 0.0000 -8.8471 0.0000
# 2 59.0662 83.3004 15.4224 0.0000 -10.2076 0.0000
# 3 44.9719 15.4224 72.1436 0.0000 5.8562 0.0000
# 4 0.0000 0.0000 0.0000 22.9777 0.0000 -7.4335
# 5 -8.8471 -10.2076 5.8562 0.0000 35.6912 0.0000
# 6 0.0000 0.0000 0.0000 -7.4335 0.0000 36.8365
#
#
#
# Elastic Compliance Matrix: (Units=1/GPa)
#
#
# Indices 1 2 3 4 5 6 
#
# 1 0.012184 -0.007250 -0.006205 0.000000 0.001965 0.000000
# 2 -0.007250 0.017424 0.000543 0.000000 0.003097 0.000000
# 3 -0.006205 0.000543 0.017965 0.000000 -0.004330 0.000000
# 4 0.000000 0.000000 0.000000 0.046560 0.000000 0.009396
# 5 0.001965 0.003097 -0.004330 0.000000 0.030101 0.000000
# 6 0.000000 0.000000 0.000000 0.009396 0.000000 0.029043
#
#
# Mechanical properties :
#
#
# Convention : Reuss Voigt Hill
#
# Bulk Modulus (GPa) = 45.97755 59.54606 52.76181
# Shear Modulus (GPa) = 26.83113 30.93661 28.88387
#
# Velocity S-wave (km/s) = 3.74339 4.01960 3.88395
# Velocity P-wave (km/s) = 6.53426 7.25546 6.90428
#
# Compressibility (1/GPa) = 0.02174975
#
# Stress axis : x y z
#
# Youngs Moduli (GPa) = 82.07457 57.39071 55.66531
#
# Poissons Ratio (x) = 0.41607 0.34539
# Poissons Ratio (y) = 0.59503 -0.03023
# Poissons Ratio (z) = 0.50925 -0.03116
#
# Static dielectric constant tensor:
#      x y z
#    x 3.652380 0.000000 0.000390 
#    y 0.000000 3.630840 0.000000 
#    z 0.000390 0.000000 2.869850 
# 
# 
# High freq. dielectric constant tensor:
#      x y z
#    x 1.758660 0.000000 0.005430 
#    y 0.000000 1.730550 0.000000 
#    z 0.005430 0.000000 1.742990 
# 
# From -- ./inp_files/54466.got.cif
#   From: 2010.06.25/outbox.cif.g09.slc.cpg/sg11_28_cif.got.tgz:54466.got - 2010.06.27 23:14:04.
