data_PCOD8073157
_publ_section_title
;
Structure prediction by ZEFSAII (Michael W. Deem and Ramdas Pophale) SiO2 
 PCOD8073157
Probable space group: P 21/M
;
_chemical_formula_sum "Si O2"
_cell_formula_units_Z 32
_cell_length_a 12.687471
_cell_length_b 9.077643
_cell_length_c 14.344356
_cell_angle_alpha 90.000000
_cell_angle_beta 89.687271
_cell_angle_gamma 90.000000
_cell_volume 1652.048327
_symmetry_space_group_name_H-M "P 21/M"
_symmetry_group_IT_number 11
_symmetry_cell_setting 'monoclinic'
loop_
_space_group_symop_operation_xyz
x,y,z
-x,1/2+y,-z
-x,-y,-z
x,1/2-y,z
loop_
_atom_site_type_symbol
_atom_site_label
_atom_site_fract_x
_atom_site_fract_y
_atom_site_fract_z
Si Si1 0.710090 0.922430 0.390214
Si Si2 0.996228 0.075573 0.100228
Si Si3 0.801325 0.925059 0.786145
Si Si4 0.508869 0.420114 0.402785
Si Si5 0.815324 0.916737 0.206642
Si Si6 0.613947 0.916825 0.087550
Si Si7 0.724514 0.580496 0.597096
Si Si8 0.376319 0.579581 0.099504
O O1 0.682862 0.750000 0.397478
O O2 0.806590 0.949613 0.317779
O O3 0.739030 0.990053 0.493132
O O4 0.605622 0.002068 0.348525
O O5 0.997756 0.250000 0.085787
O O6 0.095166 0.019318 0.160561
O O7 0.892103 0.030998 0.156728
O O8 0.000000 0.000000 0.000000
O O9 0.793758 0.750000 0.789975
O O10 0.803509 0.980407 0.677297
O O11 0.697360 0.988076 0.832931
O O12 0.500000 0.500000 0.500000
O O13 0.537140 0.250000 0.415777
O O14 0.393065 0.440582 0.358186
O O15 0.855883 0.750000 0.188431
O O16 0.697518 0.936948 0.169001
O O17 0.616245 0.750000 0.047465
O O18 0.497499 0.951860 0.127744
O O19 0.644238 0.028901 0.005963
O O20 0.750054 0.750000 0.581189
O O21 0.346252 0.750000 0.107631
#
# Coordination Sequence:
#
# PCOD8073157 Si02
#       8
#     4   4   4   4   4   4   4   4
#     4   9  18  33  54  79 110 146 182 221 265 318
#     4  11  24  41  61  82 106 139 182 234 280 326
#     4  10  21  37  56  77 106 144 182 220 272 326
#     4   9  16  28  48  75 107 145 183 220 260 310
#     4  10  21  37  58  81 109 145 182 222 274 328
#     4   9  19  35  52  75 109 144 173 210 270 333
#     4   8  16  32  52  76 107 145 185 216 257 319
#     4  10  20  33  52  80 109 137 174 221 270 323
#
# _framework density 19.369893000000001
#
# number of rings (size 3 to 8) (size 9 to 14) (size 15 to 20)
#    0.000    2.500    0.000    2.625    1.750    5.500 
#    0.000    3.125    0.000    0.000    0.000    0.000 
#    0.000    0.000    0.000    0.000    0.000    0.000 
#
# Total GULP energy -396545.568421 kJ/mol
# GULP energy per Si atom -12392.049013 kJ/mol
# Density = 1.932581 g / cm^3
# Si number density = 19.369893 Si / 1000 Ang^3
#
#
#
# Elastic Constant Matrix: (Units=GPa)
#
#
# Indices 1 2 3 4 5 6 
#
# 1 84.8471 36.5992 68.2496 0.0000 -0.3858 0.0000
# 2 36.5992 46.9083 28.6174 0.0000 2.8188 0.0000
# 3 68.2496 28.6174 119.3546 0.0000 6.1638 0.0000
# 4 0.0000 0.0000 0.0000 21.7504 0.0000 -5.3281
# 5 -0.3858 2.8188 6.1638 0.0000 29.9179 0.0000
# 6 0.0000 0.0000 0.0000 -5.3281 0.0000 29.1252
#
#
#
# Elastic Compliance Matrix: (Units=1/GPa)
#
#
# Indices 1 2 3 4 5 6 
#
# 1 0.028667 -0.014634 -0.013113 0.000000 0.004450 0.000000
# 2 -0.014634 0.032479 0.000756 0.000000 -0.003405 0.000000
# 3 -0.013113 0.000756 0.015877 0.000000 -0.003511 0.000000
# 4 0.000000 0.000000 0.000000 0.048133 0.000000 0.008805
# 5 0.004450 -0.003405 -0.003511 0.000000 0.034526 0.000000
# 6 0.000000 0.000000 0.000000 0.008805 0.000000 0.035945
#
#
# Mechanical properties :
#
#
# Convention : Reuss Voigt Hill
#
# Bulk Modulus (GPa) = 43.40100 57.56026 50.48063
# Shear Modulus (GPa) = 19.43335 24.00162 21.71749
#
# Velocity S-wave (km/s) = 3.17089 3.52393 3.35206
# Velocity P-wave (km/s) = 5.98842 6.80723 6.41091
#
# Compressibility (1/GPa) = 0.02304094
#
# Stress axis : x y z
#
# Youngs Moduli (GPa) = 34.88370 30.78902 62.98479
#
# Poissons Ratio (x) = 0.45056 0.82594
# Poissons Ratio (y) = 0.51049 -0.04764
# Poissons Ratio (z) = 0.45744 -0.02329
#
# Static dielectric constant tensor:
#      x y z
#    x 3.698670 0.000000 0.174750 
#    y 0.000000 3.576590 0.000000 
#    z 0.174750 0.000000 3.754560 
# 
# 
# High freq. dielectric constant tensor:
#      x y z
#    x 1.738680 0.000000 0.002510 
#    y 0.000000 1.739940 0.000000 
#    z 0.002510 0.000000 1.757490 
# 
# From -- ./inp_files/49358.got.cif
#   From: 2010.06.25/outbox.cif.g09.slc.cpg/sg11_25_cif.got.tgz:49358.got - 2010.06.27 23:14:04.
