data_PCOD8073412
_publ_section_title
;
Structure prediction by ZEFSAII (Michael W. Deem and Ramdas Pophale) SiO2 
 PCOD8073412
Probable space group: P 21/M
;
_chemical_formula_sum "Si O2"
_cell_formula_units_Z 28
_cell_length_a 7.848762
_cell_length_b 9.098720
_cell_length_c 25.692730
_cell_angle_alpha 90.000000
_cell_angle_beta 129.943515
_cell_angle_gamma 90.000000
_cell_volume 1406.710018
_symmetry_space_group_name_H-M "P 21/M"
_symmetry_group_IT_number 11
_symmetry_cell_setting 'monoclinic'
loop_
_space_group_symop_operation_xyz
x,y,z
-x,1/2+y,-z
-x,-y,-z
x,1/2-y,z
loop_
_atom_site_type_symbol
_atom_site_label
_atom_site_fract_x
_atom_site_fract_y
_atom_site_fract_z
Si Si1 0.324003 0.575692 0.800966
Si Si2 0.313193 0.589021 0.074371
Si Si3 0.994802 0.577104 0.183680
Si Si4 0.981060 0.577442 0.336426
Si Si5 0.639173 0.078111 0.666275
Si Si6 0.132698 0.089841 0.954614
Si Si7 0.859644 0.576849 0.428360
O O1 0.326529 0.750000 0.797397
O O2 0.570102 0.514112 0.859720
O O3 0.185102 0.520779 0.822833
O O4 0.226575 0.508610 0.728851
O O5 0.429419 0.750000 0.093792
O O6 0.061557 0.609734 0.041985
O O7 0.316324 0.517541 0.016676
O O8 0.949450 0.750000 0.183797
O O9 0.236853 0.537398 0.255229
O O10 0.975020 0.529640 0.119880
O O11 0.943846 0.750000 0.318748
O O12 0.211535 0.524209 0.354015
O O13 0.980352 0.540567 0.397343
O O14 0.606700 0.250000 0.655134
O O15 0.391431 0.009569 0.618648
O O16 0.243319 0.250000 0.966554
O O17 0.857897 0.750000 0.438043
O O18 0.000000 0.500000 0.500000
#
# Coordination Sequence:
#
# PCOD8073412 Si02
#       7
#     4   4   4   4   4   4   4
#     4  11  22  35  53  79 109 140 179 228 278 325
#     4  10  20  34  53  76 107 145 182 223 275 333
#     4   9  18  35  57  78 102 137 183 227 274 329
#     4   9  19  37  59  80 108 147 188 227 275 330
#     4   8  16  33  56  81 108 142 183 226 268 324
#     4   9  19  34  54  78 104 138 183 232 277 323
#     4  10  21  36  58  85 114 146 183 221 269 331
#
# _framework density 19.904599000000001
#
# number of rings (size 3 to 8) (size 9 to 14) (size 15 to 20)
#    0.000    2.571    0.000    2.571    2.000    2.857 
#    0.000    2.857    0.000    0.000    0.000    0.000 
#    0.000    0.000    0.000    0.000    0.000    0.000 
#
# Total GULP energy -347004.474773 kJ/mol
# GULP energy per Si atom -12393.016956 kJ/mol
# Density = 1.985930 g / cm^3
# Si number density = 19.904599 Si / 1000 Ang^3
#
#
#
# Elastic Constant Matrix: (Units=GPa)
#
#
# Indices 1 2 3 4 5 6 
#
# 1 62.7785 22.2367 41.0384 0.0000 -17.4926 0.0000
# 2 22.2367 85.5982 47.6144 0.0000 -11.2372 0.0000
# 3 41.0384 47.6144 124.7789 0.0000 -23.6005 0.0000
# 4 0.0000 0.0000 0.0000 36.8162 0.0000 -1.5487
# 5 -17.4926 -11.2372 -23.6005 0.0000 36.2373 0.0000
# 6 0.0000 0.0000 0.0000 -1.5487 0.0000 14.6191
#
#
#
# Elastic Compliance Matrix: (Units=1/GPa)
#
#
# Indices 1 2 3 4 5 6 
#
# 1 0.021841 -0.001913 -0.005213 0.000000 0.006554 0.000000
# 2 -0.001913 0.015033 -0.005018 0.000000 0.000470 0.000000
# 3 -0.005213 -0.005018 0.012401 0.000000 0.004004 0.000000
# 4 0.000000 0.000000 0.000000 0.027284 0.000000 0.002890
# 5 0.006554 0.000470 0.004004 0.000000 0.033513 0.000000
# 6 0.000000 0.000000 0.000000 0.002890 0.000000 0.068710
#
#
# Mechanical properties :
#
#
# Convention : Reuss Voigt Hill
#
# Bulk Modulus (GPa) = 40.02458 54.99273 47.50865
# Shear Modulus (GPa) = 23.65193 28.35227 26.00210
#
# Velocity S-wave (km/s) = 3.45086 3.77823 3.61825
# Velocity P-wave (km/s) = 6.00248 6.83531 6.43239
#
# Compressibility (1/GPa) = 0.02498465
#
# Stress axis : x y z
#
# Youngs Moduli (GPa) = 45.78517 66.52213 80.63897
#
# Poissons Ratio (x) = 0.12728 0.42041
# Poissons Ratio (y) = 0.08761 0.40466
# Poissons Ratio (z) = 0.23870 0.33382
#
# Static dielectric constant tensor:
#      x y z
#    x 3.651840 0.000000 0.072540 
#    y 0.000000 3.613480 0.000000 
#    z 0.072540 0.000000 3.748290 
# 
# 
# High freq. dielectric constant tensor:
#      x y z
#    x 1.767290 0.000000 -0.003500 
#    y 0.000000 1.752390 0.000000 
#    z -0.003500 0.000000 1.779540 
# 
# From -- ./inp_files/72769.got.cif
#   From: 2010.06.25/outbox.cif.g09.slc.cpg/sg11_37_cif.got.tgz:72769.got - 2010.06.27 23:14:04.
