data_PCOD8073997
_publ_section_title
;
Structure prediction by ZEFSAII (Michael W. Deem and Ramdas Pophale) SiO2 
 PCOD8073997
Probable space group: P 21/M
;
_chemical_formula_sum "Si O2"
_cell_formula_units_Z 32
_cell_length_a 23.405519
_cell_length_b 9.091650
_cell_length_c 14.063257
_cell_angle_alpha 90.000000
_cell_angle_beta 153.077130
_cell_angle_gamma 90.000000
_cell_volume 1355.015735
_symmetry_space_group_name_H-M "P 21/M"
_symmetry_group_IT_number 11
_symmetry_cell_setting 'monoclinic'
loop_
_space_group_symop_operation_xyz
x,y,z
-x,1/2+y,-z
-x,-y,-z
x,1/2-y,z
loop_
_atom_site_type_symbol
_atom_site_label
_atom_site_fract_x
_atom_site_fract_y
_atom_site_fract_z
Si Si1 0.988959 0.909302 0.842084
Si Si2 0.833539 0.911457 0.790588
Si Si3 0.116810 0.580457 0.782860
Si Si4 0.308042 0.921147 0.220621
Si Si5 0.733485 0.577042 0.370780
Si Si6 0.382412 0.924094 0.636756
Si Si7 0.520725 0.921380 0.385415
Si Si8 0.166066 0.420760 0.675004
O O1 0.028288 0.750000 0.855144
O O2 0.950309 0.882045 0.893767
O O3 0.872974 0.976622 0.610279
O O4 0.113776 0.013702 0.032877
O O5 0.771389 0.750000 0.719689
O O6 0.743781 0.024145 0.602359
O O7 0.133283 0.750000 0.783346
O O8 0.198003 0.501993 0.820360
O O9 0.971928 0.528120 0.567944
O O10 0.172093 0.545073 0.970088
O O11 0.323664 0.750000 0.273783
O O12 0.407136 0.963986 0.284932
O O13 0.344432 0.024186 0.365547
O O14 0.718446 0.750000 0.372198
O O15 0.624033 0.487865 0.264429
O O16 0.728259 0.545658 0.249500
O O17 0.397798 0.750000 0.664836
O O18 0.495115 0.993566 0.739461
O O19 0.525802 0.750000 0.371954
O O20 0.163088 0.250000 0.693320
#
# Coordination Sequence:
#
# PCOD8073997 Si02
#       8
#     4   4   4   4   4   4   4   4
#     4   8  14  24  38  57  83 119 162 205 247 294
#     4   9  16  26  39  57  85 122 164 206 247 296
#     4   9  18  34  56  82 110 139 173 215 265 318
#     4   9  19  36  58  82 108 140 175 216 268 319
#     4   9  18  32  48  69 101 140 178 214 258 311
#     4  11  21  32  48  70  99 137 177 217 264 315
#     4  10  20  35  55  80 109 139 176 221 266 317
#     4   9  18  33  54  80 109 141 177 217 261 312
#
# _framework density 23.615962
#
# number of rings (size 3 to 8) (size 9 to 14) (size 15 to 20)
#    0.000    2.750    0.000    2.625    0.000    5.500 
#    0.000    2.500    0.000    0.750    0.000    0.000 
#    0.000    0.000    0.000    0.000    0.000    0.000 
#
# Total GULP energy -396538.165836 kJ/mol
# GULP energy per Si atom -12391.817682 kJ/mol
# Density = 2.356221 g / cm^3
# Si number density = 23.615962 Si / 1000 Ang^3
#
#
#
# Elastic Constant Matrix: (Units=GPa)
#
#
# Indices 1 2 3 4 5 6 
#
# 1 114.5781 45.2938 -7.6957 0.0000 -35.1859 0.0000
# 2 45.2938 101.2261 1.5046 0.0000 -24.2001 0.0000
# 3 -7.6957 1.5046 12.8444 0.0000 -14.4625 0.0000
# 4 0.0000 0.0000 0.0000 18.8469 0.0000 -5.8388
# 5 -35.1859 -24.2001 -14.4625 0.0000 31.8014 0.0000
# 6 0.0000 0.0000 0.0000 -5.8388 0.0000 35.0159
#
#
#
# Elastic Compliance Matrix: (Units=1/GPa)
#
#
# Indices 1 2 3 4 5 6 
#
# 1 -0.054390 -0.013840 -0.226640 0.000000 -0.173781 0.000000
# 2 -0.013840 0.011097 -0.035510 0.000000 -0.023018 0.000000
# 3 -0.226640 -0.035510 -0.751237 0.000000 -0.619426 0.000000
# 4 0.000000 0.000000 0.000000 0.055950 0.000000 0.009329
# 5 -0.173781 -0.023018 -0.619426 0.000000 -0.460046 0.000000
# 6 0.000000 0.000000 0.000000 0.009329 0.000000 0.030114
#
#
# Mechanical properties :
#
#
# Convention : Reuss Voigt Hill
#
# Bulk Modulus (GPa) = -0.74266 34.09489 16.67612
# Shear Modulus (GPa) = -4.69320 29.76922 12.53801
#
# Velocity S-wave (km/s) = -1.41125 3.55428 2.30665
# Velocity P-wave (km/s) = 1.72356 5.59575 3.76443
#
# Compressibility (1/GPa) = -1.34651009
#
# Stress axis : x y z
#
# Youngs Moduli (GPa) = -18.38570 90.11735 -1.33114
#
# Poissons Ratio (x) = 1.24724 -0.30169
# Poissons Ratio (y) = -0.25446 -0.04727
# Poissons Ratio (z) = -4.16694 3.20003
#
# Static dielectric constant tensor:
#      x y z
#    x 4.966410 0.000000 -0.016550 
#    y 0.000000 4.231110 0.000000 
#    z -0.016550 0.000000 3.971420 
# 
# 
# High freq. dielectric constant tensor:
#      x y z
#    x 1.973220 0.000000 -0.000340 
#    y 0.000000 1.913480 0.000000 
#    z -0.000340 0.000000 1.899820 
# 
# From -- ./inp_files/56195.got.cif
#   From: 2010.06.25/outbox.cif.g09.slc.cpg/sg11_29_cif.got.tgz:56195.got - 2010.06.27 23:14:04.
