data_PCOD8073771
_publ_section_title
;
Structure prediction by ZEFSAII (Michael W. Deem and Ramdas Pophale) SiO2 
 PCOD8073771
Probable space group: P 21/M
;
_chemical_formula_sum "Si O2"
_cell_formula_units_Z 32
_cell_length_a 25.190752
_cell_length_b 8.649758
_cell_length_c 20.568294
_cell_angle_alpha 90.000000
_cell_angle_beta 157.771211
_cell_angle_gamma 90.000000
_cell_volume 1695.456057
_symmetry_space_group_name_H-M "P 21/M"
_symmetry_group_IT_number 11
_symmetry_cell_setting 'monoclinic'
loop_
_space_group_symop_operation_xyz
x,y,z
-x,1/2+y,-z
-x,-y,-z
x,1/2-y,z
loop_
_atom_site_type_symbol
_atom_site_label
_atom_site_fract_x
_atom_site_fract_y
_atom_site_fract_z
Si Si1 0.397494 0.430900 0.075419
Si Si2 0.860429 0.931700 0.014824
Si Si3 0.172463 0.072192 0.511070
Si Si4 0.581043 0.431979 0.652578
Si Si5 0.857408 0.429451 0.150150
Si Si6 0.843725 0.568595 0.657010
Si Si7 0.440289 0.930842 0.866992
Si Si8 0.573929 0.429656 0.402800
O O1 0.364779 0.250000 0.033646
O O2 0.471214 0.494824 0.093938
O O3 0.499104 0.469419 0.250320
O O4 0.251416 0.522351 0.917413
O O5 0.881318 0.750000 0.031198
O O6 0.825065 0.970797 0.049494
O O7 0.999228 0.017835 0.146920
O O8 0.732946 0.988011 0.825724
O O9 0.212386 0.250000 0.566189
O O10 0.186684 0.023818 0.452060
O O11 0.013623 0.037985 0.354193
O O12 0.276858 0.972350 0.673337
O O13 0.500000 0.500000 0.500000
O O14 0.600196 0.250000 0.666559
O O15 0.495819 0.467265 0.621178
O O16 0.842240 0.250000 0.113617
O O17 0.826989 0.750000 0.650206
O O18 0.736873 0.475528 0.581525
O O19 0.455746 0.750000 0.888480
O O20 0.500000 0.000000 0.000000
O O21 0.559682 0.250000 0.405172
#
# Coordination Sequence:
#
# PCOD8073771 Si02
#       8
#     4   4   4   4   4   4   4   4
#     4  10  21  36  57  86 118 150 194 241 288 345
#     4  11  21  36  58  86 120 157 195 240 293 347
#     4   9  19  35  55  83 116 149 189 237 287 343
#     4  12  25  42  62  87 120 159 198 240 293 351
#     4  10  20  34  57  88 117 148 192 242 292 342
#     4  10  20  35  58  89 120 153 195 245 293 342
#     4  11  23  39  58  83 115 154 194 237 290 350
#     4  11  21  37  60  90 121 153 196 244 292 345
#
# _framework density 18.873978000000001
#
# number of rings (size 3 to 8) (size 9 to 14) (size 15 to 20)
#    0.000    1.500    2.500    4.500    0.000    4.000 
#    0.000    1.250    0.000    0.000    0.000    0.000 
#    0.000    0.000    0.000    0.000    0.000    0.000 
#
# Total GULP energy -396958.048573 kJ/mol
# GULP energy per Si atom -12404.939018 kJ/mol
# Density = 1.883102 g / cm^3
# Si number density = 18.873978 Si / 1000 Ang^3
#
#
#
# Elastic Constant Matrix: (Units=GPa)
#
#
# Indices 1 2 3 4 5 6 
#
# 1 60.8469 23.7246 36.9227 0.0000 7.0065 0.0000
# 2 23.7246 67.3153 31.7575 0.0000 -4.0657 0.0000
# 3 36.9227 31.7575 120.0720 0.0000 7.2307 0.0000
# 4 0.0000 0.0000 0.0000 36.4372 0.0000 3.9478
# 5 7.0065 -4.0657 7.2307 0.0000 32.4619 0.0000
# 6 0.0000 0.0000 0.0000 3.9478 0.0000 31.1706
#
#
#
# Elastic Compliance Matrix: (Units=1/GPa)
#
#
# Indices 1 2 3 4 5 6 
#
# 1 0.022241 -0.005715 -0.005063 0.000000 -0.004388 0.000000
# 2 -0.005715 0.018769 -0.003469 0.000000 0.004357 0.000000
# 3 -0.005063 -0.003469 0.010910 0.000000 -0.001772 0.000000
# 4 0.000000 0.000000 0.000000 0.027826 0.000000 -0.003524
# 5 -0.004388 0.004357 -0.001772 0.000000 0.032693 0.000000
# 6 0.000000 0.000000 0.000000 -0.003524 0.000000 0.032528
#
#
# Mechanical properties :
#
#
# Convention : Reuss Voigt Hill
#
# Bulk Modulus (GPa) = 42.68974 48.11598 45.40286
# Shear Modulus (GPa) = 27.58313 30.40256 28.99284
#
# Velocity S-wave (km/s) = 3.82702 4.01785 3.92360
# Velocity P-wave (km/s) = 6.49581 6.86097 6.68088
#
# Compressibility (1/GPa) = 0.02342483
#
# Stress axis : x y z
#
# Youngs Moduli (GPa) = 44.96253 53.27803 91.66208
#
# Poissons Ratio (x) = 0.30447 0.46412
# Poissons Ratio (y) = 0.25695 0.31801
# Poissons Ratio (z) = 0.22766 0.18484
#
# Static dielectric constant tensor:
#      x y z
#    x 3.085510 0.000000 0.190510 
#    y 0.000000 3.484060 0.000000 
#    z 0.190510 0.000000 3.521790 
# 
# 
# High freq. dielectric constant tensor:
#      x y z
#    x 1.714850 0.000000 0.021530 
#    y 0.000000 1.743120 0.000000 
#    z 0.021530 0.000000 1.737520 
# 
# From -- ./inp_files/67247.got.cif
#   From: 2010.06.25/outbox.cif.g09.slc.cpg/sg11_34_cif.got.tgz:67247.got - 2010.06.27 23:14:04.
