data_PCOD8073752
_publ_section_title
;
Structure prediction by ZEFSAII (Michael W. Deem and Ramdas Pophale) SiO2 
 PCOD8073752
Probable space group: P 21/M
;
_chemical_formula_sum "Si O2"
_cell_formula_units_Z 28
_cell_length_a 21.227643
_cell_length_b 9.487444
_cell_length_c 15.201974
_cell_angle_alpha 90.000000
_cell_angle_beta 27.220370
_cell_angle_gamma 90.000000
_cell_volume 1400.427209
_symmetry_space_group_name_H-M "P 21/M"
_symmetry_group_IT_number 11
_symmetry_cell_setting 'monoclinic'
loop_
_space_group_symop_operation_xyz
x,y,z
-x,1/2+y,-z
-x,-y,-z
x,1/2-y,z
loop_
_atom_site_type_symbol
_atom_site_label
_atom_site_fract_x
_atom_site_fract_y
_atom_site_fract_z
Si Si1 0.050907 0.588413 0.855325
Si Si2 0.496183 0.403862 0.127997
Si Si3 0.875334 0.916048 0.904657
Si Si4 0.435119 0.413047 0.659080
Si Si5 0.634234 0.090243 0.570742
Si Si6 0.691026 0.598264 0.805418
Si Si7 0.994792 0.916732 0.414674
O O1 0.011804 0.750000 0.921452
O O2 0.213108 0.563840 0.652526
O O3 0.980479 0.539831 0.851615
O O4 0.000000 0.500000 0.000000
O O5 0.525301 0.250000 0.132759
O O6 0.389216 0.488856 0.318888
O O7 0.427494 0.388789 0.118940
O O8 0.643996 0.482647 0.935891
O O9 0.887611 0.750000 0.866281
O O10 0.722313 0.955960 0.126859
O O11 0.908238 0.008258 0.777456
O O12 0.500000 0.500000 0.500000
O O13 0.445755 0.250000 0.619989
O O14 0.524366 0.448843 0.633372
O O15 0.615386 0.250000 0.626853
O O16 0.703826 0.750000 0.838545
O O17 0.836783 0.562896 0.579286
O O18 0.033603 0.750000 0.375949
O O19 0.000000 0.000000 0.500000
#
# Coordination Sequence:
#
# PCOD8073752 Si02
#       7
#     4   4   4   4   4   4   4
#     4  10  21  37  60  87 116 151 195 244 298 356
#     4  10  20  34  57  86 110 142 189 236 280 338
#     4  10  22  40  60  86 120 158 197 244 299 355
#     4  10  22  39  59  83 115 152 190 235 292 349
#     4  10  21  36  55  81 113 148 184 229 290 347
#     4   9  20  38  56  78 114 151 184 231 290 338
#     4  11  24  40  60  85 117 159 203 246 294 353
#
# _framework density 19.993897
#
# number of rings (size 3 to 8) (size 9 to 14) (size 15 to 20)
#    0.000    2.000    0.000    2.571    2.000    4.000 
#    0.000    0.000    0.000    0.000    0.000    0.000 
#    0.000    0.000    0.000    0.000    0.000    0.000 
#
# Total GULP energy -347150.274880 kJ/mol
# GULP energy per Si atom -12398.224103 kJ/mol
# Density = 1.994839 g / cm^3
# Si number density = 19.993897 Si / 1000 Ang^3
#
#
#
# Elastic Constant Matrix: (Units=GPa)
#
#
# Indices 1 2 3 4 5 6 
#
# 1 62.0518 43.9809 36.4076 0.0000 2.8544 0.0000
# 2 43.9809 119.2399 65.8433 0.0000 19.8882 0.0000
# 3 36.4076 65.8433 104.3466 0.0000 5.6968 0.0000
# 4 0.0000 0.0000 0.0000 41.0216 0.0000 12.7217
# 5 2.8544 19.8882 5.6968 0.0000 39.5291 0.0000
# 6 0.0000 0.0000 0.0000 12.7217 0.0000 26.5381
#
#
#
# Elastic Compliance Matrix: (Units=1/GPa)
#
#
# Indices 1 2 3 4 5 6 
#
# 1 0.023085 -0.006721 -0.003938 0.000000 0.002282 0.000000
# 2 -0.006721 0.016056 -0.007431 0.000000 -0.006522 0.000000
# 3 -0.003938 -0.007431 0.015549 0.000000 0.001782 0.000000
# 4 0.000000 0.000000 0.000000 0.028634 0.000000 -0.013727
# 5 0.002282 -0.006522 0.001782 0.000000 0.028158 0.000000
# 6 0.000000 0.000000 0.000000 -0.013727 0.000000 0.044262
#
#
# Mechanical properties :
#
#
# Convention : Reuss Voigt Hill
#
# Bulk Modulus (GPa) = 54.02210 64.23354 59.12782
# Shear Modulus (GPa) = 25.24061 30.71152 27.97607
#
# Velocity S-wave (km/s) = 3.55690 3.92349 3.74469
# Velocity P-wave (km/s) = 6.62923 7.26095 6.95227
#
# Compressibility (1/GPa) = 0.01851094
#
# Stress axis : x y z
#
# Youngs Moduli (GPa) = 43.31868 62.28101 64.31240
#
# Poissons Ratio (x) = 0.41856 0.25329
# Poissons Ratio (y) = 0.29112 0.47788
# Poissons Ratio (z) = 0.17061 0.46279
#
# Static dielectric constant tensor:
#      x y z
#    x 3.546240 0.000000 -0.250180 
#    y 0.000000 3.992650 0.000000 
#    z -0.250180 0.000000 3.766070 
# 
# 
# High freq. dielectric constant tensor:
#      x y z
#    x 1.773160 0.000000 -0.009850 
#    y 0.000000 1.785920 0.000000 
#    z -0.009850 0.000000 1.790870 
# 
# From -- ./inp_files/38419.got.cif
#   From: 2010.06.25/outbox.cif.g09.slc.cpg/sg11_20_cif.got.tgz:38419.got - 2010.06.27 23:14:04.
