data_PCOD8073649
_publ_section_title
;
Structure prediction by ZEFSAII (Michael W. Deem and Ramdas Pophale) SiO2 
 PCOD8073649
Probable space group: P 21/M
;
_chemical_formula_sum "Si O2"
_cell_formula_units_Z 24
_cell_length_a 8.697473
_cell_length_b 17.394240
_cell_length_c 8.766978
_cell_angle_alpha 90.000000
_cell_angle_beta 94.252595
_cell_angle_gamma 90.000000
_cell_volume 1322.668855
_symmetry_space_group_name_H-M "P 21/M"
_symmetry_group_IT_number 11
_symmetry_cell_setting 'monoclinic'
loop_
_space_group_symop_operation_xyz
x,y,z
-x,1/2+y,-z
-x,-y,-z
x,1/2-y,z
loop_
_atom_site_type_symbol
_atom_site_label
_atom_site_fract_x
_atom_site_fract_y
_atom_site_fract_z
Si Si1 0.126416 0.513713 0.763687
Si Si2 0.514038 0.335595 0.188614
Si Si3 0.162376 0.836984 0.943501
Si Si4 0.819678 0.426849 0.755507
Si Si5 0.341116 0.037707 0.038128
Si Si6 0.369801 0.940116 0.541334
O O1 0.080495 0.598508 0.829704
O O2 0.237034 0.516753 0.626640
O O3 0.976885 0.465491 0.706352
O O4 0.786413 0.535682 0.101433
O O5 0.462403 0.250000 0.222312
O O6 0.658157 0.339763 0.085139
O O7 0.371147 0.374947 0.091408
O O8 0.550807 0.374999 0.351960
O O9 0.096790 0.750000 0.911933
O O10 0.145913 0.858710 0.121108
O O11 0.717983 0.493456 0.819812
O O12 0.717487 0.397550 0.605369
O O13 0.500000 0.000000 0.000000
O O14 0.500000 0.000000 0.500000
#
# Coordination Sequence:
#
# PCOD8073649 Si02
#       6
#     4   4   4   4   4   4
#     4  10  21  34  54  84 110 139 185 222 270 324
#     4  10  20  34  55  84 108 137 183 235 275 309
#     4   9  18  33  54  79 107 141 181 223 269 318
#     4  11  20  33  55  83 108 140 182 220 266 326
#     4  11  16  34  56  79 105 138 183 224 258 316
#     4  11  20  35  58  78 107 145 184 223 263 326
#
# _framework density 18.145129000000001
#
# number of rings (size 3 to 8) (size 9 to 14) (size 15 to 20)
#    0.000    1.667    6.667    2.500    0.000    0.667 
#    0.000    3.333    0.000    1.000    0.000    0.000 
#    0.000    0.000    0.000    0.000    0.000    0.000 
#
# Total GULP energy -297475.810324 kJ/mol
# GULP energy per Si atom -12394.825430 kJ/mol
# Density = 1.810383 g / cm^3
# Si number density = 18.145129 Si / 1000 Ang^3
#
#
#
# Elastic Constant Matrix: (Units=GPa)
#
#
# Indices 1 2 3 4 5 6 
#
# 1 62.6706 33.8077 24.1832 0.0000 -2.0577 0.0000
# 2 33.8077 93.9227 22.6077 0.0000 -4.2037 0.0000
# 3 24.1832 22.6077 89.9070 0.0000 -5.1196 0.0000
# 4 0.0000 0.0000 0.0000 16.0989 0.0000 -0.4766
# 5 -2.0577 -4.2037 -5.1196 0.0000 29.9249 0.0000
# 6 0.0000 0.0000 0.0000 -0.4766 0.0000 20.5054
#
#
#
# Elastic Compliance Matrix: (Units=1/GPa)
#
#
# Indices 1 2 3 4 5 6 
#
# 1 0.021074 -0.006628 -0.004012 0.000000 -0.000168 0.000000
# 2 -0.006628 0.013454 -0.001534 0.000000 0.001172 0.000000
# 3 -0.004012 -0.001534 0.012683 0.000000 0.001679 0.000000
# 4 0.000000 0.000000 0.000000 0.062159 0.000000 0.001445
# 5 -0.000168 0.001172 0.001679 0.000000 0.033857 0.000000
# 6 0.000000 0.000000 0.000000 0.001445 0.000000 0.048801
#
#
# Mechanical properties :
#
#
# Convention : Reuss Voigt Hill
#
# Bulk Modulus (GPa) = 43.73399 45.29973 44.51686
# Shear Modulus (GPa) = 22.32178 24.36594 23.34386
#
# Velocity S-wave (km/s) = 3.51120 3.66845 3.59068
# Velocity P-wave (km/s) = 6.37124 6.55460 6.46357
#
# Compressibility (1/GPa) = 0.02286551
#
# Stress axis : x y z
#
# Youngs Moduli (GPa) = 47.45151 74.32562 78.84645
#
# Poissons Ratio (x) = 0.49260 0.31630
# Poissons Ratio (y) = 0.31449 0.12093
# Poissons Ratio (z) = 0.19035 0.11400
#
# Static dielectric constant tensor:
#      x y z
#    x 3.302830 0.000000 -0.133190 
#    y 0.000000 3.781340 0.000000 
#    z -0.133190 0.000000 3.405460 
# 
# 
# High freq. dielectric constant tensor:
#      x y z
#    x 1.697800 0.000000 -0.005230 
#    y 0.000000 1.682650 0.000000 
#    z -0.005230 0.000000 1.707320 
# 
# From -- ./inp_files/13827.got.cif
#   From: 2010.06.25/outbox.cif.g09.slc.cpg/sg11_7_cif.got.tgz:13827.got - 2010.06.27 23:14:04.
