data_PCOD8073784
_publ_section_title
;
Structure prediction by ZEFSAII (Michael W. Deem and Ramdas Pophale) SiO2 
 PCOD8073784
Probable space group: P 21/M
;
_chemical_formula_sum "Si O2"
_cell_formula_units_Z 32
_cell_length_a 19.852960
_cell_length_b 8.924049
_cell_length_c 25.783746
_cell_angle_alpha 90.000000
_cell_angle_beta 21.236508
_cell_angle_gamma 90.000000
_cell_volume 1654.641554
_symmetry_space_group_name_H-M "P 21/M"
_symmetry_group_IT_number 11
_symmetry_cell_setting 'monoclinic'
loop_
_space_group_symop_operation_xyz
x,y,z
-x,1/2+y,-z
-x,-y,-z
x,1/2-y,z
loop_
_atom_site_type_symbol
_atom_site_label
_atom_site_fract_x
_atom_site_fract_y
_atom_site_fract_z
Si Si1 0.587718 0.574808 0.116626
Si Si2 0.808723 0.922195 0.150896
Si Si3 0.506622 0.575170 0.916082
Si Si4 0.210208 0.424805 0.200071
Si Si5 0.320695 0.574302 0.653228
Si Si6 0.010705 0.923665 0.792261
Si Si7 0.517393 0.420812 0.693195
Si Si8 0.126997 0.426169 0.603109
O O1 0.558983 0.750000 0.127270
O O2 0.467185 0.482548 0.161168
O O3 0.510288 0.526606 0.227929
O O4 0.803858 0.530603 0.957561
O O5 0.844808 0.750000 0.140010
O O6 0.680221 0.935322 0.192754
O O7 0.708085 0.004620 0.270006
O O8 0.000000 0.000000 0.000000
O O9 0.458794 0.750000 0.951913
O O10 0.695179 0.540480 0.812473
O O11 0.334687 0.486523 0.063941
O O12 0.184098 0.250000 0.209233
O O13 0.009992 0.503162 0.341784
O O14 0.500000 0.500000 0.500000
O O15 0.355837 0.750000 0.633846
O O16 0.141746 0.539554 0.746684
O O17 0.024200 0.750000 0.766649
O O18 0.074590 0.020862 0.697943
O O19 0.589793 0.250000 0.638494
O O20 0.663999 0.527067 0.559885
O O21 0.108420 0.250000 0.613770
#
# Coordination Sequence:
#
# PCOD8073784 Si02
#       8
#     4   4   4   4   4   4   4   4
#     4  10  20  37  61  85 111 152 197 237 289 348
#     4  11  23  41  64  88 116 156 202 247 297 356
#     4  10  20  34  57  90 120 148 191 244 289 334
#     4  10  20  36  58  84 119 159 192 230 288 352
#     4  11  23  39  59  86 119 154 196 244 297 357
#     4  10  21  38  60  84 114 153 192 236 293 357
#     4  10  23  42  61  83 117 161 199 234 291 361
#     4  12  24  37  58  90 120 152 197 247 293 340
#
# _framework density 19.339535999999999
#
# number of rings (size 3 to 8) (size 9 to 14) (size 15 to 20)
#    0.000    1.500    1.250    4.125    0.000    9.000 
#    0.000    1.875    0.000    0.000    0.000    0.000 
#    0.000    0.000    0.000    0.000    0.000    0.000 
#
# Total GULP energy -396979.471272 kJ/mol
# GULP energy per Si atom -12405.608477 kJ/mol
# Density = 1.929552 g / cm^3
# Si number density = 19.339536 Si / 1000 Ang^3
#
#
#
# Elastic Constant Matrix: (Units=GPa)
#
#
# Indices 1 2 3 4 5 6 
#
# 1 104.0302 45.9398 20.6394 0.0000 7.6613 0.0000
# 2 45.9398 106.8514 37.9227 0.0000 4.4982 0.0000
# 3 20.6394 37.9227 75.3018 0.0000 11.1698 0.0000
# 4 0.0000 0.0000 0.0000 26.9485 0.0000 -2.7714
# 5 7.6613 4.4982 11.1698 0.0000 29.4405 0.0000
# 6 0.0000 0.0000 0.0000 -2.7714 0.0000 32.9694
#
#
#
# Elastic Compliance Matrix: (Units=1/GPa)
#
#
# Indices 1 2 3 4 5 6 
#
# 1 0.012040 -0.004905 -0.000505 0.000000 -0.002192 0.000000
# 2 -0.004905 0.013400 -0.005605 0.000000 0.001356 0.000000
# 3 -0.000505 -0.005605 0.017054 0.000000 -0.005483 0.000000
# 4 0.000000 0.000000 0.000000 0.037431 0.000000 0.003146
# 5 -0.002192 0.001356 -0.005483 0.000000 0.036410 0.000000
# 6 0.000000 0.000000 0.000000 0.003146 0.000000 0.030596
#
#
# Mechanical properties :
#
#
# Convention : Reuss Voigt Hill
#
# Bulk Modulus (GPa) = 48.86428 55.02080 51.94254
# Shear Modulus (GPa) = 28.44415 29.98378 29.21396
#
# Velocity S-wave (km/s) = 3.83923 3.94177 3.89084
# Velocity P-wave (km/s) = 6.70629 7.01629 6.86304
#
# Compressibility (1/GPa) = 0.02046485
#
# Stress axis : x y z
#
# Youngs Moduli (GPa) = 83.05423 74.62716 58.63665
#
# Poissons Ratio (x) = 0.36606 0.02959
# Poissons Ratio (y) = 0.40740 0.32866
# Poissons Ratio (z) = 0.04191 0.41828
#
# Static dielectric constant tensor:
#      x y z
#    x 3.660110 0.000000 -0.124080 
#    y 0.000000 3.576990 0.000000 
#    z -0.124080 0.000000 3.449750 
# 
# 
# High freq. dielectric constant tensor:
#      x y z
#    x 1.766760 0.000000 -0.007130 
#    y 0.000000 1.758310 0.000000 
#    z -0.007130 0.000000 1.744910 
# 
# From -- ./inp_files/72025.got.cif
#   From: 2010.06.25/outbox.cif.g09.slc.cpg/sg11_37_cif.got.tgz:72025.got - 2010.06.27 23:14:04.
