data_PCOD8073262
_publ_section_title
;
Structure prediction by ZEFSAII (Michael W. Deem and Ramdas Pophale) SiO2 
 PCOD8073262
Probable space group: P 21/M
;
_chemical_formula_sum "Si O2"
_cell_formula_units_Z 28
_cell_length_a 8.857606
_cell_length_b 15.023942
_cell_length_c 20.765137
_cell_angle_alpha 90.000000
_cell_angle_beta 32.540866
_cell_angle_gamma 90.000000
_cell_volume 1486.405909
_symmetry_space_group_name_H-M "P 21/M"
_symmetry_group_IT_number 11
_symmetry_cell_setting 'monoclinic'
loop_
_space_group_symop_operation_xyz
x,y,z
-x,1/2+y,-z
-x,-y,-z
x,1/2-y,z
loop_
_atom_site_type_symbol
_atom_site_label
_atom_site_fract_x
_atom_site_fract_y
_atom_site_fract_z
Si Si1 0.743288 0.350252 0.723045
Si Si2 0.180489 0.648177 0.651331
Si Si3 0.697810 0.012443 0.295611
Si Si4 0.291117 0.002304 0.859265
Si Si5 0.127867 0.407783 0.474352
Si Si6 0.709774 0.651783 0.719110
Si Si7 0.742793 0.852708 0.372695
O O1 0.633434 0.250000 0.772779
O O2 0.472161 0.413028 0.816844
O O3 0.915254 0.353560 0.594894
O O4 0.957092 0.377361 0.703275
O O5 0.146216 0.750000 0.687525
O O6 0.097142 0.580543 0.739539
O O7 0.494842 0.630677 0.512745
O O8 0.971550 0.624415 0.668694
O O9 0.409449 0.065813 0.409946
O O10 0.771412 0.999004 0.194460
O O11 0.697750 0.914751 0.326910
O O12 0.455498 0.914850 0.821948
O O13 0.000000 0.000000 0.000000
O O14 0.188078 0.347342 0.391076
O O15 0.000000 0.500000 0.500000
O O16 0.600456 0.750000 0.776243
O O17 0.739091 0.750000 0.350885
#
# Coordination Sequence:
#
# PCOD8073262 Si02
#       7
#     4   4   4   4   4   4   4
#     4  11  22  38  60  85 121 155 190 239 293 351
#     4  10  20  33  56  92 124 149 176 223 297 368
#     4  11  21  34  61  83 119 154 185 240 288 348
#     4  11  26  44  59  80 110 157 215 252 283 324
#     4  11  19  33  55  92 120 154 183 227 295 355
#     4  10  21  37  60  86 120 154 189 238 290 351
#     4  10  21  34  55  92 128 152 178 224 293 368
#
# _framework density 18.837384
#
# number of rings (size 3 to 8) (size 9 to 14) (size 15 to 20)
#    0.000    1.429    4.286    2.571    0.000    3.429 
#    0.000    2.857    0.000    3.429    0.000    0.000 
#    0.000    0.000    0.000    0.000    0.000    0.000 
#
# Total GULP energy -347110.299895 kJ/mol
# GULP energy per Si atom -12396.796425 kJ/mol
# Density = 1.879451 g / cm^3
# Si number density = 18.837384 Si / 1000 Ang^3
#
#
#
# Elastic Constant Matrix: (Units=GPa)
#
#
# Indices 1 2 3 4 5 6 
#
# 1 124.3822 74.9274 48.0331 0.0000 -4.5516 0.0000
# 2 74.9274 114.0899 44.7369 0.0000 1.0596 0.0000
# 3 48.0331 44.7369 105.5413 0.0000 -8.4502 0.0000
# 4 0.0000 0.0000 0.0000 12.2507 0.0000 -5.0181
# 5 -4.5516 1.0596 -8.4502 0.0000 16.2145 0.0000
# 6 0.0000 0.0000 0.0000 -5.0181 0.0000 28.0754
#
#
#
# Elastic Compliance Matrix: (Units=1/GPa)
#
#
# Indices 1 2 3 4 5 6 
#
# 1 0.014188 -0.008291 -0.002693 0.000000 0.003121 0.000000
# 2 -0.008291 0.015513 -0.003203 0.000000 -0.005011 0.000000
# 3 -0.002693 -0.003203 0.012538 0.000000 0.005987 0.000000
# 4 0.000000 0.000000 0.000000 0.088077 0.000000 0.015743
# 5 0.003121 -0.005011 0.005987 0.000000 0.065997 0.000000
# 6 0.000000 0.000000 0.000000 0.015743 0.000000 0.038432
#
#
# Mechanical properties :
#
#
# Convention : Reuss Voigt Hill
#
# Bulk Modulus (GPa) = 72.12876 75.48983 73.80929
# Shear Modulus (GPa) = 18.67475 23.06251 20.86863
#
# Velocity S-wave (km/s) = 3.15201 3.50279 3.33202
# Velocity P-wave (km/s) = 7.18472 7.51803 7.35327
#
# Compressibility (1/GPa) = 0.01386410
#
# Stress axis : x y z
#
# Youngs Moduli (GPa) = 70.47971 64.46295 79.75882
#
# Poissons Ratio (x) = 0.53447 0.21479
# Poissons Ratio (y) = 0.58436 0.25549
# Poissons Ratio (z) = 0.18980 0.20650
#
# Static dielectric constant tensor:
#      x y z
#    x 3.431470 0.000000 -0.148250 
#    y 0.000000 3.680630 0.000000 
#    z -0.148250 0.000000 2.953190 
# 
# 
# High freq. dielectric constant tensor:
#      x y z
#    x 1.751780 0.000000 -0.008230 
#    y 0.000000 1.750200 0.000000 
#    z -0.008230 0.000000 1.677920 
# 
# From -- ./inp_files/22081.got.cif
#   From: 2010.06.25/outbox.cif.g09.slc.cpg/sg11_12_cif.got.tgz:22081.got - 2010.06.27 23:14:04.
