data_PCOD8073225
_publ_section_title
;
Structure prediction by ZEFSAII (Michael W. Deem and Ramdas Pophale) SiO2 
 PCOD8073225
Probable space group: P 21/M
;
_chemical_formula_sum "Si O2"
_cell_formula_units_Z 32
_cell_length_a 12.876000
_cell_length_b 9.353159
_cell_length_c 14.070562
_cell_angle_alpha 90.000000
_cell_angle_beta 86.322262
_cell_angle_gamma 90.000000
_cell_volume 1691.046027
_symmetry_space_group_name_H-M "P 21/M"
_symmetry_group_IT_number 11
_symmetry_cell_setting 'monoclinic'
loop_
_space_group_symop_operation_xyz
x,y,z
-x,1/2+y,-z
-x,-y,-z
x,1/2-y,z
loop_
_atom_site_type_symbol
_atom_site_label
_atom_site_fract_x
_atom_site_fract_y
_atom_site_fract_z
Si Si1 0.199567 0.080395 0.887638
Si Si2 0.411476 0.413287 0.556619
Si Si3 0.055840 0.914368 0.414212
Si Si4 0.594452 0.919482 0.227248
Si Si5 0.004758 0.914760 0.206716
Si Si6 0.192790 0.081503 0.104024
Si Si7 0.608237 0.585561 0.787060
Si Si8 0.739963 0.588286 0.597892
O O1 0.202320 0.250000 0.882882
O O2 0.304910 0.020637 0.834157
O O3 0.099388 0.023443 0.836029
O O4 0.192251 0.025953 0.996034
O O5 0.500000 0.500000 0.500000
O O6 0.448696 0.250000 0.555261
O O7 0.392838 0.468480 0.664278
O O8 0.303564 0.430591 0.505908
O O9 0.064798 0.750000 0.444862
O O10 0.990575 0.929747 0.320933
O O11 0.170179 0.975231 0.389431
O O12 0.000000 0.000000 0.500000
O O13 0.584141 0.750000 0.217843
O O14 0.492431 0.989525 0.186964
O O15 0.023684 0.750000 0.177013
O O16 0.102509 0.005146 0.167110
O O17 0.172754 0.250000 0.112186
O O18 0.303222 0.040473 0.143320
O O19 0.576545 0.750000 0.802878
O O20 0.647914 0.557116 0.677797
O O21 0.782700 0.750000 0.610553
#
# Coordination Sequence:
#
# PCOD8073225 Si02
#       8
#     4   4   4   4   4   4   4   4
#     4   9  20  38  58  82 112 148 187 231 286 336
#     4  10  20  33  54  78 105 144 184 225 272 327
#     4  11  24  38  57  85 116 149 185 228 279 335
#     4  10  21  36  56  81 110 147 191 231 274 336
#     4  10  21  38  61  85 112 146 187 234 278 331
#     4  10  20  37  61  84 110 146 187 232 284 340
#     4  10  20  35  56  82 114 148 182 229 284 330
#     4  10  20  36  56  79 112 148 185 231 281 335
#
# _framework density 18.923197999999999
#
# number of rings (size 3 to 8) (size 9 to 14) (size 15 to 20)
#    0.000    2.000    2.500    0.750    1.750    2.500 
#    0.000    1.250    0.000    0.000    0.000    0.000 
#    0.000    0.000    0.000    0.000    0.000    0.000 
#
# Total GULP energy -396889.946064 kJ/mol
# GULP energy per Si atom -12402.810815 kJ/mol
# Density = 1.888013 g / cm^3
# Si number density = 18.923198 Si / 1000 Ang^3
#
#
#
# Elastic Constant Matrix: (Units=GPa)
#
#
# Indices 1 2 3 4 5 6 
#
# 1 112.3608 46.2844 51.3083 0.0000 8.1127 0.0000
# 2 46.2844 61.0620 38.4191 0.0000 -0.5434 0.0000
# 3 51.3083 38.4191 114.2457 0.0000 6.2497 0.0000
# 4 0.0000 0.0000 0.0000 22.5539 0.0000 -0.5389
# 5 8.1127 -0.5434 6.2497 0.0000 32.1436 0.0000
# 6 0.0000 0.0000 0.0000 -0.5389 0.0000 27.1146
#
#
#
# Elastic Compliance Matrix: (Units=1/GPa)
#
#
# Indices 1 2 3 4 5 6 
#
# 1 0.014223 -0.008747 -0.003277 0.000000 -0.003101 0.000000
# 2 -0.008747 0.026246 -0.005097 0.000000 0.003642 0.000000
# 3 -0.003277 -0.005097 0.012026 0.000000 -0.001597 0.000000
# 4 0.000000 0.000000 0.000000 0.044359 0.000000 0.000882
# 5 -0.003101 0.003642 -0.001597 0.000000 0.032265 0.000000
# 6 0.000000 0.000000 0.000000 0.000882 0.000000 0.036898
#
#
# Mechanical properties :
#
#
# Convention : Reuss Voigt Hill
#
# Bulk Modulus (GPa) = 54.78234 62.18803 58.48518
# Shear Modulus (GPa) = 24.23135 26.47287 25.35211
#
# Velocity S-wave (km/s) = 3.58230 3.74433 3.66421
# Velocity P-wave (km/s) = 6.79141 7.18527 6.99111
#
# Compressibility (1/GPa) = 0.01825406
#
# Stress axis : x y z
#
# Youngs Moduli (GPa) = 70.30817 38.10041 83.15259
#
# Poissons Ratio (x) = 0.33326 0.27246
# Poissons Ratio (y) = 0.61499 0.42385
# Poissons Ratio (z) = 0.23037 0.19421
#
# Static dielectric constant tensor:
#      x y z
#    x 3.485750 0.000000 0.133720 
#    y 0.000000 3.307700 0.000000 
#    z 0.133720 0.000000 3.709060 
# 
# 
# High freq. dielectric constant tensor:
#      x y z
#    x 1.737070 0.000000 0.008360 
#    y 0.000000 1.716640 0.000000 
#    z 0.008360 0.000000 1.746140 
# 
# From -- ./inp_files/49354.got.cif
#   From: 2010.06.25/outbox.cif.g09.slc.cpg/sg11_25_cif.got.tgz:49354.got - 2010.06.27 23:14:04.
