data_PCOD8073165
_publ_section_title
;
Structure prediction by ZEFSAII (Michael W. Deem and Ramdas Pophale) SiO2 
 PCOD8073165
Probable space group: P 21/M
;
_chemical_formula_sum "Si O2"
_cell_formula_units_Z 32
_cell_length_a 16.368370
_cell_length_b 16.608614
_cell_length_c 11.838167
_cell_angle_alpha 90.000000
_cell_angle_beta 148.070388
_cell_angle_gamma 90.000000
_cell_volume 1702.072274
_symmetry_space_group_name_H-M "P 21/M"
_symmetry_group_IT_number 11
_symmetry_cell_setting 'monoclinic'
loop_
_space_group_symop_operation_xyz
x,y,z
-x,1/2+y,-z
-x,-y,-z
x,1/2-y,z
loop_
_atom_site_type_symbol
_atom_site_label
_atom_site_fract_x
_atom_site_fract_y
_atom_site_fract_z
Si Si1 0.372051 0.155119 0.210270
Si Si2 0.850174 0.982652 0.008893
Si Si3 0.371586 0.951629 0.414340
Si Si4 0.887138 0.053288 0.292209
Si Si5 0.387383 0.157700 0.970749
Si Si6 0.856067 0.844805 0.494661
Si Si7 0.807794 0.513308 0.588211
Si Si8 0.642137 0.440253 0.186589
O O1 0.343486 0.250000 0.196857
O O2 0.547004 0.133287 0.457683
O O3 0.360198 0.128056 0.065922
O O4 0.239408 0.102578 0.118121
O O5 0.834167 0.004181 0.120788
O O6 0.028526 0.975451 0.180332
O O7 0.773700 0.053556 0.841564
O O8 0.500000 0.000000 0.500000
O O9 0.319943 0.000027 0.466146
O O10 0.732406 0.077710 0.176999
O O11 0.974168 0.134629 0.354289
O O12 0.000000 0.000000 0.500000
O O13 0.350613 0.250000 0.922200
O O14 0.562865 0.141698 0.137650
O O15 0.264908 0.118486 0.739657
O O16 0.839465 0.750000 0.498348
O O17 0.826273 0.891863 0.578208
O O18 0.763726 0.468566 0.421694
O O19 0.500000 0.500000 0.000000
#
# Coordination Sequence:
#
# PCOD8073165 Si02
#       8
#     4   4   4   4   4   4   4   4
#     4  10  20  37  58  84 116 152 194 246 303 344
#     4  10  21  37  59  85 115 150 201 241 287 354
#     4  10  22  38  60  83 114 153 202 245 288 352
#     4  11  20  35  59  88 116 155 192 235 298 361
#     4  10  20  33  52  81 117 151 188 243 297 342
#     4  10  21  37  57  86 122 156 195 246 297 353
#     4  11  21  37  60  84 117 156 200 237 294 354
#     4  12  20  32  58  85 117 149 196 236 287 359
#
# _framework density 18.800612000000001
#
# number of rings (size 3 to 8) (size 9 to 14) (size 15 to 20)
#    0.000    1.500    5.000    1.875    1.750    0.500 
#    0.000    6.250    0.000    0.000    0.000    0.000 
#    0.000    0.000    0.000    0.000    0.000    0.000 
#
# Total GULP energy -396578.014378 kJ/mol
# GULP energy per Si atom -12393.062949 kJ/mol
# Density = 1.875782 g / cm^3
# Si number density = 18.800612 Si / 1000 Ang^3
#
#
#
# Elastic Constant Matrix: (Units=GPa)
#
#
# Indices 1 2 3 4 5 6 
#
# 1 97.2190 33.1593 18.6901 0.0000 9.5335 0.0000
# 2 33.1593 73.2607 41.6538 0.0000 6.1303 0.0000
# 3 18.6901 41.6538 109.5122 0.0000 3.1757 0.0000
# 4 0.0000 0.0000 0.0000 26.5285 0.0000 3.3053
# 5 9.5335 6.1303 3.1757 0.0000 34.5744 0.0000
# 6 0.0000 0.0000 0.0000 3.3053 0.0000 24.7927
#
#
#
# Elastic Compliance Matrix: (Units=1/GPa)
#
#
# Indices 1 2 3 4 5 6 
#
# 1 0.012366 -0.005400 0.000015 0.000000 -0.002454 0.000000
# 2 -0.005400 0.019990 -0.006640 0.000000 -0.001446 0.000000
# 3 0.000015 -0.006640 0.011651 0.000000 0.000103 0.000000
# 4 0.000000 0.000000 0.000000 0.038332 0.000000 -0.005110
# 5 -0.002454 -0.001446 0.000103 0.000000 0.029847 0.000000
# 6 0.000000 0.000000 0.000000 -0.005110 0.000000 0.041016
#
#
# Mechanical properties :
#
#
# Convention : Reuss Voigt Hill
#
# Bulk Modulus (GPa) = 50.10803 51.88870 50.99837
# Shear Modulus (GPa) = 27.18802 29.61170 28.39986
#
# Velocity S-wave (km/s) = 3.80692 3.97298 3.89084
# Velocity P-wave (km/s) = 6.78482 6.97893 6.88256
#
# Compressibility (1/GPa) = 0.01995688
#
# Stress axis : x y z
#
# Youngs Moduli (GPa) = 80.86909 50.02442 85.82622
#
# Poissons Ratio (x) = 0.27013 -0.00126
# Poissons Ratio (y) = 0.43669 0.56988
# Poissons Ratio (z) = -0.00119 0.33216
#
# Static dielectric constant tensor:
#      x y z
#    x 3.863040 0.000000 -0.047370 
#    y 0.000000 3.315010 0.000000 
#    z -0.047370 0.000000 4.002110 
# 
# 
# High freq. dielectric constant tensor:
#      x y z
#    x 1.732180 0.000000 0.002860 
#    y 0.000000 1.702390 0.000000 
#    z 0.002860 0.000000 1.743630 
# 
# From -- ./inp_files/41875.got.cif
#   From: 2010.06.25/outbox.cif.g09.slc.cpg/sg11_21_cif.got.tgz:41875.got - 2010.06.27 23:14:04.
