data_PCOD8073038
_publ_section_title
;
Structure prediction by ZEFSAII (Michael W. Deem and Ramdas Pophale) SiO2 
 PCOD8073038
Probable space group: P 21/M
;
_chemical_formula_sum "Si O2"
_cell_formula_units_Z 32
_cell_length_a 30.784761
_cell_length_b 8.653080
_cell_length_c 15.032249
_cell_angle_alpha 90.000000
_cell_angle_beta 151.173723
_cell_angle_gamma 90.000000
_cell_volume 1930.712486
_symmetry_space_group_name_H-M "P 21/M"
_symmetry_group_IT_number 11
_symmetry_cell_setting 'monoclinic'
loop_
_space_group_symop_operation_xyz
x,y,z
-x,1/2+y,-z
-x,-y,-z
x,1/2-y,z
loop_
_atom_site_type_symbol
_atom_site_label
_atom_site_fract_x
_atom_site_fract_y
_atom_site_fract_z
Si Si1 0.700485 0.432958 0.321469
Si Si2 0.377609 0.568121 0.631175
Si Si3 0.260342 0.070909 0.265730
Si Si4 0.626512 0.429017 0.677669
Si Si5 0.086616 0.069792 0.053782
Si Si6 0.568615 0.068029 0.933216
Si Si7 0.889017 0.067929 0.714518
Si Si8 0.432838 0.429275 0.254076
O O1 0.702598 0.250000 0.324056
O O2 0.649274 0.487967 0.318586
O O3 0.803391 0.499350 0.506010
O O4 0.648107 0.492291 0.140582
O O5 0.362473 0.750000 0.589216
O O6 0.317261 0.476291 0.453345
O O7 0.481150 0.528470 0.801928
O O8 0.278161 0.250000 0.278005
O O9 0.154522 0.037122 0.094180
O O10 0.287849 0.974348 0.228186
O O11 0.629803 0.250000 0.708494
O O12 0.536774 0.469772 0.461223
O O13 0.629207 0.525277 0.773677
O O14 0.085072 0.250000 0.075727
O O15 0.121836 0.980080 0.202774
O O16 0.985227 0.011768 0.846800
O O17 0.550315 0.250000 0.911225
O O18 0.598165 0.029674 0.885794
O O19 0.883504 0.250000 0.701314
O O20 0.419968 0.250000 0.209341
#
# Coordination Sequence:
#
# PCOD8073038 Si02
#       8
#     4   4   4   4   4   4   4   4
#     4   9  19  32  48  68  93 130 170 201 234 276
#     4  11  20  32  46  66  95 131 170 200 231 274
#     4  11  20  30  46  72 101 128 157 194 239 285
#     4  10  20  33  51  71  94 124 158 193 237 288
#     4   9  18  29  46  71  96 123 158 197 241 283
#     4  11  21  33  48  68  95 129 166 201 236 277
#     4   9  16  31  49  66  93 127 161 199 237 279
#     4  10  20  34  50  70  95 123 157 196 239 283
#
# _framework density 16.574193000000001
#
# number of rings (size 3 to 8) (size 9 to 14) (size 15 to 20)
#    0.000    2.000    2.500    2.250    0.000    1.500 
#    0.000    3.125    0.000    0.000    0.000    0.875 
#    0.000    0.000    0.000    0.000    0.000    0.000 
#
# Total GULP energy -396760.607148 kJ/mol
# GULP energy per Si atom -12398.768973 kJ/mol
# Density = 1.653647 g / cm^3
# Si number density = 16.574193 Si / 1000 Ang^3
#
#
#
# Elastic Constant Matrix: (Units=GPa)
#
#
# Indices 1 2 3 4 5 6 
#
# 1 104.2145 13.5690 47.8741 0.0000 4.1425 0.0000
# 2 13.5690 23.4897 8.3632 0.0000 1.1649 0.0000
# 3 47.8741 8.3632 84.9577 0.0000 5.5726 0.0000
# 4 0.0000 0.0000 0.0000 13.4766 0.0000 -2.3210
# 5 4.1425 1.1649 5.5726 0.0000 21.5346 0.0000
# 6 0.0000 0.0000 0.0000 -2.3210 0.0000 25.4493
#
#
#
# Elastic Compliance Matrix: (Units=1/GPa)
#
#
# Indices 1 2 3 4 5 6 
#
# 1 0.013559 -0.005285 -0.007089 0.000000 -0.000488 0.000000
# 2 -0.005285 0.046213 -0.001499 0.000000 -0.001095 0.000000
# 3 -0.007089 -0.001499 0.016091 0.000000 -0.002719 0.000000
# 4 0.000000 0.000000 0.000000 0.075387 0.000000 0.006875
# 5 -0.000488 -0.001095 -0.002719 0.000000 0.047294 0.000000
# 6 0.000000 0.000000 0.000000 0.006875 0.000000 0.039921
#
#
# Mechanical properties :
#
#
# Convention : Reuss Voigt Hill
#
# Bulk Modulus (GPa) = 20.78230 39.14162 29.96196
# Shear Modulus (GPa) = 17.71486 21.61581 19.66534
#
# Velocity S-wave (km/s) = 3.27283 3.61527 3.44830
# Velocity P-wave (km/s) = 5.18151 6.41047 5.82847
#
# Compressibility (1/GPa) = 0.04811786
#
# Stress axis : x y z
#
# Youngs Moduli (GPa) = 73.74945 21.63907 62.14673
#
# Poissons Ratio (x) = 0.11436 0.44053
# Poissons Ratio (y) = 0.38974 0.09318
# Poissons Ratio (z) = 0.52278 0.03244
#
# Static dielectric constant tensor:
#      x y z
#    x 3.171480 0.000000 0.176040 
#    y 0.000000 3.070660 0.000000 
#    z 0.176040 0.000000 3.533130 
# 
# 
# High freq. dielectric constant tensor:
#      x y z
#    x 1.631500 0.000000 0.010760 
#    y 0.000000 1.638280 0.000000 
#    z 0.010760 0.000000 1.615900 
# 
# From -- ./inp_files/51337.got.cif
#   From: 2010.06.25/outbox.cif.g09.slc.cpg/sg11_26_cif.got.tgz:51337.got - 2010.06.27 23:14:04.
