data_PCOD8073431
_publ_section_title
;
Structure prediction by ZEFSAII (Michael W. Deem and Ramdas Pophale) SiO2 
 PCOD8073431
Probable space group: P 21/M
;
_chemical_formula_sum "Si O2"
_cell_formula_units_Z 28
_cell_length_a 14.303391
_cell_length_b 9.184175
_cell_length_c 13.161710
_cell_angle_alpha 90.000000
_cell_angle_beta 122.913301
_cell_angle_gamma 90.000000
_cell_volume 1451.472940
_symmetry_space_group_name_H-M "P 21/M"
_symmetry_group_IT_number 11
_symmetry_cell_setting 'monoclinic'
loop_
_space_group_symop_operation_xyz
x,y,z
-x,1/2+y,-z
-x,-y,-z
x,1/2-y,z
loop_
_atom_site_type_symbol
_atom_site_label
_atom_site_fract_x
_atom_site_fract_y
_atom_site_fract_z
Si Si1 0.049336 0.578318 0.287439
Si Si2 0.373935 0.418367 0.565199
Si Si3 0.401932 0.920127 0.999999
Si Si4 0.191264 0.581632 0.565200
Si Si5 0.238104 0.078319 0.287439
Si Si6 0.385556 0.579856 0.223913
Si Si7 0.161643 0.579855 0.776088
O O1 0.047299 0.750000 0.265445
O O2 0.099748 0.538508 0.427456
O O3 0.121531 0.499999 0.243062
O O4 0.925277 0.513901 0.209660
O O5 0.356281 0.250000 0.577683
O O6 0.306824 0.500002 0.613646
O O7 0.327707 0.461491 0.427455
O O8 0.503127 0.460934 0.648109
O O9 0.423222 0.750000 0.999992
O O10 0.284627 0.966373 0.882415
O O11 0.402217 0.966366 0.117588
O O12 0.500000 0.000000 0.000000
O O13 0.221398 0.750000 0.577683
O O14 0.144985 0.539062 0.648111
O O15 0.218148 0.250000 0.265445
O O16 0.284384 0.013903 0.209660
O O17 0.355964 0.750000 0.216490
O O18 0.139478 0.750000 0.783511
#
# Coordination Sequence:
#
# PCOD8073431 Si02
#       7
#     4   4   4   4   4   4   4
#     4  10  20  34  53  78 105 136 172 213 260 310
#     4   9  18  31  50  77 108 138 170 210 258 308
#     4  10  22  38  57  80 107 138 173 212 254 300
#     4   9  18  31  50  77 108 138 170 210 258 308
#     4  10  20  34  53  78 105 136 172 213 260 310
#     4  10  20  35  53  76 106 139 174 214 256 302
#     4  10  20  35  53  76 106 139 174 214 256 302
#
# _framework density 19.290749000000002
#
# number of rings (size 3 to 8) (size 9 to 14) (size 15 to 20)
#    0.000    2.286    0.000    2.571    0.000    3.429 
#    0.000    0.714    0.000    0.000    0.000    0.000 
#    0.000    0.000    0.000    0.000    0.000    0.000 
#
# Total GULP energy -347297.336672 kJ/mol
# GULP energy per Si atom -12403.476310 kJ/mol
# Density = 1.924684 g / cm^3
# Si number density = 19.290749 Si / 1000 Ang^3
#
#
#
# Elastic Constant Matrix: (Units=GPa)
#
#
# Indices 1 2 3 4 5 6 
#
# 1 175.8649 80.0135 55.2962 0.0000 -5.3029 0.0000
# 2 80.0135 77.2093 33.1774 0.0000 -3.2112 0.0000
# 3 55.2962 33.1774 61.5163 0.0000 -2.5316 0.0000
# 4 0.0000 0.0000 0.0000 19.6104 0.0000 -1.7362
# 5 -5.3029 -3.2112 -2.5316 0.0000 21.7869 0.0000
# 6 0.0000 0.0000 0.0000 -1.7362 0.0000 44.9355
#
#
#
# Elastic Compliance Matrix: (Units=1/GPa)
#
#
# Indices 1 2 3 4 5 6 
#
# 1 0.011963 -0.010097 -0.005274 0.000000 0.000811 0.000000
# 2 -0.010097 0.025426 -0.004606 0.000000 0.000755 0.000000
# 3 -0.005274 -0.004606 0.023512 0.000000 0.000770 0.000000
# 4 0.000000 0.000000 0.000000 0.051168 0.000000 0.001977
# 5 0.000811 0.000755 0.000770 0.000000 0.046297 0.000000
# 6 0.000000 0.000000 0.000000 0.001977 0.000000 0.022331
#
#
# Mechanical properties :
#
#
# Convention : Reuss Voigt Hill
#
# Bulk Modulus (GPa) = 47.73894 72.39607 60.06750
# Shear Modulus (GPa) = 21.96501 27.00679 24.48590
#
# Velocity S-wave (km/s) = 3.37802 3.74570 3.56660
# Velocity P-wave (km/s) = 6.32578 7.50449 6.94020
#
# Compressibility (1/GPa) = 0.02094726
#
# Stress axis : x y z
#
# Youngs Moduli (GPa) = 83.59096 39.32917 42.53074
#
# Poissons Ratio (x) = 0.39712 0.22432
# Poissons Ratio (y) = 0.84405 0.19588
# Poissons Ratio (z) = 0.44088 0.18114
#
# Static dielectric constant tensor:
#      x y z
#    x 3.479150 0.000000 -0.000300 
#    y 0.000000 3.415970 0.000000 
#    z -0.000300 0.000000 3.474610 
# 
# 
# High freq. dielectric constant tensor:
#      x y z
#    x 1.758340 0.000000 -0.001650 
#    y 0.000000 1.747250 0.000000 
#    z -0.001650 0.000000 1.734200 
# 
# From -- ./inp_files/38402.got.cif
#   From: 2010.06.25/outbox.cif.g09.slc.cpg/sg11_20_cif.got.tgz:38402.got - 2010.06.27 23:14:04.
