data_PCOD8073438
_publ_section_title
;
Structure prediction by ZEFSAII (Michael W. Deem and Ramdas Pophale) SiO2 
 PCOD8073438
Probable space group: P 21/M
;
_chemical_formula_sum "Si O2"
_cell_formula_units_Z 24
_cell_length_a 15.839327
_cell_length_b 8.959812
_cell_length_c 15.778657
_cell_angle_alpha 90.000000
_cell_angle_beta 36.060178
_cell_angle_gamma 90.000000
_cell_volume 1318.109453
_symmetry_space_group_name_H-M "P 21/M"
_symmetry_group_IT_number 11
_symmetry_cell_setting 'monoclinic'
loop_
_space_group_symop_operation_xyz
x,y,z
-x,1/2+y,-z
-x,-y,-z
x,1/2-y,z
loop_
_atom_site_type_symbol
_atom_site_label
_atom_site_fract_x
_atom_site_fract_y
_atom_site_fract_z
Si Si1 0.530053 0.077911 0.723360
Si Si2 0.818606 0.077632 0.581204
Si Si3 0.218596 0.076090 0.039116
Si Si4 0.871820 0.425833 0.053498
Si Si5 0.557205 0.075330 0.369607
Si Si6 0.095113 0.923030 0.300768
O O1 0.536901 0.250000 0.690316
O O2 0.661479 0.033056 0.676744
O O3 0.537469 0.981040 0.632227
O O4 0.386692 0.042722 0.891937
O O5 0.855500 0.250000 0.532531
O O6 0.823968 0.045092 0.676782
O O7 0.930947 0.975737 0.439840
O O8 0.182571 0.250000 0.060404
O O9 0.177219 0.018148 0.164561
O O10 0.127382 0.989872 0.042139
O O11 0.895701 0.250000 0.029735
O O12 0.723372 0.467873 0.220604
O O13 0.000000 0.500000 0.000000
O O14 0.535973 0.250000 0.395556
O O15 0.500000 0.000000 0.500000
O O16 0.098367 0.750000 0.273163
#
# Coordination Sequence:
#
# PCOD8073438 Si02
#       6
#     4   4   4   4   4   4
#     4   9  19  36  56  77 103 136 174 215 259 307
#     4   9  19  36  55  76 105 139 175 216 260 307
#     4  10  20  35  55  78 105 138 174 214 261 310
#     4  10  21  37  56  79 106 137 174 215 259 308
#     4  10  21  36  55  79 106 136 171 212 258 308
#     4  10  20  34  53  78 107 139 175 215 259 308
#
# _framework density 18.207896000000002
#
# number of rings (size 3 to 8) (size 9 to 14) (size 15 to 20)
#    0.000    2.333    0.000    2.000    0.000    6.000 
#    0.000    1.667    0.000    0.000    0.000    0.000 
#    0.000    0.000    0.000    0.000    0.000    0.000 
#
# Total GULP energy -297700.436729 kJ/mol
# GULP energy per Si atom -12404.184864 kJ/mol
# Density = 1.816645 g / cm^3
# Si number density = 18.207896 Si / 1000 Ang^3
#
#
#
# Elastic Constant Matrix: (Units=GPa)
#
#
# Indices 1 2 3 4 5 6 
#
# 1 140.1241 56.1496 70.2876 0.0000 -11.1432 0.0000
# 2 56.1496 81.2000 51.1731 0.0000 3.5848 0.0000
# 3 70.2876 51.1731 100.8319 0.0000 15.3030 0.0000
# 4 0.0000 0.0000 0.0000 34.6344 0.0000 4.8096
# 5 -11.1432 3.5848 15.3030 0.0000 29.4492 0.0000
# 6 0.0000 0.0000 0.0000 4.8096 0.0000 33.9441
#
#
#
# Elastic Compliance Matrix: (Units=1/GPa)
#
#
# Indices 1 2 3 4 5 6 
#
# 1 0.014657 -0.004596 -0.009566 0.000000 0.011076 0.000000
# 2 -0.004596 0.019761 -0.006727 0.000000 -0.000649 0.000000
# 3 -0.009566 -0.006727 0.022173 0.000000 -0.014323 0.000000
# 4 0.000000 0.000000 0.000000 0.029453 0.000000 -0.004173
# 5 0.011076 -0.000649 -0.014323 0.000000 0.045670 0.000000
# 6 0.000000 0.000000 0.000000 -0.004173 0.000000 0.030051
#
#
# Mechanical properties :
#
#
# Convention : Reuss Voigt Hill
#
# Bulk Modulus (GPa) = 67.50040 75.26408 71.38224
# Shear Modulus (GPa) = 23.98296 29.24192 26.61244
#
# Velocity S-wave (km/s) = 3.63323 4.01184 3.82722
# Velocity P-wave (km/s) = 7.39952 7.93004 7.66937
#
# Compressibility (1/GPa) = 0.01481473
#
# Stress axis : x y z
#
# Youngs Moduli (GPa) = 68.22498 50.60383 45.09936
#
# Poissons Ratio (x) = 0.23258 0.43141
# Poissons Ratio (y) = 0.31357 0.30337
# Poissons Ratio (z) = 0.65263 0.34040
#
# Static dielectric constant tensor:
#      x y z
#    x 3.468770 0.000000 0.007510 
#    y 0.000000 3.486520 0.000000 
#    z 0.007510 0.000000 3.342700 
# 
# 
# High freq. dielectric constant tensor:
#      x y z
#    x 1.709680 0.000000 0.002100 
#    y 0.000000 1.716590 0.000000 
#    z 0.002100 0.000000 1.703960 
# 
# From -- ./inp_files/25719.got.cif
#   From: 2010.06.25/outbox.cif.g09.slc.cpg/sg11_13_cif.got.tgz:25719.got - 2010.06.27 23:14:04.
