data_PCOD8073027
_publ_section_title
;
Structure prediction by ZEFSAII (Michael W. Deem and Ramdas Pophale) SiO2 
 PCOD8073027
Probable space group: P 21/M
;
_chemical_formula_sum "Si O2"
_cell_formula_units_Z 32
_cell_length_a 21.704104
_cell_length_b 9.277667
_cell_length_c 27.662301
_cell_angle_alpha 90.000000
_cell_angle_beta 18.962930
_cell_angle_gamma 90.000000
_cell_volume 1810.064130
_symmetry_space_group_name_H-M "P 21/M"
_symmetry_group_IT_number 11
_symmetry_cell_setting 'monoclinic'
loop_
_space_group_symop_operation_xyz
x,y,z
-x,1/2+y,-z
-x,-y,-z
x,1/2-y,z
loop_
_atom_site_type_symbol
_atom_site_label
_atom_site_fract_x
_atom_site_fract_y
_atom_site_fract_z
Si Si1 0.026343 0.913550 0.809765
Si Si2 0.007881 0.581625 0.068435
Si Si3 0.287210 0.082661 0.034664
Si Si4 0.019596 0.580530 0.302612
Si Si5 0.285068 0.917083 0.529041
Si Si6 0.714061 0.418520 0.703180
Si Si7 0.280601 0.417259 0.801201
Si Si8 0.009394 0.083351 0.564913
O O1 0.034473 0.750000 0.823178
O O2 0.202038 0.945434 0.643906
O O3 0.829867 0.941552 0.927580
O O4 0.044313 0.022509 0.840464
O O5 0.047955 0.750000 0.042524
O O6 0.831792 0.545663 0.164285
O O7 0.197661 0.506624 0.907601
O O8 0.281439 0.250000 0.054467
O O9 0.199318 0.990090 0.143120
O O10 0.499581 0.026950 0.868441
O O11 0.017928 0.750000 0.293413
O O12 0.041078 0.544287 0.342962
O O13 0.823072 0.513274 0.429892
O O14 0.256854 0.750000 0.535821
O O15 0.503346 0.963619 0.367290
O O16 0.718707 0.250000 0.688953
O O17 0.828080 0.459595 0.667109
O O18 0.805730 0.495948 0.588968
O O19 0.261942 0.250000 0.828375
O O20 0.060128 0.250000 0.521177
#
# Coordination Sequence:
#
# PCOD8073027 Si02
#       8
#     4   4   4   4   4   4   4   4
#     4   9  18  33  51  72  99 129 162 204 248 287
#     4  10  20  33  51  76 102 129 163 201 244 295
#     4   9  19  35  53  73  98 131 171 206 237 287
#     4  10  20  33  50  75 105 131 158 201 254 297
#     4   9  19  36  55  73  96 130 170 205 239 288
#     4   9  18  34  54  73  96 131 172 206 239 289
#     4   9  19  36  54  72  98 131 166 204 243 286
#     4   9  19  34  50  73 104 131 160 205 254 293
#
# _framework density 17.678930999999999
#
# number of rings (size 3 to 8) (size 9 to 14) (size 15 to 20)
#    0.000    2.750    0.000    1.500    0.000    6.500 
#    0.000    3.750    0.000    0.000    0.000    0.000 
#    0.000    0.000    0.000    0.000    0.000    0.000 
#
# Total GULP energy -396888.515881 kJ/mol
# GULP energy per Si atom -12402.766121 kJ/mol
# Density = 1.763869 g / cm^3
# Si number density = 17.678931 Si / 1000 Ang^3
#
#
#
# Elastic Constant Matrix: (Units=GPa)
#
#
# Indices 1 2 3 4 5 6 
#
# 1 50.5034 28.9927 14.5931 0.0000 9.4262 0.0000
# 2 28.9927 58.8740 31.7809 0.0000 5.1136 0.0000
# 3 14.5931 31.7809 107.4962 0.0000 -12.9349 0.0000
# 4 0.0000 0.0000 0.0000 29.7997 0.0000 6.1970
# 5 9.4262 5.1136 -12.9349 0.0000 20.4199 0.0000
# 6 0.0000 0.0000 0.0000 6.1970 0.0000 31.4927
#
#
#
# Elastic Compliance Matrix: (Units=1/GPa)
#
#
# Indices 1 2 3 4 5 6 
#
# 1 0.029769 -0.012752 -0.001668 0.000000 -0.011605 0.000000
# 2 -0.012752 0.027565 -0.007080 0.000000 -0.005501 0.000000
# 3 -0.001668 -0.007080 0.012913 0.000000 0.010722 0.000000
# 4 0.000000 0.000000 0.000000 0.034989 0.000000 -0.006885
# 5 -0.011605 -0.005501 0.010722 0.000000 0.062499 0.000000
# 6 0.000000 0.000000 0.000000 -0.006885 0.000000 0.033108
#
#
# Mechanical properties :
#
#
# Convention : Reuss Voigt Hill
#
# Bulk Modulus (GPa) = 36.70130 40.84522 38.77326
# Shear Modulus (GPa) = 19.76879 25.77625 22.77252
#
# Velocity S-wave (km/s) = 3.34760 3.82255 3.59293
# Velocity P-wave (km/s) = 5.97887 6.52967 6.26033
#
# Compressibility (1/GPa) = 0.02724699
#
# Stress axis : x y z
#
# Youngs Moduli (GPa) = 33.59211 36.27805 77.44409
#
# Poissons Ratio (x) = 0.46260 0.12915
# Poissons Ratio (y) = 0.42835 0.54833
# Poissons Ratio (z) = 0.05602 0.25686
#
# Static dielectric constant tensor:
#      x y z
#    x 3.208140 0.000000 -0.050140 
#    y 0.000000 3.254440 0.000000 
#    z -0.050140 0.000000 3.385450 
# 
# 
# High freq. dielectric constant tensor:
#      x y z
#    x 1.679120 0.000000 0.001230 
#    y 0.000000 1.683640 0.000000 
#    z 0.001230 0.000000 1.688100 
# 
# From -- ./inp_files/71986.got.cif
#   From: 2010.06.25/outbox.cif.g09.slc.cpg/sg11_36_cif.got.tgz:71986.got - 2010.06.27 23:14:04.
