data_PCOD8073292
_publ_section_title
;
Structure prediction by ZEFSAII (Michael W. Deem and Ramdas Pophale) SiO2 
 PCOD8073292
Probable space group: P 21/M
;
_chemical_formula_sum "Si O2"
_cell_formula_units_Z 28
_cell_length_a 13.933263
_cell_length_b 8.549204
_cell_length_c 16.348195
_cell_angle_alpha 90.000000
_cell_angle_beta 131.055240
_cell_angle_gamma 90.000000
_cell_volume 1468.465853
_symmetry_space_group_name_H-M "P 21/M"
_symmetry_group_IT_number 11
_symmetry_cell_setting 'monoclinic'
loop_
_space_group_symop_operation_xyz
x,y,z
-x,1/2+y,-z
-x,-y,-z
x,1/2-y,z
loop_
_atom_site_type_symbol
_atom_site_label
_atom_site_fract_x
_atom_site_fract_y
_atom_site_fract_z
Si Si1 0.440594 0.566282 0.658606
Si Si2 0.755624 0.935349 0.564702
Si Si3 0.333866 0.567062 0.318415
Si Si4 0.497948 0.564966 0.872305
Si Si5 0.696720 0.064400 0.100240
Si Si6 0.974590 0.070750 0.236172
Si Si7 0.077688 0.430499 0.117314
O O1 0.415887 0.750000 0.647012
O O2 0.309915 0.482425 0.557057
O O3 0.551607 0.526846 0.657978
O O4 0.474701 0.501928 0.767823
O O5 0.754940 0.750000 0.579107
O O6 0.901708 0.000159 0.647849
O O7 0.676546 0.014173 0.593620
O O8 0.363930 0.750000 0.330788
O O9 0.206453 0.528594 0.197433
O O10 0.509163 0.750000 0.879623
O O11 0.381035 0.507328 0.863782
O O12 0.629648 0.495924 0.980053
O O13 0.702223 0.250000 0.097524
O O14 0.839881 0.992016 0.186005
O O15 0.966273 0.250000 0.257008
O O16 0.991375 0.049802 0.148859
O O17 0.113211 0.250000 0.121803
O O18 0.000000 0.500000 0.000000
#
# Coordination Sequence:
#
# PCOD8073292 Si02
#       7
#     4   4   4   4   4   4   4
#     4  11  22  36  53  77 110 143 179 222 269 319
#     4  10  20  37  56  78 107 140 180 222 266 321
#     4  11  22  36  54  77 105 144 184 220 269 319
#     4   9  20  35  53  80 109 137 172 220 270 314
#     4   9  17  35  59  79 104 138 175 216 266 323
#     4   8  17  33  55  77 101 137 176 215 263 315
#     4  10  20  34  50  77 112 144 179 221 263 316
#
# _framework density 19.067519000000001
#
# number of rings (size 3 to 8) (size 9 to 14) (size 15 to 20)
#    0.000    2.286    0.000    3.857    2.000    1.143 
#    0.000    4.286    0.000    0.000    0.000    0.000 
#    0.000    0.000    0.000    0.000    0.000    0.000 
#
# Total GULP energy -347173.620959 kJ/mol
# GULP energy per Si atom -12399.057891 kJ/mol
# Density = 1.902412 g / cm^3
# Si number density = 19.067519 Si / 1000 Ang^3
#
#
#
# Elastic Constant Matrix: (Units=GPa)
#
#
# Indices 1 2 3 4 5 6 
#
# 1 103.1592 8.6317 61.1067 0.0000 22.4216 0.0000
# 2 8.6317 34.3265 13.5563 0.0000 -3.1728 0.0000
# 3 61.1067 13.5563 138.9734 0.0000 8.6750 0.0000
# 4 0.0000 0.0000 0.0000 32.3366 0.0000 2.1326
# 5 22.4216 -3.1728 8.6750 0.0000 21.1731 0.0000
# 6 0.0000 0.0000 0.0000 2.1326 0.0000 18.4598
#
#
#
# Elastic Compliance Matrix: (Units=1/GPa)
#
#
# Indices 1 2 3 4 5 6 
#
# 1 0.017159 -0.003353 -0.006211 0.000000 -0.016128 0.000000
# 2 -0.003353 0.031690 -0.002191 0.000000 0.009197 0.000000
# 3 -0.006211 -0.002191 0.010006 0.000000 0.002149 0.000000
# 4 0.000000 0.000000 0.000000 0.031162 0.000000 -0.003600
# 5 -0.016128 0.009197 0.002149 0.000000 0.064807 0.000000
# 6 0.000000 0.000000 0.000000 -0.003600 0.000000 0.054588
#
#
# Mechanical properties :
#
#
# Convention : Reuss Voigt Hill
#
# Bulk Modulus (GPa) = 28.29181 49.22761 38.75971
# Shear Modulus (GPa) = 20.43287 27.27152 23.85220
#
# Velocity S-wave (km/s) = 3.27709 3.78598 3.54069
# Velocity P-wave (km/s) = 5.40269 6.70709 6.08991
#
# Compressibility (1/GPa) = 0.03534592
#
# Stress axis : x y z
#
# Youngs Moduli (GPa) = 58.27897 31.55521 99.93826
#
# Poissons Ratio (x) = 0.10579 0.62071
# Poissons Ratio (y) = 0.19539 0.21899
# Poissons Ratio (z) = 0.36197 0.06914
#
# Static dielectric constant tensor:
#      x y z
#    x 3.646710 0.000000 0.200780 
#    y 0.000000 3.356790 0.000000 
#    z 0.200780 0.000000 3.718310 
# 
# 
# High freq. dielectric constant tensor:
#      x y z
#    x 1.732300 0.000000 0.015140 
#    y 0.000000 1.728970 0.000000 
#    z 0.015140 0.000000 1.749940 
# 
# From -- ./inp_files/49035.got.cif
#   From: 2010.06.25/outbox.cif.g09.slc.cpg/sg11_25_cif.got.tgz:49035.got - 2010.06.27 23:14:04.
