data_PCOD8073399
_publ_section_title
;
Structure prediction by ZEFSAII (Michael W. Deem and Ramdas Pophale) SiO2 
 PCOD8073399
Probable space group: P 21/M
;
_chemical_formula_sum "Si O2"
_cell_formula_units_Z 32
_cell_length_a 20.039553
_cell_length_b 8.958126
_cell_length_c 11.978479
_cell_angle_alpha 90.000000
_cell_angle_beta 57.545759
_cell_angle_gamma 90.000000
_cell_volume 1814.499428
_symmetry_space_group_name_H-M "P 21/M"
_symmetry_group_IT_number 11
_symmetry_cell_setting 'monoclinic'
loop_
_space_group_symop_operation_xyz
x,y,z
-x,1/2+y,-z
-x,-y,-z
x,1/2-y,z
loop_
_atom_site_type_symbol
_atom_site_label
_atom_site_fract_x
_atom_site_fract_y
_atom_site_fract_z
Si Si1 0.722223 0.925206 0.026346
Si Si2 0.769495 0.922715 0.602513
Si Si3 0.404799 0.075272 0.192695
Si Si4 0.121154 0.423219 0.697843
Si Si5 0.847176 0.925165 0.086308
Si Si6 0.442201 0.422860 0.909041
Si Si7 0.165174 0.927011 0.246837
Si Si8 0.038943 0.073163 0.212106
O O1 0.737706 0.750000 0.987716
O O2 0.763351 0.973822 0.105988
O O3 0.628408 0.959333 0.115125
O O4 0.760280 0.016685 0.891226
O O5 0.772867 0.750000 0.638141
O O6 0.679061 0.981528 0.684469
O O7 0.802143 0.942994 0.448348
O O8 0.823178 0.020460 0.636739
O O9 0.411579 0.250000 0.200190
O O10 0.477363 0.006071 0.198555
O O11 0.412249 0.023813 0.057539
O O12 0.095922 0.250000 0.728854
O O13 0.142233 0.494568 0.800117
O O14 0.050045 0.515947 0.708536
O O15 0.847776 0.750000 0.101042
O O16 0.918477 0.976239 0.941593
O O17 0.462576 0.250000 0.892290
O O18 0.159021 0.750000 0.246616
O O19 0.083843 0.997731 0.275167
O O20 0.041471 0.250000 0.225858
#
# Coordination Sequence:
#
# PCOD8073399 Si02
#       8
#     4   4   4   4   4   4   4   4
#     4   9  16  31  52  74 103 131 158 198 252 296
#     4  10  20  35  51  68 100 138 163 197 245 295
#     4   9  17  29  45  68  98 130 162 194 237 289
#     4  10  20  34  53  75  96 125 170 208 240 287
#     4   8  16  31  53  77  97 124 162 205 245 288
#     4   9  16  27  47  72  98 127 160 196 238 289
#     4  11  21  32  50  75 100 127 165 205 242 290
#     4  10  20  35  54  73 100 130 158 201 255 295
#
# _framework density 17.635718000000001
#
# number of rings (size 3 to 8) (size 9 to 14) (size 15 to 20)
#    0.000    2.500    1.250    2.625    0.000    2.000 
#    0.000    2.500    0.000    0.750    0.000    0.000 
#    0.000    0.000    0.000    0.000    0.000    0.000 
#
# Total GULP energy -396736.522263 kJ/mol
# GULP energy per Si atom -12398.016321 kJ/mol
# Density = 1.759558 g / cm^3
# Si number density = 17.635718 Si / 1000 Ang^3
#
#
#
# Elastic Constant Matrix: (Units=GPa)
#
#
# Indices 1 2 3 4 5 6 
#
# 1 115.8696 34.1821 46.9865 0.0000 -22.1240 0.0000
# 2 34.1821 58.2668 26.0762 0.0000 -4.6340 0.0000
# 3 46.9865 26.0762 72.1762 0.0000 -10.9434 0.0000
# 4 0.0000 0.0000 0.0000 15.4683 0.0000 -5.6538
# 5 -22.1240 -4.6340 -10.9434 0.0000 23.4814 0.0000
# 6 0.0000 0.0000 0.0000 -5.6538 0.0000 27.3712
#
#
#
# Elastic Compliance Matrix: (Units=1/GPa)
#
#
# Indices 1 2 3 4 5 6 
#
# 1 0.014444 -0.004952 -0.006132 0.000000 0.009774 0.000000
# 2 -0.004952 0.022179 -0.005201 0.000000 -0.002712 0.000000
# 3 -0.006132 -0.005201 0.020116 0.000000 0.002571 0.000000
# 4 0.000000 0.000000 0.000000 0.069928 0.000000 0.014444
# 5 0.009774 -0.002712 0.002571 0.000000 0.052459 0.000000
# 6 0.000000 0.000000 0.000000 0.014444 0.000000 0.039518
#
#
# Mechanical properties :
#
#
# Convention : Reuss Voigt Hill
#
# Bulk Modulus (GPa) = 41.37406 51.20025 46.28715
# Shear Modulus (GPa) = 19.28495 22.53537 20.91016
#
# Velocity S-wave (km/s) = 3.31042 3.57855 3.44709
# Velocity P-wave (km/s) = 6.17440 6.79484 6.49203
#
# Compressibility (1/GPa) = 0.02416974
#
# Stress axis : x y z
#
# Youngs Moduli (GPa) = 69.23242 45.08730 49.71265
#
# Poissons Ratio (x) = 0.22327 0.30484
# Poissons Ratio (y) = 0.34284 0.25853
# Poissons Ratio (z) = 0.42454 0.23448
#
# Static dielectric constant tensor:
#      x y z
#    x 3.543870 0.000000 -0.008570 
#    y 0.000000 3.100390 0.000000 
#    z -0.008570 0.000000 3.114820 
# 
# 
# High freq. dielectric constant tensor:
#      x y z
#    x 1.691630 0.000000 -0.009540 
#    y 0.000000 1.665930 0.000000 
#    z -0.009540 0.000000 1.650000 
# 
# From -- ./inp_files/42537.got.cif
#   From: 2010.06.25/outbox.cif.g09.slc.cpg/sg11_22_cif.got.tgz:42537.got - 2010.06.27 23:14:04.
