data_PCOD8073281
_publ_section_title
;
Structure prediction by ZEFSAII (Michael W. Deem and Ramdas Pophale) SiO2 
 PCOD8073281
Probable space group: P 21/M
;
_chemical_formula_sum "Si O2"
_cell_formula_units_Z 28
_cell_length_a 11.373932
_cell_length_b 8.909379
_cell_length_c 21.438703
_cell_angle_alpha 90.000000
_cell_angle_beta 130.019878
_cell_angle_gamma 90.000000
_cell_volume 1663.734651
_symmetry_space_group_name_H-M "P 21/M"
_symmetry_group_IT_number 11
_symmetry_cell_setting 'monoclinic'
loop_
_space_group_symop_operation_xyz
x,y,z
-x,1/2+y,-z
-x,-y,-z
x,1/2-y,z
loop_
_atom_site_type_symbol
_atom_site_label
_atom_site_fract_x
_atom_site_fract_y
_atom_site_fract_z
Si Si1 0.746050 0.078454 0.076797
Si Si2 0.837208 0.571504 0.430513
Si Si3 0.618817 0.076935 0.454136
Si Si4 0.757841 0.923875 0.268180
Si Si5 0.521081 0.576852 0.092118
Si Si6 0.686739 0.076062 0.619642
Si Si7 0.023561 0.072830 0.766237
O O1 0.794642 0.250000 0.100440
O O2 0.615015 0.037875 0.081682
O O3 0.900314 0.983286 0.142610
O O4 0.662961 0.048599 0.980627
O O5 0.852183 0.750000 0.436105
O O6 0.714888 0.523346 0.439934
O O7 0.780080 0.505841 0.344150
O O8 0.000000 0.500000 0.500000
O O9 0.627794 0.250000 0.437161
O O10 0.689339 0.051441 0.546443
O O11 0.442833 0.023705 0.391975
O O12 0.796417 0.750000 0.287717
O O13 0.581737 0.949628 0.183734
O O14 0.878358 0.992246 0.258869
O O15 0.559519 0.750000 0.085920
O O16 0.656422 0.250000 0.625270
O O17 0.848647 0.017577 0.701857
O O18 0.029326 0.250000 0.767765
#
# Coordination Sequence:
#
# PCOD8073281 Si02
#       7
#     4   4   4   4   4   4   4
#     4   9  15  22  37  62  88 112 142 181 221 260
#     4  11  21  33  49  68  92 121 154 187 221 264
#     4  10  20  34  50  68  91 117 149 189 229 264
#     4   8  15  28  45  63  86 121 155 179 211 262
#     4   8  14  26  40  55  82 118 150 178 214 261
#     4   9  18  33  51  68  88 119 154 184 219 268
#     4   9  16  28  45  64  90 120 148 178 216 264
#
# _framework density 16.829605999999998
#
# number of rings (size 3 to 8) (size 9 to 14) (size 15 to 20)
#    0.000    2.857    0.000    3.000    0.000    4.000 
#    0.000    8.571    0.000    0.000    0.000    1.000 
#    0.000    0.000    0.000    0.000    0.000    0.000 
#
# Total GULP energy -346915.777953 kJ/mol
# GULP energy per Si atom -12389.849213 kJ/mol
# Density = 1.679130 g / cm^3
# Si number density = 16.829606 Si / 1000 Ang^3
#
#
#
# Elastic Constant Matrix: (Units=GPa)
#
#
# Indices 1 2 3 4 5 6 
#
# 1 64.7463 25.6771 56.2453 0.0000 13.1937 0.0000
# 2 25.6771 42.4365 36.3694 0.0000 5.5883 0.0000
# 3 56.2453 36.3694 158.1866 0.0000 27.3448 0.0000
# 4 0.0000 0.0000 0.0000 25.5307 0.0000 5.0742
# 5 13.1937 5.5883 27.3448 0.0000 26.3720 0.0000
# 6 0.0000 0.0000 0.0000 5.0742 0.0000 22.3239
#
#
#
# Elastic Compliance Matrix: (Units=1/GPa)
#
#
# Indices 1 2 3 4 5 6 
#
# 1 0.025422 -0.009599 -0.006074 0.000000 -0.004386 0.000000
# 2 -0.009599 0.032991 -0.004622 0.000000 0.002604 0.000000
# 3 -0.006074 -0.004622 0.010782 0.000000 -0.007162 0.000000
# 4 0.000000 0.000000 0.000000 0.041022 0.000000 -0.009324
# 5 -0.004386 0.002604 -0.007162 0.000000 0.046987 0.000000
# 6 0.000000 0.000000 0.000000 -0.009324 0.000000 0.046914
#
#
# Mechanical properties :
#
#
# Convention : Reuss Voigt Hill
#
# Bulk Modulus (GPa) = 34.95912 55.77256 45.36584
# Shear Modulus (GPa) = 19.66618 24.65049 22.15833
#
# Velocity S-wave (km/s) = 3.42211 3.83130 3.63247
# Velocity P-wave (km/s) = 6.03589 7.26522 6.67890
#
# Compressibility (1/GPa) = 0.02860484
#
# Stress axis : x y z
#
# Youngs Moduli (GPa) = 39.33623 30.31120 92.74705
#
# Poissons Ratio (x) = 0.29095 0.56334
# Poissons Ratio (y) = 0.37758 0.42871
# Poissons Ratio (z) = 0.23892 0.14011
#
# Static dielectric constant tensor:
#      x y z
#    x 2.892820 0.000000 0.176720 
#    y 0.000000 3.067910 0.000000 
#    z 0.176720 0.000000 3.705710 
# 
# 
# High freq. dielectric constant tensor:
#      x y z
#    x 1.596150 0.000000 0.022380 
#    y 0.000000 1.641130 0.000000 
#    z 0.022380 0.000000 1.666880 
# 
# From -- ./inp_files/64267.got.cif
#   From: 2010.06.25/outbox.cif.g09.slc.cpg/sg11_33_cif.got.tgz:64267.got - 2010.06.27 23:14:04.
