data_PCOD8073542
_publ_section_title
;
Structure prediction by ZEFSAII (Michael W. Deem and Ramdas Pophale) SiO2 
 PCOD8073542
Probable space group: P 21/M
;
_chemical_formula_sum "Si O2"
_cell_formula_units_Z 28
_cell_length_a 28.924197
_cell_length_b 9.201004
_cell_length_c 9.027800
_cell_angle_alpha 90.000000
_cell_angle_beta 141.544193
_cell_angle_gamma 90.000000
_cell_volume 1494.192558
_symmetry_space_group_name_H-M "P 21/M"
_symmetry_group_IT_number 11
_symmetry_cell_setting 'monoclinic'
loop_
_space_group_symop_operation_xyz
x,y,z
-x,1/2+y,-z
-x,-y,-z
x,1/2-y,z
loop_
_atom_site_type_symbol
_atom_site_label
_atom_site_fract_x
_atom_site_fract_y
_atom_site_fract_z
Si Si1 0.148716 0.421711 0.194123
Si Si2 0.567462 0.421391 0.747472
Si Si3 0.007739 0.918426 0.866262
Si Si4 0.433725 0.580426 0.913740
Si Si5 0.156738 0.415201 0.557534
Si Si6 0.281917 0.581186 0.375974
Si Si7 0.715764 0.418465 0.962417
O O1 0.139307 0.250000 0.149763
O O2 0.160687 0.464958 0.395889
O O3 0.216880 0.478638 0.269834
O O4 0.074138 0.501286 0.944127
O O5 0.500000 0.500000 0.500000
O O6 0.558638 0.250000 0.701177
O O7 0.643738 0.479716 0.866724
O O8 0.568409 0.465518 0.920974
O O9 0.028441 0.750000 0.943684
O O10 0.926936 0.931778 0.585735
O O11 0.000000 0.000000 0.000000
O O12 0.447688 0.750000 0.928238
O O13 0.356228 0.533658 0.646713
O O14 0.500000 0.500000 0.000000
O O15 0.183703 0.250000 0.636281
O O16 0.209694 0.509813 0.791395
O O17 0.262414 0.750000 0.356840
O O18 0.294501 0.548922 0.235650
O O19 0.724346 0.250000 0.017723
#
# Coordination Sequence:
#
# PCOD8073542 Si02
#       7
#     4   4   4   4   4   4   4
#     4  10  20  34  54  81 108 139 180 223 268 320
#     4  10  21  37  57  82 108 139 177 217 263 316
#     4   9  17  31  52  79 109 140 177 222 268 318
#     4  10  21  37  58  82 109 141 178 218 266 319
#     4   9  19  34  53  79 108 137 174 218 265 315
#     4  10  21  37  55  77 106 141 179 222 268 316
#     4  10  21  36  55  78 105 139 180 220 264 316
#
# _framework density 18.739218000000001
#
# number of rings (size 3 to 8) (size 9 to 14) (size 15 to 20)
#    0.000    2.286    0.000    3.429    0.000    8.000 
#    0.000    0.714    0.000    0.000    0.000    0.000 
#    0.000    0.000    0.000    0.000    0.000    0.000 
#
# Total GULP energy -347200.567098 kJ/mol
# GULP energy per Si atom -12400.020254 kJ/mol
# Density = 1.869657 g / cm^3
# Si number density = 18.739218 Si / 1000 Ang^3
#
#
#
# Elastic Constant Matrix: (Units=GPa)
#
#
# Indices 1 2 3 4 5 6 
#
# 1 124.8923 57.5216 72.8789 0.0000 17.8004 0.0000
# 2 57.5216 78.6906 60.9799 0.0000 11.6303 0.0000
# 3 72.8789 60.9799 138.1545 0.0000 13.3674 0.0000
# 4 0.0000 0.0000 0.0000 36.3682 0.0000 5.9306
# 5 17.8004 11.6303 13.3674 0.0000 32.0302 0.0000
# 6 0.0000 0.0000 0.0000 5.9306 0.0000 33.8846
#
#
#
# Elastic Compliance Matrix: (Units=1/GPa)
#
#
# Indices 1 2 3 4 5 6 
#
# 1 0.013901 -0.006401 -0.004153 0.000000 -0.003668 0.000000
# 2 -0.006401 0.022669 -0.006437 0.000000 -0.001987 0.000000
# 3 -0.004153 -0.006437 0.012318 0.000000 -0.000496 0.000000
# 4 0.000000 0.000000 0.000000 0.028304 0.000000 -0.004954
# 5 -0.003668 -0.001987 -0.000496 0.000000 0.034187 0.000000
# 6 0.000000 0.000000 0.000000 -0.004954 0.000000 0.030379
#
#
# Mechanical properties :
#
#
# Convention : Reuss Voigt Hill
#
# Bulk Modulus (GPa) = 67.08448 80.49981 73.79215
# Shear Modulus (GPa) = 27.66867 30.48040 29.07453
#
# Velocity S-wave (km/s) = 3.84671 4.03743 3.94322
# Velocity P-wave (km/s) = 7.45696 8.04896 7.75861
#
# Compressibility (1/GPa) = 0.01490658
#
# Stress axis : x y z
#
# Youngs Moduli (GPa) = 71.93615 44.11291 81.18201
#
# Poissons Ratio (x) = 0.28238 0.33713
# Poissons Ratio (y) = 0.46049 0.52255
# Poissons Ratio (z) = 0.29873 0.28394
#
# Static dielectric constant tensor:
#      x y z
#    x 2.505120 0.000000 -0.220740 
#    y 0.000000 3.476750 0.000000 
#    z -0.220740 0.000000 3.437400 
# 
# 
# High freq. dielectric constant tensor:
#      x y z
#    x 1.727590 0.000000 0.016760 
#    y 0.000000 1.726890 0.000000 
#    z 0.016760 0.000000 1.731190 
# 
# From -- ./inp_files/28534.got.cif
#   From: 2010.06.25/outbox.cif.g09.slc.cpg/sg11_15_cif.got.tgz:28534.got - 2010.06.27 23:14:04.
