data_PCOD8073702
_publ_section_title
;
Structure prediction by ZEFSAII (Michael W. Deem and Ramdas Pophale) SiO2 
 PCOD8073702
Probable space group: P 21/M
;
_chemical_formula_sum "Si O2"
_cell_formula_units_Z 24
_cell_length_a 9.325918
_cell_length_b 9.167347
_cell_length_c 31.831562
_cell_angle_alpha 90.000000
_cell_angle_beta 28.124925
_cell_angle_gamma 90.000000
_cell_volume 1282.858398
_symmetry_space_group_name_H-M "P 21/M"
_symmetry_group_IT_number 11
_symmetry_cell_setting 'monoclinic'
loop_
_space_group_symop_operation_xyz
x,y,z
-x,1/2+y,-z
-x,-y,-z
x,1/2-y,z
loop_
_atom_site_type_symbol
_atom_site_label
_atom_site_fract_x
_atom_site_fract_y
_atom_site_fract_z
Si Si1 0.206217 0.581066 0.641515
Si Si2 0.355490 0.083668 0.156270
Si Si3 0.298814 0.919648 0.849804
Si Si4 0.395539 0.421803 0.985160
Si Si5 0.172906 0.919538 0.328254
Si Si6 0.871617 0.918783 0.493304
O O1 0.218499 0.750000 0.624642
O O2 0.536398 0.521003 0.568856
O O3 0.983247 0.559670 0.738690
O O4 0.090583 0.490962 0.631589
O O5 0.402462 0.250000 0.129043
O O6 0.599264 0.042891 0.129227
O O7 0.396706 0.976041 0.106717
O O8 0.354675 0.750000 0.825815
O O9 0.498793 0.009745 0.765033
O O10 0.951257 0.965870 0.934408
O O11 0.436962 0.250000 0.979557
O O12 0.500000 0.500000 0.000000
O O13 0.186866 0.750000 0.313294
O O14 0.097545 0.946358 0.396271
O O15 0.846999 0.750000 0.511258
O O16 0.000000 0.000000 0.500000
#
# Coordination Sequence:
#
# PCOD8073702 Si02
#       6
#     4   4   4   4   4   4
#     4   9  19  37  58  79 107 143 178 214 264 323
#     4   9  18  35  58  81 104 134 177 223 263 312
#     4   9  20  38  58  79 105 141 179 214 264 324
#     4  11  23  37  54  78 109 144 178 215 264 318
#     4  10  20  34  56  85 109 133 176 228 266 304
#     4  10  22  37  53  78 111 145 180 218 263 315
#
# _framework density 18.708221999999999
#
# number of rings (size 3 to 8) (size 9 to 14) (size 15 to 20)
#    0.000    2.333    0.000    3.000    0.000    7.333 
#    0.000    5.000    0.000    0.000    0.000    0.000 
#    0.000    0.000    0.000    0.000    0.000    0.000 
#
# Total GULP energy -297692.084453 kJ/mol
# GULP energy per Si atom -12403.836852 kJ/mol
# Density = 1.866564 g / cm^3
# Si number density = 18.708222 Si / 1000 Ang^3
#
#
#
# Elastic Constant Matrix: (Units=GPa)
#
#
# Indices 1 2 3 4 5 6 
#
# 1 74.3580 41.3491 31.5031 0.0000 18.5241 0.0000
# 2 41.3491 75.3827 39.3556 0.0000 14.6536 0.0000
# 3 31.5031 39.3556 71.1444 -0.0002 13.0854 -0.0001
# 4 0.0000 0.0000 -0.0002 33.5075 0.0000 3.3153
# 5 18.5241 14.6536 13.0854 0.0000 22.0483 0.0000
# 6 0.0000 0.0000 -0.0001 3.3153 0.0000 36.6119
#
#
#
# Elastic Compliance Matrix: (Units=1/GPa)
#
#
# Indices 1 2 3 4 5 6 
#
# 1 0.022239 -0.008367 -0.003149 0.000000 -0.011255 0.000000
# 2 -0.008367 0.022828 -0.008335 0.000000 -0.003195 0.000000
# 3 -0.003149 -0.008335 0.020830 0.000000 -0.004176 0.000000
# 4 0.000000 0.000000 0.000000 0.030114 0.000000 -0.002727
# 5 -0.011255 -0.003195 -0.004176 0.000000 0.059413 0.000000
# 6 0.000000 0.000000 0.000000 -0.002727 0.000000 0.027560
#
#
# Mechanical properties :
#
#
# Convention : Reuss Voigt Hill
#
# Bulk Modulus (GPa) = 38.17689 49.47785 43.82737
# Shear Modulus (GPa) = 21.60597 25.67868 23.64233
#
# Velocity S-wave (km/s) = 3.40206 3.70886 3.55877
# Velocity P-wave (km/s) = 5.99022 6.69667 6.35327
#
# Compressibility (1/GPa) = 0.02619386
#
# Stress axis : x y z
#
# Youngs Moduli (GPa) = 44.96601 43.80621 48.00880
#
# Poissons Ratio (x) = 0.36651 0.15119
# Poissons Ratio (y) = 0.37622 0.40017
# Poissons Ratio (z) = 0.14161 0.36514
#
# Static dielectric constant tensor:
#      x y z
#    x 3.387680 0.000000 -0.121850 
#    y 0.000000 3.418030 0.000000 
#    z -0.121850 0.000000 3.540810 
# 
# 
# High freq. dielectric constant tensor:
#      x y z
#    x 1.720690 0.000000 -0.001410 
#    y 0.000000 1.726600 0.000000 
#    z -0.001410 0.000000 1.737020 
# 
# From -- ./inp_files/20338.got.cif
#   From: 2010.06.25/outbox.cif.g09.slc.cpg/sg11_11_cif.got.tgz:20338.got - 2010.06.27 23:14:04.
