data_PCOD8073332
_publ_section_title
;
Structure prediction by ZEFSAII (Michael W. Deem and Ramdas Pophale) SiO2 
 PCOD8073332
Probable space group: P 21/M
;
_chemical_formula_sum "Si O2"
_cell_formula_units_Z 32
_cell_length_a 20.192143
_cell_length_b 9.117467
_cell_length_c 16.133625
_cell_angle_alpha 90.000000
_cell_angle_beta 146.908557
_cell_angle_gamma 90.000000
_cell_volume 1621.671166
_symmetry_space_group_name_H-M "P 21/M"
_symmetry_group_IT_number 11
_symmetry_cell_setting 'monoclinic'
loop_
_space_group_symop_operation_xyz
x,y,z
-x,1/2+y,-z
-x,-y,-z
x,1/2-y,z
loop_
_atom_site_type_symbol
_atom_site_label
_atom_site_fract_x
_atom_site_fract_y
_atom_site_fract_z
Si Si1 0.887912 0.419977 0.345411
Si Si2 0.685376 0.914992 0.704015
Si Si3 0.813135 0.419842 0.973781
Si Si4 0.447715 0.916008 0.567125
Si Si5 0.224674 0.918869 0.611094
Si Si6 0.505086 0.422848 0.093582
Si Si7 0.998653 0.078614 0.298691
Si Si8 0.417082 0.921818 0.154884
O O1 0.912245 0.250000 0.378207
O O2 0.777488 0.463072 0.291663
O O3 0.888908 0.462640 0.249052
O O4 0.000000 0.500000 0.500000
O O5 0.721709 0.750000 0.717175
O O6 0.564285 0.916025 0.630918
O O7 0.794695 0.985177 0.871728
O O8 0.664389 0.008999 0.598742
O O9 0.809730 0.250000 0.944474
O O10 0.708869 0.451869 0.931509
O O11 0.942675 0.464235 0.150497
O O12 0.411900 0.750000 0.554138
O O13 0.473826 0.008946 0.676964
O O14 0.190057 0.750000 0.564241
O O15 0.361538 0.949735 0.726375
O O16 0.127118 0.002760 0.451873
O O17 0.476420 0.250000 0.054228
O O18 0.411380 0.499300 0.059014
O O19 0.500000 0.500000 0.000000
O O20 0.025842 0.250000 0.330482
O O21 0.441263 0.750000 0.167005
#
# Coordination Sequence:
#
# PCOD8073332 Si02
#       8
#     4   4   4   4   4   4   4   4
#     4   8  14  26  44  64  86 113 149 192 239 286
#     4   9  16  26  43  70 102 134 166 201 243 294
#     4   9  18  30  47  73 105 137 164 199 250 300
#     4   9  16  28  47  69  99 133 168 205 243 294
#     4   9  19  34  51  68  92 124 162 206 252 296
#     4  11  24  39  54  72  97 131 171 213 254 294
#     4   9  17  29  49  72  96 125 161 201 245 299
#     4  10  20  34  52  73 101 135 170 207 249 296
#
# _framework density 19.732731000000001
#
# number of rings (size 3 to 8) (size 9 to 14) (size 15 to 20)
#    0.000    2.750    0.000    1.500    1.750    5.000 
#    0.000    0.000    0.000    0.000    0.000    0.875 
#    0.000    0.000    0.000    0.000    0.000    0.000 
#
# Total GULP energy -396435.593384 kJ/mol
# GULP energy per Si atom -12388.612293 kJ/mol
# Density = 1.968782 g / cm^3
# Si number density = 19.732731 Si / 1000 Ang^3
#
#
#
# Elastic Constant Matrix: (Units=GPa)
#
#
# Indices 1 2 3 4 5 6 
#
# 1 21.8806 15.4297 2.5232 0.0000 -8.8560 0.0000
# 2 15.4297 94.9996 37.7903 0.0000 -13.5727 0.0000
# 3 2.5232 37.7903 92.3341 0.0000 -20.4282 0.0000
# 4 0.0000 0.0000 0.0000 32.7307 0.0000 -8.7049
# 5 -8.8560 -13.5727 -20.4282 0.0000 25.3810 0.0000
# 6 0.0000 0.0000 0.0000 -8.7049 0.0000 23.3594
#
#
#
# Elastic Compliance Matrix: (Units=1/GPa)
#
#
# Indices 1 2 3 4 5 6 
#
# 1 0.060351 -0.009507 0.007027 0.000000 0.021630 0.000000
# 2 -0.009507 0.014280 -0.005632 0.000000 -0.000214 0.000000
# 3 0.007027 -0.005632 0.015597 0.000000 0.011993 0.000000
# 4 0.000000 0.000000 0.000000 0.033913 0.000000 0.012638
# 5 0.021630 -0.000214 0.011993 0.000000 0.056485 0.000000
# 6 0.000000 0.000000 0.000000 0.012638 0.000000 0.047519
#
#
# Mechanical properties :
#
#
# Convention : Reuss Voigt Hill
#
# Bulk Modulus (GPa) = 13.51281 35.63342 24.57312
# Shear Modulus (GPa) = 18.58475 26.52564 22.55519
#
# Velocity S-wave (km/s) = 3.07224 3.67037 3.38455
# Velocity P-wave (km/s) = 4.40995 6.00495 5.26816
#
# Compressibility (1/GPa) = 0.07400384
#
# Stress axis : x y z
#
# Youngs Moduli (GPa) = 16.56976 70.02598 64.11588
#
# Poissons Ratio (x) = 0.66576 -0.45056
# Poissons Ratio (y) = 0.15753 0.36111
# Poissons Ratio (z) = -0.11644 0.39440
#
# Static dielectric constant tensor:
#      x y z
#    x 3.162480 0.000000 -0.180290 
#    y 0.000000 3.554450 0.000000 
#    z -0.180290 0.000000 3.533420 
# 
# 
# High freq. dielectric constant tensor:
#      x y z
#    x 1.730450 0.000000 -0.021610 
#    y 0.000000 1.771080 0.000000 
#    z -0.021610 0.000000 1.764710 
# 
# From -- ./inp_files/61746.got.cif
#   From: 2010.06.25/outbox.cif.g09.slc.cpg/sg11_31_cif.got.tgz:61746.got - 2010.06.27 23:14:04.
