data_PCOD8073384
_publ_section_title
;
Structure prediction by ZEFSAII (Michael W. Deem and Ramdas Pophale) SiO2 
 PCOD8073384
Probable space group: P 21/M
;
_chemical_formula_sum "Si O2"
_cell_formula_units_Z 32
_cell_length_a 13.075479
_cell_length_b 9.022893
_cell_length_c 29.670337
_cell_angle_alpha 90.000000
_cell_angle_beta 28.097005
_cell_angle_gamma 90.000000
_cell_volume 1648.599778
_symmetry_space_group_name_H-M "P 21/M"
_symmetry_group_IT_number 11
_symmetry_cell_setting 'monoclinic'
loop_
_space_group_symop_operation_xyz
x,y,z
-x,1/2+y,-z
-x,-y,-z
x,1/2-y,z
loop_
_atom_site_type_symbol
_atom_site_label
_atom_site_fract_x
_atom_site_fract_y
_atom_site_fract_z
Si Si1 0.136080 0.082542 0.884624
Si Si2 0.328945 0.582133 0.888508
Si Si3 0.564060 0.926642 0.612458
Si Si4 0.294172 0.575069 0.102273
Si Si5 0.787111 0.422247 0.600576
Si Si6 0.294341 0.573932 0.204924
Si Si7 0.008855 0.420860 0.602256
Si Si8 0.863779 0.925025 0.218037
O O1 0.226578 0.250000 0.849396
O O2 0.116316 0.023145 0.841456
O O3 0.307993 0.987421 0.846675
O O4 0.900474 0.074086 0.997774
O O5 0.410739 0.750000 0.851358
O O6 0.491491 0.493787 0.856920
O O7 0.562929 0.750000 0.615983
O O8 0.763930 0.990804 0.504025
O O9 0.584884 0.995610 0.655220
O O10 0.338734 0.988971 0.680199
O O11 0.325357 0.750000 0.086799
O O12 0.271817 0.521178 0.162414
O O13 0.079561 0.522579 0.159671
O O14 0.500000 0.500000 0.000000
O O15 0.783215 0.250000 0.588754
O O16 0.000000 0.500000 0.500000
O O17 0.802587 0.443751 0.648558
O O18 0.313679 0.750000 0.201309
O O19 0.077967 0.517397 0.316081
O O20 0.066102 0.250000 0.584639
O O21 0.828852 0.750000 0.236699
#
# Coordination Sequence:
#
# PCOD8073384 Si02
#       8
#     4   4   4   4   4   4   4   4
#     4   9  19  35  53  73 107 148 178 213 275 343
#     4  10  20  34  53  81 112 139 175 227 276 326
#     4  10  20  34  52  78 110 146 188 234 276 325
#     4  10  22  40  63  86 110 142 185 233 280 333
#     4   9  16  29  49  74 106 147 185 224 270 323
#     4  10  20  36  58  81 107 146 187 220 271 339
#     4   8  17  33  52  75 108 147 185 221 267 326
#     4  10  21  37  56  79 108 146 187 228 278 334
#
# _framework density 19.410411
#
# number of rings (size 3 to 8) (size 9 to 14) (size 15 to 20)
#    0.000    2.500    0.000    2.625    1.750    3.000 
#    0.000    3.750    0.000    0.000    0.000    0.000 
#    0.000    0.000    0.000    0.000    0.000    0.000 
#
# Total GULP energy -396636.143192 kJ/mol
# GULP energy per Si atom -12394.879475 kJ/mol
# Density = 1.936623 g / cm^3
# Si number density = 19.410411 Si / 1000 Ang^3
#
#
#
# Elastic Constant Matrix: (Units=GPa)
#
#
# Indices 1 2 3 4 5 6 
#
# 1 153.5039 46.7274 75.0311 0.0000 -0.8853 0.0000
# 2 46.7274 57.3589 35.6204 0.0000 -2.4293 0.0000
# 3 75.0311 35.6204 97.0179 0.0000 -4.6611 0.0000
# 4 0.0000 0.0000 0.0000 26.6839 0.0000 -7.9846
# 5 -0.8853 -2.4293 -4.6611 0.0000 34.7252 0.0000
# 6 0.0000 0.0000 0.0000 -7.9846 0.0000 19.3678
#
#
#
# Elastic Compliance Matrix: (Units=1/GPa)
#
#
# Indices 1 2 3 4 5 6 
#
# 1 0.011507 -0.005000 -0.007112 0.000000 -0.001011 0.000000
# 2 -0.005000 0.024764 -0.005181 0.000000 0.000910 0.000000
# 3 -0.007112 -0.005181 0.017798 0.000000 0.001845 0.000000
# 4 0.000000 0.000000 0.000000 0.042749 0.000000 0.017624
# 5 -0.001011 0.000910 0.001845 0.000000 0.029083 0.000000
# 6 0.000000 0.000000 0.000000 0.017624 0.000000 0.058898
#
#
# Mechanical properties :
#
#
# Convention : Reuss Voigt Hill
#
# Bulk Modulus (GPa) = 51.32880 69.18207 60.25544
# Shear Modulus (GPa) = 22.13557 26.18884 24.16220
#
# Velocity S-wave (km/s) = 3.38064 3.67715 3.53201
# Velocity P-wave (km/s) = 6.46062 7.33128 6.90968
#
# Compressibility (1/GPa) = 0.01948224
#
# Stress axis : x y z
#
# Youngs Moduli (GPa) = 86.90323 40.38155 56.18470
#
# Poissons Ratio (x) = 0.20193 0.39958
# Poissons Ratio (y) = 0.43456 0.29110
# Poissons Ratio (z) = 0.61805 0.20922
#
# Static dielectric constant tensor:
#      x y z
#    x 3.802720 0.000000 0.092340 
#    y 0.000000 3.462760 0.000000 
#    z 0.092340 0.000000 3.652360 
# 
# 
# High freq. dielectric constant tensor:
#      x y z
#    x 1.745220 0.000000 0.000700 
#    y 0.000000 1.739640 0.000000 
#    z 0.000700 0.000000 1.764720 
# 
# From -- ./inp_files/73123.got.cif
#   From: 2010.06.25/outbox.cif.g09.slc.cpg/sg11_37_cif.got.tgz:73123.got - 2010.06.27 23:14:04.
