data_PCOD8073110
_publ_section_title
;
Structure prediction by ZEFSAII (Michael W. Deem and Ramdas Pophale) SiO2 
 PCOD8073110
Probable space group: P 21/M
;
_chemical_formula_sum "Si O2"
_cell_formula_units_Z 32
_cell_length_a 22.557240
_cell_length_b 8.978750
_cell_length_c 14.541927
_cell_angle_alpha 90.000000
_cell_angle_beta 36.691546
_cell_angle_gamma 90.000000
_cell_volume 1759.813642
_symmetry_space_group_name_H-M "P 21/M"
_symmetry_group_IT_number 11
_symmetry_cell_setting 'monoclinic'
loop_
_space_group_symop_operation_xyz
x,y,z
-x,1/2+y,-z
-x,-y,-z
x,1/2-y,z
loop_
_atom_site_type_symbol
_atom_site_label
_atom_site_fract_x
_atom_site_fract_y
_atom_site_fract_z
Si Si1 0.126155 0.423579 0.166612
Si Si2 0.392008 0.572014 0.136919
Si Si3 0.465285 0.578166 0.634662
Si Si4 0.264945 0.075305 0.451107
Si Si5 0.278983 0.424796 0.829640
Si Si6 0.231909 0.425686 0.216323
Si Si7 0.080806 0.080783 0.562322
Si Si8 0.324373 0.421798 0.572145
O O1 0.116740 0.250000 0.194306
O O2 0.198063 0.483583 0.158159
O O3 0.016348 0.484195 0.306682
O O4 0.173875 0.461871 0.007792
O O5 0.399847 0.750000 0.124936
O O6 0.338416 0.519306 0.296515
O O7 0.329502 0.515698 0.126173
O O8 0.500000 0.500000 0.000000
O O9 0.500000 0.500000 0.500000
O O10 0.443315 0.750000 0.643599
O O11 0.363089 0.498583 0.791075
O O12 0.556832 0.556626 0.591292
O O13 0.295195 0.250000 0.406438
O O14 0.151378 0.052698 0.562223
O O15 0.272235 0.011598 0.546324
O O16 0.301205 0.250000 0.800550
O O17 0.284116 0.492167 0.718895
O O18 0.256955 0.250000 0.189350
O O19 0.140365 0.464415 0.397094
O O20 0.045426 0.250000 0.601015
O O21 0.296195 0.250000 0.613424
#
# Coordination Sequence:
#
# PCOD8073110 Si02
#       8
#     4   4   4   4   4   4   4   4
#     4  10  20  33  52  75 103 133 165 210 258 297
#     4  11  22  36  54  78 107 136 164 203 248 296
#     4   9  16  28  47  70  95 127 162 199 240 289
#     4   9  18  35  55  74  98 133 173 211 247 294
#     4   9  18  32  48  72 102 132 165 206 250 293
#     4   9  19  36  54  75 101 133 169 206 249 300
#     4   9  18  32  51  72  97 128 168 213 256 302
#     4   8  15  30  52  72  96 132 170 200 241 297
#
# _framework density 18.183743
#
# number of rings (size 3 to 8) (size 9 to 14) (size 15 to 20)
#    0.000    2.750    0.000    3.375    0.000    4.000 
#    0.000    6.250    0.000    0.000    0.000    0.000 
#    0.000    0.000    0.000    0.000    0.000    0.000 
#
# Total GULP energy -396560.678430 kJ/mol
# GULP energy per Si atom -12392.521201 kJ/mol
# Density = 1.814236 g / cm^3
# Si number density = 18.183743 Si / 1000 Ang^3
#
#
#
# Elastic Constant Matrix: (Units=GPa)
#
#
# Indices 1 2 3 4 5 6 
#
# 1 124.6069 37.7856 62.0750 0.0000 0.1700 0.0000
# 2 37.7856 58.4408 39.6676 0.0000 -7.7856 0.0000
# 3 62.0750 39.6676 95.9327 0.0000 -12.5647 0.0000
# 4 0.0000 0.0000 0.0000 28.7516 0.0000 -8.5596
# 5 0.1700 -7.7856 -12.5647 0.0000 25.4537 0.0000
# 6 0.0000 0.0000 0.0000 -8.5596 0.0000 24.3798
#
#
#
# Elastic Compliance Matrix: (Units=1/GPa)
#
#
# Indices 1 2 3 4 5 6 
#
# 1 0.012906 -0.004024 -0.007333 0.000000 -0.004937 0.000000
# 2 -0.004024 0.025203 -0.007274 0.000000 0.004145 0.000000
# 3 -0.007333 -0.007274 0.019129 0.000000 0.007266 0.000000
# 4 0.000000 0.000000 0.000000 0.038840 0.000000 0.013637
# 5 -0.004937 0.004145 0.007266 0.000000 0.044175 0.000000
# 6 0.000000 0.000000 0.000000 0.013637 0.000000 0.045805
#
#
# Mechanical properties :
#
#
# Convention : Reuss Voigt Hill
#
# Bulk Modulus (GPa) = 50.06701 62.00410 56.03556
# Shear Modulus (GPa) = 21.74101 25.01382 23.37741
#
# Velocity S-wave (km/s) = 3.46154 3.71295 3.58945
# Velocity P-wave (km/s) = 6.60076 7.24941 6.93268
#
# Compressibility (1/GPa) = 0.01997323
#
# Stress axis : x y z
#
# Youngs Moduli (GPa) = 77.48606 39.67758 52.27717
#
# Poissons Ratio (x) = 0.15968 0.38337
# Poissons Ratio (y) = 0.31183 0.38029
# Poissons Ratio (z) = 0.56823 0.28863
#
# Static dielectric constant tensor:
#      x y z
#    x 3.782570 0.000000 0.003920 
#    y 0.000000 3.516310 0.000000 
#    z 0.003920 0.000000 3.355200 
# 
# 
# High freq. dielectric constant tensor:
#      x y z
#    x 1.705900 0.000000 -0.003610 
#    y 0.000000 1.687760 0.000000 
#    z -0.003610 0.000000 1.695170 
# 
# From -- ./inp_files/51380.got.cif
#   From: 2010.06.25/outbox.cif.g09.slc.cpg/sg11_26_cif.got.tgz:51380.got - 2010.06.27 23:14:04.
