data_PCOD8073966
_publ_section_title
;
Structure prediction by ZEFSAII (Michael W. Deem and Ramdas Pophale) SiO2 
 PCOD8073966
Probable space group: P 21/M
;
_chemical_formula_sum "Si O2"
_cell_formula_units_Z 28
_cell_length_a 18.068473
_cell_length_b 9.116536
_cell_length_c 23.115203
_cell_angle_alpha 90.000000
_cell_angle_beta 155.585837
_cell_angle_gamma 90.000000
_cell_volume 1573.785169
_symmetry_space_group_name_H-M "P 21/M"
_symmetry_group_IT_number 11
_symmetry_cell_setting 'monoclinic'
loop_
_space_group_symop_operation_xyz
x,y,z
-x,1/2+y,-z
-x,-y,-z
x,1/2-y,z
loop_
_atom_site_type_symbol
_atom_site_label
_atom_site_fract_x
_atom_site_fract_y
_atom_site_fract_z
Si Si1 0.105287 0.582319 0.773973
Si Si2 0.634548 0.419025 0.137551
Si Si3 0.527942 0.419896 0.755661
Si Si4 0.811439 0.422805 0.860604
Si Si5 0.442233 0.578217 0.091545
Si Si6 0.259539 0.581456 0.487380
Si Si7 0.457902 0.421060 0.410825
O O1 0.052035 0.750000 0.748729
O O2 0.170068 0.565095 0.753075
O O3 0.935156 0.482204 0.663563
O O4 0.259888 0.532348 0.928926
O O5 0.579626 0.250000 0.103714
O O6 0.614436 0.495024 0.186079
O O7 0.500000 0.500000 0.000000
O O8 0.477874 0.250000 0.717075
O O9 0.702072 0.455087 0.841361
O O10 0.572896 0.470118 0.852652
O O11 0.354240 0.504656 0.609147
O O12 0.833437 0.250000 0.864809
O O13 0.713987 0.497620 0.737298
O O14 0.000000 0.500000 0.000000
O O15 0.477256 0.750000 0.109472
O O16 0.240170 0.750000 0.489951
O O17 0.372925 0.557079 0.510243
O O18 0.500000 0.500000 0.500000
O O19 0.413507 0.250000 0.388880
#
# Coordination Sequence:
#
# PCOD8073966 Si02
#       7
#     4   4   4   4   4   4   4
#     4   9  18  32  51  75 103 134 168 205 250 303
#     4   9  17  30  49  74 102 132 166 207 253 298
#     4   9  19  36  55  74 102 138 170 203 253 308
#     4  10  20  35  55  79 106 138 173 211 256 306
#     4   9  18  33  53  77 101 130 170 211 250 298
#     4  10  21  35  52  76 104 133 169 210 252 297
#     4  10  21  37  55  77 104 135 172 215 260 308
#
# _framework density 17.791501
#
# number of rings (size 3 to 8) (size 9 to 14) (size 15 to 20)
#    0.000    2.571    0.000    2.571    0.000    6.857 
#    0.000    2.143    0.000    0.000    0.000    0.000 
#    0.000    0.000    0.000    0.000    0.000    0.000 
#
# Total GULP energy -347165.261997 kJ/mol
# GULP energy per Si atom -12398.759357 kJ/mol
# Density = 1.775101 g / cm^3
# Si number density = 17.791501 Si / 1000 Ang^3
#
#
#
# Elastic Constant Matrix: (Units=GPa)
#
#
# Indices 1 2 3 4 5 6 
#
# 1 106.5470 59.1214 63.5765 0.0000 -22.6063 0.0000
# 2 59.1214 101.2524 60.0226 0.0000 -4.7646 0.0000
# 3 63.5765 60.0226 105.2874 0.0000 -7.0103 0.0000
# 4 0.0000 0.0000 0.0000 34.6341 0.0000 3.2541
# 5 -22.6063 -4.7646 -7.0103 0.0000 23.8590 0.0000
# 6 0.0000 0.0000 0.0000 3.2541 0.0000 32.0859
#
#
#
# Elastic Compliance Matrix: (Units=1/GPa)
#
#
# Indices 1 2 3 4 5 6 
#
# 1 0.021588 -0.007176 -0.007832 0.000000 0.016720 0.000000
# 2 -0.007176 0.017309 -0.005872 0.000000 -0.005068 0.000000
# 3 -0.007832 -0.005872 0.017341 0.000000 -0.003498 0.000000
# 4 0.000000 0.000000 0.000000 0.029151 0.000000 -0.002956
# 5 0.016720 -0.005068 -0.003498 0.000000 0.055716 0.000000
# 6 0.000000 0.000000 0.000000 -0.002956 0.000000 0.031466
#
#
# Mechanical properties :
#
#
# Convention : Reuss Voigt Hill
#
# Bulk Modulus (GPa) = 69.06252 75.39198 72.22725
# Shear Modulus (GPa) = 22.81486 26.80689 24.81087
#
# Velocity S-wave (km/s) = 3.58487 3.88587 3.73840
# Velocity P-wave (km/s) = 7.48579 7.91205 7.70187
#
# Compressibility (1/GPa) = 0.01447963
#
# Stress axis : x y z
#
# Youngs Moduli (GPa) = 46.32203 57.77479 57.66601
#
# Poissons Ratio (x) = 0.41459 0.45161
# Poissons Ratio (y) = 0.33240 0.33860
# Poissons Ratio (z) = 0.36277 0.33923
#
# Static dielectric constant tensor:
#      x y z
#    x 3.335680 0.000000 -0.013890 
#    y 0.000000 3.530740 0.000000 
#    z -0.013890 0.000000 3.135340 
# 
# 
# High freq. dielectric constant tensor:
#      x y z
#    x 1.692550 0.000000 0.002770 
#    y 0.000000 1.698690 0.000000 
#    z 0.002770 0.000000 1.671680 
# 
# From -- ./inp_files/28226.got.cif
#   From: 2010.06.25/outbox.cif.g09.slc.cpg/sg11_15_cif.got.tgz:28226.got - 2010.06.27 23:14:04.
