data_PCOD8073323
_publ_section_title
;
Structure prediction by ZEFSAII (Michael W. Deem and Ramdas Pophale) SiO2 
 PCOD8073323
Probable space group: P 21/M
;
_chemical_formula_sum "Si O2"
_cell_formula_units_Z 32
_cell_length_a 11.839479
_cell_length_b 13.524218
_cell_length_c 11.394867
_cell_angle_alpha 90.000000
_cell_angle_beta 104.097140
_cell_angle_gamma 90.000000
_cell_volume 1769.595021
_symmetry_space_group_name_H-M "P 21/M"
_symmetry_group_IT_number 11
_symmetry_cell_setting 'monoclinic'
loop_
_space_group_symop_operation_xyz
x,y,z
-x,1/2+y,-z
-x,-y,-z
x,1/2-y,z
loop_
_atom_site_type_symbol
_atom_site_label
_atom_site_fract_x
_atom_site_fract_y
_atom_site_fract_z
Si Si1 0.832572 0.503290 0.689521
Si Si2 0.528831 0.640464 0.353186
Si Si3 0.815596 0.362379 0.466789
Si Si4 0.716817 0.362347 0.825770
Si Si5 0.392335 0.136425 0.369103
Si Si6 0.402755 0.556343 0.720292
Si Si7 0.707570 0.365091 0.088607
Si Si8 0.948096 0.137408 0.265844
O O1 0.845734 0.436346 0.578162
O O2 0.815763 0.433188 0.798376
O O3 0.728016 0.579655 0.647454
O O4 0.949277 0.563840 0.741588
O O5 0.574791 0.750000 0.330743
O O6 0.394438 0.627875 0.286005
O O7 0.533676 0.623163 0.493436
O O8 0.609088 0.561269 0.306129
O O9 0.814028 0.250000 0.514493
O O10 0.689838 0.383040 0.379190
O O11 0.914370 0.375560 0.393420
O O12 0.764050 0.250000 0.841147
O O13 0.684188 0.396597 0.948853
O O14 0.363800 0.250000 0.334966
O O15 0.467743 0.091179 0.282238
O O16 0.382551 0.574466 0.853085
O O17 0.682772 0.250000 0.104499
O O18 0.839730 0.391342 0.155976
O O19 0.987501 0.250000 0.251699
#
# Coordination Sequence:
#
# PCOD8073323 Si02
#       8
#     4   4   4   4   4   4   4   4
#     4  12  20  33  54  79 111 142 170 217 271 325
#     4  10  20  34  51  78 114 141 170 214 266 322
#     4  10  20  34  55  81 106 138 179 221 260 314
#     4  10  21  36  54  79 106 140 183 224 268 309
#     4  11  21  32  50  81 113 141 171 212 269 326
#     4  11  18  35  56  77 106 143 181 217 260 315
#     4   9  20  38  58  77 101 140 188 229 259 303
#     4   9  20  37  55  77 104 137 180 222 262 314
#
# _framework density 18.083233
#
# number of rings (size 3 to 8) (size 9 to 14) (size 15 to 20)
#    0.000    1.750    2.500    4.125    0.000    2.000 
#    0.000    0.000    0.000    3.750    0.000    0.000 
#    0.000    0.000    0.000    0.000    0.000    0.000 
#
# Total GULP energy -396890.712767 kJ/mol
# GULP energy per Si atom -12402.834774 kJ/mol
# Density = 1.804208 g / cm^3
# Si number density = 18.083233 Si / 1000 Ang^3
#
#
#
# Elastic Constant Matrix: (Units=GPa)
#
#
# Indices 1 2 3 4 5 6 
#
# 1 88.3304 53.9499 30.9217 0.0000 -9.2614 0.0000
# 2 53.9499 119.4481 35.8679 0.0000 -14.2268 0.0000
# 3 30.9217 35.8679 63.4573 0.0000 -15.1809 0.0000
# 4 0.0000 0.0000 0.0000 21.6455 0.0000 -5.9369
# 5 -9.2614 -14.2268 -15.1809 0.0000 20.8770 0.0000
# 6 0.0000 0.0000 0.0000 -5.9369 0.0000 36.4766
#
#
#
# Elastic Compliance Matrix: (Units=1/GPa)
#
#
# Indices 1 2 3 4 5 6 
#
# 1 0.016709 -0.006157 -0.004712 0.000000 -0.000210 0.000000
# 2 -0.006157 0.012543 -0.003266 0.000000 0.003441 0.000000
# 3 -0.004712 -0.003266 0.022842 0.000000 0.012293 0.000000
# 4 0.000000 0.000000 0.000000 0.048358 0.000000 0.007871
# 5 -0.000210 0.003441 0.012293 0.000000 0.059091 0.000000
# 6 0.000000 0.000000 0.000000 0.007871 0.000000 0.028696
#
#
# Mechanical properties :
#
#
# Convention : Reuss Voigt Hill
#
# Bulk Modulus (GPa) = 41.97541 56.96831 49.47186
# Shear Modulus (GPa) = 22.27652 25.83291 24.05471
#
# Velocity S-wave (km/s) = 3.51363 3.78372 3.65118
# Velocity P-wave (km/s) = 6.30266 7.11762 6.72250
#
# Compressibility (1/GPa) = 0.02382347
#
# Stress axis : x y z
#
# Youngs Moduli (GPa) = 59.84722 79.72340 43.77878
#
# Poissons Ratio (x) = 0.49085 0.20630
# Poissons Ratio (y) = 0.36847 0.14300
# Poissons Ratio (z) = 0.28202 0.26042
#
# Static dielectric constant tensor:
#      x y z
#    x 3.164050 0.000000 -0.130330 
#    y 0.000000 3.579020 0.000000 
#    z -0.130330 0.000000 3.266580 
# 
# 
# High freq. dielectric constant tensor:
#      x y z
#    x 1.684620 0.000000 -0.009230 
#    y 0.000000 1.713690 0.000000 
#    z -0.009230 0.000000 1.688720 
# 
# From -- ./inp_files/35123.got.cif
#   From: 2010.06.25/outbox.cif.g09.slc.cpg/sg11_18_cif.got.tgz:35123.got - 2010.06.27 23:14:04.
