data_PCOD8073749
_publ_section_title
;
Structure prediction by ZEFSAII (Michael W. Deem and Ramdas Pophale) SiO2 
 PCOD8073749
Probable space group: P 21/M
;
_chemical_formula_sum "Si O2"
_cell_formula_units_Z 32
_cell_length_a 8.127062
_cell_length_b 14.180372
_cell_length_c 24.938866
_cell_angle_alpha 90.000000
_cell_angle_beta 144.717633
_cell_angle_gamma 90.000000
_cell_volume 1660.083435
_symmetry_space_group_name_H-M "P 21/M"
_symmetry_group_IT_number 11
_symmetry_cell_setting 'monoclinic'
loop_
_space_group_symop_operation_xyz
x,y,z
-x,1/2+y,-z
-x,-y,-z
x,1/2-y,z
loop_
_atom_site_type_symbol
_atom_site_label
_atom_site_fract_x
_atom_site_fract_y
_atom_site_fract_z
Si Si1 0.183615 0.852603 0.808457
Si Si2 0.850029 0.493422 0.289277
Si Si3 0.742517 0.357997 0.558152
Si Si4 0.141688 0.600533 0.535304
Si Si5 0.672497 0.644592 0.746236
Si Si6 0.129236 0.147243 0.434706
Si Si7 0.167292 0.360779 0.012912
Si Si8 0.221681 0.014946 0.126532
O O1 0.191851 0.750000 0.781298
O O2 0.045601 0.930209 0.732746
O O3 0.502496 0.876327 0.912977
O O4 0.989176 0.846260 0.808221
O O5 0.529302 0.525402 0.190937
O O6 0.036044 0.586300 0.346007
O O7 0.879880 0.424302 0.349260
O O8 0.766038 0.250000 0.581873
O O9 0.823639 0.366594 0.516979
O O10 0.429785 0.395794 0.493323
O O11 0.457146 0.607600 0.643616
O O12 0.000000 0.500000 0.500000
O O13 0.917153 0.658916 0.513084
O O14 0.575139 0.750000 0.740475
O O15 0.708690 0.566541 0.800389
O O16 0.096606 0.250000 0.399450
O O17 0.078552 0.250000 0.987426
O O18 0.098683 0.406236 0.052921
O O19 0.985828 0.424239 0.922436
#
# Coordination Sequence:
#
# PCOD8073749 Si02
#       8
#     4   4   4   4   4   4   4   4
#     4   9  20  35  58  85 109 140 179 230 287 333
#     4  11  20  36  56  79 110 145 186 233 271 333
#     4  11  24  39  55  80 115 156 198 237 282 334
#     4  12  23  37  56  83 117 152 191 239 287 335
#     4  11  21  35  56  84 113 142 183 235 280 327
#     4  11  22  36  57  80 108 151 190 236 288 326
#     4   9  19  37  57  81 111 140 177 223 276 344
#     4  10  20  34  57  85 108 142 183 222 282 336
#
# _framework density 19.276140000000002
#
# number of rings (size 3 to 8) (size 9 to 14) (size 15 to 20)
#    0.000    1.500    2.500    3.000    1.750    4.000 
#    0.000    0.000    0.000    0.750    0.000    0.000 
#    0.000    0.000    0.000    0.000    0.000    0.000 
#
# Total GULP energy -396435.912802 kJ/mol
# GULP energy per Si atom -12388.622275 kJ/mol
# Density = 1.923227 g / cm^3
# Si number density = 19.276140 Si / 1000 Ang^3
#
#
#
# Elastic Constant Matrix: (Units=GPa)
#
#
# Indices 1 2 3 4 5 6 
#
# 1 80.5651 14.8383 23.6663 0.0000 13.5999 0.0000
# 2 14.8383 117.2664 65.5671 0.0000 8.4248 0.0000
# 3 23.6663 65.5671 95.9150 0.0000 7.1037 0.0000
# 4 0.0000 0.0000 0.0000 26.5877 0.0000 0.9017
# 5 13.5999 8.4248 7.1037 0.0000 20.6566 0.0000
# 6 0.0000 0.0000 0.0000 0.9017 0.0000 20.8672
#
#
#
# Elastic Compliance Matrix: (Units=1/GPa)
#
#
# Indices 1 2 3 4 5 6 
#
# 1 0.014795 0.000709 -0.003481 0.000000 -0.008833 0.000000
# 2 0.000709 0.013959 -0.009503 0.000000 -0.002892 0.000000
# 3 -0.003481 -0.009503 0.017777 0.000000 0.000054 0.000000
# 4 0.000000 0.000000 0.000000 0.037667 0.000000 -0.001628
# 5 -0.008833 -0.002892 0.000054 0.000000 0.055387 0.000000
# 6 0.000000 0.000000 0.000000 -0.001628 0.000000 0.047992
#
#
# Mechanical properties :
#
#
# Convention : Reuss Voigt Hill
#
# Bulk Modulus (GPa) = 45.49387 55.76555 50.62971
# Shear Modulus (GPa) = 22.78368 26.26728 24.52548
#
# Velocity S-wave (km/s) = 3.44170 3.69546 3.57083
# Velocity P-wave (km/s) = 6.28061 6.87031 6.58207
#
# Compressibility (1/GPa) = 0.02198099
#
# Stress axis : x y z
#
# Youngs Moduli (GPa) = 67.58858 71.63763 56.25215
#
# Poissons Ratio (x) = -0.05078 0.19581
# Poissons Ratio (y) = -0.04791 0.53457
# Poissons Ratio (z) = 0.23527 0.68078
#
# Static dielectric constant tensor:
#      x y z
#    x 3.700380 0.000000 0.171600 
#    y 0.000000 3.691990 0.000000 
#    z 0.171600 0.000000 3.538290 
# 
# 
# High freq. dielectric constant tensor:
#      x y z
#    x 1.746600 0.000000 0.016490 
#    y 0.000000 1.755410 0.000000 
#    z 0.016490 0.000000 1.737020 
# 
# From -- ./inp_files/63812.got.cif
#   From: 2010.06.25/outbox.cif.g09.slc.cpg/sg11_32_cif.got.tgz:63812.got - 2010.06.27 23:14:04.
