data_PCOD8073799
_publ_section_title
;
Structure prediction by ZEFSAII (Michael W. Deem and Ramdas Pophale) SiO2 
 PCOD8073799
Probable space group: P 21/M
;
_chemical_formula_sum "Si O2"
_cell_formula_units_Z 32
_cell_length_a 19.954428
_cell_length_b 8.730103
_cell_length_c 25.760970
_cell_angle_alpha 90.000000
_cell_angle_beta 21.412166
_cell_angle_gamma 90.000000
_cell_volume 1638.333570
_symmetry_space_group_name_H-M "P 21/M"
_symmetry_group_IT_number 11
_symmetry_cell_setting 'monoclinic'
loop_
_space_group_symop_operation_xyz
x,y,z
-x,1/2+y,-z
-x,-y,-z
x,1/2-y,z
loop_
_atom_site_type_symbol
_atom_site_label
_atom_site_fract_x
_atom_site_fract_y
_atom_site_fract_z
Si Si1 0.003965 0.570366 0.293510
Si Si2 0.627109 0.071126 0.598937
Si Si3 0.000936 0.072761 0.077125
Si Si4 0.707570 0.072937 0.205654
Si Si5 0.508047 0.928486 0.791077
Si Si6 0.302566 0.069063 0.150950
Si Si7 0.188429 0.430519 0.345722
Si Si8 0.909776 0.072953 0.884744
O O1 0.034713 0.750000 0.279348
O O2 0.812454 0.521851 0.456474
O O3 0.168376 0.482381 0.202330
O O4 0.008545 0.525732 0.229681
O O5 0.670648 0.250000 0.564491
O O6 0.478655 0.025581 0.662009
O O7 0.543271 0.029072 0.714978
O O8 0.055206 0.250000 0.031390
O O9 0.807888 0.038796 0.187831
O O10 0.981397 0.027655 0.151298
O O11 0.160476 0.970190 0.937259
O O12 0.654931 0.250000 0.237401
O O13 0.533054 0.750000 0.759095
O O14 0.648327 0.983032 0.734162
O O15 0.306253 0.963560 0.958315
O O16 0.319199 0.250000 0.139292
O O17 0.227789 0.007346 0.259804
O O18 0.500000 0.000000 0.000000
O O19 0.169437 0.250000 0.359444
O O20 0.000000 0.500000 0.500000
O O21 0.947589 0.250000 0.869535
#
# Coordination Sequence:
#
# PCOD8073799 Si02
#       8
#     4   4   4   4   4   4   4   4
#     4  11  24  42  62  86 119 161 200 242 298 359
#     4  12  24  38  58  89 121 156 200 247 294 349
#     4  10  20  34  58  91 121 150 193 245 292 342
#     4  10  20  36  58  86 121 159 194 235 291 352
#     4  10  20  37  60  84 112 150 191 241 295 353
#     4  11  23  41  63  89 118 154 199 247 295 356
#     4  10  22  38  57  83 115 149 192 239 292 350
#     4  10  21  38  61  86 115 154 198 241 294 352
#
# _framework density 19.532043999999999
#
# number of rings (size 3 to 8) (size 9 to 14) (size 15 to 20)
#    0.000    1.500    1.250    4.125    0.000    8.000 
#    0.000    1.875    0.000    0.000    0.000    0.000 
#    0.000    0.000    0.000    0.000    0.000    0.000 
#
# Total GULP energy -396975.195575 kJ/mol
# GULP energy per Si atom -12405.474862 kJ/mol
# Density = 1.948759 g / cm^3
# Si number density = 19.532044 Si / 1000 Ang^3
#
#
#
# Elastic Constant Matrix: (Units=GPa)
#
#
# Indices 1 2 3 4 5 6 
#
# 1 108.1664 39.9715 21.6322 0.0000 -5.6830 0.0000
# 2 39.9715 52.8543 29.5413 0.0000 1.7032 0.0000
# 3 21.6322 29.5413 73.7267 0.0000 1.6821 0.0000
# 4 0.0000 0.0000 0.0000 29.1678 0.0000 -3.1705
# 5 -5.6830 1.7032 1.6821 0.0000 31.3795 0.0000
# 6 0.0000 0.0000 0.0000 -3.1705 0.0000 31.5130
#
#
#
# Elastic Compliance Matrix: (Units=1/GPa)
#
#
# Indices 1 2 3 4 5 6 
#
# 1 0.013092 -0.010065 0.000125 0.000000 0.002911 0.000000
# 2 -0.010065 0.032137 -0.009855 0.000000 -0.003039 0.000000
# 3 0.000125 -0.009855 0.017484 0.000000 -0.000380 0.000000
# 4 0.000000 0.000000 0.000000 0.034663 0.000000 0.003488
# 5 0.002911 -0.003039 -0.000380 0.000000 0.032580 0.000000
# 6 0.000000 0.000000 0.000000 0.003488 0.000000 0.032084
#
#
# Mechanical properties :
#
#
# Convention : Reuss Voigt Hill
#
# Bulk Modulus (GPa) = 43.24305 46.33749 44.79027
# Shear Modulus (GPa) = 23.88477 27.98557 25.93517
#
# Velocity S-wave (km/s) = 3.50072 3.78934 3.64789
# Velocity P-wave (km/s) = 6.20707 6.55140 6.38156
#
# Compressibility (1/GPa) = 0.02312511
#
# Stress axis : x y z
#
# Youngs Moduli (GPa) = 76.38109 31.11645 57.19449
#
# Poissons Ratio (x) = 0.31318 -0.00715
# Poissons Ratio (y) = 0.76876 0.56363
# Poissons Ratio (z) = -0.00955 0.30664
#
# Static dielectric constant tensor:
#      x y z
#    x 3.764440 0.000000 -0.032310 
#    y 0.000000 3.539130 0.000000 
#    z -0.032310 0.000000 3.454650 
# 
# 
# High freq. dielectric constant tensor:
#      x y z
#    x 1.775070 0.000000 -0.009370 
#    y 0.000000 1.762290 0.000000 
#    z -0.009370 0.000000 1.754360 
# 
# From -- ./inp_files/72088.got.cif
#   From: 2010.06.25/outbox.cif.g09.slc.cpg/sg11_37_cif.got.tgz:72088.got - 2010.06.27 23:14:04.
