data_PCOD8073773
_publ_section_title
;
Structure prediction by ZEFSAII (Michael W. Deem and Ramdas Pophale) SiO2 
 PCOD8073773
Probable space group: P 21/M
;
_chemical_formula_sum "Si O2"
_cell_formula_units_Z 32
_cell_length_a 13.993083
_cell_length_b 11.171404
_cell_length_c 11.355883
_cell_angle_alpha 90.000000
_cell_angle_beta 113.722332
_cell_angle_gamma 90.000000
_cell_volume 1625.186495
_symmetry_space_group_name_H-M "P 21/M"
_symmetry_group_IT_number 11
_symmetry_cell_setting 'monoclinic'
loop_
_space_group_symop_operation_xyz
x,y,z
-x,1/2+y,-z
-x,-y,-z
x,1/2-y,z
loop_
_atom_site_type_symbol
_atom_site_label
_atom_site_fract_x
_atom_site_fract_y
_atom_site_fract_z
Si Si1 0.735231 0.611901 0.046689
Si Si2 0.446072 0.382004 0.424017
Si Si3 0.524656 0.885076 0.836302
Si Si4 0.046917 0.953708 0.346252
Si Si5 0.311956 0.487308 0.731839
Si Si6 0.041283 0.109885 0.937675
Si Si7 0.111563 0.877563 0.622254
Si Si8 0.245711 0.117232 0.460742
O O1 0.727431 0.750000 0.015354
O O2 0.736126 0.590784 0.186641
O O3 0.841121 0.567744 0.035990
O O4 0.630065 0.553274 0.939700
O O5 0.500000 0.500000 0.500000
O O6 0.484732 0.250000 0.493350
O O7 0.465619 0.380910 0.297240
O O8 0.323308 0.393822 0.388992
O O9 0.507618 0.750000 0.877517
O O10 0.426978 0.967809 0.823025
O O11 0.061482 0.869432 0.466668
O O12 0.028537 0.883348 0.215813
O O13 0.149068 0.033870 0.385619
O O14 0.943228 0.029710 0.318902
O O15 0.234806 0.598519 0.672608
O O16 0.311295 0.411137 0.611618
O O17 0.037277 0.250000 0.986406
O O18 0.000000 0.000000 0.000000
O O19 0.096630 0.750000 0.675522
O O20 0.199751 0.250000 0.450274
#
# Coordination Sequence:
#
# PCOD8073773 Si02
#       8
#     4   4   4   4   4   4   4   4
#     4  10  22  40  61  84 115 158 203 248 298 361
#     4  10  20  38  59  85 117 154 198 245 297 353
#     4  10  21  36  58  84 118 161 201 245 300 356
#     4  10  21  38  58  87 120 153 198 248 303 359
#     4  11  19  36  58  86 121 149 198 247 301 352
#     4  11  25  45  66  89 121 163 210 255 307 366
#     4  10  20  34  57  88 121 154 188 241 307 364
#     4  10  21  34  59  90 117 155 202 244 295 364
#
# _framework density 19.690045999999999
#
# number of rings (size 3 to 8) (size 9 to 14) (size 15 to 20)
#    0.000    1.750    2.500    1.875    1.750    1.000 
#    0.000    0.625    0.000    2.250    0.000    0.000 
#    0.000    0.000    0.000    0.000    0.000    0.000 
#
# Total GULP energy -396470.406660 kJ/mol
# GULP energy per Si atom -12389.700208 kJ/mol
# Density = 1.964523 g / cm^3
# Si number density = 19.690046 Si / 1000 Ang^3
#
#
#
# Elastic Constant Matrix: (Units=GPa)
#
#
# Indices 1 2 3 4 5 6 
#
# 1 115.5207 36.8386 20.8613 0.0000 6.9079 0.0000
# 2 36.8386 90.9901 15.3213 0.0000 3.0322 0.0000
# 3 20.8613 15.3213 56.6254 0.0000 9.2139 0.0000
# 4 0.0000 0.0000 0.0000 22.1420 0.0000 -16.4629
# 5 6.9079 3.0322 9.2139 0.0000 33.6447 0.0000
# 6 0.0000 0.0000 0.0000 -16.4629 0.0000 107.4190
#
#
#
# Elastic Compliance Matrix: (Units=1/GPa)
#
#
# Indices 1 2 3 4 5 6 
#
# 1 0.010386 -0.003724 -0.002644 0.000000 -0.001073 0.000000
# 2 -0.003724 0.012851 -0.002136 0.000000 0.000191 0.000000
# 3 -0.002644 -0.002136 0.019983 0.000000 -0.004737 0.000000
# 4 0.000000 0.000000 0.000000 0.050971 0.000000 0.007812
# 5 -0.001073 0.000191 -0.004737 0.000000 0.031223 0.000000
# 6 0.000000 0.000000 0.000000 0.007812 0.000000 0.010507
#
#
# Mechanical properties :
#
#
# Convention : Reuss Voigt Hill
#
# Bulk Modulus (GPa) = 38.15182 45.46429 41.80806
# Shear Modulus (GPa) = 30.92805 45.31547 38.12176
#
# Velocity S-wave (km/s) = 3.96756 4.80254 4.40488
# Velocity P-wave (km/s) = 6.35665 7.34116 6.86657
#
# Compressibility (1/GPa) = 0.02621107
#
# Stress axis : x y z
#
# Youngs Moduli (GPa) = 96.28757 77.81375 50.04284
#
# Poissons Ratio (x) = 0.28976 0.13232
# Poissons Ratio (y) = 0.35855 0.10691
# Poissons Ratio (z) = 0.25459 0.16625
#
# Static dielectric constant tensor:
#      x y z
#    x 3.762560 0.000000 0.109680 
#    y 0.000000 3.471880 0.000000 
#    z 0.109680 0.000000 3.611010 
# 
# 
# High freq. dielectric constant tensor:
#      x y z
#    x 1.777690 0.000000 0.003440 
#    y 0.000000 1.761230 0.000000 
#    z 0.003440 0.000000 1.757150 
# 
# From -- ./inp_files/35119.got.cif
#   From: 2010.06.25/outbox.cif.g09.slc.cpg/sg11_18_cif.got.tgz:35119.got - 2010.06.27 23:14:04.
