data_PCOD8073255
_publ_section_title
;
Structure prediction by ZEFSAII (Michael W. Deem and Ramdas Pophale) SiO2 
 PCOD8073255
Probable space group: P 21/M
;
_chemical_formula_sum "Si O2"
_cell_formula_units_Z 32
_cell_length_a 12.436849
_cell_length_b 18.736130
_cell_length_c 12.436827
_cell_angle_alpha 90.000000
_cell_angle_beta 143.968368
_cell_angle_gamma 90.000000
_cell_volume 1704.701525
_symmetry_space_group_name_H-M "P 21/M"
_symmetry_group_IT_number 11
_symmetry_cell_setting 'monoclinic'
loop_
_space_group_symop_operation_xyz
x,y,z
-x,1/2+y,-z
-x,-y,-z
x,1/2-y,z
loop_
_atom_site_type_symbol
_atom_site_label
_atom_site_fract_x
_atom_site_fract_y
_atom_site_fract_z
Si Si1 0.769139 0.575946 0.131446
Si Si2 0.762435 0.088037 0.141388
Si Si3 0.874291 0.665397 0.625705
Si Si4 0.023371 0.331421 0.861418
Si Si5 0.631447 0.424055 0.269142
Si Si6 0.358619 0.411961 0.737570
Si Si7 0.252731 0.334651 0.247275
Si Si8 0.361412 0.668579 0.523364
O O1 0.822000 0.492994 0.166269
O O2 0.922813 0.622917 0.199229
O O3 0.751172 0.599324 0.240567
O O4 0.581577 0.590756 0.918421
O O5 0.740571 0.099322 0.251178
O O6 0.920119 0.139775 0.228309
O O7 0.572695 0.106237 0.927312
O O8 0.875097 0.750000 0.624913
O O9 0.728298 0.639778 0.420109
O O10 0.810526 0.634317 0.689471
O O11 0.087835 0.250000 0.894300
O O12 0.803913 0.335724 0.696095
O O13 0.114202 0.362480 0.043185
O O14 0.666266 0.507008 0.321999
O O15 0.699231 0.377084 0.422817
O O16 0.249553 0.250000 0.250453
O O17 0.456822 0.362479 0.385808
O O18 0.394294 0.750000 0.587829
#
# Coordination Sequence:
#
# PCOD8073255 Si02
#       8
#     4   4   4   4   4   4   4   4
#     4   9  18  36  60  83 116 150 179 223 281 335
#     4   9  21  38  57  84 114 150 184 221 278 338
#     4  11  24  39  59  81 109 152 193 227 273 335
#     4  10  20  33  56  85 109 142 185 231 278 325
#     4   9  18  36  60  83 116 150 179 223 281 335
#     4   9  21  38  57  84 114 150 184 221 278 338
#     4   9  20  40  55  74 112 151 187 226 276 332
#     4  10  20  33  56  85 109 142 185 231 278 325
#
# _framework density 18.771615000000001
#
# number of rings (size 3 to 8) (size 9 to 14) (size 15 to 20)
#    0.000    2.500    1.250    1.500    3.500    3.500 
#    0.000    6.250    0.000    0.000    0.000    0.000 
#    0.000    0.000    0.000    0.000    0.000    0.000 
#
# Total GULP energy -396791.536168 kJ/mol
# GULP energy per Si atom -12399.735505 kJ/mol
# Density = 1.872889 g / cm^3
# Si number density = 18.771615 Si / 1000 Ang^3
#
#
#
# Elastic Constant Matrix: (Units=GPa)
#
#
# Indices 1 2 3 4 5 6 
#
# 1 125.2082 53.1656 73.3954 0.0000 -1.0410 0.0000
# 2 53.1656 64.6747 46.4483 0.0000 -2.8162 0.0000
# 3 73.3954 46.4483 125.8803 0.0000 1.3288 0.0000
# 4 0.0000 0.0000 0.0000 27.5754 0.0000 7.6206
# 5 -1.0410 -2.8162 1.3288 0.0000 25.6568 0.0000
# 6 0.0000 0.0000 0.0000 7.6206 0.0000 9.4108
#
#
#
# Elastic Compliance Matrix: (Units=1/GPa)
#
#
# Indices 1 2 3 4 5 6 
#
# 1 0.014684 -0.008057 -0.005589 0.000000 0.000001 0.000000
# 2 -0.008057 0.025648 -0.004795 0.000000 0.002737 0.000000
# 3 -0.005589 -0.004795 0.012987 0.000000 -0.001426 0.000000
# 4 0.000000 0.000000 0.000000 0.046719 0.000000 -0.037832
# 5 0.000001 0.002737 -0.001426 0.000000 0.039350 0.000000
# 6 0.000000 0.000000 0.000000 -0.037832 0.000000 0.136896
#
#
# Mechanical properties :
#
#
# Convention : Reuss Voigt Hill
#
# Bulk Modulus (GPa) = 60.83641 73.53129 67.18385
# Shear Modulus (GPa) = 15.69148 22.04555 18.86851
#
# Velocity S-wave (km/s) = 2.89436 3.43068 3.17387
# Velocity P-wave (km/s) = 6.60673 7.41278 7.02133
#
# Compressibility (1/GPa) = 0.01643752
#
# Stress axis : x y z
#
# Youngs Moduli (GPa) = 68.10212 38.98910 77.00121
#
# Poissons Ratio (x) = 0.31414 0.43032
# Poissons Ratio (y) = 0.54871 0.36922
# Poissons Ratio (z) = 0.38059 0.18695
#
# Static dielectric constant tensor:
#      x y z
#    x 3.456360 0.000000 0.011860 
#    y 0.000000 3.222370 0.000000 
#    z 0.011860 0.000000 3.484640 
# 
# 
# High freq. dielectric constant tensor:
#      x y z
#    x 1.724220 0.000000 0.006560 
#    y 0.000000 1.709700 0.000000 
#    z 0.006560 0.000000 1.739860 
# 
# From -- ./inp_files/36371.got.cif
#   From: 2010.06.25/outbox.cif.g09.slc.cpg/sg11_19_cif.got.tgz:36371.got - 2010.06.27 23:14:04.
