data_PCOD8073947
_publ_section_title
;
Structure prediction by ZEFSAII (Michael W. Deem and Ramdas Pophale) SiO2 
 PCOD8073947
Probable space group: P 21/M
;
_chemical_formula_sum "Si O2"
_cell_formula_units_Z 32
_cell_length_a 21.443684
_cell_length_b 9.133487
_cell_length_c 11.605098
_cell_angle_alpha 90.000000
_cell_angle_beta 52.317726
_cell_angle_gamma 90.000000
_cell_volume 1798.820525
_symmetry_space_group_name_H-M "P 21/M"
_symmetry_group_IT_number 11
_symmetry_cell_setting 'monoclinic'
loop_
_space_group_symop_operation_xyz
x,y,z
-x,1/2+y,-z
-x,-y,-z
x,1/2-y,z
loop_
_atom_site_type_symbol
_atom_site_label
_atom_site_fract_x
_atom_site_fract_y
_atom_site_fract_z
Si Si1 0.273498 0.080715 0.834617
Si Si2 0.751720 0.919424 0.648644
Si Si3 0.667925 0.088620 0.562143
Si Si4 0.097772 0.418741 0.669239
Si Si5 0.177195 0.914463 0.767243
Si Si6 0.199279 0.082043 0.159710
Si Si7 0.038169 0.921173 0.348469
Si Si8 0.581215 0.074827 0.439556
O O1 0.283531 0.250000 0.785552
O O2 0.197741 0.012184 0.855298
O O3 0.352094 0.990309 0.719032
O O4 0.259345 0.066980 0.986595
O O5 0.735005 0.750000 0.657716
O O6 0.835059 0.963506 0.498324
O O7 0.754392 0.971126 0.778300
O O8 0.678054 0.991790 0.664938
O O9 0.647272 0.250000 0.629593
O O10 0.747593 0.087971 0.399455
O O11 0.599699 0.033135 0.552243
O O12 0.107231 0.250000 0.693721
O O13 0.105035 0.514229 0.777545
O O14 0.013889 0.451128 0.706309
O O15 0.153839 0.750000 0.832283
O O16 0.170783 0.250000 0.208285
O O17 0.123957 0.981698 0.223332
O O18 0.042412 0.750000 0.372056
O O19 0.000000 0.000000 0.500000
O O20 0.578564 0.250000 0.426140
O O21 0.500000 0.000000 0.500000
#
# Coordination Sequence:
#
# PCOD8073947 Si02
#       8
#     4   4   4   4   4   4   4   4
#     4  10  20  35  55  76 105 140 172 208 256 311
#     4   9  16  29  48  70  99 132 169 212 253 297
#     4   8  16  29  46  74 104 128 160 205 250 295
#     4   9  17  30  48  70  97 129 171 219 266 311
#     4   9  17  30  49  72  99 129 169 217 261 306
#     4  10  21  36  51  73 104 139 177 216 260 310
#     4  11  21  33  50  73 102 136 176 223 268 313
#     4  10  20  35  57  84 111 134 166 207 252 303
#
# _framework density 17.789435000000001
#
# number of rings (size 3 to 8) (size 9 to 14) (size 15 to 20)
#    0.000    2.500    1.250    2.250    0.000    6.000 
#    0.000    0.625    0.000    0.750    0.000    0.000 
#    0.000    0.000    0.000    0.000    0.000    0.000 
#
# Total GULP energy -396733.541786 kJ/mol
# GULP energy per Si atom -12397.923181 kJ/mol
# Density = 1.774895 g / cm^3
# Si number density = 17.789435 Si / 1000 Ang^3
#
#
#
# Elastic Constant Matrix: (Units=GPa)
#
#
# Indices 1 2 3 4 5 6 
#
# 1 155.2235 73.7899 48.3406 0.0000 13.5596 0.0000
# 2 73.7899 104.3701 38.4449 0.0000 5.7422 0.0000
# 3 48.3406 38.4449 55.4246 0.0000 10.1942 0.0000
# 4 0.0000 0.0000 0.0000 20.3787 0.0000 1.1912
# 5 13.5596 5.7422 10.1942 0.0000 22.5967 0.0000
# 6 0.0000 0.0000 0.0000 1.1912 0.0000 35.8728
#
#
#
# Elastic Compliance Matrix: (Units=1/GPa)
#
#
# Indices 1 2 3 4 5 6 
#
# 1 0.011011 -0.005754 -0.005089 0.000000 -0.002850 0.000000
# 2 -0.005754 0.015890 -0.006430 0.000000 0.002315 0.000000
# 3 -0.005089 -0.006430 0.028438 0.000000 -0.008142 0.000000
# 4 0.000000 0.000000 0.000000 0.049166 0.000000 -0.001633
# 5 -0.002850 0.002315 -0.008142 0.000000 0.049049 0.000000
# 6 0.000000 0.000000 0.000000 -0.001633 0.000000 0.027930
#
#
# Mechanical properties :
#
#
# Convention : Reuss Voigt Hill
#
# Bulk Modulus (GPa) = 48.08716 70.68543 59.38629
# Shear Modulus (GPa) = 22.42540 26.06582 24.24561
#
# Velocity S-wave (km/s) = 3.55435 3.83200 3.69578
# Velocity P-wave (km/s) = 6.62831 7.70712 7.18798
#
# Compressibility (1/GPa) = 0.02079557
#
# Stress axis : x y z
#
# Youngs Moduli (GPa) = 90.81667 62.93195 35.16397
#
# Poissons Ratio (x) = 0.36209 0.17894
# Poissons Ratio (y) = 0.52254 0.22609
# Poissons Ratio (z) = 0.46213 0.40463
#
# Static dielectric constant tensor:
#      x y z
#    x 3.533820 0.000000 0.222190 
#    y 0.000000 3.492870 0.000000 
#    z 0.222190 0.000000 2.927880 
# 
# 
# High freq. dielectric constant tensor:
#      x y z
#    x 1.694310 0.000000 0.020830 
#    y 0.000000 1.696730 0.000000 
#    z 0.020830 0.000000 1.645170 
# 
# From -- ./inp_files/42736.got.cif
#   From: 2010.06.25/outbox.cif.g09.slc.cpg/sg11_22_cif.got.tgz:42736.got - 2010.06.27 23:14:04.
