data_PCOD8073770
_publ_section_title
;
Structure prediction by ZEFSAII (Michael W. Deem and Ramdas Pophale) SiO2 
 PCOD8073770
Probable space group: P 21/M
;
_chemical_formula_sum "Si O2"
_cell_formula_units_Z 32
_cell_length_a 31.257078
_cell_length_b 8.638385
_cell_length_c 11.416404
_cell_angle_alpha 90.000000
_cell_angle_beta 147.801667
_cell_angle_gamma 90.000000
_cell_volume 1642.542371
_symmetry_space_group_name_H-M "P 21/M"
_symmetry_group_IT_number 11
_symmetry_cell_setting 'monoclinic'
loop_
_space_group_symop_operation_xyz
x,y,z
-x,1/2+y,-z
-x,-y,-z
x,1/2-y,z
loop_
_atom_site_type_symbol
_atom_site_label
_atom_site_fract_x
_atom_site_fract_y
_atom_site_fract_z
Si Si1 0.863329 0.428212 0.658402
Si Si2 0.789371 0.430743 0.149808
Si Si3 0.573534 0.572425 0.033641
Si Si4 0.060184 0.430439 0.386543
Si Si5 0.104761 0.430678 0.018795
Si Si6 0.303872 0.927369 0.839890
Si Si7 0.752162 0.929502 0.820672
Si Si8 0.607922 0.427667 0.354310
O O1 0.886139 0.250000 0.688083
O O2 0.914925 0.530846 0.688696
O O3 0.884314 0.472795 0.838077
O O4 0.769105 0.455880 0.419211
O O5 0.808722 0.250000 0.207798
O O6 0.871508 0.522895 0.362609
O O7 0.723129 0.479247 0.092890
O O8 0.754116 0.469175 0.942104
O O9 0.587296 0.750000 0.101179
O O10 0.621140 0.532239 0.025289
O O11 0.607607 0.465419 0.215924
O O12 0.479712 0.539940 0.794152
O O13 0.042389 0.250000 0.356473
O O14 0.980050 0.524153 0.235244
O O15 0.109127 0.250000 0.058354
O O16 0.173984 0.480042 0.089494
O O17 0.331817 0.750000 0.903878
O O18 0.757183 0.750000 0.865897
O O19 0.669337 0.961837 0.562873
O O20 0.634190 0.250000 0.431133
#
# Coordination Sequence:
#
# PCOD8073770 Si02
#       8
#     4   4   4   4   4   4   4   4
#     4  10  20  35  55  82 115 147 181 224 277 329
#     4  10  22  41  61  80 108 145 184 228 276 324
#     4  10  20  34  57  88 117 146 181 222 269 323
#     4  11  22  37  58  82 109 144 185 227 274 325
#     4  11  23  37  54  80 112 144 182 228 278 331
#     4   9  19  35  57  83 110 145 184 223 272 328
#     4  11  24  40  59  82 108 143 187 231 274 322
#     4  10  21  37  57  83 117 151 180 219 273 326
#
# _framework density 19.481992000000002
#
# number of rings (size 3 to 8) (size 9 to 14) (size 15 to 20)
#    0.000    1.750    0.000    5.250    0.000    9.000 
#    0.000    0.625    0.000    0.000    0.000    0.000 
#    0.000    0.000    0.000    0.000    0.000    0.000 
#
# Total GULP energy -396993.479821 kJ/mol
# GULP energy per Si atom -12406.046244 kJ/mol
# Density = 1.943765 g / cm^3
# Si number density = 19.481992 Si / 1000 Ang^3
#
#
#
# Elastic Constant Matrix: (Units=GPa)
#
#
# Indices 1 2 3 4 5 6 
#
# 1 78.3033 23.1202 61.9554 0.0000 7.8850 0.0000
# 2 23.1202 55.1006 25.0160 0.0000 8.5186 0.0000
# 3 61.9554 25.0160 83.1644 0.0000 13.8469 0.0000
# 4 0.0000 0.0000 0.0000 32.1285 0.0000 -1.1850
# 5 7.8850 8.5186 13.8469 0.0000 26.3484 0.0000
# 6 0.0000 0.0000 0.0000 -1.1850 0.0000 31.1435
#
#
#
# Elastic Compliance Matrix: (Units=1/GPa)
#
#
# Indices 1 2 3 4 5 6 
#
# 1 0.031863 -0.003353 -0.023366 0.000000 0.003828 0.000000
# 2 -0.003353 0.021726 -0.003326 0.000000 -0.004273 0.000000
# 3 -0.023366 -0.003326 0.031878 0.000000 -0.008685 0.000000
# 4 0.000000 0.000000 0.000000 0.031169 0.000000 0.001186
# 5 0.003828 -0.004273 -0.008685 0.000000 0.042753 0.000000
# 6 0.000000 0.000000 0.000000 0.001186 0.000000 0.032155
#
#
# Mechanical properties :
#
#
# Convention : Reuss Voigt Hill
#
# Bulk Modulus (GPa) = 39.40539 48.52793 43.96666
# Shear Modulus (GPa) = 19.22391 25.02252 22.12321
#
# Velocity S-wave (km/s) = 3.14467 3.58773 3.37348
# Velocity P-wave (km/s) = 5.78409 6.49042 6.14741
#
# Compressibility (1/GPa) = 0.02537724
#
# Stress axis : x y z
#
# Youngs Moduli (GPa) = 31.38417 46.02741 31.36973
#
# Poissons Ratio (x) = 0.15435 0.73298
# Poissons Ratio (y) = 0.10524 0.10432
# Poissons Ratio (z) = 0.73332 0.15307
#
# Static dielectric constant tensor:
#      x y z
#    x 3.500420 0.000000 0.165100 
#    y 0.000000 3.524450 0.000000 
#    z 0.165100 0.000000 3.466820 
# 
# 
# High freq. dielectric constant tensor:
#      x y z
#    x 1.754860 0.000000 0.010890 
#    y 0.000000 1.768070 0.000000 
#    z 0.010890 0.000000 1.753060 
# 
# From -- ./inp_files/45351.got.cif
#   From: 2010.06.25/outbox.cif.g09.slc.cpg/sg11_23_cif.got.tgz:45351.got - 2010.06.27 23:14:04.
