data_PCOD8073012
_publ_section_title
;
Structure prediction by ZEFSAII (Michael W. Deem and Ramdas Pophale) SiO2 
 PCOD8073012
Probable space group: P 21/M
;
_chemical_formula_sum "Si O2"
_cell_formula_units_Z 28
_cell_length_a 20.202028
_cell_length_b 9.682532
_cell_length_c 14.319300
_cell_angle_alpha 90.000000
_cell_angle_beta 147.586693
_cell_angle_gamma 90.000000
_cell_volume 1501.374456
_symmetry_space_group_name_H-M "P 21/M"
_symmetry_group_IT_number 11
_symmetry_cell_setting 'monoclinic'
loop_
_space_group_symop_operation_xyz
x,y,z
-x,1/2+y,-z
-x,-y,-z
x,1/2-y,z
loop_
_atom_site_type_symbol
_atom_site_label
_atom_site_fract_x
_atom_site_fract_y
_atom_site_fract_z
Si Si1 0.426202 0.590505 0.711181
Si Si2 0.121998 0.089791 0.650688
Si Si3 0.064344 0.409263 0.232100
Si Si4 0.761361 0.091970 0.672000
Si Si5 0.217992 0.590667 0.092833
Si Si6 0.305630 0.090050 0.033211
Si Si7 0.253137 0.408608 0.618908
O O1 0.409910 0.750000 0.719151
O O2 0.357892 0.556124 0.532269
O O3 0.568768 0.549879 0.870435
O O4 0.369237 0.501246 0.727253
O O5 0.084087 0.250000 0.597658
O O6 0.214299 0.050048 0.676901
O O7 0.190865 0.057378 0.829272
O O8 0.000000 0.000000 0.500000
O O9 0.071250 0.250000 0.209693
O O10 0.122833 0.498112 0.218542
O O11 0.135978 0.437914 0.413462
O O12 0.924276 0.456313 0.080399
O O13 0.803357 0.250000 0.708167
O O14 0.727064 0.064112 0.738693
O O15 0.231135 0.750000 0.078832
O O16 0.296520 0.499264 0.115572
O O17 0.309013 0.250000 0.066454
O O18 0.295357 0.250000 0.663016
#
# Coordination Sequence:
#
# PCOD8073012 Si02
#       7
#     4   4   4   4   4   4   4
#     4   9  19  36  53  73 103 135 170 211 253 298
#     4  10  21  37  56  79 106 134 166 205 252 305
#     4   9  17  30  49  74 102 129 162 208 259 306
#     4   9  18  32  51  74 101 134 171 211 253 299
#     4  10  20  33  50  74 103 136 173 212 254 298
#     4  10  22  37  52  73 103 137 171 209 252 300
#     4   9  18  33  53  75 100 131 166 208 255 302
#
# _framework density 18.649577000000001
#
# number of rings (size 3 to 8) (size 9 to 14) (size 15 to 20)
#    0.000    2.571    0.000    1.286    0.000    5.143 
#    0.000    2.857    0.000    0.000    0.000    0.000 
#    0.000    0.000    0.000    0.000    0.000    0.000 
#
# Total GULP energy -347293.932700 kJ/mol
# GULP energy per Si atom -12403.354739 kJ/mol
# Density = 1.860713 g / cm^3
# Si number density = 18.649577 Si / 1000 Ang^3
#
#
#
# Elastic Constant Matrix: (Units=GPa)
#
#
# Indices 1 2 3 4 5 6 
#
# 1 114.5276 65.0534 29.9214 0.0000 1.8687 0.0000
# 2 65.0534 73.5830 32.7141 0.0000 8.3531 0.0000
# 3 29.9214 32.7141 53.5750 0.0000 12.1149 0.0000
# 4 0.0000 0.0000 0.0000 24.1159 0.0000 4.7189
# 5 1.8687 8.3531 12.1149 0.0000 28.6010 0.0000
# 6 0.0000 0.0000 0.0000 4.7189 0.0000 39.2333
#
#
#
# Elastic Compliance Matrix: (Units=1/GPa)
#
#
# Indices 1 2 3 4 5 6 
#
# 1 0.017947 -0.015734 -0.001316 0.000000 0.003980 0.000000
# 2 -0.015734 0.032459 -0.010088 0.000000 -0.004179 0.000000
# 3 -0.001316 -0.010088 0.027510 0.000000 -0.008620 0.000000
# 4 0.000000 0.000000 0.000000 0.042466 0.000000 -0.005108
# 5 0.003980 -0.004179 -0.008620 0.000000 0.039576 0.000000
# 6 0.000000 0.000000 0.000000 -0.005108 0.000000 0.026103
#
#
# Mechanical properties :
#
#
# Convention : Reuss Voigt Hill
#
# Bulk Modulus (GPa) = 42.30038 55.22924 48.76481
# Shear Modulus (GPa) = 20.14362 25.98983 23.06672
#
# Velocity S-wave (km/s) = 3.29007 3.73713 3.52070
# Velocity P-wave (km/s) = 6.09620 6.94982 6.53696
#
# Compressibility (1/GPa) = 0.02364045
#
# Stress axis : x y z
#
# Youngs Moduli (GPa) = 55.71854 30.80778 36.35037
#
# Poissons Ratio (x) = 0.48472 0.04785
# Poissons Ratio (y) = 0.87665 0.36671
# Poissons Ratio (z) = 0.07334 0.31080
#
# Static dielectric constant tensor:
#      x y z
#    x 3.342450 0.000000 -0.074120 
#    y 0.000000 3.429620 0.000000 
#    z -0.074120 0.000000 3.437280 
# 
# 
# High freq. dielectric constant tensor:
#      x y z
#    x 1.720220 0.000000 -0.005770 
#    y 0.000000 1.719630 0.000000 
#    z -0.005770 0.000000 1.724670 
# 
# From -- ./inp_files/37446.got.cif
#   From: 2010.06.25/outbox.cif.g09.slc.cpg/sg11_19_cif.got.tgz:37446.got - 2010.06.27 23:14:04.
