data_PCOD8073952
_publ_section_title
;
Structure prediction by ZEFSAII (Michael W. Deem and Ramdas Pophale) SiO2 
 PCOD8073952
Probable space group: P 21/M
;
_chemical_formula_sum "Si O2"
_cell_formula_units_Z 32
_cell_length_a 15.745492
_cell_length_b 9.003124
_cell_length_c 23.159466
_cell_angle_alpha 90.000000
_cell_angle_beta 30.109257
_cell_angle_gamma 90.000000
_cell_volume 1646.945644
_symmetry_space_group_name_H-M "P 21/M"
_symmetry_group_IT_number 11
_symmetry_cell_setting 'monoclinic'
loop_
_space_group_symop_operation_xyz
x,y,z
-x,1/2+y,-z
-x,-y,-z
x,1/2-y,z
loop_
_atom_site_type_symbol
_atom_site_label
_atom_site_fract_x
_atom_site_fract_y
_atom_site_fract_z
Si Si1 0.678282 0.923676 0.558032
Si Si2 0.009840 0.574380 0.432177
Si Si3 0.345489 0.924203 0.822612
Si Si4 0.507990 0.420485 0.556242
Si Si5 0.157757 0.078131 0.026863
Si Si6 0.317834 0.420024 0.052973
Si Si7 0.698689 0.424669 0.822639
Si Si8 0.169044 0.421119 0.826364
O O1 0.677011 0.750000 0.544487
O O2 0.529789 0.965252 0.690205
O O3 0.852438 0.975585 0.484844
O O4 0.650739 0.008329 0.513789
O O5 0.007228 0.750000 0.443039
O O6 0.180445 0.517936 0.300002
O O7 0.000000 0.500000 0.500000
O O8 0.322888 0.750000 0.846129
O O9 0.319563 0.012781 0.897457
O O10 0.198999 0.980898 0.865684
O O11 0.500000 0.500000 0.500000
O O12 0.557448 0.250000 0.517627
O O13 0.325070 0.439891 0.691731
O O14 0.130709 0.250000 0.026479
O O15 0.191449 0.058188 0.074551
O O16 0.994201 0.981534 0.109819
O O17 0.331806 0.250000 0.064088
O O18 0.240781 0.510570 0.151637
O O19 0.505931 0.476430 0.924271
O O20 0.718844 0.250000 0.814872
O O21 0.142123 0.250000 0.860046
#
# Coordination Sequence:
#
# PCOD8073952 Si02
#       8
#     4   4   4   4   4   4   4   4
#     4   9  20  38  56  81 114 147 187 234 282 335
#     4  10  22  38  59  87 117 150 189 235 288 339
#     4  10  20  35  55  77 109 147 182 223 274 328
#     4  10  21  37  59  83 109 147 187 228 279 337
#     4  11  22  34  53  81 111 142 181 227 274 327
#     4   9  20  37  56  80 108 144 185 227 276 329
#     4   9  19  38  59  79 109 145 182 228 278 328
#     4  10  21  37  54  77 108 142 183 224 271 327
#
# _framework density 19.429907
#
# number of rings (size 3 to 8) (size 9 to 14) (size 15 to 20)
#    0.000    2.250    0.000    1.875    1.750    5.000 
#    0.000    3.750    0.000    0.000    0.000    0.000 
#    0.000    0.000    0.000    0.000    0.000    0.000 
#
# Total GULP energy -396875.227795 kJ/mol
# GULP energy per Si atom -12402.350869 kJ/mol
# Density = 1.938568 g / cm^3
# Si number density = 19.429907 Si / 1000 Ang^3
#
#
#
# Elastic Constant Matrix: (Units=GPa)
#
#
# Indices 1 2 3 4 5 6 
#
# 1 99.5163 33.7025 46.7984 0.0000 11.6167 0.0000
# 2 33.7025 59.2441 31.0810 0.0000 10.8019 0.0000
# 3 46.7984 31.0810 87.6207 0.0000 7.8706 0.0000
# 4 0.0000 0.0000 0.0000 29.2963 0.0000 5.5424
# 5 11.6167 10.8019 7.8706 0.0000 30.6211 0.0000
# 6 0.0000 0.0000 0.0000 5.5424 0.0000 36.7215
#
#
#
# Elastic Compliance Matrix: (Units=1/GPa)
#
#
# Indices 1 2 3 4 5 6 
#
# 1 0.014766 -0.004845 -0.005956 0.000000 -0.002362 0.000000
# 2 -0.004845 0.023294 -0.005223 0.000000 -0.005037 0.000000
# 3 -0.005956 -0.005223 0.016458 0.000000 -0.000128 0.000000
# 4 0.000000 0.000000 0.000000 0.035137 0.000000 -0.005303
# 5 -0.002362 -0.005037 -0.000128 0.000000 0.035363 0.000000
# 6 0.000000 0.000000 0.000000 -0.005303 0.000000 0.028032
#
#
# Mechanical properties :
#
#
# Convention : Reuss Voigt Hill
#
# Bulk Modulus (GPa) = 44.50190 52.17167 48.33678
# Shear Modulus (GPa) = 25.96229 28.31440 27.13835
#
# Velocity S-wave (km/s) = 3.65938 3.82155 3.74134
# Velocity P-wave (km/s) = 6.38813 6.81042 6.60265
#
# Compressibility (1/GPa) = 0.02247095
#
# Stress axis : x y z
#
# Youngs Moduli (GPa) = 67.72415 42.93002 60.76074
#
# Poissons Ratio (x) = 0.20798 0.36188
# Poissons Ratio (y) = 0.32810 0.31734
# Poissons Ratio (z) = 0.40335 0.22422
#
# Static dielectric constant tensor:
#      x y z
#    x 3.500330 0.000000 0.010320 
#    y 0.000000 3.623930 0.000000 
#    z 0.010320 0.000000 3.671720 
# 
# 
# High freq. dielectric constant tensor:
#      x y z
#    x 1.757350 0.000000 0.002680 
#    y 0.000000 1.757750 0.000000 
#    z 0.002680 0.000000 1.758390 
# 
# From -- ./inp_files/69002.got.cif
#   From: 2010.06.25/outbox.cif.g09.slc.cpg/sg11_35_cif.got.tgz:69002.got - 2010.06.27 23:14:04.
