data_PCOD8073648
_publ_section_title
;
Structure prediction by ZEFSAII (Michael W. Deem and Ramdas Pophale) SiO2 
 PCOD8073648
Probable space group: P 21/M
;
_chemical_formula_sum "Si O2"
_cell_formula_units_Z 32
_cell_length_a 15.333747
_cell_length_b 8.685359
_cell_length_c 12.095366
_cell_angle_alpha 90.000000
_cell_angle_beta 86.935685
_cell_angle_gamma 90.000000
_cell_volume 1608.546667
_symmetry_space_group_name_H-M "P 21/M"
_symmetry_group_IT_number 11
_symmetry_cell_setting 'monoclinic'
loop_
_space_group_symop_operation_xyz
x,y,z
-x,1/2+y,-z
-x,-y,-z
x,1/2-y,z
loop_
_atom_site_type_symbol
_atom_site_label
_atom_site_fract_x
_atom_site_fract_y
_atom_site_fract_z
Si Si1 0.930519 0.431672 0.089594
Si Si2 0.025305 0.429570 0.677261
Si Si3 0.122897 0.430886 0.447962
Si Si4 0.256063 0.432150 0.913265
Si Si5 0.443042 0.575604 0.286271
Si Si6 0.362497 0.067091 0.698648
Si Si7 0.591499 0.074062 0.960704
Si Si8 0.315744 0.430773 0.464124
O O1 0.936072 0.250000 0.082136
O O2 0.948765 0.482142 0.213799
O O3 0.835204 0.485698 0.056481
O O4 0.000000 0.500000 0.000000
O O5 0.027179 0.250000 0.704899
O O6 0.092225 0.472231 0.574361
O O7 0.929414 0.478048 0.642658
O O8 0.111179 0.250000 0.426616
O O9 0.221922 0.490206 0.429000
O O10 0.241619 0.250000 0.917609
O O11 0.291552 0.490123 0.792128
O O12 0.327401 0.477686 0.999294
O O13 0.443293 0.750000 0.331896
O O14 0.541412 0.509718 0.272214
O O15 0.397630 0.567254 0.171257
O O16 0.390262 0.470027 0.373128
O O17 0.361896 0.250000 0.697316
O O18 0.338339 0.995280 0.581580
O O19 0.594107 0.250000 0.003149
O O20 0.500000 0.000000 0.000000
O O21 0.310065 0.250000 0.480303
#
# Coordination Sequence:
#
# PCOD8073648 Si02
#       8
#     4   4   4   4   4   4   4   4
#     4  12  26  44  64  91 124 159 201 253 308 372
#     4  10  20  38  64  89 116 156 200 249 306 360
#     4   9  19  36  58  87 121 158 200 247 300 363
#     4  11  22  41  67  92 120 159 200 248 307 367
#     4  10  21  37  55  80 117 157 194 242 299 349
#     4   9  18  36  59  83 116 156 194 238 297 354
#     4  11  22  39  61  87 119 158 205 256 303 358
#     4  10  20  34  55  83 116 154 197 239 289 355
#
# _framework density 19.893733000000001
#
# number of rings (size 3 to 8) (size 9 to 14) (size 15 to 20)
#    0.000    1.750    1.250    3.375    0.000    5.000 
#    0.000    5.000    0.000    0.000    0.000    0.000 
#    0.000    0.000    0.000    0.000    0.000    0.000 
#
# Total GULP energy -396865.058352 kJ/mol
# GULP energy per Si atom -12402.033074 kJ/mol
# Density = 1.984845 g / cm^3
# Si number density = 19.893733 Si / 1000 Ang^3
#
#
#
# Elastic Constant Matrix: (Units=GPa)
#
#
# Indices 1 2 3 4 5 6 
#
# 1 150.8104 40.9213 50.9034 0.0000 -1.5569 0.0000
# 2 40.9213 78.2061 31.5889 0.0000 3.3610 0.0000
# 3 50.9034 31.5889 80.1346 0.0000 4.9095 0.0000
# 4 0.0000 0.0000 0.0000 32.1033 0.0000 -0.3270
# 5 -1.5569 3.3610 4.9095 0.0000 31.2175 0.0000
# 6 0.0000 0.0000 0.0000 -0.3270 0.0000 33.6322
#
#
#
# Elastic Compliance Matrix: (Units=1/GPa)
#
#
# Indices 1 2 3 4 5 6 
#
# 1 0.009008 -0.002890 -0.004675 0.000000 0.001496 0.000000
# 2 -0.002890 0.016150 -0.004459 0.000000 -0.001182 0.000000
# 3 -0.004675 -0.004459 0.017358 0.000000 -0.002483 0.000000
# 4 0.000000 0.000000 0.000000 0.031153 0.000000 0.000303
# 5 0.001496 -0.001182 -0.002483 0.000000 0.032626 0.000000
# 6 0.000000 0.000000 0.000000 0.000303 0.000000 0.029736
#
#
# Mechanical properties :
#
#
# Convention : Reuss Voigt Hill
#
# Bulk Modulus (GPa) = 54.13885 61.77534 57.95710
# Shear Modulus (GPa) = 30.07804 31.77309 30.92557
#
# Velocity S-wave (km/s) = 3.89258 4.00076 3.94704
# Velocity P-wave (km/s) = 6.89028 7.24303 7.06886
#
# Compressibility (1/GPa) = 0.01847102
#
# Stress axis : x y z
#
# Youngs Moduli (GPa) = 111.00942 61.91810 57.60961
#
# Poissons Ratio (x) = 0.17892 0.26931
# Poissons Ratio (y) = 0.32077 0.25685
# Poissons Ratio (z) = 0.51895 0.27606
#
# Static dielectric constant tensor:
#      x y z
#    x 3.807330 0.000000 0.126190 
#    y 0.000000 3.543110 0.000000 
#    z 0.126190 0.000000 3.684650 
# 
# 
# High freq. dielectric constant tensor:
#      x y z
#    x 1.787730 0.000000 0.006660 
#    y 0.000000 1.763790 0.000000 
#    z 0.006660 0.000000 1.780200 
# 
# From -- ./inp_files/38089.got.cif
#   From: 2010.06.25/outbox.cif.g09.slc.cpg/sg11_20_cif.got.tgz:38089.got - 2010.06.27 23:14:04.
