data_PCOD8073052
_publ_section_title
;
Structure prediction by ZEFSAII (Michael W. Deem and Ramdas Pophale) SiO2 
 PCOD8073052
Probable space group: P 21/M
;
_chemical_formula_sum "Si O2"
_cell_formula_units_Z 32
_cell_length_a 19.690248
_cell_length_b 8.952098
_cell_length_c 14.121649
_cell_angle_alpha 90.000000
_cell_angle_beta 45.628701
_cell_angle_gamma 90.000000
_cell_volume 1779.344282
_symmetry_space_group_name_H-M "P 21/M"
_symmetry_group_IT_number 11
_symmetry_cell_setting 'monoclinic'
loop_
_space_group_symop_operation_xyz
x,y,z
-x,1/2+y,-z
-x,-y,-z
x,1/2-y,z
loop_
_atom_site_type_symbol
_atom_site_label
_atom_site_fract_x
_atom_site_fract_y
_atom_site_fract_z
Si Si1 0.746162 0.424562 0.651274
Si Si2 0.899281 0.075396 0.850739
Si Si3 0.729846 0.074818 0.876769
Si Si4 0.236631 0.074172 0.652460
Si Si5 0.772551 0.576468 0.119792
Si Si6 0.604573 0.924312 0.146251
Si Si7 0.900799 0.427739 0.354701
Si Si8 0.608690 0.074576 0.621147
O O1 0.758241 0.250000 0.654072
O O2 0.738029 0.496777 0.763586
O O3 0.839081 0.483530 0.504993
O O4 0.652629 0.462415 0.681345
O O5 0.921346 0.250000 0.836784
O O6 0.826317 0.036587 0.838127
O O7 0.994017 0.987117 0.733403
O O8 0.857187 0.019503 0.991488
O O9 0.710941 0.250000 0.892088
O O10 0.639814 0.002656 0.016316
O O11 0.229576 0.250000 0.642282
O O12 0.235738 0.032117 0.763330
O O13 0.145627 0.995202 0.694672
O O14 0.335318 0.014363 0.514151
O O15 0.797298 0.750000 0.081435
O O16 0.672717 0.535748 0.167572
O O17 0.601865 0.750000 0.127349
O O18 0.499537 0.981926 0.274490
O O19 0.900277 0.250000 0.345838
O O20 0.618133 0.250000 0.589501
#
# Coordination Sequence:
#
# PCOD8073052 Si02
#       8
#     4   4   4   4   4   4   4   4
#     4   8  16  32  51  71  98 132 165 197 241 293
#     4  10  20  33  51  75 100 127 163 206 245 286
#     4   9  18  33  51  72 100 131 164 204 245 285
#     4  10  20  34  52  74  99 127 164 208 246 286
#     4   9  19  35  52  71  99 133 165 201 246 292
#     4   9  18  33  51  73 101 132 167 202 240 291
#     4  10  20  35  54  73  98 132 163 197 246 299
#     4   9  18  33  52  73 101 135 165 198 243 293
#
# _framework density 17.984155000000001
#
# number of rings (size 3 to 8) (size 9 to 14) (size 15 to 20)
#    0.000    2.750    0.000    1.875    0.000    4.000 
#    0.000    3.125    0.000    0.000    0.000    0.000 
#    0.000    0.000    0.000    0.000    0.000    0.000 
#
# Total GULP energy -396818.872361 kJ/mol
# GULP energy per Si atom -12400.589761 kJ/mol
# Density = 1.794322 g / cm^3
# Si number density = 17.984155 Si / 1000 Ang^3
#
#
#
# Elastic Constant Matrix: (Units=GPa)
#
#
# Indices 1 2 3 4 5 6 
#
# 1 55.8360 22.8662 36.5537 0.0000 10.3993 0.0000
# 2 22.8662 49.1266 28.6688 0.0000 2.3591 0.0000
# 3 36.5537 28.6688 75.4832 0.0000 5.8483 0.0000
# 4 0.0000 0.0000 0.0000 32.4119 0.0000 -2.1956
# 5 10.3993 2.3591 5.8483 0.0000 41.5379 0.0000
# 6 0.0000 0.0000 0.0000 -2.1956 0.0000 22.8838
#
#
#
# Elastic Compliance Matrix: (Units=1/GPa)
#
#
# Indices 1 2 3 4 5 6 
#
# 1 0.028867 -0.006762 -0.011000 0.000000 -0.005294 0.000000
# 2 -0.006762 0.027736 -0.007349 0.000000 0.001152 0.000000
# 3 -0.011000 -0.007349 0.021353 0.000000 0.000165 0.000000
# 4 0.000000 0.000000 0.000000 0.031055 0.000000 0.002980
# 5 -0.005294 0.001152 0.000165 0.000000 0.025311 0.000000
# 6 0.000000 0.000000 0.000000 0.002980 0.000000 0.043985
#
#
# Mechanical properties :
#
#
# Convention : Reuss Voigt Hill
#
# Bulk Modulus (GPa) = 36.05817 39.62481 37.84149
# Shear Modulus (GPa) = 21.02829 25.52386 23.27607
#
# Velocity S-wave (km/s) = 3.42317 3.77137 3.60148
# Velocity P-wave (km/s) = 5.97642 6.40666 6.19528
#
# Compressibility (1/GPa) = 0.02773297
#
# Stress axis : x y z
#
# Youngs Moduli (GPa) = 34.64221 36.05364 46.83074
#
# Poissons Ratio (x) = 0.24381 0.51516
# Poissons Ratio (y) = 0.23426 0.34416
# Poissons Ratio (z) = 0.38108 0.26496
#
# Static dielectric constant tensor:
#      x y z
#    x 3.402120 0.000000 0.044980 
#    y 0.000000 3.209310 0.000000 
#    z 0.044980 0.000000 3.461510 
# 
# 
# High freq. dielectric constant tensor:
#      x y z
#    x 1.696400 0.000000 -0.000390 
#    y 0.000000 1.686370 0.000000 
#    z -0.000390 0.000000 1.701380 
# 
# From -- ./inp_files/54261.got.cif
#   From: 2010.06.25/outbox.cif.g09.slc.cpg/sg11_28_cif.got.tgz:54261.got - 2010.06.27 23:14:04.
