data_PCOD8073886
_publ_section_title
;
Structure prediction by ZEFSAII (Michael W. Deem and Ramdas Pophale) SiO2 
 PCOD8073886
Probable space group: P 21/M
;
_chemical_formula_sum "Si O2"
_cell_formula_units_Z 24
_cell_length_a 24.170905
_cell_length_b 9.003852
_cell_length_c 17.784959
_cell_angle_alpha 90.000000
_cell_angle_beta 20.209687
_cell_angle_gamma 90.000000
_cell_volume 1337.112519
_symmetry_space_group_name_H-M "P 21/M"
_symmetry_group_IT_number 11
_symmetry_cell_setting 'monoclinic'
loop_
_space_group_symop_operation_xyz
x,y,z
-x,1/2+y,-z
-x,-y,-z
x,1/2-y,z
loop_
_atom_site_type_symbol
_atom_site_label
_atom_site_fract_x
_atom_site_fract_y
_atom_site_fract_z
Si Si1 0.437335 0.085298 0.969033
Si Si2 0.583331 0.421487 0.506242
Si Si3 0.266396 0.079386 0.820756
Si Si4 0.082182 0.575269 0.679163
Si Si5 0.741959 0.085912 0.687550
Si Si6 0.634293 0.574111 0.597541
O O1 0.394049 0.250000 0.995237
O O2 0.581239 0.091318 0.843931
O O3 0.485822 0.985319 0.836263
O O4 0.281041 0.019333 0.210761
O O5 0.618265 0.250000 0.481061
O O6 0.706487 0.473580 0.284960
O O7 0.402261 0.445888 0.709681
O O8 0.609606 0.523575 0.544242
O O9 0.265273 0.250000 0.794662
O O10 0.099636 0.033619 0.071271
O O11 0.118859 0.750000 0.642049
O O12 0.117732 0.527693 0.547132
O O13 0.196113 0.487727 0.590657
O O14 0.783066 0.250000 0.665496
O O15 0.636587 0.750000 0.599713
#
# Coordination Sequence:
#
# PCOD8073886 Si02
#       6
#     4   4   4   4   4   4
#     4   9  16  27  44  67  97 130 162 198 240 286
#     4  10  20  35  54  74  98 129 164 202 245 294
#     4   9  19  36  56  75  96 127 165 202 244 295
#     4   9  18  33  52  75 102 129 161 203 247 289
#     4   8  14  25  43  68  97 127 157 193 240 290
#     4  11  21  32  49  74 102 131 165 204 244 287
#
# _framework density 17.949124000000001
#
# number of rings (size 3 to 8) (size 9 to 14) (size 15 to 20)
#    0.000    2.667    0.000    3.500    0.000    6.000 
#    0.000    0.000    0.000    1.000    0.000    0.000 
#    0.000    0.000    0.000    0.000    0.000    0.000 
#
# Total GULP energy -297562.892309 kJ/mol
# GULP energy per Si atom -12398.453846 kJ/mol
# Density = 1.790827 g / cm^3
# Si number density = 17.949124 Si / 1000 Ang^3
#
#
#
# Elastic Constant Matrix: (Units=GPa)
#
#
# Indices 1 2 3 4 5 6 
#
# 1 25.7709 35.1766 72.7501 0.0000 8.3061 0.0000
# 2 35.1766 107.2003 63.3379 0.0000 9.9177 0.0000
# 3 72.7501 63.3379 135.5811 0.0000 30.8189 0.0000
# 4 0.0000 0.0000 0.0000 26.4741 0.0000 9.0145
# 5 8.3061 9.9177 30.8189 0.0000 15.3106 0.0000
# 6 0.0000 0.0000 0.0000 9.0145 0.0000 20.1300
#
#
#
# Elastic Compliance Matrix: (Units=1/GPa)
#
#
# Indices 1 2 3 4 5 6 
#
# 1 -0.046377 -0.002004 0.036514 0.000000 -0.047041 0.000000
# 2 -0.002004 0.013212 -0.006266 0.000000 0.005141 0.000000
# 3 0.036514 -0.006266 -0.010526 0.000000 0.005437 0.000000
# 4 0.000000 0.000000 0.000000 0.044569 0.000000 -0.019958
# 5 -0.047041 0.005141 0.005437 0.000000 0.076560 0.000000
# 6 0.000000 0.000000 0.000000 -0.019958 0.000000 0.058615
#
#
# Mechanical properties :
#
#
# Convention : Reuss Voigt Hill
#
# Bulk Modulus (GPa) = 78.13250 67.89793 73.01522
# Shear Modulus (GPa) = 59.64447 18.86878 39.25662
#
# Velocity S-wave (km/s) = 5.77078 3.24580 4.68172
# Velocity P-wave (km/s) = 9.38227 7.20812 8.36612
#
# Compressibility (1/GPa) = 0.01279877
#
# Stress axis : x y z
#
# Youngs Moduli (GPa) = -21.56250 75.68789 -95.00424
#
# Poissons Ratio (x) = 0.15165 3.46897
# Poissons Ratio (y) = -0.04320 -0.59526
# Poissons Ratio (z) = 0.78733 0.47423
#
# Static dielectric constant tensor:
#      x y z
#    x 3.077660 0.000000 0.314230 
#    y 0.000000 3.456810 0.000000 
#    z 0.314230 0.000000 3.468040 
# 
# 
# High freq. dielectric constant tensor:
#      x y z
#    x 1.667940 0.000000 0.030050 
#    y 0.000000 1.700420 0.000000 
#    z 0.030050 0.000000 1.689370 
# 
# From -- ./inp_files/46571.got.cif
#   From: 2010.06.25/outbox.cif.g09.slc.cpg/sg11_24_cif.got.tgz:46571.got - 2010.06.27 23:14:04.
