data_PCOD8073442
_publ_section_title
;
Structure prediction by ZEFSAII (Michael W. Deem and Ramdas Pophale) SiO2 
 PCOD8073442
Probable space group: P 21/M
;
_chemical_formula_sum "Si O2"
_cell_formula_units_Z 24
_cell_length_a 16.388736
_cell_length_b 8.850814
_cell_length_c 22.568211
_cell_angle_alpha 90.000000
_cell_angle_beta 22.057737
_cell_angle_gamma 90.000000
_cell_volume 1229.370676
_symmetry_space_group_name_H-M "P 21/M"
_symmetry_group_IT_number 11
_symmetry_cell_setting 'monoclinic'
loop_
_space_group_symop_operation_xyz
x,y,z
-x,1/2+y,-z
-x,-y,-z
x,1/2-y,z
loop_
_atom_site_type_symbol
_atom_site_label
_atom_site_fract_x
_atom_site_fract_y
_atom_site_fract_z
Si Si1 0.527063 0.428256 0.268637
Si Si2 0.891706 0.416816 0.487674
Si Si3 0.716710 0.083526 0.737499
Si Si4 0.450391 0.425565 0.625689
Si Si5 0.720165 0.930025 0.023176
Si Si6 0.173214 0.073892 0.698263
O O1 0.550502 0.250000 0.246458
O O2 0.273285 0.474538 0.436133
O O3 0.622207 0.483513 0.267216
O O4 0.669617 0.506497 0.122161
O O5 0.883648 0.250000 0.464264
O O6 0.825727 0.407751 0.600063
O O7 0.139470 0.477825 0.316379
O O8 0.712958 0.250000 0.768646
O O9 0.471363 0.022529 0.893830
O O10 0.479011 0.250000 0.621513
O O11 0.678141 0.489062 0.449051
O O12 0.261956 0.453086 0.704644
O O13 0.739749 0.750000 0.014794
O O14 0.936204 0.003195 0.852133
O O15 0.168101 0.250000 0.685576
#
# Coordination Sequence:
#
# PCOD8073442 Si02
#       6
#     4   4   4   4   4   4
#     4  11  21  33  52  78 107 137 173 217 259 302
#     4   9  16  27  45  70 101 135 169 207 253 303
#     4   8  15  27  44  69 100 134 170 206 247 298
#     4  10  21  38  57  76 102 136 173 212 256 310
#     4  10  20  34  53  78 108 139 172 213 259 304
#     4  10  21  37  57  79 102 133 173 213 256 309
#
# _framework density 19.522183999999999
#
# number of rings (size 3 to 8) (size 9 to 14) (size 15 to 20)
#    0.000    2.333    0.000    4.500    0.000    7.333 
#    0.000    0.000    0.000    1.000    0.000    0.000 
#    0.000    0.000    0.000    0.000    0.000    0.000 
#
# Total GULP energy -297586.843507 kJ/mol
# GULP energy per Si atom -12399.451813 kJ/mol
# Density = 1.947775 g / cm^3
# Si number density = 19.522184 Si / 1000 Ang^3
#
#
#
# Elastic Constant Matrix: (Units=GPa)
#
#
# Indices 1 2 3 4 5 6 
#
# 1 8.9718 11.9528 0.0978 0.0000 -2.8396 0.0000
# 2 11.9528 -11.3697 -4.0266 0.0000 -27.8283 0.0000
# 3 0.0978 -4.0266 71.4982 0.0000 -32.5623 0.0000
# 4 0.0000 0.0000 0.0000 31.5248 0.0000 -5.1063
# 5 -2.8396 -27.8283 -32.5623 0.0000 20.9418 0.0000
# 6 0.0000 0.0000 0.0000 -5.1063 0.0000 29.2546
#
#
#
# Elastic Compliance Matrix: (Units=1/GPa)
#
#
# Indices 1 2 3 4 5 6 
#
# 1 0.129701 -0.001340 0.023800 0.000000 0.052813 0.000000
# 2 -0.001340 -0.006415 -0.014817 0.000000 -0.031745 0.000000
# 3 0.023800 -0.014817 0.019263 0.000000 0.013489 0.000000
# 4 0.000000 0.000000 0.000000 0.032644 0.000000 0.005698
# 5 0.052813 -0.031745 0.013489 0.000000 0.033702 0.000000
# 6 0.000000 0.000000 0.000000 0.005698 0.000000 0.035177
#
#
# Mechanical properties :
#
#
# Convention : Reuss Voigt Hill
#
# Bulk Modulus (GPa) = 6.33573 9.46093 7.89833
# Shear Modulus (GPa) = 17.76841 20.41599 19.09220
#
# Velocity S-wave (km/s) = 3.02017 3.23737 3.13065
# Velocity P-wave (km/s) = 3.92611 4.33945 4.13794
#
# Compressibility (1/GPa) = 0.15783490
#
# Stress axis : x y z
#
# Youngs Moduli (GPa) = 7.71002 -155.88727 51.91417
#
# Poissons Ratio (x) = -0.20882 -1.23553
# Poissons Ratio (y) = 0.01033 0.76922
# Poissons Ratio (z) = -0.18350 -2.30979
#
# Static dielectric constant tensor:
#      x y z
#    x 3.478540 0.000000 -0.297270 
#    y 0.000000 3.761060 0.000000 
#    z -0.297270 0.000000 3.442250 
# 
# 
# High freq. dielectric constant tensor:
#      x y z
#    x 1.742690 0.000000 -0.024950 
#    y 0.000000 1.773650 0.000000 
#    z -0.024950 0.000000 1.741450 
# 
# From -- ./inp_files/46570.got.cif
#   From: 2010.06.25/outbox.cif.g09.slc.cpg/sg11_24_cif.got.tgz:46570.got - 2010.06.27 23:14:04.
