data_PCOD8073791
_publ_section_title
;
Structure prediction by ZEFSAII (Michael W. Deem and Ramdas Pophale) SiO2 
 PCOD8073791
Probable space group: P 21/M
;
_chemical_formula_sum "Si O2"
_cell_formula_units_Z 28
_cell_length_a 21.304478
_cell_length_b 8.820654
_cell_length_c 15.439307
_cell_angle_alpha 90.000000
_cell_angle_beta 27.710250
_cell_angle_gamma 90.000000
_cell_volume 1349.127030
_symmetry_space_group_name_H-M "P 21/M"
_symmetry_group_IT_number 11
_symmetry_cell_setting 'monoclinic'
loop_
_space_group_symop_operation_xyz
x,y,z
-x,1/2+y,-z
-x,-y,-z
x,1/2-y,z
loop_
_atom_site_type_symbol
_atom_site_label
_atom_site_fract_x
_atom_site_fract_y
_atom_site_fract_z
Si Si1 0.685133 0.585442 0.826541
Si Si2 0.619838 0.414548 0.751243
Si Si3 0.433979 0.567941 0.665942
Si Si4 0.141076 0.068045 0.062904
Si Si5 0.352188 0.073356 0.456512
Si Si6 0.901338 0.926101 0.690340
Si Si7 0.950787 0.931669 0.149267
O O1 0.744827 0.750000 0.727252
O O2 0.720121 0.471223 0.705046
O O3 0.752087 0.535826 0.835443
O O4 0.526908 0.600248 0.029841
O O5 0.671816 0.250000 0.655418
O O6 0.611859 0.534801 0.685189
O O7 0.500000 0.500000 0.500000
O O8 0.424852 0.750000 0.671639
O O9 0.532443 0.507362 0.621833
O O10 0.286266 0.499840 0.861449
O O11 0.149043 0.250000 0.047330
O O12 0.095800 0.011857 0.214554
O O13 0.031305 0.003974 0.130687
O O14 0.351034 0.250000 0.471086
O O15 0.203361 0.011020 0.658036
O O16 0.935056 0.750000 0.652395
O O17 0.000000 0.000000 0.500000
O O18 0.965829 0.750000 0.132966
O O19 0.000000 0.000000 0.000000
#
# Coordination Sequence:
#
# PCOD8073791 Si02
#       7
#     4   4   4   4   4   4   4
#     4   9  19  37  56  80 117 156 194 245 303 353
#     4  10  20  34  58  87 114 150 197 246 300 360
#     4  11  23  41  67  97 127 165 210 262 325 388
#     4  11  24  43  65  94 133 172 214 268 323 385
#     4  10  23  40  60  88 123 157 199 252 309 371
#     4  10  23  40  60  85 121 166 212 260 311 369
#     4  11  24  43  66  93 126 167 210 260 322 384
#
# _framework density 20.754161
#
# number of rings (size 3 to 8) (size 9 to 14) (size 15 to 20)
#    0.000    1.714    0.000    3.429    2.000    6.857 
#    0.000    0.000    0.000    0.000    0.000    0.000 
#    0.000    0.000    0.000    0.000    0.000    0.000 
#
# Total GULP energy -347043.643885 kJ/mol
# GULP energy per Si atom -12394.415853 kJ/mol
# Density = 2.070692 g / cm^3
# Si number density = 20.754161 Si / 1000 Ang^3
#
#
#
# Elastic Constant Matrix: (Units=GPa)
#
#
# Indices 1 2 3 4 5 6 
#
# 1 140.1483 33.7990 27.5046 0.0000 9.7314 0.0000
# 2 33.7990 56.0424 31.3610 0.0000 -3.2318 0.0000
# 3 27.5046 31.3610 70.3207 0.0000 7.7539 0.0000
# 4 0.0000 0.0000 0.0000 32.1864 0.0000 5.2509
# 5 9.7314 -3.2318 7.7539 0.0000 39.9073 0.0000
# 6 0.0000 0.0000 0.0000 5.2509 0.0000 34.6719
#
#
#
# Elastic Compliance Matrix: (Units=1/GPa)
#
#
# Indices 1 2 3 4 5 6 
#
# 1 0.008645 -0.004793 -0.000990 0.000000 -0.002304 0.000000
# 2 -0.004793 0.027101 -0.010814 0.000000 0.005465 0.000000
# 3 -0.000990 -0.010814 0.019927 0.000000 -0.004506 0.000000
# 4 0.000000 0.000000 0.000000 0.031856 0.000000 -0.004824
# 5 -0.002304 0.005465 -0.004506 0.000000 0.026938 0.000000
# 6 0.000000 0.000000 0.000000 -0.004824 0.000000 0.029572
#
#
# Mechanical properties :
#
#
# Convention : Reuss Voigt Hill
#
# Bulk Modulus (GPa) = 44.48444 50.20453 47.34448
# Shear Modulus (GPa) = 27.06688 32.94289 30.00489
#
# Velocity S-wave (km/s) = 3.61524 3.98840 3.80640
# Velocity P-wave (km/s) = 6.23756 6.74184 6.49460
#
# Compressibility (1/GPa) = 0.02247977
#
# Stress axis : x y z
#
# Youngs Moduli (GPa) = 115.66771 36.89915 50.18207
#
# Poissons Ratio (x) = 0.17686 0.04968
# Poissons Ratio (y) = 0.55439 0.54267
# Poissons Ratio (z) = 0.11450 0.39903
#
# Static dielectric constant tensor:
#      x y z
#    x 4.243800 0.000000 -0.077570 
#    y 0.000000 4.178410 0.000000 
#    z -0.077570 0.000000 3.729150 
# 
# 
# High freq. dielectric constant tensor:
#      x y z
#    x 1.834440 0.000000 -0.002090 
#    y 0.000000 1.812980 0.000000 
#    z -0.002090 0.000000 1.809860 
# 
# From -- ./inp_files/54443.got.cif
#   From: 2010.06.25/outbox.cif.g09.slc.cpg/sg11_28_cif.got.tgz:54443.got - 2010.06.27 23:14:04.
