data_PCOD8073560
_publ_section_title
;
Structure prediction by ZEFSAII (Michael W. Deem and Ramdas Pophale) SiO2 
 PCOD8073560
Probable space group: P 21/M
;
_chemical_formula_sum "Si O2"
_cell_formula_units_Z 32
_cell_length_a 24.357278
_cell_length_b 9.155400
_cell_length_c 24.252682
_cell_angle_alpha 90.000000
_cell_angle_beta 18.018941
_cell_angle_gamma 90.000000
_cell_volume 1672.976453
_symmetry_space_group_name_H-M "P 21/M"
_symmetry_group_IT_number 11
_symmetry_cell_setting 'monoclinic'
loop_
_space_group_symop_operation_xyz
x,y,z
-x,1/2+y,-z
-x,-y,-z
x,1/2-y,z
loop_
_atom_site_type_symbol
_atom_site_label
_atom_site_fract_x
_atom_site_fract_y
_atom_site_fract_z
Si Si1 0.519397 0.411910 0.925665
Si Si2 0.137747 0.922492 0.115751
Si Si3 0.936343 0.078161 0.935049
Si Si4 0.318256 0.418214 0.614670
Si Si5 0.668485 0.579637 0.270633
Si Si6 0.474353 0.578724 0.861978
Si Si7 0.121392 0.421666 0.542314
Si Si8 0.069448 0.588043 0.485440
O O1 0.434979 0.250000 0.012875
O O2 0.424923 0.497284 0.966014
O O3 0.722321 0.397279 0.716974
O O4 0.500000 0.500000 0.000000
O O5 0.128258 0.750000 0.121291
O O6 0.977432 0.976730 0.308156
O O7 0.110923 0.985696 0.080157
O O8 0.329965 0.972442 0.954830
O O9 0.898001 0.250000 0.976931
O O10 0.819322 0.996024 0.091222
O O11 0.141929 0.043156 0.749480
O O12 0.372786 0.250000 0.555062
O O13 0.476094 0.515203 0.438896
O O14 0.286007 0.454825 0.709456
O O15 0.667334 0.750000 0.258632
O O16 0.459096 0.750000 0.889014
O O17 0.669976 0.538432 0.652383
O O18 0.095005 0.250000 0.557813
O O19 0.023520 0.501787 0.585117
O O20 0.982607 0.750000 0.569590
O O21 0.000000 0.500000 0.500000
#
# Coordination Sequence:
#
# PCOD8073560 Si02
#       8
#     4   4   4   4   4   4   4   4
#     4  10  21  35  52  76 104 133 166 208 259 317
#     4   9  19  34  55  80 103 136 182 224 268 321
#     4  10  20  35  56  83 112 146 190 236 278 330
#     4   9  19  35  56  82 113 151 192 233 280 333
#     4  10  20  34  54  82 116 152 188 232 285 334
#     4   9  18  34  54  75 102 134 169 215 266 315
#     4   9  18  34  53  73 101 134 169 213 261 312
#     4  10  21  35  52  76 103 131 164 207 259 315
#
# _framework density 19.127586999999998
#
# number of rings (size 3 to 8) (size 9 to 14) (size 15 to 20)
#    0.000    2.500    0.000    1.500    1.750    3.500 
#    0.000    5.000    0.000    3.000    0.000    0.000 
#    0.000    0.000    0.000    0.000    0.000    0.000 
#
# Total GULP energy -396792.654972 kJ/mol
# GULP energy per Si atom -12399.770468 kJ/mol
# Density = 1.908405 g / cm^3
# Si number density = 19.127587 Si / 1000 Ang^3
#
#
#
# Elastic Constant Matrix: (Units=GPa)
#
#
# Indices 1 2 3 4 5 6 
#
# 1 100.5390 33.1726 20.5640 0.0000 -21.6803 0.0000
# 2 33.1726 75.6492 25.4237 0.0000 -5.8954 0.0000
# 3 20.5640 25.4237 54.5476 0.0000 -11.6692 0.0000
# 4 0.0000 0.0000 0.0000 24.9946 0.0000 2.4952
# 5 -21.6803 -5.8954 -11.6692 0.0000 25.5908 0.0000
# 6 0.0000 0.0000 0.0000 2.4952 0.0000 17.5615
#
#
#
# Elastic Compliance Matrix: (Units=1/GPa)
#
#
# Indices 1 2 3 4 5 6 
#
# 1 0.014009 -0.005105 -0.000681 0.000000 0.010381 0.000000
# 2 -0.005105 0.017537 -0.006992 0.000000 -0.003473 0.000000
# 3 -0.000681 -0.006992 0.023691 0.000000 0.008615 0.000000
# 4 0.000000 0.000000 0.000000 0.040584 0.000000 -0.005766
# 5 0.010381 -0.003473 0.008615 0.000000 0.051000 0.000000
# 6 0.000000 0.000000 0.000000 -0.005766 0.000000 0.057762
#
#
# Mechanical properties :
#
#
# Convention : Reuss Voigt Hill
#
# Bulk Modulus (GPa) = 33.69196 43.22848 38.46022
# Shear Modulus (GPa) = 20.83055 23.73443 22.28249
#
# Velocity S-wave (km/s) = 3.30363 3.52639 3.41682
# Velocity P-wave (km/s) = 5.67490 6.26336 5.97638
#
# Compressibility (1/GPa) = 0.02968067
#
# Stress axis : x y z
#
# Youngs Moduli (GPa) = 71.38404 57.02350 42.20977
#
# Poissons Ratio (x) = 0.29111 0.02874
# Poissons Ratio (y) = 0.36442 0.29513
# Poissons Ratio (z) = 0.04861 0.39871
#
# Static dielectric constant tensor:
#      x y z
#    x 3.530090 0.000000 -0.162490 
#    y 0.000000 3.620890 0.000000 
#    z -0.162490 0.000000 4.130660 
# 
# 
# High freq. dielectric constant tensor:
#      x y z
#    x 1.741850 0.000000 -0.003270 
#    y 0.000000 1.730720 0.000000 
#    z -0.003270 0.000000 1.748380 
# 
# From -- ./inp_files/69971.got.cif
#   From: 2010.06.25/outbox.cif.g09.slc.cpg/sg11_35_cif.got.tgz:69971.got - 2010.06.27 23:14:04.
