data_PCOD8073395
_publ_section_title
;
Structure prediction by ZEFSAII (Michael W. Deem and Ramdas Pophale) SiO2 
 PCOD8073395
Probable space group: P 21/M
;
_chemical_formula_sum "Si O2"
_cell_formula_units_Z 32
_cell_length_a 29.638944
_cell_length_b 9.334658
_cell_length_c 11.363629
_cell_angle_alpha 90.000000
_cell_angle_beta 150.041857
_cell_angle_gamma 90.000000
_cell_volume 1569.994733
_symmetry_space_group_name_H-M "P 21/M"
_symmetry_group_IT_number 11
_symmetry_cell_setting 'monoclinic'
loop_
_space_group_symop_operation_xyz
x,y,z
-x,1/2+y,-z
-x,-y,-z
x,1/2-y,z
loop_
_atom_site_type_symbol
_atom_site_label
_atom_site_fract_x
_atom_site_fract_y
_atom_site_fract_z
Si Si1 0.476338 0.916319 0.065727
Si Si2 0.256551 0.079146 0.949843
Si Si3 0.959674 0.093237 0.058602
Si Si4 0.347662 0.412972 0.399815
Si Si5 0.109442 0.904127 0.354642
Si Si6 0.308571 0.581505 0.840456
Si Si7 0.801097 0.409070 0.842857
Si Si8 0.092220 0.914257 0.676798
O O1 0.472134 0.750000 0.021576
O O2 0.548451 0.943598 0.333627
O O3 0.382160 0.968700 0.910589
O O4 0.500000 0.000000 0.000000
O O5 0.241889 0.250000 0.901712
O O6 0.321636 0.044355 0.207935
O O7 0.312980 0.013099 0.968625
O O8 0.157736 0.000473 0.732842
O O9 0.967861 0.250000 0.136395
O O10 0.947412 0.107833 0.892635
O O11 0.872210 0.015041 0.915292
O O12 0.051680 0.012459 0.304590
O O13 0.321256 0.250000 0.361930
O O14 0.290346 0.501932 0.364878
O O15 0.110412 0.750000 0.420942
O O16 0.211556 0.953047 0.561857
O O17 0.321704 0.750000 0.900341
O O18 0.776420 0.250000 0.741664
O O19 0.845869 0.405567 0.070221
O O20 0.070679 0.750000 0.585474
O O21 0.000000 0.000000 0.500000
#
# Coordination Sequence:
#
# PCOD8073395 Si02
#       8
#     4   4   4   4   4   4   4   4
#     4  10  23  42  64  90 120 151 190 239 296 355
#     4  10  21  38  59  83 115 154 198 243 291 346
#     4   9  18  33  52  76 107 144 188 231 275 333
#     4   9  20  39  59  84 116 150 190 239 289 342
#     4   9  19  34  51  75 108 146 185 226 282 340
#     4  10  22  39  59  86 118 152 190 242 298 350
#     4   9  19  33  54  81 108 146 191 233 282 338
#     4  10  20  34  52  81 117 153 195 240 288 340
#
# _framework density 20.382232999999999
#
# number of rings (size 3 to 8) (size 9 to 14) (size 15 to 20)
#    0.000    2.500    0.000    0.750    3.500    3.500 
#    0.000    0.000    0.000    0.000    0.000    0.000 
#    0.000    0.000    0.000    0.000    0.000    0.000 
#
# Total GULP energy -396514.439369 kJ/mol
# GULP energy per Si atom -12391.076230 kJ/mol
# Density = 2.033584 g / cm^3
# Si number density = 20.382233 Si / 1000 Ang^3
#
#
#
# Elastic Constant Matrix: (Units=GPa)
#
#
# Indices 1 2 3 4 5 6 
#
# 1 120.5812 58.1212 38.3633 0.0000 29.4507 0.0000
# 2 58.1212 94.8720 48.1320 0.0000 16.9083 0.0000
# 3 38.3633 48.1320 97.9402 0.0000 23.8269 0.0000
# 4 0.0000 0.0000 0.0000 20.7545 0.0000 12.3278
# 5 29.4507 16.9083 23.8269 0.0000 33.7915 0.0000
# 6 0.0000 0.0000 0.0000 12.3278 0.0000 24.9603
#
#
#
# Elastic Compliance Matrix: (Units=1/GPa)
#
#
# Indices 1 2 3 4 5 6 
#
# 1 0.013675 -0.006916 0.000121 0.000000 -0.008543 0.000000
# 2 -0.006916 0.017733 -0.006413 0.000000 0.001677 0.000000
# 3 0.000121 -0.006413 0.015160 0.000000 -0.007586 0.000000
# 4 0.000000 0.000000 0.000000 0.068186 0.000000 -0.033677
# 5 -0.008543 0.001677 -0.007586 0.000000 0.041548 0.000000
# 6 0.000000 0.000000 0.000000 -0.033677 0.000000 0.056696
#
#
# Mechanical properties :
#
#
# Convention : Reuss Voigt Hill
#
# Bulk Modulus (GPa) = 49.62838 66.95851 58.29345
# Shear Modulus (GPa) = 20.31424 27.15307 23.73365
#
# Velocity S-wave (km/s) = 3.16042 3.65388 3.41607
# Velocity P-wave (km/s) = 6.14161 7.12207 6.64993
#
# Compressibility (1/GPa) = 0.02014976
#
# Stress axis : x y z
#
# Youngs Moduli (GPa) = 73.12610 56.39345 65.96161
#
# Poissons Ratio (x) = 0.39004 -0.00797
# Poissons Ratio (y) = 0.50578 0.42304
# Poissons Ratio (z) = -0.00884 0.36167
#
# Static dielectric constant tensor:
#      x y z
#    x 3.700800 0.000000 0.172820 
#    y 0.000000 4.030280 0.000000 
#    z 0.172820 0.000000 3.720910 
# 
# 
# High freq. dielectric constant tensor:
#      x y z
#    x 1.794970 0.000000 0.004260 
#    y 0.000000 1.791180 0.000000 
#    z 0.004260 0.000000 1.794710 
# 
# From -- ./inp_files/45358.got.cif
#   From: 2010.06.25/outbox.cif.g09.slc.cpg/sg11_23_cif.got.tgz:45358.got - 2010.06.27 23:14:04.
