data_PCOD8073498
_publ_section_title
;
Structure prediction by ZEFSAII (Michael W. Deem and Ramdas Pophale) SiO2 
 PCOD8073498
Probable space group: P 21/M
;
_chemical_formula_sum "Si O2"
_cell_formula_units_Z 28
_cell_length_a 28.306742
_cell_length_b 8.843008
_cell_length_c 9.534016
_cell_angle_alpha 90.000000
_cell_angle_beta 39.871425
_cell_angle_gamma 90.000000
_cell_volume 1529.921561
_symmetry_space_group_name_H-M "P 21/M"
_symmetry_group_IT_number 11
_symmetry_cell_setting 'monoclinic'
loop_
_space_group_symop_operation_xyz
x,y,z
-x,1/2+y,-z
-x,-y,-z
x,1/2-y,z
loop_
_atom_site_type_symbol
_atom_site_label
_atom_site_fract_x
_atom_site_fract_y
_atom_site_fract_z
Si Si1 0.101867 0.922918 0.862170
Si Si2 0.644252 0.924569 0.514406
Si Si3 0.811493 0.573964 0.101954
Si Si4 0.431836 0.927068 0.077787
Si Si5 0.938840 0.921879 0.324761
Si Si6 0.489376 0.426777 0.372819
Si Si7 0.922266 0.427666 0.639357
O O1 0.116849 0.750000 0.783236
O O2 0.168724 0.986654 0.800724
O O3 0.096013 0.029592 0.741842
O O4 0.027395 0.934824 0.122828
O O5 0.627336 0.750000 0.580975
O O6 0.725353 0.950903 0.267622
O O7 0.585314 0.986888 0.534029
O O8 0.639240 0.004739 0.679897
O O9 0.831857 0.750000 0.071208
O O10 0.855677 0.502452 0.873865
O O11 0.432368 0.750000 0.100906
O O12 0.440617 0.962827 0.890447
O O13 0.500000 0.000000 0.000000
O O14 0.915053 0.750000 0.411834
O O15 0.906525 0.036311 0.513017
O O16 0.500000 0.500000 0.500000
O O17 0.482214 0.250000 0.416151
O O18 0.924482 0.250000 0.664166
O O19 0.000000 0.500000 0.500000
#
# Coordination Sequence:
#
# PCOD8073498 Si02
#       7
#     4   4   4   4   4   4   4
#     4  10  20  34  54  79 106 136 175 225 276 330
#     4   9  20  37  55  79 110 145 184 225 271 327
#     4  11  22  37  57  79 109 147 186 231 283 337
#     4   9  17  31  53  79 107 139 177 221 262 314
#     4  10  20  35  55  78 105 136 176 227 278 328
#     4   9  18  33  54  83 113 141 179 220 262 315
#     4  12  23  36  55  80 109 144 187 234 282 335
#
# _framework density 18.301593
#
# number of rings (size 3 to 8) (size 9 to 14) (size 15 to 20)
#    0.000    2.000    1.429    3.857    0.000    5.143 
#    0.000    1.429    0.000    5.143    0.000    0.000 
#    0.000    0.000    0.000    0.000    0.000    0.000 
#
# Total GULP energy -347099.330879 kJ/mol
# GULP energy per Si atom -12396.404674 kJ/mol
# Density = 1.825994 g / cm^3
# Si number density = 18.301593 Si / 1000 Ang^3
#
#
#
# Elastic Constant Matrix: (Units=GPa)
#
#
# Indices 1 2 3 4 5 6 
#
# 1 83.0316 31.5983 47.9339 0.0000 8.1637 0.0000
# 2 31.5983 80.9106 46.1725 0.0000 2.7170 0.0000
# 3 47.9339 46.1725 116.7513 0.0000 9.6223 0.0000
# 4 0.0000 0.0000 0.0000 32.9938 0.0000 6.6174
# 5 8.1637 2.7170 9.6223 0.0000 24.7506 0.0000
# 6 0.0000 0.0000 0.0000 6.6174 0.0000 30.1371
#
#
#
# Elastic Compliance Matrix: (Units=1/GPa)
#
#
# Indices 1 2 3 4 5 6 
#
# 1 0.016672 -0.003418 -0.005239 0.000000 -0.003087 0.000000
# 2 -0.003418 0.016675 -0.005303 0.000000 0.001359 0.000000
# 3 -0.005239 -0.005303 0.013041 0.000000 -0.002760 0.000000
# 4 0.000000 0.000000 0.000000 0.031705 0.000000 -0.006962
# 5 -0.003087 0.001359 -0.002760 0.000000 0.042345 0.000000
# 6 0.000000 0.000000 0.000000 -0.006962 0.000000 0.034710
#
#
# Mechanical properties :
#
#
# Convention : Reuss Voigt Hill
#
# Bulk Modulus (GPa) = 54.14762 59.12254 56.63508
# Shear Modulus (GPa) = 26.42367 27.90888 27.16628
#
# Velocity S-wave (km/s) = 3.80385 3.90929 3.85693
# Velocity P-wave (km/s) = 6.99592 7.26302 7.13072
#
# Compressibility (1/GPa) = 0.01846803
#
# Stress axis : x y z
#
# Youngs Moduli (GPa) = 59.98012 59.97064 76.68173
#
# Poissons Ratio (x) = 0.20496 0.40173
# Poissons Ratio (y) = 0.20500 0.40667
# Poissons Ratio (z) = 0.31423 0.31804
#
# Static dielectric constant tensor:
#      x y z
#    x 3.242580 0.000000 0.212800 
#    y 0.000000 3.651640 0.000000 
#    z 0.212800 0.000000 3.621440 
# 
# 
# High freq. dielectric constant tensor:
#      x y z
#    x 1.689040 0.000000 0.018160 
#    y 0.000000 1.720350 0.000000 
#    z 0.018160 0.000000 1.706730 
# 
# From -- ./inp_files/28357.got.cif
#   From: 2010.06.25/outbox.cif.g09.slc.cpg/sg11_15_cif.got.tgz:28357.got - 2010.06.27 23:14:04.
