data_PCOD8073866
_publ_section_title
;
Structure prediction by ZEFSAII (Michael W. Deem and Ramdas Pophale) SiO2 
 PCOD8073866
Probable space group: P 21/M
;
_chemical_formula_sum "Si O2"
_cell_formula_units_Z 32
_cell_length_a 14.739083
_cell_length_b 8.863917
_cell_length_c 25.637896
_cell_angle_alpha 90.000000
_cell_angle_beta 30.513868
_cell_angle_gamma 90.000000
_cell_volume 1700.692538
_symmetry_space_group_name_H-M "P 21/M"
_symmetry_group_IT_number 11
_symmetry_cell_setting 'monoclinic'
loop_
_space_group_symop_operation_xyz
x,y,z
-x,1/2+y,-z
-x,-y,-z
x,1/2-y,z
loop_
_atom_site_type_symbol
_atom_site_label
_atom_site_fract_x
_atom_site_fract_y
_atom_site_fract_z
Si Si1 0.015290 0.574514 0.242392
Si Si2 0.092384 0.073195 0.503583
Si Si3 0.740992 0.570791 0.241425
Si Si4 0.488412 0.571498 0.844915
Si Si5 0.867702 0.425516 0.927901
Si Si6 0.510442 0.927389 0.714497
Si Si7 0.169459 0.573431 0.276475
Si Si8 0.344019 0.928360 0.610200
O O1 0.956489 0.750000 0.272807
O O2 0.139233 0.541801 0.130696
O O3 0.122952 0.528361 0.240487
O O4 0.840623 0.472211 0.325894
O O5 0.079203 0.250000 0.501237
O O6 0.299855 0.025208 0.404657
O O7 0.992942 0.021269 0.605554
O O8 0.000000 0.000000 0.500000
O O9 0.731350 0.750000 0.252859
O O10 0.647707 0.518911 0.234607
O O11 0.639773 0.494077 0.339713
O O12 0.946907 0.512952 0.139315
O O13 0.490281 0.750000 0.849035
O O14 0.510530 0.520609 0.774396
O O15 0.650417 0.510750 0.798626
O O16 0.304334 0.500281 0.958998
O O17 0.859761 0.250000 0.943440
O O18 0.473322 0.750000 0.727098
O O19 0.202817 0.750000 0.265996
O O20 0.365449 0.750000 0.601889
O O21 0.500000 0.000000 0.500000
#
# Coordination Sequence:
#
# PCOD8073866 Si02
#       8
#     4   4   4   4   4   4   4   4
#     4   9  19  37  57  79 110 147 184 228 282 331
#     4  10  20  35  53  76 108 146 181 224 278 328
#     4  10  21  38  58  82 111 146 185 229 280 332
#     4  10  20  36  57  79 108 148 189 231 278 331
#     4   8  17  36  58  78 107 144 184 231 283 330
#     4  10  21  35  53  81 112 145 184 228 279 334
#     4  10  21  35  54  81 112 145 182 226 278 333
#     4  11  22  37  57  83 113 146 186 229 274 328
#
# _framework density 18.815864000000001
#
# number of rings (size 3 to 8) (size 9 to 14) (size 15 to 20)
#    0.000    2.250    1.250    2.250    1.750    2.500 
#    0.000    3.125    0.000    0.000    0.000    0.000 
#    0.000    0.000    0.000    0.000    0.000    0.000 
#
# Total GULP energy -396820.674454 kJ/mol
# GULP energy per Si atom -12400.646077 kJ/mol
# Density = 1.877304 g / cm^3
# Si number density = 18.815864 Si / 1000 Ang^3
#
#
#
# Elastic Constant Matrix: (Units=GPa)
#
#
# Indices 1 2 3 4 5 6 
#
# 1 135.3685 33.3747 46.0353 0.0000 -5.9975 0.0000
# 2 33.3747 55.2427 28.4201 0.0000 -2.4656 0.0000
# 3 46.0353 28.4201 131.4042 0.0000 -12.4198 0.0000
# 4 0.0000 0.0000 0.0000 21.1949 0.0000 -3.6585
# 5 -5.9975 -2.4656 -12.4198 0.0000 16.2876 0.0000
# 6 0.0000 0.0000 0.0000 -3.6585 0.0000 34.7237
#
#
#
# Elastic Compliance Matrix: (Units=1/GPa)
#
#
# Indices 1 2 3 4 5 6 
#
# 1 0.009271 -0.004427 -0.002189 0.000000 0.001075 0.000000
# 2 -0.004427 0.022483 -0.003388 0.000000 -0.000810 0.000000
# 3 -0.002189 -0.003388 0.009683 0.000000 0.006065 0.000000
# 4 0.000000 0.000000 0.000000 0.048055 0.000000 0.005063
# 5 0.001075 -0.000810 0.006065 0.000000 0.066294 0.000000
# 6 0.000000 0.000000 0.000000 0.005063 0.000000 0.029332
#
#
# Mechanical properties :
#
#
# Convention : Reuss Voigt Hill
#
# Bulk Modulus (GPa) = 46.66594 59.74174 53.20384
# Shear Modulus (GPa) = 23.55496 28.72026 26.13761
#
# Velocity S-wave (km/s) = 3.54201 3.91114 3.73114
# Velocity P-wave (km/s) = 6.44849 7.22604 6.84831
#
# Compressibility (1/GPa) = 0.02142891
#
# Stress axis : x y z
#
# Youngs Moduli (GPa) = 107.86753 44.47715 103.27386
#
# Poissons Ratio (x) = 0.19689 0.22605
# Poissons Ratio (y) = 0.47751 0.34994
# Poissons Ratio (z) = 0.23610 0.15071
#
# Static dielectric constant tensor:
#      x y z
#    x 3.415120 0.000000 0.214280 
#    y 0.000000 -0.152600 0.000000 
#    z 0.214280 0.000000 3.592090 
# 
# 
# High freq. dielectric constant tensor:
#      x y z
#    x 1.735720 0.000000 0.001050 
#    y 0.000000 1.712760 0.000000 
#    z 0.001050 0.000000 1.739590 
# 
# From -- ./inp_files/51633.got.cif
#   From: 2010.06.25/outbox.cif.g09.slc.cpg/sg11_26_cif.got.tgz:51633.got - 2010.06.27 23:14:04.
