data_PCOD8073260
_publ_section_title
;
Structure prediction by ZEFSAII (Michael W. Deem and Ramdas Pophale) SiO2 
 PCOD8073260
Probable space group: P 21/M
;
_chemical_formula_sum "Si O2"
_cell_formula_units_Z 28
_cell_length_a 13.142696
_cell_length_b 9.450389
_cell_length_c 13.324471
_cell_angle_alpha 90.000000
_cell_angle_beta 120.859598
_cell_angle_gamma 90.000000
_cell_volume 1420.650993
_symmetry_space_group_name_H-M "P 21/M"
_symmetry_group_IT_number 11
_symmetry_cell_setting 'monoclinic'
loop_
_space_group_symop_operation_xyz
x,y,z
-x,1/2+y,-z
-x,-y,-z
x,1/2-y,z
loop_
_atom_site_type_symbol
_atom_site_label
_atom_site_fract_x
_atom_site_fract_y
_atom_site_fract_z
Si Si1 0.064827 0.582991 0.274455
Si Si2 0.656164 0.903788 0.276457
Si Si3 0.898192 0.918764 0.507574
Si Si4 0.431828 0.096191 0.198733
Si Si5 0.365868 0.037421 0.953393
Si Si6 0.856453 0.093773 0.089048
Si Si7 0.230374 0.910955 0.171176
O O1 0.056927 0.750000 0.296680
O O2 0.114175 0.490173 0.390369
O O3 0.153167 0.551330 0.228337
O O4 0.934432 0.528058 0.179422
O O5 0.616497 0.750000 0.297675
O O6 0.777156 0.951967 0.388811
O O7 0.556575 0.017717 0.250913
O O8 0.680383 0.884348 0.169328
O O9 0.924152 0.750000 0.527827
O O10 0.000000 0.000000 0.500000
O O11 0.455354 0.250000 0.259013
O O12 0.346283 0.009433 0.229212
O O13 0.368599 0.124234 0.058823
O O14 0.276100 0.907323 0.929948
O O15 0.500000 0.000000 0.000000
O O16 0.910027 0.250000 0.136641
O O17 0.851101 0.063995 0.967546
O O18 0.275850 0.750000 0.197069
#
# Coordination Sequence:
#
# PCOD8073260 Si02
#       7
#     4   4   4   4   4   4   4
#     4  11  23  39  59  83 113 150 189 232 282 334
#     4  10  21  37  56  78 110 150 188 227 276 332
#     4  11  24  41  61  84 111 148 192 236 279 328
#     4  10  20  33  56  88 116 143 180 228 280 335
#     4   9  19  33  53  82 115 148 181 221 274 334
#     4  10  20  35  57  85 115 148 187 232 281 335
#     4   9  20  38  58  82 115 151 185 226 280 338
#
# _framework density 19.709275000000002
#
# number of rings (size 3 to 8) (size 9 to 14) (size 15 to 20)
#    0.000    2.000    0.000    3.000    0.000   12.000 
#    0.000    0.714    0.000    0.000    0.000    0.000 
#    0.000    0.000    0.000    0.000    0.000    0.000 
#
# Total GULP energy -346985.852860 kJ/mol
# GULP energy per Si atom -12392.351888 kJ/mol
# Density = 1.966442 g / cm^3
# Si number density = 19.709275 Si / 1000 Ang^3
#
#
#
# Elastic Constant Matrix: (Units=GPa)
#
#
# Indices 1 2 3 4 5 6 
#
# 1 123.0422 64.2961 61.9996 0.0000 3.3211 0.0000
# 2 64.2961 139.0486 59.6366 0.0000 14.1747 0.0000
# 3 61.9996 59.6366 120.0954 0.0000 6.1713 0.0000
# 4 0.0000 0.0000 0.0000 21.8286 0.0000 4.6633
# 5 3.3211 14.1747 6.1713 0.0000 24.3375 0.0000
# 6 0.0000 0.0000 0.0000 4.6633 0.0000 29.4892
#
#
#
# Elastic Compliance Matrix: (Units=1/GPa)
#
#
# Indices 1 2 3 4 5 6 
#
# 1 0.012452 -0.003993 -0.004537 0.000000 0.001777 0.000000
# 2 -0.003993 0.010869 -0.003078 0.000000 -0.005005 0.000000
# 3 -0.004537 -0.003078 0.012233 0.000000 -0.000690 0.000000
# 4 0.000000 0.000000 0.000000 0.047413 0.000000 -0.007498
# 5 0.001777 -0.005005 -0.000690 0.000000 0.043936 0.000000
# 6 0.000000 0.000000 0.000000 -0.007498 0.000000 0.035096
#
#
# Mechanical properties :
#
#
# Convention : Reuss Voigt Hill
#
# Bulk Modulus (GPa) = 81.05811 83.78341 82.42076
# Shear Modulus (GPa) = 26.40915 28.21466 27.31190
#
# Velocity S-wave (km/s) = 3.66448 3.78768 3.72659
# Velocity P-wave (km/s) = 7.68900 7.85688 7.77339
#
# Compressibility (1/GPa) = 0.01233683
#
# Stress axis : x y z
#
# Youngs Moduli (GPa) = 80.30832 92.00749 81.74612
#
# Poissons Ratio (x) = 0.36740 0.37086
# Poissons Ratio (y) = 0.32068 0.25165
# Poissons Ratio (z) = 0.36434 0.28324
#
# Static dielectric constant tensor:
#      x y z
#    x 3.606200 0.000000 -0.132670 
#    y 0.000000 3.597080 0.000000 
#    z -0.132670 0.000000 3.704810 
# 
# 
# High freq. dielectric constant tensor:
#      x y z
#    x 1.769990 0.000000 0.001130 
#    y 0.000000 1.772890 0.000000 
#    z 0.001130 0.000000 1.756260 
# 
# From -- ./inp_files/49479.got.cif
#   From: 2010.06.25/outbox.cif.g09.slc.cpg/sg11_25_cif.got.tgz:49479.got - 2010.06.27 23:14:04.
