data_PCOD8073708
_publ_section_title
;
Structure prediction by ZEFSAII (Michael W. Deem and Ramdas Pophale) SiO2 
 PCOD8073708
Probable space group: P 21/M
;
_chemical_formula_sum "Si O2"
_cell_formula_units_Z 28
_cell_length_a 12.477283
_cell_length_b 8.456114
_cell_length_c 16.646487
_cell_angle_alpha 90.000000
_cell_angle_beta 59.294303
_cell_angle_gamma 90.000000
_cell_volume 1510.120666
_symmetry_space_group_name_H-M "P 21/M"
_symmetry_group_IT_number 11
_symmetry_cell_setting 'monoclinic'
loop_
_space_group_symop_operation_xyz
x,y,z
-x,1/2+y,-z
-x,-y,-z
x,1/2-y,z
loop_
_atom_site_type_symbol
_atom_site_label
_atom_site_fract_x
_atom_site_fract_y
_atom_site_fract_z
Si Si1 0.808726 0.932650 0.110300
Si Si2 0.048096 0.435561 0.100628
Si Si3 0.032323 0.936101 0.274780
Si Si4 0.883208 0.935391 0.593362
Si Si5 0.384485 0.568966 0.707151
Si Si6 0.743922 0.567475 0.396056
Si Si7 0.648496 0.067229 0.594023
O O1 0.775872 0.750000 0.133812
O O2 0.688498 0.033735 0.181992
O O3 0.842962 0.973130 0.005121
O O4 0.923706 0.971972 0.124320
O O5 0.018030 0.250000 0.115018
O O6 0.093163 0.500833 0.169090
O O7 0.053155 0.750000 0.276119
O O8 0.887176 0.982831 0.331531
O O9 0.102819 0.027121 0.318405
O O10 0.872130 0.750000 0.582101
O O11 0.760082 0.019803 0.609400
O O12 0.000000 0.000000 0.500000
O O13 0.366257 0.750000 0.689289
O O14 0.329023 0.459420 0.658452
O O15 0.528964 0.533481 0.665763
O O16 0.732951 0.750000 0.425315
O O17 0.682123 0.462740 0.488619
O O18 0.617147 0.250000 0.617459
#
# Coordination Sequence:
#
# PCOD8073708 Si02
#       7
#     4   4   4   4   4   4   4
#     4  10  20  35  55  83 117 151 189 234 285 342
#     4  10  20  34  56  85 116 150 189 235 287 339
#     4  11  22  36  59  86 118 153 190 235 286 338
#     4  12  24  40  61  85 114 149 194 239 284 334
#     4  12  24  38  58  84 117 155 194 235 286 344
#     4  11  22  37  57  84 118 154 192 234 283 340
#     4  12  25  41  60  82 114 154 195 237 285 340
#
# _framework density 18.541564999999999
#
# number of rings (size 3 to 8) (size 9 to 14) (size 15 to 20)
#    0.000    0.857    2.857    6.000    0.000    2.857 
#    0.000    0.000    0.000    0.857    0.000    0.000 
#    0.000    0.000    0.000    0.000    0.000    0.000 
#
# Total GULP energy -347401.186344 kJ/mol
# GULP energy per Si atom -12407.185227 kJ/mol
# Density = 1.849936 g / cm^3
# Si number density = 18.541565 Si / 1000 Ang^3
#
#
#
# Elastic Constant Matrix: (Units=GPa)
#
#
# Indices 1 2 3 4 5 6 
#
# 1 86.7180 9.7780 43.9166 0.0000 -3.7664 0.0000
# 2 9.7780 71.8076 27.1719 0.0000 -1.6771 0.0000
# 3 43.9166 27.1719 119.0023 0.0000 7.1058 0.0000
# 4 0.0000 0.0000 0.0000 33.1584 0.0000 0.9061
# 5 -3.7664 -1.6771 7.1058 0.0000 24.5737 0.0000
# 6 0.0000 0.0000 0.0000 0.9061 0.0000 28.9732
#
#
#
# Elastic Compliance Matrix: (Units=1/GPa)
#
#
# Indices 1 2 3 4 5 6 
#
# 1 0.014535 0.000250 -0.005653 0.000000 0.003879 0.000000
# 2 0.000250 0.015353 -0.003727 0.000000 0.002164 0.000000
# 3 -0.005653 -0.003727 0.011608 0.000000 -0.004477 0.000000
# 4 0.000000 0.000000 0.000000 0.030184 0.000000 -0.000944
# 5 0.003879 0.002164 -0.004477 0.000000 0.042731 0.000000
# 6 0.000000 0.000000 0.000000 -0.000944 0.000000 0.034544
#
#
# Mechanical properties :
#
#
# Convention : Reuss Voigt Hill
#
# Bulk Modulus (GPa) = 43.03617 48.80675 45.92146
# Shear Modulus (GPa) = 28.57823 30.45182 29.51503
#
# Velocity S-wave (km/s) = 3.93021 4.05699 3.99410
# Velocity P-wave (km/s) = 6.62242 6.95166 6.78904
#
# Compressibility (1/GPa) = 0.02323627
#
# Stress axis : x y z
#
# Youngs Moduli (GPa) = 68.80160 65.13426 86.15038
#
# Poissons Ratio (x) = -0.01631 0.48698
# Poissons Ratio (y) = -0.01723 0.32110
# Poissons Ratio (z) = 0.38891 0.24277
#
# Static dielectric constant tensor:
#      x y z
#    x 3.265560 0.000000 -0.011650 
#    y 0.000000 3.519040 0.000000 
#    z -0.011650 0.000000 3.605820 
# 
# 
# High freq. dielectric constant tensor:
#      x y z
#    x 1.696340 0.000000 0.002810 
#    y 0.000000 1.738020 0.000000 
#    z 0.002810 0.000000 1.724250 
# 
# From -- ./inp_files/37665.got.cif
#   From: 2010.06.25/outbox.cif.g09.slc.cpg/sg11_19_cif.got.tgz:37665.got - 2010.06.27 23:14:04.
