data_PCOD8073600
_publ_section_title
;
Structure prediction by ZEFSAII (Michael W. Deem and Ramdas Pophale) SiO2 
 PCOD8073600
Probable space group: P 21/M
;
_chemical_formula_sum "Si O2"
_cell_formula_units_Z 28
_cell_length_a 20.974519
_cell_length_b 9.294647
_cell_length_c 15.543461
_cell_angle_alpha 90.000000
_cell_angle_beta 151.076237
_cell_angle_gamma 90.000000
_cell_volume 1465.546932
_symmetry_space_group_name_H-M "P 21/M"
_symmetry_group_IT_number 11
_symmetry_cell_setting 'monoclinic'
loop_
_space_group_symop_operation_xyz
x,y,z
-x,1/2+y,-z
-x,-y,-z
x,1/2-y,z
loop_
_atom_site_type_symbol
_atom_site_label
_atom_site_fract_x
_atom_site_fract_y
_atom_site_fract_z
Si Si1 0.843045 0.081763 0.064030
Si Si2 0.014112 0.084646 0.427606
Si Si3 0.601347 0.087325 0.563089
Si Si4 0.548081 0.086452 0.928375
Si Si5 0.406810 0.086714 0.187947
Si Si6 0.311999 0.410864 0.766243
Si Si7 0.896584 0.417673 0.936894
O O1 0.812447 0.250000 0.037037
O O2 0.919961 0.025582 0.240072
O O3 0.924040 0.053567 0.071156
O O4 0.705615 0.998025 0.892599
O O5 0.980891 0.250000 0.408474
O O6 0.160496 0.066480 0.562973
O O7 0.000000 0.000000 0.500000
O O8 0.604365 0.250000 0.602527
O O9 0.546485 0.080748 0.401428
O O10 0.749546 0.025008 0.740240
O O11 0.500000 0.000000 0.500000
O O12 0.585597 0.250000 0.948969
O O13 0.396709 0.073116 0.779373
O O14 0.570726 0.984104 0.876344
O O15 0.646356 0.034202 0.118674
O O16 0.358646 0.250000 0.118658
O O17 0.335192 0.250000 0.832567
O O18 0.909609 0.250000 0.930142
O O19 0.000000 0.500000 0.000000
#
# Coordination Sequence:
#
# PCOD8073600 Si02
#       7
#     4   4   4   4   4   4   4
#     4  10  21  38  59  82 112 150 193 238 282 342
#     4  10  21  36  55  80 110 146 187 230 279 336
#     4  10  21  38  60  85 113 148 190 236 285 341
#     4  10  20  34  55  81 108 144 187 230 281 338
#     4  11  22  35  56  85 114 144 185 234 284 337
#     4   9  19  36  54  75 109 146 185 232 280 332
#     4  10  22  40  61  87 120 155 194 241 293 350
#
# _framework density 19.105495999999999
#
# number of rings (size 3 to 8) (size 9 to 14) (size 15 to 20)
#    0.000    2.000    1.429    1.714    0.000    6.857 
#    0.000    1.429    0.000    0.000    0.000    0.000 
#    0.000    0.000    0.000    0.000    0.000    0.000 
#
# Total GULP energy -347165.247912 kJ/mol
# GULP energy per Si atom -12398.758854 kJ/mol
# Density = 1.906201 g / cm^3
# Si number density = 19.105496 Si / 1000 Ang^3
#
#
#
# Elastic Constant Matrix: (Units=GPa)
#
#
# Indices 1 2 3 4 5 6 
#
# 1 120.9056 52.0171 50.9055 0.0000 5.1453 0.0000
# 2 52.0171 74.0580 37.1789 0.0000 4.9922 0.0000
# 3 50.9055 37.1789 104.1842 0.0000 10.1109 0.0000
# 4 0.0000 0.0000 0.0000 25.9117 0.0000 1.6942
# 5 5.1453 4.9922 10.1109 0.0000 29.5097 0.0000
# 6 0.0000 0.0000 0.0000 1.6942 0.0000 32.3506
#
#
#
# Elastic Compliance Matrix: (Units=1/GPa)
#
#
# Indices 1 2 3 4 5 6 
#
# 1 0.012958 -0.007222 -0.003779 0.000000 0.000257 0.000000
# 2 -0.007222 0.020493 -0.003693 0.000000 -0.000942 0.000000
# 3 -0.003779 -0.003693 0.013073 0.000000 -0.003196 0.000000
# 4 0.000000 0.000000 0.000000 0.038725 0.000000 -0.002028
# 5 0.000257 -0.000942 -0.003196 0.000000 0.035097 0.000000
# 6 0.000000 0.000000 0.000000 -0.002028 0.000000 0.031018
#
#
# Mechanical properties :
#
#
# Convention : Reuss Voigt Hill
#
# Bulk Modulus (GPa) = 58.35673 64.37233 61.36453
# Shear Modulus (GPa) = 26.81494 28.15749 27.48622
#
# Velocity S-wave (km/s) = 3.75042 3.84316 3.79708
# Velocity P-wave (km/s) = 7.02602 7.31160 7.17023
#
# Compressibility (1/GPa) = 0.01713598
#
# Stress axis : x y z
#
# Youngs Moduli (GPa) = 77.17151 48.79775 76.49344
#
# Poissons Ratio (x) = 0.35240 0.28910
# Poissons Ratio (y) = 0.55730 0.28249
# Poissons Ratio (z) = 0.29166 0.18021
#
# Static dielectric constant tensor:
#      x y z
#    x 3.468600 0.000000 0.040500 
#    y 0.000000 3.545160 0.000000 
#    z 0.040500 0.000000 3.746090 
# 
# 
# High freq. dielectric constant tensor:
#      x y z
#    x 1.743050 0.000000 0.000880 
#    y 0.000000 1.742440 0.000000 
#    z 0.000880 0.000000 1.744660 
# 
# From -- ./inp_files/54469.got.cif
#   From: 2010.06.25/outbox.cif.g09.slc.cpg/sg11_28_cif.got.tgz:54469.got - 2010.06.27 23:14:04.
