data_PCOD8073296
_publ_section_title
;
Structure prediction by ZEFSAII (Michael W. Deem and Ramdas Pophale) SiO2 
 PCOD8073296
Probable space group: P 21/M
;
_chemical_formula_sum "Si O2"
_cell_formula_units_Z 32
_cell_length_a 11.290197
_cell_length_b 9.102587
_cell_length_c 18.894416
_cell_angle_alpha 90.000000
_cell_angle_beta 96.151707
_cell_angle_gamma 90.000000
_cell_volume 1930.597678
_symmetry_space_group_name_H-M "P 21/M"
_symmetry_group_IT_number 11
_symmetry_cell_setting 'monoclinic'
loop_
_space_group_symop_operation_xyz
x,y,z
-x,1/2+y,-z
-x,-y,-z
x,1/2-y,z
loop_
_atom_site_type_symbol
_atom_site_label
_atom_site_fract_x
_atom_site_fract_y
_atom_site_fract_z
Si Si1 0.509739 0.577998 0.709607
Si Si2 0.938364 0.419665 0.395590
Si Si3 0.246860 0.922730 0.731394
Si Si4 0.618868 0.577048 0.982104
Si Si5 0.421359 0.917000 0.153769
Si Si6 0.697918 0.586565 0.133452
Si Si7 0.835102 0.419381 0.542290
Si Si8 0.591331 0.923211 0.557942
O O1 0.519747 0.750000 0.726399
O O2 0.373204 0.523227 0.708126
O O3 0.594036 0.493541 0.770904
O O4 0.554002 0.537137 0.634926
O O5 0.976454 0.250000 0.388065
O O6 0.858661 0.479702 0.325752
O O7 0.860427 0.437676 0.461053
O O8 0.054785 0.520488 0.404928
O O9 0.243241 0.750000 0.733552
O O10 0.227632 0.980367 0.810272
O O11 0.595504 0.750000 0.969805
O O12 0.658230 0.503322 0.910201
O O13 0.500000 0.500000 0.000000
O O14 0.717054 0.550551 0.050921
O O15 0.376065 0.750000 0.155362
O O16 0.558229 0.927869 0.140083
O O17 0.742695 0.750000 0.153038
O O18 0.812136 0.250000 0.560689
O O19 0.722164 0.516505 0.553479
O O20 0.588321 0.750000 0.543933
O O21 0.500000 0.000000 0.500000
#
# Coordination Sequence:
#
# PCOD8073296 Si02
#       8
#     4   4   4   4   4   4   4   4
#     4   9  18  31  45  63  89 121 153 185 224 270
#     4   9  18  33  50  68  91 118 150 188 230 275
#     4   9  16  27  44  63  86 117 150 184 222 265
#     4   9  15  23  35  52  78 113 149 184 221 262
#     4   9  16  25  38  57  81 112 149 186 222 263
#     4   8  15  24  34  54  83 112 144 180 217 260
#     4  10  20  34  51  70  91 117 152 191 230 273
#     4  11  22  35  51  70  94 123 154 189 229 272
#
# _framework density 16.575178000000001
#
# number of rings (size 3 to 8) (size 9 to 14) (size 15 to 20)
#    0.000    2.750    0.000    3.000    0.000    7.500 
#    0.000    2.500    0.000    0.000    0.000    0.000 
#    0.000    1.000    0.000    3.250    0.000    5.000 
#
# Total GULP energy -396660.646676 kJ/mol
# GULP energy per Si atom -12395.645209 kJ/mol
# Density = 1.653745 g / cm^3
# Si number density = 16.575178 Si / 1000 Ang^3
#
#
#
# Elastic Constant Matrix: (Units=GPa)
#
#
# Indices 1 2 3 4 5 6 
#
# 1 55.7841 31.6461 48.6303 0.0000 10.5673 0.0000
# 2 31.6461 77.2526 62.7699 0.0000 6.3048 0.0000
# 3 48.6303 62.7699 138.3366 0.0000 22.0007 0.0000
# 4 0.0000 0.0000 0.0000 32.9243 0.0000 4.3165
# 5 10.5673 6.3048 22.0007 0.0000 19.0448 0.0000
# 6 0.0000 0.0000 0.0000 4.3165 0.0000 20.9616
#
#
#
# Elastic Compliance Matrix: (Units=1/GPa)
#
#
# Indices 1 2 3 4 5 6 
#
# 1 0.027794 -0.005948 -0.006042 0.000000 -0.006473 0.000000
# 2 -0.005948 0.022149 -0.008965 0.000000 0.006324 0.000000
# 3 -0.006042 -0.008965 0.015210 0.000000 -0.011250 0.000000
# 4 0.000000 0.000000 0.000000 0.031215 0.000000 -0.006428
# 5 -0.006473 0.006324 -0.011250 0.000000 0.067002 0.000000
# 6 0.000000 0.000000 0.000000 -0.006428 0.000000 0.049030
#
#
# Mechanical properties :
#
#
# Convention : Reuss Voigt Hill
#
# Bulk Modulus (GPa) = 43.02434 61.94067 52.48250
# Shear Modulus (GPa) = 19.07970 23.14127 21.11049
#
# Velocity S-wave (km/s) = 3.39647 3.74055 3.57265
# Velocity P-wave (km/s) = 6.43388 7.49041 6.98216
#
# Compressibility (1/GPa) = 0.02324266
#
# Stress axis : x y z
#
# Youngs Moduli (GPa) = 35.97889 45.14812 65.74651
#
# Poissons Ratio (x) = 0.26853 0.39727
# Poissons Ratio (y) = 0.21400 0.58943
# Poissons Ratio (z) = 0.21740 0.40476
#
# Static dielectric constant tensor:
#      x y z
#    x 2.778120 0.000000 0.269070 
#    y 0.000000 3.207380 0.000000 
#    z 0.269070 0.000000 3.618610 
# 
# 
# High freq. dielectric constant tensor:
#      x y z
#    x 1.578900 0.000000 0.021250 
#    y 0.000000 1.647570 0.000000 
#    z 0.021250 0.000000 1.650890 
# 
# From -- ./inp_files/42566.got.cif
#   From: 2010.06.25/outbox.cif.g09.slc.cpg/sg11_22_cif.got.tgz:42566.got - 2010.06.27 23:14:04.
