data_PCOD8073272
_publ_section_title
;
Structure prediction by ZEFSAII (Michael W. Deem and Ramdas Pophale) SiO2 
 PCOD8073272
Probable space group: P 21/M
;
_chemical_formula_sum "Si O2"
_cell_formula_units_Z 32
_cell_length_a 20.810378
_cell_length_b 9.148877
_cell_length_c 29.836932
_cell_angle_alpha 90.000000
_cell_angle_beta 160.048240
_cell_angle_gamma 90.000000
_cell_volume 1938.419035
_symmetry_space_group_name_H-M "P 21/M"
_symmetry_group_IT_number 11
_symmetry_cell_setting 'monoclinic'
loop_
_space_group_symop_operation_xyz
x,y,z
-x,1/2+y,-z
-x,-y,-z
x,1/2-y,z
loop_
_atom_site_type_symbol
_atom_site_label
_atom_site_fract_x
_atom_site_fract_y
_atom_site_fract_z
Si Si1 0.782077 0.416482 0.951299
Si Si2 0.119867 0.081092 0.115641
Si Si3 0.461903 0.419772 0.143228
Si Si4 0.148233 0.420461 0.465856
Si Si5 0.211692 0.079248 0.797295
Si Si6 0.566198 0.080681 0.718210
Si Si7 0.835884 0.922788 0.419634
Si Si8 0.483773 0.082558 0.054841
O O1 0.740897 0.250000 0.939167
O O2 0.724233 0.526349 0.952852
O O3 0.658263 0.454453 0.826527
O O4 0.005684 0.437390 0.087565
O O5 0.136392 0.250000 0.113387
O O6 0.328398 0.009787 0.252303
O O7 0.000000 0.000000 0.000000
O O8 0.501399 0.250000 0.179388
O O9 0.637006 0.515734 0.273528
O O10 0.420746 0.446463 0.064077
O O11 0.112678 0.250000 0.435348
O O12 0.349540 0.467734 0.577873
O O13 0.135802 0.460648 0.509890
O O14 0.993919 0.508883 0.336864
O O15 0.191473 0.250000 0.776020
O O16 0.334379 0.014616 0.836994
O O17 0.309323 0.040506 0.908587
O O18 0.588277 0.250000 0.720964
O O19 0.841337 0.750000 0.414533
O O20 0.000000 0.000000 0.500000
O O21 0.544322 0.250000 0.086871
#
# Coordination Sequence:
#
# PCOD8073272 Si02
#       8
#     4   4   4   4   4   4   4   4
#     4   9  17  31  46  66  98 130 157 191 236 279
#     4   9  17  28  44  66  94 127 159 193 233 275
#     4  11  21  32  49  71  95 127 162 195 236 284
#     4  10  20  34  49  67  98 131 155 192 244 284
#     4  10  20  34  53  73  91 119 163 206 241 284
#     4   9  17  31  47  66  95 130 159 189 235 283
#     4  11  22  35  47  65  97 130 159 193 235 283
#     4   9  20  37  51  68  96 124 155 203 252 282
#
# _framework density 16.508299999999998
#
# number of rings (size 3 to 8) (size 9 to 14) (size 15 to 20)
#    0.000    2.250    1.250    3.000    0.000    8.500 
#    0.000    0.000    0.000    0.000    0.000    0.875 
#    0.000    0.000    0.000    0.000    0.000    0.000 
#
# Total GULP energy -396783.299331 kJ/mol
# GULP energy per Si atom -12399.478104 kJ/mol
# Density = 1.647073 g / cm^3
# Si number density = 16.508300 Si / 1000 Ang^3
#
#
#
# Elastic Constant Matrix: (Units=GPa)
#
#
# Indices 1 2 3 4 5 6 
#
# 1 83.1987 50.0709 54.7512 0.0000 23.2788 0.0000
# 2 50.0709 81.9476 53.0672 0.0000 15.2976 0.0000
# 3 54.7512 53.0672 99.4099 0.0000 22.1753 0.0000
# 4 0.0000 0.0000 0.0000 30.3531 0.0000 7.1157
# 5 23.2788 15.2976 22.1753 0.0000 27.1563 0.0000
# 6 0.0000 0.0000 0.0000 7.1157 0.0000 29.0632
#
#
#
# Elastic Compliance Matrix: (Units=1/GPa)
#
#
# Indices 1 2 3 4 5 6 
#
# 1 0.024604 -0.008862 -0.006393 0.000000 -0.010878 0.000000
# 2 -0.008862 0.022032 -0.007099 0.000000 0.000983 0.000000
# 3 -0.006393 -0.007099 0.018654 0.000000 -0.005752 0.000000
# 4 0.000000 0.000000 0.000000 0.034952 0.000000 -0.008557
# 5 -0.010878 0.000983 -0.005752 0.000000 0.050292 0.000000
# 6 0.000000 0.000000 0.000000 -0.008557 0.000000 0.036503
#
#
# Mechanical properties :
#
#
# Convention : Reuss Voigt Hill
#
# Bulk Modulus (GPa) = 48.59336 64.48164 56.53750
# Shear Modulus (GPa) = 20.95505 24.42564 22.69034
#
# Velocity S-wave (km/s) = 3.56668 3.85073 3.71142
# Velocity P-wave (km/s) = 6.81625 7.67566 7.25868
#
# Compressibility (1/GPa) = 0.02057894
#
# Stress axis : x y z
#
# Youngs Moduli (GPa) = 40.64369 45.38915 53.60900
#
# Poissons Ratio (x) = 0.40226 0.34275
# Poissons Ratio (y) = 0.36020 0.38058
# Poissons Ratio (z) = 0.25986 0.32223
#
# Static dielectric constant tensor:
#      x y z
#    x 4.443320 0.000000 0.983720 
#    y 0.000000 3.283120 0.000000 
#    z 0.983720 0.000000 3.495430 
# 
# 
# High freq. dielectric constant tensor:
#      x y z
#    x 1.622110 0.000000 0.025090 
#    y 0.000000 1.646670 0.000000 
#    z 0.025090 0.000000 1.616990 
# 
# From -- ./inp_files/67427.got.cif
#   From: 2010.06.25/outbox.cif.g09.slc.cpg/sg11_34_cif.got.tgz:67427.got - 2010.06.27 23:14:04.
