data_PCOD8073036
_publ_section_title
;
Structure prediction by ZEFSAII (Michael W. Deem and Ramdas Pophale) SiO2 
 PCOD8073036
Probable space group: P 21/M
;
_chemical_formula_sum "Si O2"
_cell_formula_units_Z 32
_cell_length_a 22.270955
_cell_length_b 9.062734
_cell_length_c 11.281985
_cell_angle_alpha 90.000000
_cell_angle_beta 131.108631
_cell_angle_gamma 90.000000
_cell_volume 1715.719567
_symmetry_space_group_name_H-M "P 21/M"
_symmetry_group_IT_number 11
_symmetry_cell_setting 'monoclinic'
loop_
_space_group_symop_operation_xyz
x,y,z
-x,1/2+y,-z
-x,-y,-z
x,1/2-y,z
loop_
_atom_site_type_symbol
_atom_site_label
_atom_site_fract_x
_atom_site_fract_y
_atom_site_fract_z
Si Si1 0.514552 0.577398 0.142420
Si Si2 0.789023 0.577795 0.221387
Si Si3 0.871290 0.581701 0.088252
Si Si4 0.828305 0.924991 0.532619
Si Si5 0.675205 0.925735 0.472199
Si Si6 0.698693 0.921272 0.767244
Si Si7 0.357265 0.922421 0.079321
Si Si8 0.009662 0.075095 0.138602
O O1 0.521455 0.750000 0.126490
O O2 0.595869 0.515347 0.305343
O O3 0.444078 0.540907 0.141770
O O4 0.500000 0.500000 0.000000
O O5 0.766686 0.750000 0.195418
O O6 0.853472 0.546222 0.202606
O O7 0.825867 0.522271 0.392954
O O8 0.707380 0.492343 0.092331
O O9 0.900691 0.750000 0.110121
O O10 0.938424 0.469671 0.132997
O O11 0.792549 0.554036 0.908583
O O12 0.827177 0.750000 0.536950
O O13 0.751866 0.989833 0.502540
O O14 0.908485 0.984267 0.697588
O O15 0.677792 0.750000 0.475810
O O16 0.676620 0.982695 0.609123
O O17 0.676925 0.750000 0.754257
O O18 0.647055 0.010724 0.794986
O O19 0.340429 0.750000 0.065168
O O20 0.010277 0.250000 0.122956
O O21 0.000000 0.000000 0.000000
#
# Coordination Sequence:
#
# PCOD8073036 Si02
#       8
#     4   4   4   4   4   4   4   4
#     4  10  21  35  53  77 104 135 171 213 260 307
#     4   9  18  35  58  78  99 136 179 209 243 302
#     4   9  18  33  53  78 105 132 168 212 253 300
#     4   9  18  33  54  77  99 129 174 219 251 293
#     4   9  17  32  54  76  99 132 176 218 251 293
#     4   9  18  34  56  77 100 138 181 211 243 299
#     4  10  20  33  50  78 112 136 162 210 264 305
#     4  11  22  35  53  77 104 135 171 212 259 306
#
# _framework density 18.651067000000001
#
# number of rings (size 3 to 8) (size 9 to 14) (size 15 to 20)
#    0.000    2.500    0.000    3.000    0.000    7.000 
#    0.000    1.875    0.000    3.750    0.000    0.000 
#    0.000    0.000    0.000    0.000    0.000    0.000 
#
# Total GULP energy -396853.035910 kJ/mol
# GULP energy per Si atom -12401.657372 kJ/mol
# Density = 1.860862 g / cm^3
# Si number density = 18.651067 Si / 1000 Ang^3
#
#
#
# Elastic Constant Matrix: (Units=GPa)
#
#
# Indices 1 2 3 4 5 6 
#
# 1 141.9813 52.0904 98.0205 0.0000 -1.9593 0.0000
# 2 52.0904 52.3667 42.6245 0.0000 0.9847 0.0000
# 3 98.0205 42.6245 178.0401 0.0000 -16.6086 0.0000
# 4 0.0000 0.0000 0.0000 22.5145 0.0000 -1.3702
# 5 -1.9593 0.9847 -16.6086 0.0000 34.0421 0.0000
# 6 0.0000 0.0000 0.0000 -1.3702 0.0000 31.1976
#
#
#
# Elastic Compliance Matrix: (Units=1/GPa)
#
#
# Indices 1 2 3 4 5 6 
#
# 1 0.014678 -0.009758 -0.005909 0.000000 -0.001756 0.000000
# 2 -0.009758 0.030640 -0.002198 0.000000 -0.002520 0.000000
# 3 -0.005909 -0.002198 0.009817 0.000000 0.004513 0.000000
# 4 0.000000 0.000000 0.000000 0.044535 0.000000 0.001956
# 5 -0.001756 -0.002520 0.004513 0.000000 0.031549 0.000000
# 6 0.000000 0.000000 0.000000 0.001956 0.000000 0.032140
#
#
# Mechanical properties :
#
#
# Convention : Reuss Voigt Hill
#
# Bulk Modulus (GPa) = 51.53411 84.20655 67.87033
# Shear Modulus (GPa) = 24.32411 29.52766 26.92589
#
# Velocity S-wave (km/s) = 3.61524 3.98321 3.80368
# Velocity P-wave (km/s) = 6.71694 8.14868 7.46721
#
# Compressibility (1/GPa) = 0.01940462
#
# Stress axis : x y z
#
# Youngs Moduli (GPa) = 68.12713 32.63751 101.86393
#
# Poissons Ratio (x) = 0.31849 0.60189
# Poissons Ratio (y) = 0.66482 0.22389
# Poissons Ratio (z) = 0.40255 0.07174
#
# Static dielectric constant tensor:
#      x y z
#    x 3.715090 0.000000 -0.213810 
#    y 0.000000 3.157210 0.000000 
#    z -0.213810 0.000000 3.755190 
# 
# 
# High freq. dielectric constant tensor:
#      x y z
#    x 1.735570 0.000000 -0.006980 
#    y 0.000000 1.694860 0.000000 
#    z -0.006980 0.000000 1.731350 
# 
# From -- ./inp_files/42947.got.cif
#   From: 2010.06.25/outbox.cif.g09.slc.cpg/sg11_22_cif.got.tgz:42947.got - 2010.06.27 23:14:04.
