data_PCOD8073205
_publ_section_title
;
Structure prediction by ZEFSAII (Michael W. Deem and Ramdas Pophale) SiO2 
 PCOD8073205
Probable space group: P 21/M
;
_chemical_formula_sum "Si O2"
_cell_formula_units_Z 24
_cell_length_a 9.444692
_cell_length_b 14.233406
_cell_length_c 14.907016
_cell_angle_alpha 90.000000
_cell_angle_beta 139.747670
_cell_angle_gamma 90.000000
_cell_volume 1294.863758
_symmetry_space_group_name_H-M "P 21/M"
_symmetry_group_IT_number 11
_symmetry_cell_setting 'monoclinic'
loop_
_space_group_symop_operation_xyz
x,y,z
-x,1/2+y,-z
-x,-y,-z
x,1/2-y,z
loop_
_atom_site_type_symbol
_atom_site_label
_atom_site_fract_x
_atom_site_fract_y
_atom_site_fract_z
Si Si1 0.938842 0.141552 0.197468
Si Si2 0.589859 0.143812 0.886211
Si Si3 0.448849 0.145269 0.627444
Si Si4 0.442325 0.142960 0.427710
Si Si5 0.780548 0.497433 0.269101
Si Si6 0.767218 0.461074 0.457927
O O1 0.926194 0.250000 0.223557
O O2 0.190550 0.108719 0.311396
O O3 0.803618 0.075464 0.199378
O O4 0.826349 0.128711 0.045697
O O5 0.504699 0.250000 0.865027
O O6 0.619438 0.130487 0.792284
O O7 0.418947 0.069012 0.844767
O O8 0.347659 0.250000 0.579799
O O9 0.556286 0.128399 0.580810
O O10 0.246549 0.074925 0.543053
O O11 0.454988 0.250000 0.401755
O O12 0.566749 0.082684 0.414562
O O13 0.746218 0.435008 0.342892
O O14 0.997099 0.563587 0.386017
#
# Coordination Sequence:
#
# PCOD8073205 Si02
#       6
#     4   4   4   4   4   4
#     4  10  20  35  56  77 103 140 177 215 259 309
#     4   9  19  35  54  76 105 139 177 214 256 313
#     4   9  17  32  53  75 100 135 175 211 256 308
#     4  10  20  34  55  79 102 136 175 216 261 303
#     4  10  20  33  54  80 106 139 172 211 264 309
#     4  10  20  33  53  81 108 133 172 221 257 304
#
# _framework density 18.534769000000001
#
# number of rings (size 3 to 8) (size 9 to 14) (size 15 to 20)
#    0.000    2.333    1.667    1.000    0.000    1.333 
#    0.000    5.000    3.667    0.000    0.000    0.000 
#    0.000    0.000    0.000    0.000    0.000    0.000 
#
# Total GULP energy -297395.672963 kJ/mol
# GULP energy per Si atom -12391.486373 kJ/mol
# Density = 1.849258 g / cm^3
# Si number density = 18.534769 Si / 1000 Ang^3
#
#
#
# Elastic Constant Matrix: (Units=GPa)
#
#
# Indices 1 2 3 4 5 6 
#
# 1 118.1761 48.0294 58.1061 0.0000 -6.9048 0.0000
# 2 48.0294 62.0828 38.0772 0.0000 -1.1393 0.0000
# 3 58.1061 38.0772 106.2780 0.0000 -13.9917 0.0000
# 4 0.0000 0.0000 0.0000 20.7632 0.0000 -1.1368
# 5 -6.9048 -1.1393 -13.9917 0.0000 18.9696 0.0000
# 6 0.0000 0.0000 0.0000 -1.1368 0.0000 23.7070
#
#
#
# Elastic Compliance Matrix: (Units=1/GPa)
#
#
# Indices 1 2 3 4 5 6 
#
# 1 0.014085 -0.008008 -0.004674 0.000000 0.001198 0.000000
# 2 -0.008008 0.025577 -0.005501 0.000000 -0.005436 0.000000
# 3 -0.004674 -0.005501 0.015138 0.000000 0.009134 0.000000
# 4 0.000000 0.000000 0.000000 0.048289 0.000000 0.002315
# 5 0.001198 -0.005436 0.009134 0.000000 0.059563 0.000000
# 6 0.000000 0.000000 0.000000 0.002315 0.000000 0.042293
#
#
# Mechanical properties :
#
#
# Convention : Reuss Voigt Hill
#
# Bulk Modulus (GPa) = 54.24738 63.88468 59.06603
# Shear Modulus (GPa) = 20.20576 22.17622 21.19099
#
# Velocity S-wave (km/s) = 3.30533 3.46275 3.38496
# Velocity P-wave (km/s) = 6.62559 7.10843 6.87125
#
# Compressibility (1/GPa) = 0.01843407
#
# Stress axis : x y z
#
# Youngs Moduli (GPa) = 70.99986 39.09785 66.05852
#
# Poissons Ratio (x) = 0.31308 0.30874
# Poissons Ratio (y) = 0.56855 0.36340
# Poissons Ratio (z) = 0.33184 0.21509
#
# Static dielectric constant tensor:
#      x y z
#    x 3.285330 0.000000 -0.284360 
#    y 0.000000 3.440390 0.000000 
#    z -0.284360 0.000000 3.503930 
# 
# 
# High freq. dielectric constant tensor:
#      x y z
#    x 1.701720 0.000000 -0.021780 
#    y 0.000000 1.715850 0.000000 
#    z -0.021780 0.000000 1.717650 
# 
# From -- ./inp_files/21974.got.cif
#   From: 2010.06.25/outbox.cif.g09.slc.cpg/sg11_11_cif.got.tgz:21974.got - 2010.06.27 23:14:04.
