data_PCOD8073566
_publ_section_title
;
Structure prediction by ZEFSAII (Michael W. Deem and Ramdas Pophale) SiO2 
 PCOD8073566
Probable space group: P 21/M
;
_chemical_formula_sum "Si O2"
_cell_formula_units_Z 32
_cell_length_a 13.383040
_cell_length_b 9.657008
_cell_length_c 22.427403
_cell_angle_alpha 90.000000
_cell_angle_beta 33.587997
_cell_angle_gamma 90.000000
_cell_volume 1603.510870
_symmetry_space_group_name_H-M "P 21/M"
_symmetry_group_IT_number 11
_symmetry_cell_setting 'monoclinic'
loop_
_space_group_symop_operation_xyz
x,y,z
-x,1/2+y,-z
-x,-y,-z
x,1/2-y,z
loop_
_atom_site_type_symbol
_atom_site_label
_atom_site_fract_x
_atom_site_fract_y
_atom_site_fract_z
Si Si1 0.147128 0.092441 0.711734
Si Si2 0.475994 0.413900 0.865081
Si Si3 0.810461 0.908433 0.890273
Si Si4 0.552192 0.905100 0.344480
Si Si5 0.231699 0.095473 0.222485
Si Si6 0.457265 0.911349 0.763340
Si Si7 0.135239 0.102853 0.461611
Si Si8 0.834289 0.492754 0.429222
O O1 0.087961 0.250000 0.750997
O O2 0.327272 0.055292 0.658519
O O3 0.189514 0.069767 0.621352
O O4 0.985177 0.999881 0.817328
O O5 0.501395 0.250000 0.838466
O O6 0.669625 0.481264 0.785759
O O7 0.385920 0.495648 0.854024
O O8 0.343097 0.440559 0.985815
O O9 0.874877 0.750000 0.861176
O O10 0.728891 0.942949 0.865901
O O11 0.596788 0.750000 0.299045
O O12 0.343338 0.902838 0.468607
O O13 0.602640 0.016749 0.268574
O O14 0.304960 0.250000 0.201272
O O15 0.015650 0.098923 0.339735
O O16 0.390788 0.750000 0.798296
O O17 0.671204 0.921657 0.663380
O O18 0.059428 0.250000 0.479223
O O19 0.146783 0.103277 0.527296
O O20 0.000000 0.000000 0.500000
#
# Coordination Sequence:
#
# PCOD8073566 Si02
#       8
#     4   4   4   4   4   4   4   4
#     4  10  21  37  60  87 112 142 186 236 282 330
#     4  11  22  37  58  82 110 147 188 232 281 332
#     4   9  21  39  57  81 113 147 185 231 283 334
#     4  10  21  38  59  84 113 146 185 231 280 330
#     4  10  20  34  54  83 116 149 184 222 270 330
#     4  10  22  38  55  78 108 144 186 231 278 332
#     4  10  21  34  50  74 108 146 183 221 263 316
#     4  10  20  35  56  83 116 151 184 220 269 328
#
# _framework density 19.956211
#
# number of rings (size 3 to 8) (size 9 to 14) (size 15 to 20)
#    0.000    2.000    0.000    3.000    0.000   10.000 
#    0.000    0.625    0.000    0.000    0.000    0.000 
#    0.000    0.000    0.000    0.000    0.000    0.000 
#
# Total GULP energy -396701.517870 kJ/mol
# GULP energy per Si atom -12396.922433 kJ/mol
# Density = 1.991079 g / cm^3
# Si number density = 19.956211 Si / 1000 Ang^3
#
#
#
# Elastic Constant Matrix: (Units=GPa)
#
#
# Indices 1 2 3 4 5 6 
#
# 1 107.4091 53.9557 36.3760 0.0000 6.2462 0.0000
# 2 53.9557 113.9161 25.9130 0.0000 4.3380 0.0000
# 3 36.3760 25.9130 64.2920 0.0000 14.7058 0.0000
# 4 0.0000 0.0000 0.0000 22.4188 0.0000 -0.7179
# 5 6.2462 4.3380 14.7058 0.0000 26.5921 0.0000
# 6 0.0000 0.0000 0.0000 -0.7179 0.0000 33.4754
#
#
#
# Elastic Compliance Matrix: (Units=1/GPa)
#
#
# Indices 1 2 3 4 5 6 
#
# 1 0.013925 -0.005275 -0.005955 0.000000 0.000883 0.000000
# 2 -0.005275 0.011673 -0.001795 0.000000 0.000328 0.000000
# 3 -0.005955 -0.001795 0.022049 0.000000 -0.010502 0.000000
# 4 0.000000 0.000000 0.000000 0.044636 0.000000 0.000957
# 5 0.000883 0.000328 -0.010502 0.000000 0.043152 0.000000
# 6 0.000000 0.000000 0.000000 0.000957 0.000000 0.029893
#
#
# Mechanical properties :
#
#
# Convention : Reuss Voigt Hill
#
# Bulk Modulus (GPa) = 46.30170 57.56738 51.93454
# Shear Modulus (GPa) = 25.17925 27.78877 26.48401
#
# Velocity S-wave (km/s) = 3.55593 3.73565 3.64690
# Velocity P-wave (km/s) = 6.33337 6.89320 6.61921
#
# Compressibility (1/GPa) = 0.02159748
#
# Stress axis : x y z
#
# Youngs Moduli (GPa) = 71.81220 85.67075 45.35379
#
# Poissons Ratio (x) = 0.45188 0.27007
# Poissons Ratio (y) = 0.37878 0.08142
# Poissons Ratio (z) = 0.42762 0.15380
#
# Static dielectric constant tensor:
#      x y z
#    x 3.685640 0.000000 0.231140 
#    y 0.000000 3.636750 0.000000 
#    z 0.231140 0.000000 3.536090 
# 
# 
# High freq. dielectric constant tensor:
#      x y z
#    x 1.779740 0.000000 0.016510 
#    y 0.000000 1.785320 0.000000 
#    z 0.016510 0.000000 1.767520 
# 
# From -- ./inp_files/68980.got.cif
#   From: 2010.06.25/outbox.cif.g09.slc.cpg/sg11_35_cif.got.tgz:68980.got - 2010.06.27 23:14:04.
