data_PCOD8073073
_publ_section_title
;
Structure prediction by ZEFSAII (Michael W. Deem and Ramdas Pophale) SiO2 
 PCOD8073073
Probable space group: P 21/M
;
_chemical_formula_sum "Si O2"
_cell_formula_units_Z 32
_cell_length_a 26.655158
_cell_length_b 9.326783
_cell_length_c 21.182286
_cell_angle_alpha 90.000000
_cell_angle_beta 19.318501
_cell_angle_gamma 90.000000
_cell_volume 1742.114032
_symmetry_space_group_name_H-M "P 21/M"
_symmetry_group_IT_number 11
_symmetry_cell_setting 'monoclinic'
loop_
_space_group_symop_operation_xyz
x,y,z
-x,1/2+y,-z
-x,-y,-z
x,1/2-y,z
loop_
_atom_site_type_symbol
_atom_site_label
_atom_site_fract_x
_atom_site_fract_y
_atom_site_fract_z
Si Si1 0.943588 0.081386 0.863636
Si Si2 0.045528 0.085319 0.507042
Si Si3 0.152448 0.908160 0.888505
Si Si4 0.611734 0.915524 0.911634
Si Si5 0.193142 0.582017 0.106349
Si Si6 0.236886 0.916638 0.553207
Si Si7 0.202222 0.410225 0.716336
Si Si8 0.438569 0.085215 0.887194
O O1 0.987458 0.250000 0.811730
O O2 0.847966 0.037433 0.916013
O O3 0.098455 0.991335 0.681183
O O4 0.838268 0.043779 0.049246
O O5 0.013756 0.250000 0.529247
O O6 0.221042 0.059225 0.314677
O O7 0.947102 0.033128 0.683299
O O8 0.000000 0.000000 0.500000
O O9 0.224036 0.750000 0.794458
O O10 0.241569 0.018868 0.737605
O O11 0.976916 0.902483 0.078644
O O12 0.563779 0.750000 0.967431
O O13 0.601368 0.973735 0.995683
O O14 0.500000 0.000000 0.000000
O O15 0.223563 0.750000 0.075586
O O16 0.345879 0.502520 0.945128
O O17 0.198328 0.750000 0.611535
O O18 0.383084 0.934800 0.335615
O O19 0.272404 0.992733 0.577733
O O20 0.272527 0.250000 0.630644
O O21 0.388969 0.250000 0.939715
#
# Coordination Sequence:
#
# PCOD8073073 Si02
#       8
#     4   4   4   4   4   4   4   4
#     4   9  19  34  52  78 108 135 171 218 262 305
#     4  10  20  36  57  79 104 136 175 217 258 307
#     4   8  14  26  45  70 102 135 165 206 258 308
#     4  10  22  38  55  79 108 137 172 216 262 308
#     4  10  21  36  56  80 103 136 178 216 260 311
#     4  10  20  33  51  76 105 139 177 213 257 312
#     4   9  16  27  46  73 103 135 169 212 259 303
#     4  10  22  39  54  74 107 142 175 214 260 311
#
# _framework density 18.368486999999998
#
# number of rings (size 3 to 8) (size 9 to 14) (size 15 to 20)
#    0.000    2.500    1.250    1.500    1.750    5.500 
#    0.000    0.000    0.000    0.750    0.000    0.000 
#    0.000    0.000    0.000    0.000    0.000    0.000 
#
# Total GULP energy -396802.389620 kJ/mol
# GULP energy per Si atom -12400.074676 kJ/mol
# Density = 1.832668 g / cm^3
# Si number density = 18.368487 Si / 1000 Ang^3
#
#
#
# Elastic Constant Matrix: (Units=GPa)
#
#
# Indices 1 2 3 4 5 6 
#
# 1 136.8035 50.7190 25.2785 0.0000 4.7584 0.0000
# 2 50.7190 78.1613 24.9389 0.0000 -2.4019 0.0000
# 3 25.2785 24.9389 34.4504 0.0000 -2.4795 0.0000
# 4 0.0000 0.0000 0.0000 24.9906 0.0000 0.1640
# 5 4.7584 -2.4019 -2.4795 0.0000 22.5332 0.0000
# 6 0.0000 0.0000 0.0000 0.1640 0.0000 33.1356
#
#
#
# Elastic Compliance Matrix: (Units=1/GPa)
#
#
# Indices 1 2 3 4 5 6 
#
# 1 0.010138 -0.005500 -0.003683 0.000000 -0.003132 0.000000
# 2 -0.005500 0.019625 -0.010016 0.000000 0.002151 0.000000
# 3 -0.003683 -0.010016 0.039271 0.000000 0.004031 0.000000
# 4 0.000000 0.000000 0.000000 0.040016 0.000000 -0.000198
# 5 -0.003132 0.002151 0.004031 0.000000 0.045713 0.000000
# 6 0.000000 0.000000 0.000000 -0.000198 0.000000 0.030180
#
#
# Mechanical properties :
#
#
# Convention : Reuss Voigt Hill
#
# Bulk Modulus (GPa) = 32.64187 50.14312 41.39250
# Shear Modulus (GPa) = 21.40832 26.03045 23.71938
#
# Velocity S-wave (km/s) = 3.41763 3.76856 3.59738
# Velocity P-wave (km/s) = 5.77778 6.80395 6.31176
#
# Compressibility (1/GPa) = 0.03063550
#
# Stress axis : x y z
#
# Youngs Moduli (GPa) = 98.63559 50.95578 25.46422
#
# Poissons Ratio (x) = 0.28025 0.09379
# Poissons Ratio (y) = 0.54248 0.25505
# Poissons Ratio (z) = 0.36330 0.51038
#
# Static dielectric constant tensor:
#      x y z
#    x 3.621400 0.000000 0.343010 
#    y 0.000000 3.479650 0.000000 
#    z 0.343010 0.000000 3.321950 
# 
# 
# High freq. dielectric constant tensor:
#      x y z
#    x 1.708850 0.000000 0.021360 
#    y 0.000000 1.713440 0.000000 
#    z 0.021360 0.000000 1.692890 
# 
# From -- ./inp_files/67039.got.cif
#   From: 2010.06.25/outbox.cif.g09.slc.cpg/sg11_34_cif.got.tgz:67039.got - 2010.06.27 23:14:04.
