data_PCOD8073419
_publ_section_title
;
Structure prediction by ZEFSAII (Michael W. Deem and Ramdas Pophale) SiO2 
 PCOD8073419
Probable space group: P 21/M
;
_chemical_formula_sum "Si O2"
_cell_formula_units_Z 28
_cell_length_a 22.631309
_cell_length_b 9.245428
_cell_length_c 21.279599
_cell_angle_alpha 90.000000
_cell_angle_beta 19.149654
_cell_angle_gamma 90.000000
_cell_volume 1460.570619
_symmetry_space_group_name_H-M "P 21/M"
_symmetry_group_IT_number 11
_symmetry_cell_setting 'monoclinic'
loop_
_space_group_symop_operation_xyz
x,y,z
-x,1/2+y,-z
-x,-y,-z
x,1/2-y,z
loop_
_atom_site_type_symbol
_atom_site_label
_atom_site_fract_x
_atom_site_fract_y
_atom_site_fract_z
Si Si1 0.228992 0.419117 0.142558
Si Si2 0.146452 0.918723 0.935791
Si Si3 0.147627 0.419995 0.495551
Si Si4 0.544795 0.917140 0.311277
Si Si5 0.204605 0.917510 0.734059
Si Si6 0.821308 0.585764 0.671623
Si Si7 0.440709 0.918320 0.274071
O O1 0.185930 0.250000 0.174220
O O2 0.298440 0.445477 0.145560
O O3 0.050784 0.510448 0.306200
O O4 0.387513 0.473131 0.938063
O O5 0.130379 0.750000 0.965357
O O6 0.220360 0.952701 0.791920
O O7 0.279984 0.987369 0.852266
O O8 0.951006 0.988444 0.141683
O O9 0.127912 0.250000 0.529118
O O10 0.256021 0.450194 0.320275
O O11 0.263683 0.492634 0.433571
O O12 0.598253 0.750000 0.265502
O O13 0.391520 0.962299 0.514638
O O14 0.475045 0.950619 0.312090
O O15 0.158449 0.750000 0.768553
O O16 0.883188 0.750000 0.609548
O O17 0.000000 0.500000 0.500000
O O18 0.403848 0.750000 0.298026
#
# Coordination Sequence:
#
# PCOD8073419 Si02
#       7
#     4   4   4   4   4   4   4
#     4   9  18  35  56  75 100 134 173 215 255 304
#     4  10  20  34  56  84 108 132 167 213 261 303
#     4  10  20  34  53  77 105 134 167 214 266 309
#     4  10  21  37  55  75 104 141 177 211 249 300
#     4   9  19  36  57  80 106 137 171 208 253 305
#     4   8  15  29  50  75  99 127 165 209 260 308
#     4  10  22  37  53  75 102 139 181 211 246 303
#
# _framework density 19.170589
#
# number of rings (size 3 to 8) (size 9 to 14) (size 15 to 20)
#    0.000    2.571    0.000    1.286    0.000    4.571 
#    0.000    5.714    0.000    0.000    0.000    0.000 
#    0.000    0.000    0.000    0.000    0.000    0.000 
#
# Total GULP energy -347060.888850 kJ/mol
# GULP energy per Si atom -12395.031745 kJ/mol
# Density = 1.912696 g / cm^3
# Si number density = 19.170589 Si / 1000 Ang^3
#
#
#
# Elastic Constant Matrix: (Units=GPa)
#
#
# Indices 1 2 3 4 5 6 
#
# 1 73.4297 34.2443 10.0464 0.0000 -14.2317 0.0000
# 2 34.2443 60.9865 15.0508 0.0000 -13.3323 0.0000
# 3 10.0464 15.0508 34.0071 0.0000 -4.9758 0.0000
# 4 0.0000 0.0000 0.0000 22.7996 0.0000 -1.0028
# 5 -14.2317 -13.3323 -4.9758 0.0000 26.2119 0.0000
# 6 0.0000 0.0000 0.0000 -1.0028 0.0000 24.6972
#
#
#
# Elastic Compliance Matrix: (Units=1/GPa)
#
#
# Indices 1 2 3 4 5 6 
#
# 1 0.019154 -0.009381 -0.000703 0.000000 0.005495 0.000000
# 2 -0.009381 0.024811 -0.007311 0.000000 0.006138 0.000000
# 3 -0.000703 -0.007311 0.033170 0.000000 0.002196 0.000000
# 4 0.000000 0.000000 0.000000 0.043939 0.000000 0.001784
# 5 0.005495 0.006138 0.002196 0.000000 0.044673 0.000000
# 6 0.000000 0.000000 0.000000 0.001784 0.000000 0.040563
#
#
# Mechanical properties :
#
#
# Convention : Reuss Voigt Hill
#
# Bulk Modulus (GPa) = 23.61503 31.90070 27.75787
# Shear Modulus (GPa) = 19.59129 22.01384 20.80257
#
# Velocity S-wave (km/s) = 3.20026 3.39235 3.29770
# Velocity P-wave (km/s) = 5.09908 5.65868 5.38615
#
# Compressibility (1/GPa) = 0.04234591
#
# Stress axis : x y z
#
# Youngs Moduli (GPa) = 52.20749 40.30535 30.14731
#
# Poissons Ratio (x) = 0.37809 0.02119
# Poissons Ratio (y) = 0.48973 0.22042
# Poissons Ratio (z) = 0.03670 0.29468
#
# Static dielectric constant tensor:
#      x y z
#    x 3.636050 0.000000 0.325380 
#    y 0.000000 3.445900 0.000000 
#    z 0.325380 0.000000 3.445880 
# 
# 
# High freq. dielectric constant tensor:
#      x y z
#    x 1.746880 0.000000 0.009470 
#    y 0.000000 1.745130 0.000000 
#    z 0.009470 0.000000 1.734920 
# 
# From -- ./inp_files/66680.got.cif
#   From: 2010.06.25/outbox.cif.g09.slc.cpg/sg11_34_cif.got.tgz:66680.got - 2010.06.27 23:14:04.
