data_PCOD8073101
_publ_section_title
;
Structure prediction by ZEFSAII (Michael W. Deem and Ramdas Pophale) SiO2 
 PCOD8073101
Probable space group: P 21/M
;
_chemical_formula_sum "Si O2"
_cell_formula_units_Z 28
_cell_length_a 27.313458
_cell_length_b 8.936622
_cell_length_c 9.830481
_cell_angle_alpha 90.000000
_cell_angle_beta 38.304082
_cell_angle_gamma 90.000000
_cell_volume 1487.307947
_symmetry_space_group_name_H-M "P 21/M"
_symmetry_group_IT_number 11
_symmetry_cell_setting 'monoclinic'
loop_
_space_group_symop_operation_xyz
x,y,z
-x,1/2+y,-z
-x,-y,-z
x,1/2-y,z
loop_
_atom_site_type_symbol
_atom_site_label
_atom_site_fract_x
_atom_site_fract_y
_atom_site_fract_z
Si Si1 0.517734 0.077102 0.600259
Si Si2 0.940882 0.571976 0.234838
Si Si3 0.773770 0.927196 0.485110
Si Si4 0.351105 0.073340 0.028310
Si Si5 0.984648 0.924682 0.676136
Si Si6 0.198071 0.423582 0.875185
Si Si7 0.685842 0.074050 0.178876
O O1 0.514599 0.250000 0.575034
O O2 0.608054 0.034529 0.443480
O O3 0.500000 0.000000 0.500000
O O4 0.444117 0.035787 0.860558
O O5 0.950792 0.750000 0.211557
O O6 0.853115 0.520215 0.386718
O O7 0.956877 0.507355 0.348499
O O8 0.000000 0.500000 0.000000
O O9 0.773135 0.750000 0.477338
O O10 0.699327 0.988001 0.734125
O O11 0.770346 0.988568 0.337931
O O12 0.337454 0.250000 0.039813
O O13 0.321913 0.996708 0.953475
O O14 0.005606 0.750000 0.624364
O O15 0.895206 0.950437 0.918293
O O16 0.000000 0.000000 0.500000
O O17 0.218947 0.250000 0.847495
O O18 0.237766 0.511246 0.912414
O O19 0.696285 0.250000 0.137273
#
# Coordination Sequence:
#
# PCOD8073101 Si02
#       7
#     4   4   4   4   4   4   4
#     4   8  15  29  50  76 106 137 172 215 264 315
#     4  11  21  38  60  83 110 146 186 227 273 324
#     4   9  19  36  57  79 104 137 181 222 260 317
#     4   9  17  33  58  81 102 138 181 219 264 322
#     4  11  24  41  59  82 111 144 184 230 276 328
#     4  10  21  39  56  74 106 146 181 215 263 325
#     4  10  20  33  51  80 113 140 173 222 270 313
#
# _framework density 18.825961
#
# number of rings (size 3 to 8) (size 9 to 14) (size 15 to 20)
#    0.000    2.286    1.429    1.286    2.000    1.714 
#    0.000    2.143    0.000    0.000    0.000    0.000 
#    0.000    0.000    0.000    0.000    0.000    0.000 
#
# Total GULP energy -346978.315950 kJ/mol
# GULP energy per Si atom -12392.082713 kJ/mol
# Density = 1.878311 g / cm^3
# Si number density = 18.825961 Si / 1000 Ang^3
#
#
#
# Elastic Constant Matrix: (Units=GPa)
#
#
# Indices 1 2 3 4 5 6 
#
# 1 45.1325 15.2227 5.1871 0.0000 13.8590 0.0000
# 2 15.2227 50.9833 24.1037 0.0000 1.8311 0.0000
# 3 5.1871 24.1037 107.7613 0.0000 11.1994 0.0000
# 4 0.0000 0.0000 0.0000 25.3794 0.0000 0.7474
# 5 13.8590 1.8311 11.1994 0.0000 30.0766 0.0000
# 6 0.0000 0.0000 0.0000 0.7474 0.0000 23.4879
#
#
#
# Elastic Compliance Matrix: (Units=1/GPa)
#
#
# Indices 1 2 3 4 5 6 
#
# 1 0.029228 -0.009217 0.002077 0.000000 -0.013680 0.000000
# 2 -0.009217 0.024848 -0.005616 0.000000 0.004826 0.000000
# 3 0.002077 -0.005616 0.010923 0.000000 -0.004682 0.000000
# 4 0.000000 0.000000 0.000000 0.039439 0.000000 -0.001255
# 5 -0.013680 0.004826 -0.004682 0.000000 0.041002 0.000000
# 6 0.000000 0.000000 0.000000 -0.001255 0.000000 0.042615
#
#
# Mechanical properties :
#
#
# Convention : Reuss Voigt Hill
#
# Bulk Modulus (GPa) = 25.32576 32.54490 28.93533
# Shear Modulus (GPa) = 22.05269 26.41302 24.23286
#
# Velocity S-wave (km/s) = 3.42628 3.74974 3.59165
# Velocity P-wave (km/s) = 5.39762 6.00601 5.70993
#
# Compressibility (1/GPa) = 0.03948549
#
# Stress axis : x y z
#
# Youngs Moduli (GPa) = 34.21368 40.24444 91.55376
#
# Poissons Ratio (x) = 0.37095 -0.19012
# Poissons Ratio (y) = 0.31536 0.51415
# Poissons Ratio (z) = -0.07105 0.22600
#
# Static dielectric constant tensor:
#      x y z
#    x 3.646230 0.000000 -0.383510 
#    y 0.000000 5.591100 0.000000 
#    z -0.383510 0.000000 4.023130 
# 
# 
# High freq. dielectric constant tensor:
#      x y z
#    x 1.720430 0.000000 -0.013210 
#    y 0.000000 1.721070 0.000000 
#    z -0.013210 0.000000 1.743500 
# 
# From -- ./inp_files/24071.got.cif
#   From: 2010.06.25/outbox.cif.g09.slc.cpg/sg11_13_cif.got.tgz:24071.got - 2010.06.27 23:14:04.
