data_PCOD8073826
_publ_section_title
;
Structure prediction by ZEFSAII (Michael W. Deem and Ramdas Pophale) SiO2 
 PCOD8073826
Probable space group: P 21/M
;
_chemical_formula_sum "Si O2"
_cell_formula_units_Z 32
_cell_length_a 12.603759
_cell_length_b 8.557684
_cell_length_c 19.601616
_cell_angle_alpha 90.000000
_cell_angle_beta 62.951301
_cell_angle_gamma 90.000000
_cell_volume 1882.958799
_symmetry_space_group_name_H-M "P 21/M"
_symmetry_group_IT_number 11
_symmetry_cell_setting 'monoclinic'
loop_
_space_group_symop_operation_xyz
x,y,z
-x,1/2+y,-z
-x,-y,-z
x,1/2-y,z
loop_
_atom_site_type_symbol
_atom_site_label
_atom_site_fract_x
_atom_site_fract_y
_atom_site_fract_z
Si Si1 0.920561 0.567698 0.672029
Si Si2 0.495497 0.935678 0.315074
Si Si3 0.834947 0.567369 0.430529
Si Si4 0.520282 0.934585 0.159572
Si Si5 0.281607 0.433408 0.167997
Si Si6 0.600930 0.934467 0.422224
Si Si7 0.224309 0.933163 0.409138
Si Si8 0.381545 0.433528 0.003387
O O1 0.951784 0.750000 0.663645
O O2 0.842364 0.519002 0.760901
O O3 0.850219 0.529340 0.623872
O O4 0.040890 0.468301 0.642845
O O5 0.497177 0.750000 0.313868
O O6 0.543597 0.004225 0.228553
O O7 0.579033 0.999326 0.351768
O O8 0.360296 0.992317 0.366914
O O9 0.824005 0.750000 0.450923
O O10 0.730245 0.511617 0.410247
O O11 0.829448 0.468363 0.501185
O O12 0.525107 0.750000 0.164111
O O13 0.387850 0.977742 0.174518
O O14 0.621454 0.994859 0.074942
O O15 0.306447 0.250000 0.169573
O O16 0.276080 0.478653 0.087786
O O17 0.589101 0.750000 0.426211
O O18 0.500000 0.000000 0.500000
O O19 0.212212 0.750000 0.396818
O O20 0.394161 0.250000 0.995751
O O21 0.500000 0.500000 0.000000
#
# Coordination Sequence:
#
# PCOD8073826 Si02
#       8
#     4   4   4   4   4   4   4   4
#     4  11  22  34  48  67  96 128 160 193 229 274
#     4   9  17  29  48  72  94 119 149 187 230 273
#     4  11  23  36  50  68  91 121 161 199 233 275
#     4   9  15  26  45  68  93 120 149 181 223 276
#     4   9  17  28  42  64  94 124 151 183 222 266
#     4  10  20  35  52  69  90 117 153 196 237 276
#     4  11  20  33  52  70  95 124 155 192 232 278
#     4   8  14  24  40  63  91 120 148 178 217 268
#
# _framework density 16.994529
#
# number of rings (size 3 to 8) (size 9 to 14) (size 15 to 20)
#    0.000    2.250    2.500    1.500    0.000    1.000 
#    0.000    0.625    0.000    0.000    0.000    0.875 
#    0.000    0.000    0.000    0.000    0.000    0.000 
#
# Total GULP energy -396482.736160 kJ/mol
# GULP energy per Si atom -12390.085505 kJ/mol
# Density = 1.695585 g / cm^3
# Si number density = 16.994529 Si / 1000 Ang^3
#
#
#
# Elastic Constant Matrix: (Units=GPa)
#
#
# Indices 1 2 3 4 5 6 
#
# 1 87.1870 7.9019 61.0636 0.0000 0.9972 0.0000
# 2 7.9019 13.7945 9.7788 0.0000 0.7228 0.0000
# 3 61.0636 9.7788 169.6008 0.0000 15.3300 0.0000
# 4 0.0000 0.0000 0.0000 15.4631 0.0000 -3.3184
# 5 0.9972 0.7228 15.3300 0.0000 19.0115 0.0000
# 6 0.0000 0.0000 0.0000 -3.3184 0.0000 12.9870
#
#
#
# Elastic Compliance Matrix: (Units=1/GPa)
#
#
# Indices 1 2 3 4 5 6 
#
# 1 0.015970 -0.005239 -0.005814 0.000000 0.004050 0.000000
# 2 -0.005239 0.077309 -0.002514 0.000000 -0.000638 0.000000
# 3 -0.005814 -0.002514 0.008735 0.000000 -0.006643 0.000000
# 4 0.000000 0.000000 0.000000 0.068422 0.000000 0.017483
# 5 0.004050 -0.000638 -0.006643 0.000000 0.057768 0.000000
# 6 0.000000 0.000000 0.000000 0.017483 0.000000 0.081467
#
#
# Mechanical properties :
#
#
# Convention : Reuss Voigt Hill
#
# Bulk Modulus (GPa) = 13.35449 47.56342 30.45895
# Shear Modulus (GPa) = 13.82116 22.28151 18.05134
#
# Velocity S-wave (km/s) = 2.85488 3.62484 3.26265
# Velocity P-wave (km/s) = 4.32924 6.75037 5.67053
#
# Compressibility (1/GPa) = 0.07488116
#
# Stress axis : x y z
#
# Youngs Moduli (GPa) = 62.61749 12.93509 114.48454
#
# Poissons Ratio (x) = 0.06777 0.66560
# Poissons Ratio (y) = 0.32805 0.28777
# Poissons Ratio (z) = 0.36405 0.03251
#
# Static dielectric constant tensor:
#      x y z
#    x 3.099170 0.000000 0.239870 
#    y 0.000000 3.151220 0.000000 
#    z 0.239870 0.000000 3.967620 
# 
# 
# High freq. dielectric constant tensor:
#      x y z
#    x 1.613860 0.000000 0.010620 
#    y 0.000000 1.645960 0.000000 
#    z 0.010620 0.000000 1.673660 
# 
# From -- ./inp_files/42486.got.cif
#   From: 2010.06.25/outbox.cif.g09.slc.cpg/sg11_22_cif.got.tgz:42486.got - 2010.06.27 23:14:04.
