data_PCOD8073131
_publ_section_title
;
Structure prediction by ZEFSAII (Michael W. Deem and Ramdas Pophale) SiO2 
 PCOD8073131
Probable space group: P 21/M
;
_chemical_formula_sum "Si O2"
_cell_formula_units_Z 32
_cell_length_a 16.062502
_cell_length_b 9.499899
_cell_length_c 24.056545
_cell_angle_alpha 90.000000
_cell_angle_beta 28.469701
_cell_angle_gamma 90.000000
_cell_volume 1749.867181
_symmetry_space_group_name_H-M "P 21/M"
_symmetry_group_IT_number 11
_symmetry_cell_setting 'monoclinic'
loop_
_space_group_symop_operation_xyz
x,y,z
-x,1/2+y,-z
-x,-y,-z
x,1/2-y,z
loop_
_atom_site_type_symbol
_atom_site_label
_atom_site_fract_x
_atom_site_fract_y
_atom_site_fract_z
Si Si1 0.080967 0.099533 0.496724
Si Si2 0.732683 0.097136 0.759799
Si Si3 0.231657 0.085147 0.668810
Si Si4 0.499083 0.086590 0.418243
Si Si5 0.880996 0.589712 0.882363
Si Si6 0.330107 0.090564 0.106166
Si Si7 0.569411 0.585504 0.147684
Si Si8 0.451117 0.084381 0.318595
O O1 0.131706 0.250000 0.439453
O O2 0.252202 0.035481 0.424807
O O3 0.930737 0.126230 0.628721
O O4 0.000000 0.000000 0.500000
O O5 0.656101 0.250000 0.826406
O O6 0.604796 0.044730 0.785223
O O7 0.762979 0.975445 0.786343
O O8 0.214321 0.250000 0.692598
O O9 0.314112 0.062063 0.558758
O O10 0.355437 0.013527 0.641402
O O11 0.042653 0.015625 0.785995
O O12 0.554353 0.250000 0.392245
O O13 0.488754 0.041970 0.359977
O O14 0.945437 0.750000 0.854411
O O15 0.788605 0.576956 0.877705
O O16 0.743131 0.545558 0.011063
O O17 0.380270 0.250000 0.089743
O O18 0.500000 0.000000 0.000000
O O19 0.566671 0.750000 0.163997
O O20 0.573650 0.498714 0.202952
O O21 0.480701 0.250000 0.292573
#
# Coordination Sequence:
#
# PCOD8073131 Si02
#       8
#     4   4   4   4   4   4   4   4
#     4  10  20  33  52  77 111 150 189 230 274 324
#     4  10  20  35  52  74 111 153 190 234 282 326
#     4  10  21  38  64  91 111 140 183 226 277 341
#     4   9  20  40  62  85 117 146 172 225 290 336
#     4  10  22  39  56  80 115 151 186 229 285 333
#     4  11  22  36  54  79 111 150 193 233 277 330
#     4  10  20  37  56  77 112 155 191 229 279 326
#     4  10  21  36  56  84 113 147 190 230 277 333
#
# _framework density 18.287102999999998
#
# number of rings (size 3 to 8) (size 9 to 14) (size 15 to 20)
#    0.000    2.000    2.500    0.750    1.750    3.500 
#    0.000    0.625    0.000    0.000    0.000    0.000 
#    0.000    0.000    0.000    0.000    0.000    0.000 
#
# Total GULP energy -396580.969242 kJ/mol
# GULP energy per Si atom -12393.155289 kJ/mol
# Density = 1.824548 g / cm^3
# Si number density = 18.287103 Si / 1000 Ang^3
#
#
#
# Elastic Constant Matrix: (Units=GPa)
#
#
# Indices 1 2 3 4 5 6 
#
# 1 110.4072 69.9469 53.3805 0.0000 20.3084 0.0000
# 2 69.9469 111.7412 60.6139 0.0000 6.0045 0.0000
# 3 53.3805 60.6139 103.3577 0.0000 4.5659 0.0000
# 4 0.0000 0.0000 0.0000 31.7772 0.0000 0.4174
# 5 20.3084 6.0045 4.5659 0.0000 29.9251 0.0000
# 6 0.0000 0.0000 0.0000 0.4174 0.0000 33.6526
#
#
#
# Elastic Compliance Matrix: (Units=1/GPa)
#
#
# Indices 1 2 3 4 5 6 
#
# 1 0.018417 -0.008898 -0.003846 0.000000 -0.010126 0.000000
# 2 -0.008898 0.017488 -0.005811 0.000000 0.003416 0.000000
# 3 -0.003846 -0.005811 0.015004 0.000000 0.001487 0.000000
# 4 0.000000 0.000000 0.000000 0.031474 0.000000 -0.000390
# 5 -0.010126 0.003416 0.001487 0.000000 0.039377 0.000000
# 6 0.000000 0.000000 0.000000 -0.000390 0.000000 0.029720
#
#
# Mechanical properties :
#
#
# Convention : Reuss Voigt Hill
#
# Bulk Modulus (GPa) = 72.47439 77.04319 74.75879
# Shear Modulus (GPa) = 25.88145 28.50863 27.19504
#
# Velocity S-wave (km/s) = 3.76611 3.95263 3.86050
# Velocity P-wave (km/s) = 7.65695 7.94055 7.80004
#
# Compressibility (1/GPa) = 0.01379798
#
# Stress axis : x y z
#
# Youngs Moduli (GPa) = 54.29871 57.18291 66.65015
#
# Poissons Ratio (x) = 0.50881 0.25634
# Poissons Ratio (y) = 0.48314 0.38731
# Poissons Ratio (z) = 0.20884 0.33230
#
# Static dielectric constant tensor:
#      x y z
#    x 3.202130 0.000000 0.303840 
#    y 0.000000 3.850170 0.000000 
#    z 0.303840 0.000000 3.561150 
# 
# 
# High freq. dielectric constant tensor:
#      x y z
#    x 1.696010 0.000000 0.005370 
#    y 0.000000 1.716660 0.000000 
#    z 0.005370 0.000000 1.711030 
# 
# From -- ./inp_files/69046.got.cif
#   From: 2010.06.25/outbox.cif.g09.slc.cpg/sg11_35_cif.got.tgz:69046.got - 2010.06.27 23:14:04.
