data_PCOD8073741
_publ_section_title
;
Structure prediction by ZEFSAII (Michael W. Deem and Ramdas Pophale) SiO2 
 PCOD8073741
Probable space group: P 21/M
;
_chemical_formula_sum "Si O2"
_cell_formula_units_Z 32
_cell_length_a 9.362745
_cell_length_b 15.156224
_cell_length_c 12.023763
_cell_angle_alpha 90.000000
_cell_angle_beta 93.345685
_cell_angle_gamma 90.000000
_cell_volume 1703.310309
_symmetry_space_group_name_H-M "P 21/M"
_symmetry_group_IT_number 11
_symmetry_cell_setting 'monoclinic'
loop_
_space_group_symop_operation_xyz
x,y,z
-x,1/2+y,-z
-x,-y,-z
x,1/2-y,z
loop_
_atom_site_type_symbol
_atom_site_label
_atom_site_fract_x
_atom_site_fract_y
_atom_site_fract_z
Si Si1 0.279502 0.650438 0.374569
Si Si2 0.928433 0.445755 0.329483
Si Si3 0.539857 0.849113 0.535727
Si Si4 0.349733 0.967809 0.948253
Si Si5 0.195195 0.650918 0.122685
Si Si6 0.934794 0.957639 0.105448
Si Si7 0.342326 0.850046 0.735917
Si Si8 0.191440 0.028348 0.474253
O O1 0.220763 0.750000 0.401040
O O2 0.444101 0.644088 0.420724
O O3 0.274481 0.634509 0.242755
O O4 0.190389 0.573357 0.430848
O O5 0.971423 0.479877 0.210572
O O6 0.821138 0.363360 0.311585
O O7 0.850894 0.523699 0.397619
O O8 0.072834 0.416729 0.399787
O O9 0.604077 0.750000 0.548990
O O10 0.445176 0.873004 0.638305
O O11 0.660047 0.922810 0.533594
O O12 0.382714 0.913632 0.838679
O O13 0.239091 0.049091 0.915139
O O14 0.271767 0.908554 0.035418
O O15 0.500000 0.000000 0.000000
O O16 0.212616 0.750000 0.082059
O O17 0.023349 0.632848 0.127014
O O18 0.000000 0.000000 0.000000
O O19 0.361801 0.750000 0.776268
#
# Coordination Sequence:
#
# PCOD8073741 Si02
#       8
#     4   4   4   4   4   4   4   4
#     4  10  20  34  57  83 111 150 191 229 278 339
#     4  10  21  34  55  87 107 145 194 228 290 334
#     4  10  22  37  55  84 115 153 194 232 286 345
#     4  10  22  36  59  87 112 144 186 241 289 347
#     4  10  20  37  59  79 109 151 193 232 280 343
#     4   9  19  37  56  80 110 141 187 231 274 337
#     4  10  21  38  58  80 113 149 187 236 289 346
#     4  11  21  35  57  82 117 151 187 241 281 343
#
# _framework density 18.786946
#
# number of rings (size 3 to 8) (size 9 to 14) (size 15 to 20)
#    0.000    2.000    2.500    0.750    1.750    1.500 
#    0.000    3.750    0.000    3.000    0.000    0.000 
#    0.000    0.000    0.000    0.000    0.000    0.000 
#
# Total GULP energy -396576.058312 kJ/mol
# GULP energy per Si atom -12393.001822 kJ/mol
# Density = 1.874419 g / cm^3
# Si number density = 18.786946 Si / 1000 Ang^3
#
#
#
# Elastic Constant Matrix: (Units=GPa)
#
#
# Indices 1 2 3 4 5 6 
#
# 1 122.8990 49.1889 45.6566 0.0000 15.2636 0.0000
# 2 49.1889 73.5079 35.7758 0.0000 3.6045 0.0000
# 3 45.6566 35.7758 114.9676 0.0000 5.1541 0.0000
# 4 0.0000 0.0000 0.0000 21.6875 0.0000 3.6294
# 5 15.2636 3.6045 5.1541 0.0000 30.8367 0.0000
# 6 0.0000 0.0000 0.0000 3.6294 0.0000 20.1609
#
#
#
# Elastic Compliance Matrix: (Units=1/GPa)
#
#
# Indices 1 2 3 4 5 6 
#
# 1 0.012444 -0.006821 -0.002598 0.000000 -0.004928 0.000000
# 2 -0.006821 0.019804 -0.003528 0.000000 0.001651 0.000000
# 3 -0.002598 -0.003528 0.010833 0.000000 -0.000112 0.000000
# 4 0.000000 0.000000 0.000000 0.047542 0.000000 -0.008559
# 5 -0.004928 0.001651 -0.000112 0.000000 0.034694 0.000000
# 6 0.000000 0.000000 0.000000 -0.008559 0.000000 0.051142
#
#
# Mechanical properties :
#
#
# Convention : Reuss Voigt Hill
#
# Bulk Modulus (GPa) = 58.18444 63.62412 60.90428
# Shear Modulus (GPa) = 24.02896 26.58723 25.30809
#
# Velocity S-wave (km/s) = 3.58022 3.76599 3.67428
# Velocity P-wave (km/s) = 6.93748 7.26979 7.10558
#
# Compressibility (1/GPa) = 0.01718673
#
# Stress axis : x y z
#
# Youngs Moduli (GPa) = 80.35963 50.49392 92.31155
#
# Poissons Ratio (x) = 0.34441 0.23986
# Poissons Ratio (y) = 0.54812 0.32568
# Poissons Ratio (z) = 0.20881 0.17814
#
# Static dielectric constant tensor:
#      x y z
#    x 3.581710 0.000000 0.129170 
#    y 0.000000 3.296280 0.000000 
#    z 0.129170 0.000000 3.663960 
# 
# 
# High freq. dielectric constant tensor:
#      x y z
#    x 1.725900 0.000000 0.005880 
#    y 0.000000 1.707790 0.000000 
#    z 0.005880 0.000000 1.750050 
# 
# From -- ./inp_files/31905.got.cif
#   From: 2010.06.25/outbox.cif.g09.slc.cpg/sg11_16_cif.got.tgz:31905.got - 2010.06.27 23:14:04.
