data_PCOD8073348
_publ_section_title
;
Structure prediction by ZEFSAII (Michael W. Deem and Ramdas Pophale) SiO2 
 PCOD8073348
Probable space group: P 21/M
;
_chemical_formula_sum "Si O2"
_cell_formula_units_Z 28
_cell_length_a 20.968310
_cell_length_b 8.844322
_cell_length_c 11.287813
_cell_angle_alpha 90.000000
_cell_angle_beta 50.039875
_cell_angle_gamma 90.000000
_cell_volume 1604.520180
_symmetry_space_group_name_H-M "P 21/M"
_symmetry_group_IT_number 11
_symmetry_cell_setting 'monoclinic'
loop_
_space_group_symop_operation_xyz
x,y,z
-x,1/2+y,-z
-x,-y,-z
x,1/2-y,z
loop_
_atom_site_type_symbol
_atom_site_label
_atom_site_fract_x
_atom_site_fract_y
_atom_site_fract_z
Si Si1 0.765986 0.428275 0.742583
Si Si2 0.926709 0.928435 0.663033
Si Si3 0.120296 0.076642 0.816442
Si Si4 0.444637 0.416788 0.227851
Si Si5 0.399406 0.082725 0.007872
Si Si6 0.046544 0.576077 0.121657
Si Si7 0.736259 0.572238 0.529705
O O1 0.777653 0.250000 0.735884
O O2 0.839047 0.509016 0.725266
O O3 0.679872 0.473725 0.909546
O O4 0.768755 0.479048 0.603005
O O5 0.929121 0.750000 0.642781
O O6 0.938273 0.968606 0.786002
O O7 0.000000 0.000000 0.500000
O O8 0.118952 0.250000 0.861100
O O9 0.207075 0.034414 0.650660
O O10 0.047465 0.048402 0.808652
O O11 0.110306 0.968968 0.941353
O O12 0.466655 0.250000 0.248963
O O13 0.428612 0.411121 0.107503
O O14 0.358653 0.475391 0.390308
O O15 0.523305 0.522814 0.163813
O O16 0.375618 0.250000 0.990840
O O17 0.061983 0.750000 0.138412
O O18 0.739720 0.750000 0.559279
#
# Coordination Sequence:
#
# PCOD8073348 Si02
#       7
#     4   4   4   4   4   4   4
#     4  11  21  32  48  71  99 131 166 201 242 290
#     4  12  24  38  54  73  99 129 163 200 241 287
#     4   9  18  33  52  72  97 129 162 200 243 285
#     4   8  14  24  40  64  93 125 160 199 241 285
#     4   9  16  27  42  62  92 128 162 197 240 289
#     4  10  20  34  52  74  99 128 164 202 241 284
#     4   9  17  30  48  71 100 132 166 203 244 289
#
# _framework density 17.450700000000001
#
# number of rings (size 3 to 8) (size 9 to 14) (size 15 to 20)
#    0.000    2.286    0.000    5.143    0.000    5.714 
#    0.000    0.000    0.000    0.000    0.000    1.000 
#    0.000    0.000    0.000    0.000    0.000    0.000 
#
# Total GULP energy -347172.969060 kJ/mol
# GULP energy per Si atom -12399.034609 kJ/mol
# Density = 1.741098 g / cm^3
# Si number density = 17.450700 Si / 1000 Ang^3
#
#
#
# Elastic Constant Matrix: (Units=GPa)
#
#
# Indices 1 2 3 4 5 6 
#
# 1 58.6422 39.1037 45.8754 0.0000 -10.6293 0.0000
# 2 39.1037 116.5963 45.7215 0.0000 -5.7404 0.0000
# 3 45.8754 45.7215 121.0968 0.0000 -25.7382 0.0000
# 4 0.0000 0.0000 0.0000 28.7186 0.0000 -3.1317
# 5 -10.6293 -5.7404 -25.7382 0.0000 23.0205 0.0000
# 6 0.0000 0.0000 0.0000 -3.1317 0.0000 27.0941
#
#
#
# Elastic Compliance Matrix: (Units=1/GPa)
#
#
# Indices 1 2 3 4 5 6 
#
# 1 0.027541 -0.006150 -0.007522 0.000000 0.002773 0.000000
# 2 -0.006150 0.011533 -0.002645 0.000000 -0.002922 0.000000
# 3 -0.007522 -0.002645 0.014728 0.000000 0.012333 0.000000
# 4 0.000000 0.000000 0.000000 0.035265 0.000000 0.004076
# 5 0.002773 -0.002922 0.012333 0.000000 0.057781 0.000000
# 6 0.000000 0.000000 0.000000 0.004076 0.000000 0.037379
#
#
# Mechanical properties :
#
#
# Convention : Reuss Voigt Hill
#
# Bulk Modulus (GPa) = 47.24579 61.97073 54.60826
# Shear Modulus (GPa) = 22.32972 26.80895 24.56934
#
# Velocity S-wave (km/s) = 3.58101 3.92378 3.75631
# Velocity P-wave (km/s) = 6.65063 7.49113 7.08336
#
# Compressibility (1/GPa) = 0.02116591
#
# Stress axis : x y z
#
# Youngs Moduli (GPa) = 36.30999 86.70926 67.90016
#
# Poissons Ratio (x) = 0.53330 0.51073
# Poissons Ratio (y) = 0.22332 0.17962
# Poissons Ratio (z) = 0.27312 0.22937
#
# Static dielectric constant tensor:
#      x y z
#    x 3.113670 0.000000 -0.379250 
#    y 0.000000 3.412400 0.000000 
#    z -0.379250 0.000000 3.385240 
# 
# 
# High freq. dielectric constant tensor:
#      x y z
#    x 1.640590 0.000000 -0.031980 
#    y 0.000000 1.683520 0.000000 
#    z -0.031980 0.000000 1.669930 
# 
# From -- ./inp_files/42349.got.cif
#   From: 2010.06.25/outbox.cif.g09.slc.cpg/sg11_22_cif.got.tgz:42349.got - 2010.06.27 23:14:04.
