data_PCOD8073795
_publ_section_title
;
Structure prediction by ZEFSAII (Michael W. Deem and Ramdas Pophale) SiO2 
 PCOD8073795
Probable space group: P 21/M
;
_chemical_formula_sum "Si O2"
_cell_formula_units_Z 28
_cell_length_a 15.338386
_cell_length_b 8.813607
_cell_length_c 20.730750
_cell_angle_alpha 90.000000
_cell_angle_beta 152.069405
_cell_angle_gamma 90.000000
_cell_volume 1312.703936
_symmetry_space_group_name_H-M "P 21/M"
_symmetry_group_IT_number 11
_symmetry_cell_setting 'monoclinic'
loop_
_space_group_symop_operation_xyz
x,y,z
-x,1/2+y,-z
-x,-y,-z
x,1/2-y,z
loop_
_atom_site_type_symbol
_atom_site_label
_atom_site_fract_x
_atom_site_fract_y
_atom_site_fract_z
Si Si1 0.034604 0.416031 0.842781
Si Si2 0.572928 0.931069 0.363344
Si Si3 0.764334 0.421884 0.130226
Si Si4 0.408077 0.580350 0.855722
Si Si5 0.176285 0.923178 0.580591
Si Si6 0.631346 0.079265 0.536346
Si Si7 0.166467 0.067095 0.065653
O O1 0.124080 0.250000 0.899455
O O2 0.074854 0.490251 0.800353
O O3 0.814307 0.413364 0.699889
O O4 0.120557 0.492737 0.963070
O O5 0.554900 0.750000 0.346927
O O6 0.738726 0.985668 0.424051
O O7 0.643693 0.979551 0.479950
O O8 0.370585 0.005286 0.217784
O O9 0.813652 0.250000 0.150929
O O10 0.756990 0.463418 0.201581
O O11 0.569583 0.458988 0.968485
O O12 0.478545 0.750000 0.920626
O O13 0.341967 0.577022 0.740022
O O14 0.125769 0.750000 0.527584
O O15 0.000000 0.000000 0.500000
O O16 0.566645 0.250000 0.475563
O O17 0.500000 0.000000 0.500000
O O18 0.163756 0.250000 0.069122
O O19 0.000000 0.000000 0.000000
#
# Coordination Sequence:
#
# PCOD8073795 Si02
#       7
#     4   4   4   4   4   4   4
#     4  10  23  40  61  90 124 159 201 256 318 382
#     4  12  26  44  66  96 135 179 225 274 328 394
#     4  10  20  34  58  89 117 153 199 247 302 368
#     4   9  20  38  57  82 120 158 198 251 307 361
#     4  11  24  42  63  90 126 170 220 272 325 387
#     4  11  24  44  68  97 130 170 215 267 331 395
#     4  11  23  42  68  98 131 167 213 271 335 401
#
# _framework density 21.330017999999999
#
# number of rings (size 3 to 8) (size 9 to 14) (size 15 to 20)
#    0.000    1.429    0.000    4.714    2.000    8.571 
#    0.000    0.000    0.000    0.000    0.000    0.000 
#    0.000    0.000    0.000    0.000    0.000    0.000 
#
# Total GULP energy -347018.675148 kJ/mol
# GULP energy per Si atom -12393.524112 kJ/mol
# Density = 2.128147 g / cm^3
# Si number density = 21.330018 Si / 1000 Ang^3
#
#
#
# Elastic Constant Matrix: (Units=GPa)
#
#
# Indices 1 2 3 4 5 6 
#
# 1 140.9908 48.7177 26.3599 0.0000 6.0206 0.0000
# 2 48.7177 108.6851 21.2057 0.0000 4.5788 0.0000
# 3 26.3599 21.2057 63.7869 0.0000 -3.1860 0.0000
# 4 0.0000 0.0000 0.0000 30.0484 0.0000 3.8439
# 5 6.0206 4.5788 -3.1860 0.0000 40.4750 0.0000
# 6 0.0000 0.0000 0.0000 3.8439 0.0000 40.8867
#
#
#
# Elastic Compliance Matrix: (Units=1/GPa)
#
#
# Indices 1 2 3 4 5 6 
#
# 1 0.008792 -0.003394 -0.002561 0.000000 -0.001126 0.000000
# 2 -0.003394 0.011226 -0.002377 0.000000 -0.000952 0.000000
# 3 -0.002561 -0.002377 0.017628 0.000000 0.002037 0.000000
# 4 0.000000 0.000000 0.000000 0.033685 0.000000 -0.003167
# 5 -0.001126 -0.000952 0.002037 0.000000 0.025142 0.000000
# 6 0.000000 0.000000 0.000000 -0.003167 0.000000 0.024756
#
#
# Mechanical properties :
#
#
# Convention : Reuss Voigt Hill
#
# Bulk Modulus (GPa) = 47.66131 56.22550 51.94341
# Shear Modulus (GPa) = 34.50961 36.76066 35.63514
#
# Velocity S-wave (km/s) = 4.02666 4.15592 4.09180
# Velocity P-wave (km/s) = 6.63415 7.03178 6.83585
#
# Compressibility (1/GPa) = 0.02098138
#
# Stress axis : x y z
#
# Youngs Moduli (GPa) = 113.73535 89.07783 56.72897
#
# Poissons Ratio (x) = 0.30233 0.14530
# Poissons Ratio (y) = 0.38601 0.13485
# Poissons Ratio (z) = 0.29131 0.21175
#
# Static dielectric constant tensor:
#      x y z
#    x 3.567760 0.000000 0.538940 
#    y 0.000000 4.059580 0.000000 
#    z 0.538940 0.000000 2.973980 
# 
# 
# High freq. dielectric constant tensor:
#      x y z
#    x 1.856400 0.000000 -0.000540 
#    y 0.000000 1.841740 0.000000 
#    z -0.000540 0.000000 1.833740 
# 
# From -- ./inp_files/65473.got.cif
#   From: 2010.06.25/outbox.cif.g09.slc.cpg/sg11_33_cif.got.tgz:65473.got - 2010.06.27 23:14:04.
