data_PCOD8073187
_publ_section_title
;
Structure prediction by ZEFSAII (Michael W. Deem and Ramdas Pophale) SiO2 
 PCOD8073187
Probable space group: P 21/M
;
_chemical_formula_sum "Si O2"
_cell_formula_units_Z 28
_cell_length_a 14.238305
_cell_length_b 8.771492
_cell_length_c 19.121672
_cell_angle_alpha 90.000000
_cell_angle_beta 41.542851
_cell_angle_gamma 90.000000
_cell_volume 1583.758826
_symmetry_space_group_name_H-M "P 21/M"
_symmetry_group_IT_number 11
_symmetry_cell_setting 'monoclinic'
loop_
_space_group_symop_operation_xyz
x,y,z
-x,1/2+y,-z
-x,-y,-z
x,1/2-y,z
loop_
_atom_site_type_symbol
_atom_site_label
_atom_site_fract_x
_atom_site_fract_y
_atom_site_fract_z
Si Si1 0.516225 0.928149 0.697776
Si Si2 0.918824 0.428109 0.306129
Si Si3 0.003635 0.573496 0.393268
Si Si4 0.774849 0.073959 0.616638
Si Si5 0.970070 0.426307 0.120099
Si Si6 0.595415 0.070356 0.506735
Si Si7 0.225785 0.426183 0.879299
O O1 0.522757 0.750000 0.679500
O O2 0.632950 0.974634 0.690370
O O3 0.542884 0.015238 0.610934
O O4 0.364695 0.973221 0.813562
O O5 0.935924 0.250000 0.312183
O O6 0.016455 0.522408 0.305724
O O7 0.975829 0.470989 0.197903
O O8 0.756613 0.481179 0.404248
O O9 0.960515 0.750000 0.423984
O O10 0.881833 0.471524 0.495499
O O11 0.153391 0.543240 0.348068
O O12 0.735261 0.250000 0.628192
O O13 0.926874 0.250000 0.133825
O O14 0.850771 0.528205 0.150032
O O15 0.123317 0.460266 0.001805
O O16 0.580208 0.250000 0.511141
O O17 0.500000 0.000000 0.500000
O O18 0.268673 0.250000 0.851111
#
# Coordination Sequence:
#
# PCOD8073187 Si02
#       7
#     4   4   4   4   4   4   4
#     4  12  23  35  53  77 107 141 180 221 263 316
#     4  10  20  34  53  76 107 141 173 213 262 316
#     4  10  20  33  53  79 106 137 174 215 262 319
#     4  10  20  35  53  76 106 138 175 218 264 316
#     4   9  19  36  56  80 107 139 180 221 264 315
#     4  11  22  34  50  76 110 144 173 210 262 318
#     4  10  20  35  56  79 106 140 180 225 267 311
#
# _framework density 17.679459999999999
#
# number of rings (size 3 to 8) (size 9 to 14) (size 15 to 20)
#    0.000    1.714    1.429    3.857    0.000    4.571 
#    0.000    0.000    0.000    0.857    0.000    0.000 
#    0.000    0.000    0.000    0.000    0.000    0.000 
#
# Total GULP energy -347328.546712 kJ/mol
# GULP energy per Si atom -12404.590954 kJ/mol
# Density = 1.763922 g / cm^3
# Si number density = 17.679460 Si / 1000 Ang^3
#
#
#
# Elastic Constant Matrix: (Units=GPa)
#
#
# Indices 1 2 3 4 5 6 
#
# 1 125.6995 41.5591 55.1269 0.0000 5.6361 0.0000
# 2 41.5591 56.8192 26.0351 0.0000 -0.6219 0.0000
# 3 55.1269 26.0351 83.9504 0.0000 2.4319 0.0000
# 4 0.0000 0.0000 0.0000 23.9921 0.0000 -0.2090
# 5 5.6361 -0.6219 2.4319 0.0000 26.2140 0.0000
# 6 0.0000 0.0000 0.0000 -0.2090 0.0000 34.2972
#
#
#
# Elastic Compliance Matrix: (Units=1/GPa)
#
#
# Indices 1 2 3 4 5 6 
#
# 1 0.013095 -0.006639 -0.006471 0.000000 -0.002373 0.000000
# 2 -0.006639 0.023911 -0.003122 0.000000 0.002284 0.000000
# 3 -0.006471 -0.003122 0.017137 0.000000 -0.000273 0.000000
# 4 0.000000 0.000000 0.000000 0.041683 0.000000 0.000254
# 5 -0.002373 0.002284 -0.000273 0.000000 0.038737 0.000000
# 6 0.000000 0.000000 0.000000 0.000254 0.000000 0.029158
#
#
# Mechanical properties :
#
#
# Convention : Reuss Voigt Hill
#
# Bulk Modulus (GPa) = 46.12787 56.87903 51.50345
# Shear Modulus (GPa) = 24.58063 26.48385 25.53224
#
# Velocity S-wave (km/s) = 3.73278 3.87460 3.80435
# Velocity P-wave (km/s) = 6.68776 7.22903 6.96366
#
# Compressibility (1/GPa) = 0.02167887
#
# Stress axis : x y z
#
# Youngs Moduli (GPa) = 76.36611 41.82176 58.35186
#
# Poissons Ratio (x) = 0.27764 0.37761
# Poissons Ratio (y) = 0.50697 0.18219
# Poissons Ratio (z) = 0.49419 0.13058
#
# Static dielectric constant tensor:
#      x y z
#    x 3.519160 0.000000 -0.006210 
#    y 0.000000 3.348250 0.000000 
#    z -0.006210 0.000000 3.181980 
# 
# 
# High freq. dielectric constant tensor:
#      x y z
#    x 1.686430 0.000000 0.000850 
#    y 0.000000 1.695360 0.000000 
#    z 0.000850 0.000000 1.663310 
# 
# From -- ./inp_files/60077.got.cif
#   From: 2010.06.25/outbox.cif.g09.slc.cpg/sg11_31_cif.got.tgz:60077.got - 2010.06.27 23:14:04.
