data_PCOD8073171
_publ_section_title
;
Structure prediction by ZEFSAII (Michael W. Deem and Ramdas Pophale) SiO2 
 PCOD8073171
Probable space group: P 21/M
;
_chemical_formula_sum "Si O2"
_cell_formula_units_Z 32
_cell_length_a 12.274759
_cell_length_b 9.061821
_cell_length_c 22.739352
_cell_angle_alpha 90.000000
_cell_angle_beta 46.034211
_cell_angle_gamma 90.000000
_cell_volume 1820.500891
_symmetry_space_group_name_H-M "P 21/M"
_symmetry_group_IT_number 11
_symmetry_cell_setting 'monoclinic'
loop_
_space_group_symop_operation_xyz
x,y,z
-x,1/2+y,-z
-x,-y,-z
x,1/2-y,z
loop_
_atom_site_type_symbol
_atom_site_label
_atom_site_fract_x
_atom_site_fract_y
_atom_site_fract_z
Si Si1 0.952423 0.418998 0.158271
Si Si2 0.108601 0.917631 0.331119
Si Si3 0.076188 0.075470 0.712328
Si Si4 0.337520 0.077498 0.320080
Si Si5 0.136135 0.419530 0.980062
Si Si6 0.677879 0.076913 0.176184
Si Si7 0.798799 0.920492 0.505766
Si Si8 0.658854 0.074650 0.450207
O O1 0.933075 0.250000 0.186648
O O2 0.980169 0.526421 0.202652
O O3 0.801328 0.468454 0.179278
O O4 0.104856 0.434632 0.061591
O O5 0.161545 0.750000 0.308089
O O6 0.048706 0.969281 0.289661
O O7 0.978081 0.939250 0.429164
O O8 0.256063 0.009395 0.293751
O O9 0.107490 0.250000 0.698162
O O10 0.230170 0.988511 0.641264
O O11 0.329692 0.250000 0.314304
O O12 0.511885 0.025710 0.259513
O O13 0.247876 0.028008 0.411869
O O14 0.138378 0.250000 0.960012
O O15 0.288987 0.496492 0.898879
O O16 0.000000 0.500000 0.000000
O O17 0.686590 0.250000 0.160961
O O18 0.750969 0.750000 0.511463
O O19 0.713324 0.029850 0.494282
O O20 0.648007 0.250000 0.448386
O O21 0.500000 0.000000 0.500000
#
# Coordination Sequence:
#
# PCOD8073171 Si02
#       8
#     4   4   4   4   4   4   4   4
#     4   9  18  32  52  78 105 134 168 206 253 310
#     4   9  19  35  51  71 102 135 174 220 257 300
#     4  10  21  36  53  76 102 133 174 214 256 303
#     4  10  20  33  53  77 103 136 172 215 261 307
#     4   9  17  31  51  75 104 137 168 202 251 307
#     4   9  19  33  49  77 110 136 166 207 259 308
#     4   9  19  35  52  73 101 135 174 217 261 301
#     4  11  22  35  51  72 102 138 172 210 256 305
#
# _framework density 17.577579
#
# number of rings (size 3 to 8) (size 9 to 14) (size 15 to 20)
#    0.000    2.500    0.000    3.750    1.750    6.000 
#    0.000    0.000    0.000    0.750    0.000    0.000 
#    0.000    0.000    0.000    0.000    0.000    0.000 
#
# Total GULP energy -396709.947398 kJ/mol
# GULP energy per Si atom -12397.185856 kJ/mol
# Density = 1.753757 g / cm^3
# Si number density = 17.577579 Si / 1000 Ang^3
#
#
#
# Elastic Constant Matrix: (Units=GPa)
#
#
# Indices 1 2 3 4 5 6 
#
# 1 64.8325 29.3108 46.8795 0.0000 5.6337 0.0000
# 2 29.3108 73.0982 40.0316 0.0000 7.3066 0.0000
# 3 46.8795 40.0316 99.8085 0.0000 12.2917 0.0000
# 4 0.0000 0.0000 0.0000 31.8959 0.0000 1.6589
# 5 5.6337 7.3066 12.2917 0.0000 18.0986 0.0000
# 6 0.0000 0.0000 0.0000 1.6589 0.0000 30.1837
#
#
#
# Elastic Compliance Matrix: (Units=1/GPa)
#
#
# Indices 1 2 3 4 5 6 
#
# 1 0.024475 -0.004544 -0.009779 0.000000 0.000857 0.000000
# 2 -0.004544 0.018480 -0.004947 0.000000 -0.002686 0.000000
# 3 -0.009779 -0.004947 0.017434 0.000000 -0.006799 0.000000
# 4 0.000000 0.000000 0.000000 0.031442 0.000000 -0.001728
# 5 0.000857 -0.002686 -0.006799 0.000000 0.060688 0.000000
# 6 0.000000 0.000000 0.000000 -0.001728 0.000000 0.033225
#
#
# Mechanical properties :
#
#
# Convention : Reuss Voigt Hill
#
# Bulk Modulus (GPa) = 45.76864 52.24255 49.00560
# Shear Modulus (GPa) = 21.59201 24.13680 22.86440
#
# Velocity S-wave (km/s) = 3.50863 3.70964 3.61053
# Velocity P-wave (km/s) = 6.51986 6.93788 6.73212
#
# Compressibility (1/GPa) = 0.02184902
#
# Stress axis : x y z
#
# Youngs Moduli (GPa) = 40.85750 54.11262 57.36062
#
# Poissons Ratio (x) = 0.24591 0.56092
# Poissons Ratio (y) = 0.18568 0.28374
# Poissons Ratio (z) = 0.39954 0.26768
#
# Static dielectric constant tensor:
#      x y z
#    x 3.296920 0.000000 -0.036020 
#    y 0.000000 3.316030 0.000000 
#    z -0.036020 0.000000 3.518490 
# 
# 
# High freq. dielectric constant tensor:
#      x y z
#    x 1.656140 0.000000 0.003350 
#    y 0.000000 1.682880 0.000000 
#    z 0.003350 0.000000 1.678260 
# 
# From -- ./inp_files/43779.got.cif
#   From: 2010.06.25/outbox.cif.g09.slc.cpg/sg11_22_cif.got.tgz:43779.got - 2010.06.27 23:14:04.
