data_PCOD8073391
_publ_section_title
;
Structure prediction by ZEFSAII (Michael W. Deem and Ramdas Pophale) SiO2 
 PCOD8073391
Probable space group: P 21/M
;
_chemical_formula_sum "Si O2"
_cell_formula_units_Z 28
_cell_length_a 32.402765
_cell_length_b 8.930223
_cell_length_c 9.737093
_cell_angle_alpha 90.000000
_cell_angle_beta 31.953415
_cell_angle_gamma 90.000000
_cell_volume 1491.137863
_symmetry_space_group_name_H-M "P 21/M"
_symmetry_group_IT_number 11
_symmetry_cell_setting 'monoclinic'
loop_
_space_group_symop_operation_xyz
x,y,z
-x,1/2+y,-z
-x,-y,-z
x,1/2-y,z
loop_
_atom_site_type_symbol
_atom_site_label
_atom_site_fract_x
_atom_site_fract_y
_atom_site_fract_z
Si Si1 0.938812 0.078167 0.576298
Si Si2 0.774003 0.427187 0.136538
Si Si3 0.648653 0.426762 0.278022
Si Si4 0.316478 0.426711 0.111888
Si Si5 0.806911 0.427661 0.347403
Si Si6 0.969169 0.576509 0.951432
Si Si7 0.516952 0.577675 0.311946
O O1 0.938672 0.250000 0.621532
O O2 0.961561 0.057591 0.353810
O O3 0.852889 0.009111 0.843648
O O4 0.000000 0.000000 0.500000
O O5 0.773959 0.250000 0.128275
O O6 0.699878 0.488551 0.260473
O O7 0.769029 0.478261 0.309238
O O8 0.662066 0.250000 0.214597
O O9 0.557080 0.459273 0.577951
O O10 0.673824 0.514047 0.070139
O O11 0.299912 0.250000 0.155041
O O12 0.244111 0.509238 0.384675
O O13 0.394730 0.466135 0.982812
O O14 0.812630 0.250000 0.344830
O O15 0.892975 0.494427 0.110883
O O16 0.949778 0.750000 0.033370
O O17 0.000000 0.500000 0.000000
O O18 0.500000 0.500000 0.500000
O O19 0.517781 0.750000 0.345657
#
# Coordination Sequence:
#
# PCOD8073391 Si02
#       7
#     4   4   4   4   4   4   4
#     4  10  20  37  58  80 106 142 181 220 263 317
#     4   9  19  35  56  80 106 137 181 227 265 316
#     4   9  17  33  58  83 105 139 184 225 269 324
#     4  10  20  34  52  80 114 143 177 224 274 323
#     4  11  22  38  57  77 107 146 183 223 271 321
#     4  11  24  39  58  84 113 143 179 223 270 321
#     4   8  15  29  51  77 107 140 175 219 269 320
#
# _framework density 18.777607
#
# number of rings (size 3 to 8) (size 9 to 14) (size 15 to 20)
#    0.000    2.286    1.429    1.286    2.000    1.143 
#    0.000    2.857    0.000    0.000    0.000    0.000 
#    0.000    0.000    0.000    0.000    0.000    0.000 
#
# Total GULP energy -346961.804784 kJ/mol
# GULP energy per Si atom -12391.493028 kJ/mol
# Density = 1.873487 g / cm^3
# Si number density = 18.777607 Si / 1000 Ang^3
#
#
#
# Elastic Constant Matrix: (Units=GPa)
#
#
# Indices 1 2 3 4 5 6 
#
# 1 125.3838 28.5653 16.0228 0.0000 -8.6611 0.0000
# 2 28.5653 60.8484 18.1104 0.0000 2.7795 0.0000
# 3 16.0228 18.1104 42.9584 0.0000 -0.3733 0.0000
# 4 0.0000 0.0000 0.0000 19.1600 0.0000 -2.7243
# 5 -8.6611 2.7795 -0.3733 0.0000 29.6270 0.0000
# 6 0.0000 0.0000 0.0000 -2.7243 0.0000 25.4952
#
#
#
# Elastic Compliance Matrix: (Units=1/GPa)
#
#
# Indices 1 2 3 4 5 6 
#
# 1 0.009323 -0.003991 -0.001768 0.000000 0.003078 0.000000
# 2 -0.003991 0.020604 -0.007225 0.000000 -0.003191 0.000000
# 3 -0.001768 -0.007225 0.026988 0.000000 0.000501 0.000000
# 4 0.000000 0.000000 0.000000 0.052997 0.000000 0.005663
# 5 0.003078 -0.003191 0.000501 0.000000 0.034958 0.000000
# 6 0.000000 0.000000 0.000000 0.005663 0.000000 0.039828
#
#
# Mechanical properties :
#
#
# Convention : Reuss Voigt Hill
#
# Bulk Modulus (GPa) = 32.31393 39.39862 35.85628
# Shear Modulus (GPa) = 22.62602 25.95591 24.29097
#
# Velocity S-wave (km/s) = 3.47500 3.72194 3.60059
# Velocity P-wave (km/s) = 5.77468 6.28472 6.03509
#
# Compressibility (1/GPa) = 0.03094640
#
# Stress axis : x y z
#
# Youngs Moduli (GPa) = 107.25765 48.53383 37.05322
#
# Poissons Ratio (x) = 0.19371 0.06551
# Poissons Ratio (y) = 0.42809 0.26772
# Poissons Ratio (z) = 0.18964 0.35067
#
# Static dielectric constant tensor:
#      x y z
#    x 3.828280 0.000000 -0.391000 
#    y 0.000000 3.365030 0.000000 
#    z -0.391000 0.000000 3.769410 
# 
# 
# High freq. dielectric constant tensor:
#      x y z
#    x 1.730840 0.000000 -0.020530 
#    y 0.000000 1.720390 0.000000 
#    z -0.020530 0.000000 1.727710 
# 
# From -- ./inp_files/29019.got.cif
#   From: 2010.06.25/outbox.cif.g09.slc.cpg/sg11_15_cif.got.tgz:29019.got - 2010.06.27 23:14:04.
