data_PCOD8073840
_publ_section_title
;
Structure prediction by ZEFSAII (Michael W. Deem and Ramdas Pophale) SiO2 
 PCOD8073840
Probable space group: P 21/M
;
_chemical_formula_sum "Si O2"
_cell_formula_units_Z 32
_cell_length_a 28.252851
_cell_length_b 10.295778
_cell_length_c 11.890705
_cell_angle_alpha 90.000000
_cell_angle_beta 28.134949
_cell_angle_gamma 90.000000
_cell_volume 1631.010219
_symmetry_space_group_name_H-M "P 21/M"
_symmetry_group_IT_number 11
_symmetry_cell_setting 'monoclinic'
loop_
_space_group_symop_operation_xyz
x,y,z
-x,1/2+y,-z
-x,-y,-z
x,1/2-y,z
loop_
_atom_site_type_symbol
_atom_site_label
_atom_site_fract_x
_atom_site_fract_y
_atom_site_fract_z
Si Si1 0.365406 0.098905 0.129003
Si Si2 0.139098 0.102475 0.998285
Si Si3 0.082510 0.599773 0.537937
Si Si4 0.323689 0.101812 0.757094
Si Si5 0.076499 0.610682 0.806770
Si Si6 0.417404 0.603818 0.403900
Si Si7 0.742069 0.030140 0.438552
Si Si8 0.245963 0.100165 0.156724
O O1 0.355419 0.250000 0.170740
O O2 0.302143 0.057613 0.152299
O O3 0.326540 0.032665 0.322756
O O4 0.480702 0.058077 0.869521
O O5 0.107979 0.250000 0.057469
O O6 0.210297 0.069762 0.954157
O O7 0.195528 0.074375 0.763540
O O8 0.029451 0.037291 0.242757
O O9 0.094821 0.750000 0.468897
O O10 0.113219 0.589662 0.603577
O O11 0.156044 0.500506 0.319326
O O12 0.352688 0.250000 0.659997
O O13 0.398454 0.998414 0.544114
O O14 0.325653 0.087504 0.887486
O O15 0.020666 0.750000 0.935095
O O16 0.175090 0.620347 0.677405
O O17 0.000000 0.500000 0.000000
O O18 0.428516 0.750000 0.430844
O O19 0.328611 0.608969 0.498465
O O20 0.206770 0.250000 0.245316
#
# Coordination Sequence:
#
# PCOD8073840 Si02
#       8
#     4   4   4   4   4   4   4   4
#     4  10  21  36  57  84 113 147 183 227 281 336
#     4   9  18  33  54  79 110 146 182 219 264 326
#     4  10  20  35  52  80 113 147 184 224 272 324
#     4   9  20  39  60  81 108 144 188 229 275 330
#     4  11  22  34  52  81 114 147 183 222 268 325
#     4  10  22  39  58  83 112 142 184 233 282 329
#     4  11  19  35  56  81 112 148 182 224 273 323
#     4  10  21  38  58  82 110 145 187 231 273 328
#
# _framework density 19.619743
#
# number of rings (size 3 to 8) (size 9 to 14) (size 15 to 20)
#    0.000    2.000    2.500    1.125    0.000    3.000 
#    0.000    2.500    0.000    0.000    0.000    0.000 
#    0.000    0.000    0.000    0.000    0.000    0.000 
#
# Total GULP energy -396607.812497 kJ/mol
# GULP energy per Si atom -12393.994141 kJ/mol
# Density = 1.957509 g / cm^3
# Si number density = 19.619743 Si / 1000 Ang^3
#
#
#
# Elastic Constant Matrix: (Units=GPa)
#
#
# Indices 1 2 3 4 5 6 
#
# 1 27.0565 15.6811 13.6598 0.0000 4.8642 0.0000
# 2 15.6811 86.8121 54.7908 0.0000 2.8813 0.0000
# 3 13.6598 54.7908 96.3622 0.0000 -4.0757 0.0000
# 4 0.0000 0.0000 0.0000 36.1836 0.0000 0.4159
# 5 4.8642 2.8813 -4.0757 0.0000 32.4824 0.0000
# 6 0.0000 0.0000 0.0000 0.4159 0.0000 19.7019
#
#
#
# Elastic Compliance Matrix: (Units=1/GPa)
#
#
# Indices 1 2 3 4 5 6 
#
# 1 0.042919 -0.005510 -0.003219 0.000000 -0.006342 0.000000
# 2 -0.005510 0.018948 -0.010082 0.000000 -0.002121 0.000000
# 3 -0.003219 -0.010082 0.016714 0.000000 0.003474 0.000000
# 4 0.000000 0.000000 0.000000 0.027644 0.000000 -0.000584
# 5 -0.006342 -0.002121 0.003474 0.000000 0.032360 0.000000
# 6 0.000000 0.000000 0.000000 -0.000584 0.000000 0.050769
#
#
# Mechanical properties :
#
#
# Convention : Reuss Voigt Hill
#
# Bulk Modulus (GPa) = 24.41595 42.05490 33.23543
# Shear Modulus (GPa) = 20.77896 26.08022 23.42959
#
# Velocity S-wave (km/s) = 3.25789 3.64989 3.45945
# Velocity P-wave (km/s) = 5.15978 6.26449 5.73878
#
# Compressibility (1/GPa) = 0.04095683
#
# Stress axis : x y z
#
# Youngs Moduli (GPa) = 23.29994 52.77516 59.83173
#
# Poissons Ratio (x) = 0.29081 0.19260
# Poissons Ratio (y) = 0.12839 0.60325
# Poissons Ratio (z) = 0.07500 0.53210
#
# Static dielectric constant tensor:
#      x y z
#    x 3.643000 0.000000 -0.061320 
#    y 0.000000 3.504420 0.000000 
#    z -0.061320 0.000000 3.474470 
# 
# 
# High freq. dielectric constant tensor:
#      x y z
#    x 1.767720 0.000000 -0.004260 
#    y 0.000000 1.756280 0.000000 
#    z -0.004260 0.000000 1.757120 
# 
# From -- ./inp_files/45116.got.cif
#   From: 2010.06.25/outbox.cif.g09.slc.cpg/sg11_23_cif.got.tgz:45116.got - 2010.06.27 23:14:04.
