data_PCOD8073753
_publ_section_title
;
Structure prediction by ZEFSAII (Michael W. Deem and Ramdas Pophale) SiO2 
 PCOD8073753
Probable space group: P 21/M
;
_chemical_formula_sum "Si O2"
_cell_formula_units_Z 32
_cell_length_a 11.781326
_cell_length_b 14.397512
_cell_length_c 9.528830
_cell_angle_alpha 90.000000
_cell_angle_beta 91.361605
_cell_angle_gamma 90.000000
_cell_volume 1615.840748
_symmetry_space_group_name_H-M "P 21/M"
_symmetry_group_IT_number 11
_symmetry_cell_setting 'monoclinic'
loop_
_space_group_symop_operation_xyz
x,y,z
-x,1/2+y,-z
-x,-y,-z
x,1/2-y,z
loop_
_atom_site_type_symbol
_atom_site_label
_atom_site_fract_x
_atom_site_fract_y
_atom_site_fract_z
Si Si1 0.477703 0.141945 0.660196
Si Si2 0.130030 0.524635 0.511792
Si Si3 0.260035 0.642359 0.292132
Si Si4 0.239521 0.643190 0.971093
Si Si5 0.822425 0.853123 0.627101
Si Si6 0.432399 0.517333 0.856251
Si Si7 0.936574 0.354919 0.252790
Si Si8 0.574553 0.854010 0.659106
O O1 0.458027 0.250000 0.698317
O O2 0.611008 0.116336 0.666948
O O3 0.432808 0.117384 0.504454
O O4 0.410911 0.080529 0.775118
O O5 0.172210 0.585442 0.382688
O O6 0.190738 0.424027 0.504788
O O7 0.147301 0.580839 0.655754
O O8 0.000000 0.500000 0.500000
O O9 0.235659 0.750000 0.317755
O O10 0.235835 0.613211 0.131803
O O11 0.284328 0.750000 0.957820
O O12 0.317904 0.572520 0.886579
O O13 0.110740 0.634903 0.906725
O O14 0.837889 0.750000 0.564031
O O15 0.706283 0.858825 0.712466
O O16 0.929359 0.880484 0.731035
O O17 0.504855 0.578100 0.752223
O O18 0.500000 0.500000 0.000000
O O19 0.919622 0.250000 0.306573
O O20 0.526190 0.750000 0.676644
#
# Coordination Sequence:
#
# PCOD8073753 Si02
#       8
#     4   4   4   4   4   4   4   4
#     4  10  22  38  57  87 119 157 202 245 291 355
#     4  10  20  34  57  86 111 144 190 244 291 342
#     4  10  20  37  59  84 119 154 192 241 298 350
#     4  10  22  38  58  87 120 155 198 245 291 352
#     4   9  19  36  56  79 114 152 191 239 289 346
#     4  12  23  36  59  87 124 160 190 243 302 356
#     4   9  19  36  59  86 112 148 196 244 290 338
#     4  10  22  38  60  85 114 156 200 242 296 355
#
# _framework density 19.803930999999999
#
# number of rings (size 3 to 8) (size 9 to 14) (size 15 to 20)
#    0.000    2.000    1.250    1.875    3.500    1.000 
#    0.000    2.500    0.000    0.000    0.000    0.000 
#    0.000    0.000    0.000    0.000    0.000    0.000 
#
# Total GULP energy -396563.830194 kJ/mol
# GULP energy per Si atom -12392.619694 kJ/mol
# Density = 1.975886 g / cm^3
# Si number density = 19.803931 Si / 1000 Ang^3
#
#
#
# Elastic Constant Matrix: (Units=GPa)
#
#
# Indices 1 2 3 4 5 6 
#
# 1 84.6251 32.2616 44.3304 0.0000 8.1216 0.0000
# 2 32.2616 83.2696 39.7103 0.0000 -3.5151 0.0000
# 3 44.3304 39.7103 101.0958 0.0000 7.2574 0.0000
# 4 0.0000 0.0000 0.0000 24.9633 0.0000 -2.7832
# 5 8.1216 -3.5151 7.2574 0.0000 27.3833 0.0000
# 6 0.0000 0.0000 0.0000 -2.7832 0.0000 24.2951
#
#
#
# Elastic Compliance Matrix: (Units=1/GPa)
#
#
# Indices 1 2 3 4 5 6 
#
# 1 0.016556 -0.004009 -0.005399 0.000000 -0.003994 0.000000
# 2 -0.004009 0.016085 -0.004887 0.000000 0.004549 0.000000
# 3 -0.005399 -0.004887 0.014382 0.000000 -0.002838 0.000000
# 4 0.000000 0.000000 0.000000 0.040577 0.000000 0.004648
# 5 -0.003994 0.004549 -0.002838 0.000000 0.039039 0.000000
# 6 0.000000 0.000000 0.000000 0.004648 0.000000 0.041693
#
#
# Mechanical properties :
#
#
# Convention : Reuss Voigt Hill
#
# Bulk Modulus (GPa) = 54.24426 55.73279 54.98853
# Shear Modulus (GPa) = 24.62253 25.50755 25.06504
#
# Velocity S-wave (km/s) = 3.52989 3.59277 3.56147
# Velocity P-wave (km/s) = 6.63804 6.73900 6.68871
#
# Compressibility (1/GPa) = 0.01843513
#
# Stress axis : x y z
#
# Youngs Moduli (GPa) = 60.39958 62.17066 69.53050
#
# Poissons Ratio (x) = 0.24922 0.37537
# Poissons Ratio (y) = 0.24212 0.33978
# Poissons Ratio (z) = 0.32608 0.30382
#
# Static dielectric constant tensor:
#      x y z
#    x 3.923840 0.000000 0.030030 
#    y 0.000000 3.424830 0.000000 
#    z 0.030030 0.000000 3.699690 
# 
# 
# High freq. dielectric constant tensor:
#      x y z
#    x 1.767740 0.000000 0.011390 
#    y 0.000000 1.792190 0.000000 
#    z 0.011390 0.000000 1.751010 
# 
# From -- ./inp_files/18037.got.cif
#   From: 2010.06.25/outbox.cif.g09.slc.cpg/sg11_10_cif.got.tgz:18037.got - 2010.06.27 23:14:04.
