data_PCOD8073454
_publ_section_title
;
Structure prediction by ZEFSAII (Michael W. Deem and Ramdas Pophale) SiO2 
 PCOD8073454
Probable space group: P 21/M
;
_chemical_formula_sum "Si O2"
_cell_formula_units_Z 32
_cell_length_a 14.513518
_cell_length_b 11.856213
_cell_length_c 14.714339
_cell_angle_alpha 90.000000
_cell_angle_beta 139.094699
_cell_angle_gamma 90.000000
_cell_volume 1657.964555
_symmetry_space_group_name_H-M "P 21/M"
_symmetry_group_IT_number 11
_symmetry_cell_setting 'monoclinic'
loop_
_space_group_symop_operation_xyz
x,y,z
-x,1/2+y,-z
-x,-y,-z
x,1/2-y,z
loop_
_atom_site_type_symbol
_atom_site_label
_atom_site_fract_x
_atom_site_fract_y
_atom_site_fract_z
Si Si1 0.771739 0.381369 0.117764
Si Si2 0.724364 0.952280 0.685108
Si Si3 0.489949 0.117421 0.803661
Si Si4 0.517721 0.377285 0.620034
Si Si5 0.071732 0.377540 0.026330
Si Si6 0.225683 0.007833 0.698602
Si Si7 0.965534 0.373357 0.574024
Si Si8 0.003092 0.540983 0.212192
O O1 0.801509 0.250000 0.135899
O O2 0.744882 0.415066 0.202160
O O3 0.909725 0.438572 0.179499
O O4 0.638763 0.415802 0.957860
O O5 0.622289 0.880237 0.545148
O O6 0.778476 0.876683 0.810321
O O7 0.644618 0.059845 0.665652
O O8 0.855155 0.991080 0.723146
O O9 0.460631 0.250000 0.786248
O O10 0.486782 0.073001 0.697335
O O11 0.372366 0.056335 0.774938
O O12 0.570228 0.250000 0.669840
O O13 0.003690 0.250000 0.997173
O O14 0.000000 0.500000 0.000000
O O15 0.084189 0.385490 0.926682
O O16 0.127167 0.104743 0.666787
O O17 0.144263 0.958879 0.551418
O O18 0.923658 0.250000 0.508849
O O19 0.953126 0.378032 0.673265
#
# Coordination Sequence:
#
# PCOD8073454 Si02
#       8
#     4   4   4   4   4   4   4   4
#     4  10  21  36  57  86 114 145 187 232 280 340
#     4  10  21  37  56  81 114 149 188 237 288 340
#     4  10  20  36  57  80 110 147 188 233 282 337
#     4  10  21  36  56  82 111 148 194 239 286 346
#     4  10  21  36  56  82 112 148 189 233 282 337
#     4  10  20  35  55  80 111 144 181 228 280 334
#     4  10  20  34  53  79 109 142 182 226 276 335
#     4  10  21  36  57  82 113 148 186 233 283 339
#
# _framework density 19.300775000000002
#
# number of rings (size 3 to 8) (size 9 to 14) (size 15 to 20)
#    0.000    2.000    0.000    3.375    0.000    5.000 
#    0.000    4.375    0.000   10.500    0.000    0.000 
#    0.000    0.000    0.000    0.000    0.000    0.000 
#
# Total GULP energy -396583.487362 kJ/mol
# GULP energy per Si atom -12393.233980 kJ/mol
# Density = 1.925685 g / cm^3
# Si number density = 19.300775 Si / 1000 Ang^3
#
#
#
# Elastic Constant Matrix: (Units=GPa)
#
#
# Indices 1 2 3 4 5 6 
#
# 1 116.9531 35.8543 50.0843 0.0000 0.6290 0.0000
# 2 35.8543 87.0163 30.4326 0.0000 2.3853 0.0000
# 3 50.0843 30.4326 119.6238 0.0000 -19.2589 0.0000
# 4 0.0000 0.0000 0.0000 21.3400 0.0000 -1.8993
# 5 0.6290 2.3853 -19.2589 0.0000 39.1722 0.0000
# 6 0.0000 0.0000 0.0000 -1.8993 0.0000 19.3127
#
#
#
# Elastic Compliance Matrix: (Units=1/GPa)
#
#
# Indices 1 2 3 4 5 6 
#
# 1 0.011360 -0.003118 -0.004302 0.000000 -0.002108 0.000000
# 2 -0.003118 0.013709 -0.002507 0.000000 -0.002017 0.000000
# 3 -0.004302 -0.002507 0.011766 0.000000 0.006006 0.000000
# 4 0.000000 0.000000 0.000000 0.047274 0.000000 0.004649
# 5 -0.002108 -0.002017 0.006006 0.000000 0.028638 0.000000
# 6 0.000000 0.000000 0.000000 0.004649 0.000000 0.052237
#
#
# Mechanical properties :
#
#
# Convention : Reuss Voigt Hill
#
# Bulk Modulus (GPa) = 58.89346 61.81506 60.35426
# Shear Modulus (GPa) = 26.24695 29.77979 28.01337
#
# Velocity S-wave (km/s) = 3.69167 3.93228 3.81387
# Velocity P-wave (km/s) = 6.98219 7.26043 7.12267
#
# Compressibility (1/GPa) = 0.01697981
#
# Stress axis : x y z
#
# Youngs Moduli (GPa) = 88.02645 72.94476 84.99414
#
# Poissons Ratio (x) = 0.22747 0.36567
# Poissons Ratio (y) = 0.27451 0.21306
# Poissons Ratio (z) = 0.37872 0.18285
#
# Static dielectric constant tensor:
#      x y z
#    x 3.458200 0.000000 -0.293260 
#    y 0.000000 3.482950 0.000000 
#    z -0.293260 0.000000 3.947290 
# 
# 
# High freq. dielectric constant tensor:
#      x y z
#    x 1.743800 0.000000 -0.016440 
#    y 0.000000 1.746550 0.000000 
#    z -0.016440 0.000000 1.771550 
# 
# From -- ./inp_files/52318.got.cif
#   From: 2010.06.25/outbox.cif.g09.slc.cpg/sg11_27_cif.got.tgz:52318.got - 2010.06.27 23:14:04.
