data_PCOD8073912
_publ_section_title
;
Structure prediction by ZEFSAII (Michael W. Deem and Ramdas Pophale) SiO2 
 PCOD8073912
Probable space group: P 21/M
;
_chemical_formula_sum "Si O2"
_cell_formula_units_Z 32
_cell_length_a 12.069207
_cell_length_b 14.582600
_cell_length_c 14.000065
_cell_angle_alpha 90.000000
_cell_angle_beta 140.157652
_cell_angle_gamma 90.000000
_cell_volume 1578.640124
_symmetry_space_group_name_H-M "P 21/M"
_symmetry_group_IT_number 11
_symmetry_cell_setting 'monoclinic'
loop_
_space_group_symop_operation_xyz
x,y,z
-x,1/2+y,-z
-x,-y,-z
x,1/2-y,z
loop_
_atom_site_type_symbol
_atom_site_label
_atom_site_fract_x
_atom_site_fract_y
_atom_site_fract_z
Si Si1 0.714338 0.965879 0.949175
Si Si2 0.007467 0.354709 0.767023
Si Si3 0.010725 0.596543 0.457348
Si Si4 0.414733 0.913037 0.991460
Si Si5 0.487235 0.975612 0.343512
Si Si6 0.333550 0.349055 0.685451
Si Si7 0.621752 0.349894 0.231442
Si Si8 0.613376 0.142711 0.544743
O O1 0.522741 0.922950 0.836382
O O2 0.736245 0.051110 0.037097
O O3 0.700057 0.006662 0.832048
O O4 0.867052 0.894483 0.067505
O O5 0.059521 0.250000 0.781236
O O6 0.029346 0.409826 0.682539
O O7 0.818854 0.362006 0.687117
O O8 0.866665 0.655428 0.416563
O O9 0.000000 0.500000 0.500000
O O10 0.201179 0.638059 0.593288
O O11 0.557659 0.857874 0.145129
O O12 0.334937 0.852401 0.853542
O O13 0.500000 0.000000 0.000000
O O14 0.625027 0.931038 0.360902
O O15 0.466281 0.901247 0.412724
O O16 0.552887 0.076628 0.418593
O O17 0.378253 0.250000 0.668535
O O18 0.548690 0.250000 0.209562
O O19 0.553507 0.250000 0.491747
#
# Coordination Sequence:
#
# PCOD8073912 Si02
#       8
#     4   4   4   4   4   4   4   4
#     4  10  20  35  54  78 108 144 183 225 277 330
#     4  11  22  36  56  83 113 146 186 231 279 334
#     4  12  22  34  52  79 115 151 188 231 280 331
#     4   9  18  32  48  71 106 148 186 224 269 323
#     4  10  22  40  62  85 111 147 188 234 284 336
#     4  11  21  35  56  82 114 153 194 234 283 341
#     4  11  20  31  49  76 110 146 185 225 268 322
#     4  10  22  41  63  86 113 145 186 234 284 338
#
# _framework density 20.270610999999999
#
# number of rings (size 3 to 8) (size 9 to 14) (size 15 to 20)
#    0.000    1.500    0.000    8.250    0.000    2.500 
#    0.000    0.000    0.000    0.000    0.000    9.625 
#    0.000    0.000    0.000    0.000    0.000    0.000 
#
# Total GULP energy -396563.058215 kJ/mol
# GULP energy per Si atom -12392.595569 kJ/mol
# Density = 2.022447 g / cm^3
# Si number density = 20.270611 Si / 1000 Ang^3
#
#
#
# Elastic Constant Matrix: (Units=GPa)
#
#
# Indices 1 2 3 4 5 6 
#
# 1 48.1884 15.0916 20.6276 0.0000 0.3472 0.0000
# 2 15.0916 118.3396 23.4001 0.0000 -2.5048 0.0000
# 3 20.6276 23.4001 90.2324 0.0000 -4.7536 0.0000
# 4 0.0000 0.0000 0.0000 24.1022 0.0000 -0.8507
# 5 0.3472 -2.5048 -4.7536 0.0000 26.1595 0.0000
# 6 0.0000 0.0000 0.0000 -0.8507 0.0000 23.5344
#
#
#
# Elastic Compliance Matrix: (Units=1/GPa)
#
#
# Indices 1 2 3 4 5 6 
#
# 1 0.023510 -0.002056 -0.004915 0.000000 -0.001402 0.000000
# 2 -0.002056 0.009092 -0.001858 0.000000 0.000560 0.000000
# 3 -0.004915 -0.001858 0.012805 0.000000 0.002214 0.000000
# 4 0.000000 0.000000 0.000000 0.041543 0.000000 0.001502
# 5 -0.001402 0.000560 0.002214 0.000000 0.038702 0.000000
# 6 0.000000 0.000000 0.000000 0.001502 0.000000 0.042545
#
#
# Mechanical properties :
#
#
# Convention : Reuss Voigt Hill
#
# Bulk Modulus (GPa) = 36.03925 41.66657 38.85291
# Shear Modulus (GPa) = 25.62735 27.93529 26.78132
#
# Velocity S-wave (km/s) = 3.55950 3.71633 3.63876
# Velocity P-wave (km/s) = 5.89161 6.24617 6.07148
#
# Compressibility (1/GPa) = 0.02774753
#
# Stress axis : x y z
#
# Youngs Moduli (GPa) = 42.53535 109.98977 78.09647
#
# Poissons Ratio (x) = 0.22613 0.38386
# Poissons Ratio (y) = 0.08745 0.14512
# Poissons Ratio (z) = 0.20907 0.20439
#
# Static dielectric constant tensor:
#      x y z
#    x 3.631000 0.000000 -0.179700 
#    y 0.000000 3.849130 0.000000 
#    z -0.179700 0.000000 4.428030 
# 
# 
# High freq. dielectric constant tensor:
#      x y z
#    x 1.769020 0.000000 -0.018070 
#    y 0.000000 1.803340 0.000000 
#    z -0.018070 0.000000 1.790690 
# 
# From -- ./inp_files/39688.got.cif
#   From: 2010.06.25/outbox.cif.g09.slc.cpg/sg11_20_cif.got.tgz:39688.got - 2010.06.27 23:14:04.
