data_PCOD8073100
_publ_section_title
;
Structure prediction by ZEFSAII (Michael W. Deem and Ramdas Pophale) SiO2 
 PCOD8073100
Probable space group: P 21/M
;
_chemical_formula_sum "Si O2"
_cell_formula_units_Z 32
_cell_length_a 20.272554
_cell_length_b 13.971790
_cell_length_c 9.063146
_cell_angle_alpha 90.000000
_cell_angle_beta 37.010872
_cell_angle_gamma 90.000000
_cell_volume 1545.296619
_symmetry_space_group_name_H-M "P 21/M"
_symmetry_group_IT_number 11
_symmetry_cell_setting 'monoclinic'
loop_
_space_group_symop_operation_xyz
x,y,z
-x,1/2+y,-z
-x,-y,-z
x,1/2-y,z
loop_
_atom_site_type_symbol
_atom_site_label
_atom_site_fract_x
_atom_site_fract_y
_atom_site_fract_z
Si Si1 0.574193 0.354077 0.064617
Si Si2 0.355052 0.144216 0.961458
Si Si3 0.062940 0.639601 0.828706
Si Si4 0.813222 0.139080 0.686473
Si Si5 0.448935 0.898519 0.569593
Si Si6 0.231185 0.989422 0.986928
Si Si7 0.362127 0.364413 0.287142
Si Si8 0.840518 0.537308 0.194806
O O1 0.587431 0.250000 0.968863
O O2 0.538595 0.342700 0.298802
O O3 0.478126 0.405600 0.143016
O O4 0.694611 0.403107 0.841602
O O5 0.302353 0.250000 0.047093
O O6 0.353131 0.107046 0.132409
O O7 0.482539 0.152888 0.681976
O O8 0.285712 0.075144 0.981709
O O9 0.076208 0.750000 0.856436
O O10 0.094861 0.627390 0.600845
O O11 0.141687 0.571930 0.784180
O O12 0.938167 0.606549 0.072479
O O13 0.800284 0.250000 0.757750
O O14 0.847453 0.073744 0.765567
O O15 0.500000 0.000000 0.500000
O O16 0.321165 0.915314 0.758106
O O17 0.162730 0.035695 0.977014
O O18 0.351954 0.250000 0.331332
O O19 0.269510 0.419360 0.542876
#
# Coordination Sequence:
#
# PCOD8073100 Si02
#       8
#     4   4   4   4   4   4   4   4
#     4   9  17  31  53  79 111 150 187 225 272 328
#     4  10  20  33  51  79 119 159 194 234 276 328
#     4  10  23  43  63  83 109 145 190 236 285 342
#     4   9  19  38  61  85 117 153 188 231 281 334
#     4   9  17  30  46  72 109 147 183 223 271 326
#     4  10  21  36  56  85 114 145 190 236 285 339
#     4  10  20  34  55  86 120 155 195 235 277 325
#     4  11  23  39  62  85 112 149 187 236 287 337
#
# _framework density 20.707999000000001
#
# number of rings (size 3 to 8) (size 9 to 14) (size 15 to 20)
#    0.000    2.250    0.000    3.000    0.000    4.500 
#    0.000    8.125    0.000    3.000    0.000    0.000 
#    0.000    0.000    0.000    0.000    0.000    0.000 
#
# Total GULP energy -396585.840355 kJ/mol
# GULP energy per Si atom -12393.307511 kJ/mol
# Density = 2.066087 g / cm^3
# Si number density = 20.707999 Si / 1000 Ang^3
#
#
#
# Elastic Constant Matrix: (Units=GPa)
#
#
# Indices 1 2 3 4 5 6 
#
# 1 76.3172 23.5892 6.8391 0.0000 16.2377 0.0000
# 2 23.5892 87.5268 16.1189 0.0000 8.6870 0.0000
# 3 6.8391 16.1189 57.1083 0.0000 15.2086 0.0000
# 4 0.0000 0.0000 0.0000 30.9085 0.0000 8.1045
# 5 16.2377 8.6870 15.2086 0.0000 22.0329 0.0000
# 6 0.0000 0.0000 0.0000 8.1045 0.0000 20.6951
#
#
#
# Elastic Compliance Matrix: (Units=1/GPa)
#
#
# Indices 1 2 3 4 5 6 
#
# 1 0.016688 -0.003695 0.002367 0.000000 -0.012475 0.000000
# 2 -0.003695 0.013028 -0.003176 0.000000 -0.000221 0.000000
# 3 0.002367 -0.003176 0.022366 0.000000 -0.015931 0.000000
# 4 0.000000 0.000000 0.000000 0.036056 0.000000 -0.014120
# 5 -0.012475 -0.000221 -0.015931 0.000000 0.065664 0.000000
# 6 0.000000 0.000000 0.000000 -0.014120 0.000000 0.053850
#
#
# Mechanical properties :
#
#
# Convention : Reuss Voigt Hill
#
# Bulk Modulus (GPa) = 23.21627 34.89408 29.05517
# Shear Modulus (GPa) = 21.64340 26.35432 23.99886
#
# Velocity S-wave (km/s) = 3.23642 3.57131 3.40798
# Velocity P-wave (km/s) = 5.02011 5.82175 5.43573
#
# Compressibility (1/GPa) = 0.04307325
#
# Stress axis : x y z
#
# Youngs Moduli (GPa) = 59.92501 76.75938 44.71067
#
# Poissons Ratio (x) = 0.28364 -0.10582
# Poissons Ratio (y) = 0.22143 0.14199
# Poissons Ratio (z) = -0.14183 0.24376
#
# Static dielectric constant tensor:
#      x y z
#    x 3.533690 0.000000 0.013090 
#    y 0.000000 4.040240 0.000000 
#    z 0.013090 0.000000 4.026970 
# 
# 
# High freq. dielectric constant tensor:
#      x y z
#    x 1.784510 0.000000 0.006840 
#    y 0.000000 1.818240 0.000000 
#    z 0.006840 0.000000 1.807630 
# 
# From -- ./inp_files/26819.got.cif
#   From: 2010.06.25/outbox.cif.g09.slc.cpg/sg11_14_cif.got.tgz:26819.got - 2010.06.27 23:14:04.
