data_PCOD8073618
_publ_section_title
;
Structure prediction by ZEFSAII (Michael W. Deem and Ramdas Pophale) SiO2 
 PCOD8073618
Probable space group: P 21/M
;
_chemical_formula_sum "Si O2"
_cell_formula_units_Z 32
_cell_length_a 21.921635
_cell_length_b 9.312921
_cell_length_c 28.119283
_cell_angle_alpha 90.000000
_cell_angle_beta 162.948981
_cell_angle_gamma 90.000000
_cell_volume 1683.299246
_symmetry_space_group_name_H-M "P 21/M"
_symmetry_group_IT_number 11
_symmetry_cell_setting 'monoclinic'
loop_
_space_group_symop_operation_xyz
x,y,z
-x,1/2+y,-z
-x,-y,-z
x,1/2-y,z
loop_
_atom_site_type_symbol
_atom_site_label
_atom_site_fract_x
_atom_site_fract_y
_atom_site_fract_z
Si Si1 0.542936 0.080301 0.270474
Si Si2 0.110283 0.081729 0.414799
Si Si3 0.152712 0.418886 0.043264
Si Si4 0.400065 0.905373 0.464604
Si Si5 0.810184 0.592610 0.821541
Si Si6 0.623546 0.418266 0.051690
Si Si7 0.399283 0.086183 0.059164
Si Si8 0.917543 0.415336 0.699368
O O1 0.575378 0.250000 0.302614
O O2 0.338088 0.027230 0.146857
O O3 0.519277 0.043874 0.196884
O O4 0.748606 0.996276 0.440563
O O5 0.161314 0.250000 0.452686
O O6 0.866671 0.052521 0.243005
O O7 0.163484 0.014872 0.403466
O O8 0.125151 0.250000 0.016069
O O9 0.192859 0.470921 0.127292
O O10 0.928227 0.496868 0.868426
O O11 0.348386 0.750000 0.403903
O O12 0.568093 0.893149 0.631294
O O13 0.193491 0.969199 0.335123
O O14 0.500000 0.000000 0.500000
O O15 0.916211 0.750000 0.900126
O O16 0.571502 0.250000 0.013759
O O17 0.500000 0.500000 0.000000
O O18 0.543602 0.480711 0.941570
O O19 0.451972 0.250000 0.083504
O O20 0.157643 0.068570 0.889945
O O21 0.858097 0.250000 0.643246
#
# Coordination Sequence:
#
# PCOD8073618 Si02
#       8
#     4   4   4   4   4   4   4   4
#     4  10  20  34  55  82 111 145 185 226 271 325
#     4  10  21  36  57  86 114 142 179 222 269 320
#     4   9  18  32  52  71  94 132 177 223 268 321
#     4  10  21  33  48  70  99 135 178 227 279 328
#     4   9  18  32  45  67  98 131 174 222 276 328
#     4  10  21  39  63  89 116 147 181 217 261 318
#     4   9  19  35  57  85 113 145 186 226 271 326
#     4   9  18  35  56  75 103 144 187 230 276 330
#
# _framework density 19.010287000000002
#
# number of rings (size 3 to 8) (size 9 to 14) (size 15 to 20)
#    0.000    2.500    0.000    1.500    1.750    5.500 
#    0.000    3.125    0.000    0.000    0.000    0.000 
#    0.000    0.000    0.000    0.000    0.000    0.000 
#
# Total GULP energy -396596.962716 kJ/mol
# GULP energy per Si atom -12393.655085 kJ/mol
# Density = 1.896702 g / cm^3
# Si number density = 19.010287 Si / 1000 Ang^3
#
#
#
# Elastic Constant Matrix: (Units=GPa)
#
#
# Indices 1 2 3 4 5 6 
#
# 1 139.5013 70.6693 40.9914 0.0000 6.6981 0.0000
# 2 70.6693 93.6935 39.0157 0.0000 0.6108 0.0000
# 3 40.9914 39.0157 54.1360 0.0000 -8.0306 0.0000
# 4 0.0000 0.0000 0.0000 29.9999 0.0000 1.4774
# 5 6.6981 0.6108 -8.0306 0.0000 28.0547 0.0000
# 6 0.0000 0.0000 0.0000 1.4774 0.0000 32.4417
#
#
#
# Elastic Compliance Matrix: (Units=1/GPa)
#
#
# Indices 1 2 3 4 5 6 
#
# 1 0.012541 -0.007456 -0.004743 0.000000 -0.004190 0.000000
# 2 -0.007456 0.020046 -0.008983 0.000000 -0.001228 0.000000
# 3 -0.004743 -0.008983 0.030009 0.000000 0.009918 0.000000
# 4 0.000000 0.000000 0.000000 0.033408 0.000000 -0.001521
# 5 -0.004190 -0.001228 0.009918 0.000000 0.039511 0.000000
# 6 0.000000 0.000000 0.000000 -0.001521 0.000000 0.030894
#
#
# Mechanical properties :
#
#
# Convention : Reuss Voigt Hill
#
# Bulk Modulus (GPa) = 49.43229 65.40928 57.42078
# Shear Modulus (GPa) = 23.19994 27.20956 25.20475
#
# Velocity S-wave (km/s) = 3.49720 3.78737 3.64517
# Velocity P-wave (km/s) = 6.50896 7.32172 6.92727
#
# Compressibility (1/GPa) = 0.02022969
#
# Stress axis : x y z
#
# Youngs Moduli (GPa) = 79.74076 49.88549 33.32320
#
# Poissons Ratio (x) = 0.37196 0.15806
# Poissons Ratio (y) = 0.59458 0.29935
# Poissons Ratio (z) = 0.37824 0.44813
#
# Static dielectric constant tensor:
#      x y z
#    x 3.487660 0.000000 -0.048150 
#    y 0.000000 3.498430 0.000000 
#    z -0.048150 0.000000 3.988220 
# 
# 
# High freq. dielectric constant tensor:
#      x y z
#    x 1.733450 0.000000 -0.002990 
#    y 0.000000 1.733210 0.000000 
#    z -0.002990 0.000000 1.736250 
# 
# From -- ./inp_files/72217.got.cif
#   From: 2010.06.25/outbox.cif.g09.slc.cpg/sg11_37_cif.got.tgz:72217.got - 2010.06.27 23:14:04.
