data_PCOD8073865
_publ_section_title
;
Structure prediction by ZEFSAII (Michael W. Deem and Ramdas Pophale) SiO2 
 PCOD8073865
Probable space group: P 21/M
;
_chemical_formula_sum "Si O2"
_cell_formula_units_Z 32
_cell_length_a 12.576021
_cell_length_b 9.440892
_cell_length_c 13.845137
_cell_angle_alpha 90.000000
_cell_angle_beta 88.532047
_cell_angle_gamma 90.000000
_cell_volume 1643.277794
_symmetry_space_group_name_H-M "P 21/M"
_symmetry_group_IT_number 11
_symmetry_cell_setting 'monoclinic'
loop_
_space_group_symop_operation_xyz
x,y,z
-x,1/2+y,-z
-x,-y,-z
x,1/2-y,z
loop_
_atom_site_type_symbol
_atom_site_label
_atom_site_fract_x
_atom_site_fract_y
_atom_site_fract_z
Si Si1 0.657888 0.907636 0.852222
Si Si2 0.993937 0.086283 0.636209
Si Si3 0.163517 0.595654 0.205360
Si Si4 0.896695 0.092089 0.011532
Si Si5 0.835181 0.085668 0.467656
Si Si6 0.294856 0.082475 0.932880
Si Si7 0.406215 0.915633 0.555620
Si Si8 0.575903 0.090233 0.220320
O O1 0.704353 0.750000 0.851155
O O2 0.546293 0.917972 0.803900
O O3 0.735933 0.995443 0.780798
O O4 0.652335 0.956821 0.964632
O O5 0.027253 0.250000 0.630231
O O6 0.944752 0.040878 0.741042
O O7 0.898086 0.051181 0.564303
O O8 0.101559 0.997605 0.617978
O O9 0.190142 0.750000 0.250359
O O10 0.149691 0.609946 0.092845
O O11 0.917062 0.250000 0.055119
O O12 0.815372 0.001890 0.078165
O O13 0.000000 0.000000 0.000000
O O14 0.839074 0.250000 0.439493
O O15 0.711628 0.037260 0.479040
O O16 0.276175 0.250000 0.921243
O O17 0.368281 0.027617 0.845517
O O18 0.425726 0.750000 0.535545
O O19 0.409958 0.950723 0.668832
O O20 0.500000 0.000000 0.500000
O O21 0.619327 0.250000 0.199076
#
# Coordination Sequence:
#
# PCOD8073865 Si02
#       8
#     4   4   4   4   4   4   4   4
#     4   9  19  34  53  79 111 143 180 225 269 323
#     4   9  18  34  56  80 104 135 176 226 273 316
#     4   9  19  33  52  79 107 137 177 223 269 319
#     4  10  20  35  53  76 108 143 176 218 272 325
#     4   9  19  36  55  77 106 138 176 222 271 324
#     4  10  20  35  55  80 107 140 184 226 268 325
#     4  10  23  40  57  81 113 147 184 226 276 333
#     4  10  21  37  55  79 110 145 181 223 276 325
#
# _framework density 19.473274
#
# number of rings (size 3 to 8) (size 9 to 14) (size 15 to 20)
#    0.000    2.500    0.000    1.125    1.750    4.000 
#    0.000    2.500    0.000    0.000    0.000    0.000 
#    0.000    0.000    0.000    0.000    0.000    0.000 
#
# Total GULP energy -396642.715851 kJ/mol
# GULP energy per Si atom -12395.084870 kJ/mol
# Density = 1.942895 g / cm^3
# Si number density = 19.473274 Si / 1000 Ang^3
#
#
#
# Elastic Constant Matrix: (Units=GPa)
#
#
# Indices 1 2 3 4 5 6 
#
# 1 117.2714 58.0063 27.7359 0.0000 -13.8172 0.0000
# 2 58.0063 99.2564 29.4197 0.0000 -15.6651 0.0000
# 3 27.7359 29.4197 44.6242 0.0000 -15.9398 0.0000
# 4 0.0000 0.0000 0.0000 25.5963 0.0000 -10.3235
# 5 -13.8172 -15.6651 -15.9398 0.0000 32.6240 0.0000
# 6 0.0000 0.0000 0.0000 -10.3235 0.0000 40.2807
#
#
#
# Elastic Compliance Matrix: (Units=1/GPa)
#
#
# Indices 1 2 3 4 5 6 
#
# 1 0.012468 -0.006160 -0.003463 0.000000 0.000631 0.000000
# 2 -0.006160 0.015722 -0.005781 0.000000 0.002116 0.000000
# 3 -0.003463 -0.005781 0.032535 0.000000 0.011654 0.000000
# 4 0.000000 0.000000 0.000000 0.043572 0.000000 0.011167
# 5 0.000631 0.002116 0.011654 0.000000 0.037630 0.000000
# 6 0.000000 0.000000 0.000000 0.011167 0.000000 0.027688
#
#
# Mechanical properties :
#
#
# Convention : Reuss Voigt Hill
#
# Bulk Modulus (GPa) = 33.42425 54.60840 44.01632
# Shear Modulus (GPa) = 23.76486 29.43288 26.59887
#
# Velocity S-wave (km/s) = 3.49719 3.89195 3.69984
# Velocity P-wave (km/s) = 5.78866 6.94982 6.39565
#
# Compressibility (1/GPa) = 0.02991840
#
# Stress axis : x y z
#
# Youngs Moduli (GPa) = 80.20825 63.60346 30.73569
#
# Poissons Ratio (x) = 0.39182 0.10642
# Poissons Ratio (y) = 0.49411 0.17767
# Poissons Ratio (z) = 0.27772 0.36767
#
# Static dielectric constant tensor:
#      x y z
#    x 3.527590 0.000000 -0.100340 
#    y 0.000000 3.868470 0.000000 
#    z -0.100340 0.000000 3.413960 
# 
# 
# High freq. dielectric constant tensor:
#      x y z
#    x 1.759720 0.000000 -0.007410 
#    y 0.000000 1.759530 0.000000 
#    z -0.007410 0.000000 1.748440 
# 
# From -- ./inp_files/38275.got.cif
#   From: 2010.06.25/outbox.cif.g09.slc.cpg/sg11_20_cif.got.tgz:38275.got - 2010.06.27 23:14:04.
