data_PCOD8073941
_publ_section_title
;
Structure prediction by ZEFSAII (Michael W. Deem and Ramdas Pophale) SiO2 
 PCOD8073941
Probable space group: P 21/M
;
_chemical_formula_sum "Si O2"
_cell_formula_units_Z 28
_cell_length_a 14.412212
_cell_length_b 9.425263
_cell_length_c 18.774805
_cell_angle_alpha 90.000000
_cell_angle_beta 147.411008
_cell_angle_gamma 90.000000
_cell_volume 1373.640524
_symmetry_space_group_name_H-M "P 21/M"
_symmetry_group_IT_number 11
_symmetry_cell_setting 'monoclinic'
loop_
_space_group_symop_operation_xyz
x,y,z
-x,1/2+y,-z
-x,-y,-z
x,1/2-y,z
loop_
_atom_site_type_symbol
_atom_site_label
_atom_site_fract_x
_atom_site_fract_y
_atom_site_fract_z
Si Si1 0.813778 0.912257 0.045532
Si Si2 0.349034 0.086555 0.198993
Si Si3 0.713174 0.084561 0.490390
Si Si4 0.342065 0.404911 0.418766
Si Si5 0.025727 0.413631 0.588310
Si Si6 0.076760 0.094864 0.127984
Si Si7 0.679425 0.918669 0.110618
O O1 0.873901 0.750000 0.090802
O O2 0.766787 0.970008 0.093152
O O3 0.650134 0.930083 0.886270
O O4 0.963954 0.996556 0.104752
O O5 0.339344 0.250000 0.214936
O O6 0.528028 0.023368 0.343598
O O7 0.166270 0.021699 0.114200
O O8 0.703711 0.250000 0.505241
O O9 0.854331 0.059307 0.521958
O O10 0.768897 0.991150 0.594097
O O11 0.500000 0.500000 0.500000
O O12 0.397176 0.250000 0.485218
O O13 0.243575 0.377520 0.282952
O O14 0.046113 0.250000 0.580841
O O15 0.000000 0.500000 0.500000
O O16 0.193984 0.461753 0.742570
O O17 0.989526 0.250000 0.055721
O O18 0.645722 0.750000 0.087093
O O19 0.500000 0.000000 0.000000
#
# Coordination Sequence:
#
# PCOD8073941 Si02
#       7
#     4   4   4   4   4   4   4
#     4  10  21  37  60  85 113 152 199 241 289 357
#     4   9  18  34  56  84 117 153 192 236 286 348
#     4  10  20  38  61  85 118 156 196 248 304 354
#     4  11  21  34  54  81 115 155 195 241 290 349
#     4  10  23  41  65  94 124 157 200 256 313 371
#     4  10  20  35  54  81 118 153 190 238 290 343
#     4  10  23  42  63  92 122 155 203 252 302 367
#
# _framework density 20.383790000000001
#
# number of rings (size 3 to 8) (size 9 to 14) (size 15 to 20)
#    0.000    2.000    1.429    1.714    2.000    4.000 
#    0.000    0.714    0.000    0.000    0.000    0.000 
#    0.000    0.000    0.000    0.000    0.000    0.000 
#
# Total GULP energy -346943.791164 kJ/mol
# GULP energy per Si atom -12390.849684 kJ/mol
# Density = 2.033740 g / cm^3
# Si number density = 20.383790 Si / 1000 Ang^3
#
#
#
# Elastic Constant Matrix: (Units=GPa)
#
#
# Indices 1 2 3 4 5 6 
#
# 1 142.4550 58.7008 52.9573 0.0000 -11.7199 0.0000
# 2 58.7008 69.8209 8.6786 0.0000 3.5203 0.0000
# 3 52.9573 8.6786 57.7906 0.0000 6.7038 0.0000
# 4 0.0000 0.0000 0.0000 24.7924 0.0000 0.5178
# 5 -11.7199 3.5203 6.7038 0.0000 37.9628 0.0000
# 6 0.0000 0.0000 0.0000 0.5178 0.0000 36.7134
#
#
#
# Elastic Compliance Matrix: (Units=1/GPa)
#
#
# Indices 1 2 3 4 5 6 
#
# 1 0.021810 -0.016579 -0.018841 0.000000 0.011598 0.000000
# 2 -0.016579 0.027234 0.012240 0.000000 -0.009805 0.000000
# 3 -0.018841 0.012240 0.034239 0.000000 -0.012998 0.000000
# 4 0.000000 0.000000 0.000000 0.040347 0.000000 -0.000569
# 5 0.011598 -0.009805 -0.012998 0.000000 0.033127 0.000000
# 6 0.000000 0.000000 0.000000 -0.000569 0.000000 0.027246
#
#
# Mechanical properties :
#
#
# Convention : Reuss Voigt Hill
#
# Bulk Modulus (GPa) = 27.08409 56.74885 41.91647
# Shear Modulus (GPa) = 20.60411 29.87569 25.23990
#
# Velocity S-wave (km/s) = 3.18277 3.83255 3.52267
# Velocity P-wave (km/s) = 5.17906 6.89095 6.09540
#
# Compressibility (1/GPa) = 0.03692205
#
# Stress axis : x y z
#
# Youngs Moduli (GPa) = 45.85108 36.71906 29.20643
#
# Poissons Ratio (x) = 0.60876 0.55029
# Poissons Ratio (y) = 0.76016 -0.35749
# Poissons Ratio (z) = 0.86389 -0.44944
#
# Static dielectric constant tensor:
#      x y z
#    x 4.240230 0.000000 -0.550160 
#    y 0.000000 3.178250 0.000000 
#    z -0.550160 0.000000 4.251830 
# 
# 
# High freq. dielectric constant tensor:
#      x y z
#    x 1.805020 0.000000 -0.011410 
#    y 0.000000 1.778550 0.000000 
#    z -0.011410 0.000000 1.803580 
# 
# From -- ./inp_files/65476.got.cif
#   From: 2010.06.25/outbox.cif.g09.slc.cpg/sg11_33_cif.got.tgz:65476.got - 2010.06.27 23:14:04.
