data_PCOD8073242
_publ_section_title
;
Structure prediction by ZEFSAII (Michael W. Deem and Ramdas Pophale) SiO2 
 PCOD8073242
Probable space group: P 21/M
;
_chemical_formula_sum "Si O2"
_cell_formula_units_Z 32
_cell_length_a 24.428857
_cell_length_b 9.289674
_cell_length_c 15.816610
_cell_angle_alpha 90.000000
_cell_angle_beta 153.071648
_cell_angle_gamma 90.000000
_cell_volume 1625.534841
_symmetry_space_group_name_H-M "P 21/M"
_symmetry_group_IT_number 11
_symmetry_cell_setting 'monoclinic'
loop_
_space_group_symop_operation_xyz
x,y,z
-x,1/2+y,-z
-x,-y,-z
x,1/2-y,z
loop_
_atom_site_type_symbol
_atom_site_label
_atom_site_fract_x
_atom_site_fract_y
_atom_site_fract_z
Si Si1 0.807173 0.416111 0.898576
Si Si2 0.597616 0.579167 0.692385
Si Si3 0.754160 0.086542 0.633298
Si Si4 0.929651 0.088304 0.336205
Si Si5 0.706961 0.418297 0.125378
Si Si6 0.484343 0.082795 0.232141
Si Si7 0.146882 0.415525 0.531731
Si Si8 0.080083 0.081638 0.258321
O O1 0.802699 0.250000 0.924115
O O2 0.730817 0.515363 0.857312
O O3 0.747793 0.430860 0.724904
O O4 0.943880 0.475332 0.082957
O O5 0.500000 0.500000 0.500000
O O6 0.594047 0.750000 0.669368
O O7 0.567833 0.543762 0.748117
O O8 0.783286 0.250000 0.648544
O O9 0.624432 0.038697 0.419065
O O10 0.859992 0.990955 0.740117
O O11 0.944198 0.250000 0.387116
O O12 0.787839 0.049779 0.151452
O O13 0.999973 0.063703 0.344628
O O14 0.000000 0.000000 0.500000
O O15 0.685677 0.250000 0.112557
O O16 0.769608 0.483152 0.295778
O O17 0.580132 0.493557 0.931339
O O18 0.465315 0.250000 0.186709
O O19 0.182793 0.250000 0.599986
O O20 0.161762 0.453651 0.453582
O O21 0.074686 0.250000 0.232266
#
# Coordination Sequence:
#
# PCOD8073242 Si02
#       8
#     4   4   4   4   4   4   4   4
#     4  10  21  39  61  87 121 154 188 236 293 349
#     4  11  22  38  60  88 121 155 192 236 288 347
#     4  10  21  40  60  80 115 155 192 239 291 342
#     4   8  15  28  47  72 103 139 175 215 272 328
#     4  10  20  33  55  85 111 146 193 237 279 339
#     4  10  22  39  57  82 117 157 191 229 290 345
#     4   9  18  35  54  77 114 152 185 232 289 341
#     4  10  22  37  60  88 114 151 197 242 288 341
#
# _framework density 19.685828000000001
#
# number of rings (size 3 to 8) (size 9 to 14) (size 15 to 20)
#    0.000    2.250    1.250    1.125    1.750    3.500 
#    0.000    0.625    0.000    0.000    0.000    0.000 
#    0.000    0.000    0.000    0.000    0.000    0.000 
#
# Total GULP energy -396593.977496 kJ/mol
# GULP energy per Si atom -12393.561797 kJ/mol
# Density = 1.964102 g / cm^3
# Si number density = 19.685828 Si / 1000 Ang^3
#
#
#
# Elastic Constant Matrix: (Units=GPa)
#
#
# Indices 1 2 3 4 5 6 
#
# 1 57.4789 26.0473 10.7584 0.0000 16.5089 0.0000
# 2 26.0473 67.4985 36.0621 0.0000 9.9094 0.0000
# 3 10.7584 36.0621 91.3858 0.0000 12.2486 0.0000
# 4 0.0000 0.0000 0.0000 28.2441 0.0000 6.0449
# 5 16.5089 9.9094 12.2486 0.0000 24.3955 0.0000
# 6 0.0000 0.0000 0.0000 6.0449 0.0000 28.8840
#
#
#
# Elastic Compliance Matrix: (Units=1/GPa)
#
#
# Indices 1 2 3 4 5 6 
#
# 1 0.025181 -0.008907 0.002519 0.000000 -0.014687 0.000000
# 2 -0.008907 0.022331 -0.007886 0.000000 0.000916 0.000000
# 3 0.002519 -0.007886 0.014535 0.000000 -0.005799 0.000000
# 4 0.000000 0.000000 0.000000 0.037066 0.000000 -0.007757
# 5 -0.014687 0.000916 -0.005799 0.000000 0.053470 0.000000
# 6 0.000000 0.000000 0.000000 -0.007757 0.000000 0.036245
#
#
# Mechanical properties :
#
#
# Convention : Reuss Voigt Hill
#
# Bulk Modulus (GPa) = 29.85177 40.23322 35.04249
# Shear Modulus (GPa) = 21.87779 25.87109 23.87444
#
# Velocity S-wave (km/s) = 3.33730 3.62912 3.48627
# Velocity P-wave (km/s) = 5.48153 6.16788 5.83480
#
# Compressibility (1/GPa) = 0.03349885
#
# Stress axis : x y z
#
# Youngs Moduli (GPa) = 39.71281 44.78059 68.79734
#
# Poissons Ratio (x) = 0.39884 -0.17329
# Poissons Ratio (y) = 0.35371 0.54256
# Poissons Ratio (z) = -0.10003 0.35316
#
# Static dielectric constant tensor:
#      x y z
#    x 0.302560 0.000000 0.223060 
#    y 0.000000 3.519890 0.000000 
#    z 0.223060 0.000000 3.502660 
# 
# 
# High freq. dielectric constant tensor:
#      x y z
#    x 1.757700 0.000000 0.004660 
#    y 0.000000 1.761550 0.000000 
#    z 0.004660 0.000000 1.767630 
# 
# From -- ./inp_files/45170.got.cif
#   From: 2010.06.25/outbox.cif.g09.slc.cpg/sg11_23_cif.got.tgz:45170.got - 2010.06.27 23:14:04.
