data_PCOD8073347
_publ_section_title
;
Structure prediction by ZEFSAII (Michael W. Deem and Ramdas Pophale) SiO2 
 PCOD8073347
Probable space group: P 21/M
;
_chemical_formula_sum "Si O2"
_cell_formula_units_Z 32
_cell_length_a 10.229943
_cell_length_b 9.256811
_cell_length_c 20.935617
_cell_angle_alpha 90.000000
_cell_angle_beta 72.520182
_cell_angle_gamma 90.000000
_cell_volume 1890.984986
_symmetry_space_group_name_H-M "P 21/M"
_symmetry_group_IT_number 11
_symmetry_cell_setting 'monoclinic'
loop_
_space_group_symop_operation_xyz
x,y,z
-x,1/2+y,-z
-x,-y,-z
x,1/2-y,z
loop_
_atom_site_type_symbol
_atom_site_label
_atom_site_fract_x
_atom_site_fract_y
_atom_site_fract_z
Si Si1 0.210293 0.918951 0.197067
Si Si2 0.616242 0.585739 0.656745
Si Si3 0.398617 0.579274 0.467623
Si Si4 0.096983 0.416331 0.319992
Si Si5 0.517848 0.583553 0.805012
Si Si6 0.303741 0.910240 0.051738
Si Si7 0.398881 0.412665 0.927812
Si Si8 0.088937 0.917090 0.538097
O O1 0.234111 0.750000 0.208517
O O2 0.189295 0.941622 0.123516
O O3 0.085813 0.982716 0.258040
O O4 0.339025 0.012147 0.199119
O O5 0.615842 0.750000 0.630639
O O6 0.572538 0.475884 0.608085
O O7 0.768025 0.544953 0.658796
O O8 0.503655 0.570553 0.730326
O O9 0.500000 0.500000 0.500000
O O10 0.422862 0.750000 0.466834
O O11 0.246080 0.534779 0.511354
O O12 0.102077 0.250000 0.297167
O O13 0.964554 0.449949 0.382578
O O14 0.519189 0.750000 0.826819
O O15 0.396755 0.501500 0.861349
O O16 0.284165 0.750000 0.026390
O O17 0.450265 0.921396 0.064809
O O18 0.291640 0.020620 0.994586
O O19 0.352704 0.250000 0.920134
O O20 0.071521 0.750000 0.523903
O O21 0.000000 0.000000 0.500000
#
# Coordination Sequence:
#
# PCOD8073347 Si02
#       8
#     4   4   4   4   4   4   4   4
#     4   9  16  24  35  54  78 106 144 183 221 268
#     4   9  17  30  47  65  88 117 149 189 234 280
#     4  11  23  36  52  72  96 126 158 194 239 287
#     4   9  17  29  45  65  90 115 145 188 234 277
#     4   9  16  25  37  53  77 108 140 180 228 270
#     4   8  14  22  30  43  69 104 139 177 218 262
#     4   9  15  21  31  48  69  99 142 184 217 261
#     4  10  20  34  52  74  95 122 157 195 239 284
#
# _framework density 16.922398000000001
#
# number of rings (size 3 to 8) (size 9 to 14) (size 15 to 20)
#    0.000    2.750    1.250    3.000    0.000    7.000 
#    0.000    0.000    0.000    0.000    0.000    0.000 
#    0.000    0.000    0.000    1.125    0.000   14.000 
#
# Total GULP energy -396576.626171 kJ/mol
# GULP energy per Si atom -12393.019568 kJ/mol
# Density = 1.688388 g / cm^3
# Si number density = 16.922398 Si / 1000 Ang^3
#
#
#
# Elastic Constant Matrix: (Units=GPa)
#
#
# Indices 1 2 3 4 5 6 
#
# 1 41.3453 31.3430 34.1856 0.0000 -1.5918 0.0000
# 2 31.3430 117.3444 78.7501 0.0000 1.3274 0.0000
# 3 34.1856 78.7501 145.6161 0.0000 0.0198 0.0000
# 4 0.0000 0.0000 0.0000 38.3600 0.0000 3.1010
# 5 -1.5918 1.3274 0.0198 0.0000 7.2665 0.0000
# 6 0.0000 0.0000 0.0000 3.1010 0.0000 12.8899
#
#
#
# Elastic Compliance Matrix: (Units=1/GPa)
#
#
# Indices 1 2 3 4 5 6 
#
# 1 0.032626 -0.005755 -0.004548 0.000000 0.008211 0.000000
# 2 -0.005755 0.014435 -0.006455 0.000000 -0.003880 0.000000
# 3 -0.004548 -0.006455 0.011426 0.000000 0.000152 0.000000
# 4 0.000000 0.000000 0.000000 0.026586 0.000000 -0.006396
# 5 0.008211 -0.003880 0.000152 0.000000 0.140125 0.000000
# 6 0.000000 0.000000 0.000000 -0.006396 0.000000 0.079119
#
#
# Mechanical properties :
#
#
# Convention : Reuss Voigt Hill
#
# Bulk Modulus (GPa) = 40.04706 65.87371 52.96038
# Shear Modulus (GPa) = 14.44432 22.37173 18.40803
#
# Velocity S-wave (km/s) = 2.92475 3.63990 3.30175
# Velocity P-wave (km/s) = 5.92638 7.52839 6.77490
#
# Compressibility (1/GPa) = 0.02497062
#
# Stress axis : x y z
#
# Youngs Moduli (GPa) = 30.65030 69.27663 87.52012
#
# Poissons Ratio (x) = 0.39869 0.39806
# Poissons Ratio (y) = 0.17640 0.56493
# Poissons Ratio (z) = 0.13940 0.44717
#
# Static dielectric constant tensor:
#      x y z
#    x 2.454240 0.000000 -0.028180 
#    y 0.000000 3.297000 0.000000 
#    z -0.028180 0.000000 3.489740 
# 
# 
# High freq. dielectric constant tensor:
#      x y z
#    x 1.558840 0.000000 -0.003420 
#    y 0.000000 1.665280 0.000000 
#    z -0.003420 0.000000 1.678820 
# 
# From -- ./inp_files/68246.got.cif
#   From: 2010.06.25/outbox.cif.g09.slc.cpg/sg11_35_cif.got.tgz:68246.got - 2010.06.27 23:14:04.
