data_PCOD8073856
_publ_section_title
;
Structure prediction by ZEFSAII (Michael W. Deem and Ramdas Pophale) SiO2 
 PCOD8073856
Probable space group: P 21/M
;
_chemical_formula_sum "Si O2"
_cell_formula_units_Z 32
_cell_length_a 21.447838
_cell_length_b 9.191333
_cell_length_c 21.430246
_cell_angle_alpha 90.000000
_cell_angle_beta 24.746798
_cell_angle_gamma 90.000000
_cell_volume 1768.470108
_symmetry_space_group_name_H-M "P 21/M"
_symmetry_group_IT_number 11
_symmetry_cell_setting 'monoclinic'
loop_
_space_group_symop_operation_xyz
x,y,z
-x,1/2+y,-z
-x,-y,-z
x,1/2-y,z
loop_
_atom_site_type_symbol
_atom_site_label
_atom_site_fract_x
_atom_site_fract_y
_atom_site_fract_z
Si Si1 0.497006 0.580509 0.680555
Si Si2 0.700588 0.911352 0.855924
Si Si3 0.170937 0.578087 0.013093
Si Si4 0.610211 0.577165 0.446812
Si Si5 0.056186 0.420280 0.888001
Si Si6 0.356205 0.586433 0.206546
Si Si7 0.561386 0.579741 0.755717
Si Si8 0.251461 0.420979 0.053641
O O1 0.478729 0.750000 0.686341
O O2 0.329263 0.519908 0.842347
O O3 0.573981 0.515036 0.549003
O O4 0.602372 0.550930 0.645526
O O5 0.731990 0.750000 0.801829
O O6 0.801212 0.942859 0.826198
O O7 0.738216 0.020563 0.765334
O O8 0.529541 0.923829 0.032709
O O9 0.172960 0.750000 0.025781
O O10 0.134656 0.489297 0.110284
O O11 0.044538 0.535043 0.079084
O O12 0.500000 0.500000 0.500000
O O13 0.589843 0.750000 0.460795
O O14 0.776893 0.529824 0.278667
O O15 0.044959 0.250000 0.911072
O O16 0.000000 0.500000 0.000000
O O17 0.301364 0.750000 0.266683
O O18 0.325623 0.498930 0.298855
O O19 0.558690 0.750000 0.774183
O O20 0.398581 0.515217 0.911481
O O21 0.281094 0.250000 0.013847
#
# Coordination Sequence:
#
# PCOD8073856 Si02
#       8
#     4   4   4   4   4   4   4   4
#     4   8  15  28  46  64  87 120 155 189 227 275
#     4   8  14  22  31  47  75 110 146 182 223 271
#     4   9  17  30  46  65  90 122 155 188 231 281
#     4  10  20  35  53  74  98 125 158 195 235 280
#     4  10  21  35  53  75  99 127 159 195 236 283
#     4   9  15  21  31  50  77 110 148 188 225 266
#     4   9  15  24  38  55  79 115 151 185 229 276
#     4   9  16  25  38  58  82 111 149 191 229 269
#
# _framework density 18.094736000000001
#
# number of rings (size 3 to 8) (size 9 to 14) (size 15 to 20)
#    0.000    3.000    0.000    3.375    0.000    5.500 
#    0.000    4.375    0.000    0.000    0.000    0.000 
#    0.000    1.000    0.000    2.000    0.000    5.375 
#
# Total GULP energy -396504.307128 kJ/mol
# GULP energy per Si atom -12390.759598 kJ/mol
# Density = 1.805355 g / cm^3
# Si number density = 18.094736 Si / 1000 Ang^3
#
#
#
# Elastic Constant Matrix: (Units=GPa)
#
#
# Indices 1 2 3 4 5 6 
#
# 1 185.2967 77.1976 58.9394 0.0000 24.4109 0.0000
# 2 77.1976 90.9360 28.0987 0.0000 13.5473 0.0000
# 3 58.9394 28.0987 60.9937 0.0000 5.6552 0.0000
# 4 0.0000 0.0000 0.0000 12.4666 0.0000 5.3051
# 5 24.4109 13.5473 5.6552 0.0000 19.3092 0.0000
# 6 0.0000 0.0000 0.0000 5.3051 0.0000 37.2862
#
#
#
# Elastic Compliance Matrix: (Units=1/GPa)
#
#
# Indices 1 2 3 4 5 6 
#
# 1 0.011365 -0.006191 -0.007402 0.000000 -0.007857 0.000000
# 2 -0.006191 0.017335 -0.001646 0.000000 -0.003854 0.000000
# 3 -0.007402 -0.001646 0.023983 0.000000 0.003489 0.000000
# 4 0.000000 0.000000 0.000000 0.085384 0.000000 -0.012149
# 5 -0.007857 -0.003854 0.003489 0.000000 0.063404 0.000000
# 6 0.000000 0.000000 0.000000 -0.012149 0.000000 0.028548
#
#
# Mechanical properties :
#
#
# Convention : Reuss Voigt Hill
#
# Bulk Modulus (GPa) = 45.03537 73.96643 59.50090
# Shear Modulus (GPa) = 18.66368 25.34512 22.00440
#
# Velocity S-wave (km/s) = 3.21509 3.74664 3.49100
# Velocity P-wave (km/s) = 6.22295 7.72544 7.01454
#
# Compressibility (1/GPa) = 0.02220477
#
# Stress axis : x y z
#
# Youngs Moduli (GPa) = 87.98565 57.68689 41.69607
#
# Poissons Ratio (x) = 0.35712 0.30865
# Poissons Ratio (y) = 0.54469 0.06865
# Poissons Ratio (z) = 0.65130 0.09498
#
# Static dielectric constant tensor:
#      x y z
#    x 3.946430 0.000000 0.326150 
#    y 0.000000 3.344160 0.000000 
#    z 0.326150 0.000000 2.952880 
# 
# 
# High freq. dielectric constant tensor:
#      x y z
#    x 1.723860 0.000000 0.023850 
#    y 0.000000 1.693370 0.000000 
#    z 0.023850 0.000000 1.635540 
# 
# From -- ./inp_files/66446.got.cif
#   From: 2010.06.25/outbox.cif.g09.slc.cpg/sg11_34_cif.got.tgz:66446.got - 2010.06.27 23:14:04.
