data_PCOD8073595
_publ_section_title
;
Structure prediction by ZEFSAII (Michael W. Deem and Ramdas Pophale) SiO2 
 PCOD8073595
Probable space group: P 21/M
;
_chemical_formula_sum "Si O2"
_cell_formula_units_Z 32
_cell_length_a 11.386507
_cell_length_b 9.059996
_cell_length_c 27.398554
_cell_angle_alpha 90.000000
_cell_angle_beta 143.985945
_cell_angle_gamma 90.000000
_cell_volume 1661.925099
_symmetry_space_group_name_H-M "P 21/M"
_symmetry_group_IT_number 11
_symmetry_cell_setting 'monoclinic'
loop_
_space_group_symop_operation_xyz
x,y,z
-x,1/2+y,-z
-x,-y,-z
x,1/2-y,z
loop_
_atom_site_type_symbol
_atom_site_label
_atom_site_fract_x
_atom_site_fract_y
_atom_site_fract_z
Si Si1 0.530465 0.424825 0.154921
Si Si2 0.088054 0.422398 0.459828
Si Si3 0.988751 0.078023 0.319441
Si Si4 0.289720 0.921206 0.232699
Si Si5 0.821142 0.422214 0.911330
Si Si6 0.579080 0.578527 0.073893
Si Si7 0.693218 0.422816 0.385168
Si Si8 0.044689 0.919278 0.242780
O O1 0.492877 0.250000 0.141222
O O2 0.387712 0.500941 0.146033
O O3 0.477476 0.494403 0.084816
O O4 0.756346 0.466390 0.245190
O O5 0.130026 0.250000 0.480743
O O6 0.095335 0.469032 0.405562
O O7 0.260882 0.510718 0.545939
O O8 0.871264 0.464080 0.408184
O O9 0.007348 0.250000 0.316241
O O10 0.100626 0.000231 0.312017
O O11 0.342550 0.750000 0.257347
O O12 0.153828 0.942931 0.138637
O O13 0.169756 0.983288 0.239250
O O14 0.494015 0.009893 0.295643
O O15 0.816993 0.250000 0.924208
O O16 0.000000 0.500000 0.000000
O O17 0.517913 0.750000 0.054386
O O18 0.814836 0.556275 0.153481
O O19 0.500000 0.500000 0.000000
O O20 0.664225 0.250000 0.380940
O O21 0.097836 0.750000 0.268720
#
# Coordination Sequence:
#
# PCOD8073595 Si02
#       8
#     4   4   4   4   4   4   4   4
#     4  10  20  36  56  79 111 143 179 229 280 330
#     4   9  18  34  56  83 117 146 177 224 278 329
#     4   9  18  34  57  83 109 143 183 227 277 325
#     4  10  22  40  58  77 111 152 183 222 281 336
#     4  11  24  39  57  82 110 145 187 229 279 338
#     4  10  20  34  55  81 107 140 185 233 282 332
#     4  10  20  34  56  87 114 144 185 226 270 326
#     4   9  20  37  55  77 107 145 185 227 277 332
#
# _framework density 19.254778000000002
#
# number of rings (size 3 to 8) (size 9 to 14) (size 15 to 20)
#    0.000    2.250    0.000    2.250    1.750    4.500 
#    0.000    0.625    0.000    0.000    0.000    0.000 
#    0.000    0.000    0.000    0.000    0.000    0.000 
#
# Total GULP energy -396856.207352 kJ/mol
# GULP energy per Si atom -12401.756480 kJ/mol
# Density = 1.921095 g / cm^3
# Si number density = 19.254778 Si / 1000 Ang^3
#
#
#
# Elastic Constant Matrix: (Units=GPa)
#
#
# Indices 1 2 3 4 5 6 
#
# 1 105.3055 38.3854 35.0759 0.0000 -18.2477 0.0000
# 2 38.3854 80.4821 40.4448 0.0000 -8.9855 0.0000
# 3 35.0759 40.4448 82.6458 0.0000 -20.7581 0.0000
# 4 0.0000 0.0000 0.0000 34.0868 0.0000 -2.9346
# 5 -18.2477 -8.9855 -20.7581 0.0000 31.4254 0.0000
# 6 0.0000 0.0000 0.0000 -2.9346 0.0000 33.2544
#
#
#
# Elastic Compliance Matrix: (Units=1/GPa)
#
#
# Indices 1 2 3 4 5 6 
#
# 1 0.012611 -0.004501 -0.001958 0.000000 0.004742 0.000000
# 2 -0.004501 0.018098 -0.007557 0.000000 -0.002431 0.000000
# 3 -0.001958 -0.007557 0.018944 0.000000 0.009215 0.000000
# 4 0.000000 0.000000 0.000000 0.029561 0.000000 0.002609
# 5 0.004742 -0.002431 0.009215 0.000000 0.039967 0.000000
# 6 0.000000 0.000000 0.000000 0.002609 0.000000 0.030301
#
#
# Mechanical properties :
#
#
# Convention : Reuss Voigt Hill
#
# Bulk Modulus (GPa) = 46.25361 55.13841 50.69601
# Shear Modulus (GPa) = 27.06762 30.05514 28.56138
#
# Velocity S-wave (km/s) = 3.75342 3.95513 3.85559
# Velocity P-wave (km/s) = 6.54662 7.03959 6.79757
#
# Compressibility (1/GPa) = 0.02161993
#
# Stress axis : x y z
#
# Youngs Moduli (GPa) = 79.29610 55.25439 52.78773
#
# Poissons Ratio (x) = 0.24870 0.10338
# Poissons Ratio (y) = 0.35692 0.39891
# Poissons Ratio (z) = 0.15530 0.41755
#
# Static dielectric constant tensor:
#      x y z
#    x 3.877880 0.000000 -0.129010 
#    y 0.000000 3.554020 0.000000 
#    z -0.129010 0.000000 3.426110 
# 
# 
# High freq. dielectric constant tensor:
#      x y z
#    x 1.751090 0.000000 -0.016100 
#    y 0.000000 1.751150 0.000000 
#    z -0.016100 0.000000 1.741690 
# 
# From -- ./inp_files/73195.got.cif
#   From: 2010.06.25/outbox.cif.g09.slc.cpg/sg11_37_cif.got.tgz:73195.got - 2010.06.27 23:14:04.
