data_PCOD8073212
_publ_section_title
;
Structure prediction by ZEFSAII (Michael W. Deem and Ramdas Pophale) SiO2 
 PCOD8073212
Probable space group: P 21/M
;
_chemical_formula_sum "Si O2"
_cell_formula_units_Z 28
_cell_length_a 11.465455
_cell_length_b 20.150165
_cell_length_c 12.316700
_cell_angle_alpha 90.000000
_cell_angle_beta 30.458242
_cell_angle_gamma 90.000000
_cell_volume 1442.431992
_symmetry_space_group_name_H-M "P 21/M"
_symmetry_group_IT_number 11
_symmetry_cell_setting 'monoclinic'
loop_
_space_group_symop_operation_xyz
x,y,z
-x,1/2+y,-z
-x,-y,-z
x,1/2-y,z
loop_
_atom_site_type_symbol
_atom_site_label
_atom_site_fract_x
_atom_site_fract_y
_atom_site_fract_z
Si Si1 0.794655 0.172482 0.081512
Si Si2 0.846129 0.564263 0.154020
Si Si3 0.366475 0.088584 0.451894
Si Si4 0.465002 0.041447 0.788034
Si Si5 0.887668 0.408241 0.584375
Si Si6 0.951906 0.175097 0.720221
Si Si7 0.245162 0.475668 0.175253
O O1 0.816367 0.250000 0.096147
O O2 0.569756 0.140507 0.315775
O O3 0.785554 0.163290 0.957337
O O4 0.011465 0.132595 0.956213
O O5 0.725084 0.552265 0.366729
O O6 0.638942 0.575735 0.235119
O O7 0.000000 0.500000 0.000000
O O8 0.174267 0.129718 0.545654
O O9 0.454132 0.032999 0.299295
O O10 0.676451 0.082831 0.669649
O O11 0.247463 0.037062 0.045052
O O12 0.837461 0.341468 0.694360
O O13 0.915803 0.464185 0.656916
O O14 0.132576 0.410011 0.322756
O O15 0.037503 0.250000 0.650374
O O16 0.500000 0.500000 0.000000
#
# Coordination Sequence:
#
# PCOD8073212 Si02
#       7
#     4   4   4   4   4   4   4
#     4  10  22  40  62  86 120 158 197 247 304 363
#     4  11  24  38  60  92 121 152 204 256 304 357
#     4  11  21  36  61  87 117 151 198 247 309 352
#     4  11  22  34  57  86 116 151 190 248 305 348
#     4  10  20  33  53  81 116 150 186 235 295 355
#     4  10  21  37  57  84 115 153 198 242 290 364
#     4   9  18  32  52  80 112 145 184 231 294 346
#
# _framework density 19.411660000000001
#
# number of rings (size 3 to 8) (size 9 to 14) (size 15 to 20)
#    0.000    1.714    1.429    4.286    4.000    1.714 
#    0.000    0.714    0.000    2.571    0.000    0.000 
#    0.000    0.000    0.000    0.000    0.000    0.000 
#
# Total GULP energy -346955.132860 kJ/mol
# GULP energy per Si atom -12391.254745 kJ/mol
# Density = 1.936748 g / cm^3
# Si number density = 19.411660 Si / 1000 Ang^3
#
#
#
# Elastic Constant Matrix: (Units=GPa)
#
#
# Indices 1 2 3 4 5 6 
#
# 1 107.2821 48.4468 32.5558 0.0000 -1.3236 0.0000
# 2 48.4468 98.0143 47.8632 0.0000 5.8468 0.0000
# 3 32.5558 47.8632 121.1486 0.0000 10.8609 0.0000
# 4 0.0000 0.0000 0.0000 19.9553 0.0000 1.4290
# 5 -1.3236 5.8468 10.8609 0.0000 27.6990 0.0000
# 6 0.0000 0.0000 0.0000 1.4290 0.0000 28.3728
#
#
#
# Elastic Compliance Matrix: (Units=1/GPa)
#
#
# Indices 1 2 3 4 5 6 
#
# 1 0.012253 -0.005557 -0.001301 0.000000 0.002269 0.000000
# 2 -0.005557 0.015176 -0.004344 0.000000 -0.001766 0.000000
# 3 -0.001301 -0.004344 0.010617 0.000000 -0.003308 0.000000
# 4 0.000000 0.000000 0.000000 0.050293 0.000000 -0.002533
# 5 0.002269 -0.001766 -0.003308 0.000000 0.037881 0.000000
# 6 0.000000 0.000000 0.000000 -0.002533 0.000000 0.035373
#
#
# Mechanical properties :
#
#
# Convention : Reuss Voigt Hill
#
# Bulk Modulus (GPa) = 63.92813 64.90850 64.41832
# Shear Modulus (GPa) = 26.42568 28.37737 27.40153
#
# Velocity S-wave (km/s) = 3.69362 3.82759 3.76120
# Velocity P-wave (km/s) = 7.15506 7.28316 7.21939
#
# Compressibility (1/GPa) = 0.01564257
#
# Stress axis : x y z
#
# Youngs Moduli (GPa) = 81.61101 65.89418 94.19096
#
# Poissons Ratio (x) = 0.36615 0.12253
# Poissons Ratio (y) = 0.45349 0.40918
# Poissons Ratio (z) = 0.10616 0.28625
#
# Static dielectric constant tensor:
#      x y z
#    x 3.573420 0.000000 0.245270 
#    y 0.000000 3.421170 0.000000 
#    z 0.245270 0.000000 4.057260 
# 
# 
# High freq. dielectric constant tensor:
#      x y z
#    x 1.747220 0.000000 0.004660 
#    y 0.000000 1.724960 0.000000 
#    z 0.004660 0.000000 1.774170 
# 
# From -- ./inp_files/5080.got.cif
#   From: 2010.06.25/outbox.cif.g09.slc.cpg/sg11_3_cif.got.tgz:5080.got - 2010.06.27 23:14:04.
