data_PCOD8073224
_publ_section_title
;
Structure prediction by ZEFSAII (Michael W. Deem and Ramdas Pophale) SiO2 
 PCOD8073224
Probable space group: P 21/M
;
_chemical_formula_sum "Si O2"
_cell_formula_units_Z 28
_cell_length_a 19.177092
_cell_length_b 8.820913
_cell_length_c 20.646258
_cell_angle_alpha 90.000000
_cell_angle_beta 28.720538
_cell_angle_gamma 90.000000
_cell_volume 1678.283299
_symmetry_space_group_name_H-M "P 21/M"
_symmetry_group_IT_number 11
_symmetry_cell_setting 'monoclinic'
loop_
_space_group_symop_operation_xyz
x,y,z
-x,1/2+y,-z
-x,-y,-z
x,1/2-y,z
loop_
_atom_site_type_symbol
_atom_site_label
_atom_site_fract_x
_atom_site_fract_y
_atom_site_fract_z
Si Si1 0.821480 0.425854 0.581790
Si Si2 0.380258 0.572636 0.783727
Si Si3 0.120176 0.573857 0.316161
Si Si4 0.438157 0.080526 0.612631
Si Si5 0.142518 0.419580 0.908324
Si Si6 0.522736 0.571533 0.803093
Si Si7 0.607352 0.569970 0.964810
O O1 0.806616 0.250000 0.575303
O O2 0.821718 0.448324 0.658644
O O3 0.688980 0.521027 0.660892
O O4 0.966478 0.492475 0.431904
O O5 0.372959 0.750000 0.779734
O O6 0.483696 0.504185 0.642485
O O7 0.216478 0.505114 0.909631
O O8 0.443189 0.527699 0.801664
O O9 0.104733 0.750000 0.310940
O O10 0.231462 0.493824 0.176910
O O11 0.501276 0.250000 0.563586
O O12 0.261596 0.081343 0.753074
O O13 0.500000 0.000000 0.500000
O O14 0.102181 0.250000 0.962963
O O15 0.000000 0.500000 0.000000
O O16 0.514533 0.750000 0.825104
O O17 0.443450 0.476290 0.922813
O O18 0.605630 0.750000 0.958874
O O19 0.500000 0.500000 0.000000
#
# Coordination Sequence:
#
# PCOD8073224 Si02
#       7
#     4   4   4   4   4   4   4
#     4  10  20  33  54  78 103 138 174 219 271 321
#     4   9  19  34  54  79 110 143 178 218 265 318
#     4  10  20  35  53  76 104 134 174 224 271 321
#     4   9  18  31  53  81 107 137 171 212 255 305
#     4   9  18  31  53  81 108 140 175 214 256 309
#     4  11  22  36  56  79 107 144 181 223 273 324
#     4  12  23  35  54  79 107 140 182 230 273 321
#
# _framework density 16.683714999999999
#
# number of rings (size 3 to 8) (size 9 to 14) (size 15 to 20)
#    0.857    1.143    1.429    3.429    0.000    3.429 
#    0.000    0.000    3.143    0.000    0.000    0.000 
#    0.000    0.000    0.000    0.000    0.000    0.000 
#
# Total GULP energy -347096.932242 kJ/mol
# GULP energy per Si atom -12396.319009 kJ/mol
# Density = 1.664574 g / cm^3
# Si number density = 16.683715 Si / 1000 Ang^3
#
#
#
# Elastic Constant Matrix: (Units=GPa)
#
#
# Indices 1 2 3 4 5 6 
#
# 1 97.5355 46.5136 42.3533 0.0000 -2.3161 0.0000
# 2 46.5136 108.6083 38.0896 0.0000 1.8714 0.0000
# 3 42.3533 38.0896 92.4865 0.0000 -3.5001 0.0000
# 4 0.0000 0.0000 0.0000 34.9328 0.0000 -0.9394
# 5 -2.3161 1.8714 -3.5001 0.0000 26.3900 0.0000
# 6 0.0000 0.0000 0.0000 -0.9394 0.0000 26.9901
#
#
#
# Elastic Compliance Matrix: (Units=1/GPa)
#
#
# Indices 1 2 3 4 5 6 
#
# 1 0.014508 -0.004573 -0.004723 0.000000 0.000971 0.000000
# 2 -0.004573 0.012252 -0.003015 0.000000 -0.001670 0.000000
# 3 -0.004723 -0.003015 0.014281 0.000000 0.001693 0.000000
# 4 0.000000 0.000000 0.000000 0.028653 0.000000 0.000997
# 5 0.000971 -0.001670 0.001693 0.000000 0.038321 0.000000
# 6 0.000000 0.000000 0.000000 0.000997 0.000000 0.037085
#
#
# Mechanical properties :
#
#
# Convention : Reuss Voigt Hill
#
# Bulk Modulus (GPa) = 60.90949 61.39371 61.15160
# Shear Modulus (GPa) = 28.53929 29.10748 28.82339
#
# Velocity S-wave (km/s) = 4.14044 4.18145 4.16099
# Velocity P-wave (km/s) = 7.71007 7.75830 7.73422
#
# Compressibility (1/GPa) = 0.01641780
#
# Stress axis : x y z
#
# Youngs Moduli (GPa) = 68.92823 81.61836 70.02253
#
# Poissons Ratio (x) = 0.37328 0.33075
# Poissons Ratio (y) = 0.31524 0.21110
# Poissons Ratio (z) = 0.32558 0.24606
#
# Static dielectric constant tensor:
#      x y z
#    x 3.003800 0.000000 -0.039210 
#    y 0.000000 3.310660 0.000000 
#    z -0.039210 0.000000 3.104280 
# 
# 
# High freq. dielectric constant tensor:
#      x y z
#    x 1.614330 0.000000 -0.005080 
#    y 0.000000 1.667090 0.000000 
#    z -0.005080 0.000000 1.636830 
# 
# From -- ./inp_files/65984.got.cif
#   From: 2010.06.25/outbox.cif.g09.slc.cpg/sg11_33_cif.got.tgz:65984.got - 2010.06.27 23:14:04.
