data_PCOD8073473
_publ_section_title
;
Structure prediction by ZEFSAII (Michael W. Deem and Ramdas Pophale) SiO2 
 PCOD8073473
Probable space group: P 21/M
;
_chemical_formula_sum "Si O2"
_cell_formula_units_Z 32
_cell_length_a 11.720851
_cell_length_b 11.289408
_cell_length_c 12.461727
_cell_angle_alpha 90.000000
_cell_angle_beta 96.388089
_cell_angle_gamma 90.000000
_cell_volume 1638.715784
_symmetry_space_group_name_H-M "P 21/M"
_symmetry_group_IT_number 11
_symmetry_cell_setting 'monoclinic'
loop_
_space_group_symop_operation_xyz
x,y,z
-x,1/2+y,-z
-x,-y,-z
x,1/2-y,z
loop_
_atom_site_type_symbol
_atom_site_label
_atom_site_fract_x
_atom_site_fract_y
_atom_site_fract_z
Si Si1 0.036295 0.009668 0.222570
Si Si2 0.684785 0.116777 0.536136
Si Si3 0.167718 0.380907 0.405803
Si Si4 0.236426 0.611299 0.120569
Si Si5 0.898297 0.619404 0.373771
Si Si6 0.323799 0.532659 0.695920
Si Si7 0.805771 0.116960 0.120594
Si Si8 0.546056 0.383921 0.723389
O O1 0.099355 0.121123 0.285492
O O2 0.918015 0.038169 0.151143
O O3 0.118752 0.947636 0.146869
O O4 0.008919 0.928059 0.323064
O O5 0.741948 0.250000 0.561227
O O6 0.651486 0.111349 0.407190
O O7 0.571138 0.111899 0.598275
O O8 0.755938 0.000581 0.580417
O O9 0.232053 0.250000 0.418391
O O10 0.077716 0.384915 0.495775
O O11 0.223573 0.750000 0.139084
O O12 0.345195 0.563891 0.199143
O O13 0.253519 0.578059 0.997298
O O14 0.876609 0.750000 0.328416
O O15 0.780228 0.553323 0.339600
O O16 0.288290 0.610738 0.794804
O O17 0.436812 0.461933 0.740520
O O18 0.850931 0.250000 0.115711
O O19 0.520170 0.250000 0.758064
#
# Coordination Sequence:
#
# PCOD8073473 Si02
#       8
#     4   4   4   4   4   4   4   4
#     4  11  19  34  57  80 110 150 194 238 287 344
#     4  10  20  36  59  88 119 153 191 232 285 349
#     4  10  20  34  53  83 121 154 186 233 292 346
#     4  10  21  37  58  83 111 148 194 242 291 341
#     4   9  19  32  50  81 114 148 188 234 288 347
#     4  10  20  35  57  82 113 151 188 237 287 346
#     4  10  22  38  55  79 112 151 194 242 292 341
#     4  10  20  36  59  85 113 147 190 239 289 344
#
# _framework density 19.527488000000002
#
# number of rings (size 3 to 8) (size 9 to 14) (size 15 to 20)
#    0.000    2.000    1.250    2.625    0.000    1.500 
#    0.000    4.375    0.000    2.250    0.000    0.000 
#    0.000    0.000    0.000    0.000    0.000    0.000 
#
# Total GULP energy -396484.130846 kJ/mol
# GULP energy per Si atom -12390.129089 kJ/mol
# Density = 1.948304 g / cm^3
# Si number density = 19.527488 Si / 1000 Ang^3
#
#
#
# Elastic Constant Matrix: (Units=GPa)
#
#
# Indices 1 2 3 4 5 6 
#
# 1 77.8840 17.7841 41.2321 0.0000 -1.1964 0.0000
# 2 17.7841 89.6084 19.3215 0.0000 0.0186 0.0000
# 3 41.2321 19.3215 124.1339 0.0000 -0.4649 0.0000
# 4 0.0000 0.0000 0.0000 18.3175 0.0000 0.4686
# 5 -1.1964 0.0186 -0.4649 0.0000 18.7565 0.0000
# 6 0.0000 0.0000 0.0000 0.4686 0.0000 22.7058
#
#
#
# Elastic Compliance Matrix: (Units=1/GPa)
#
#
# Indices 1 2 3 4 5 6 
#
# 1 0.015965 -0.002096 -0.004973 0.000000 0.000897 0.000000
# 2 -0.002096 0.011823 -0.001145 0.000000 -0.000174 0.000000
# 3 -0.004973 -0.001145 0.009886 0.000000 -0.000071 0.000000
# 4 0.000000 0.000000 0.000000 0.054622 0.000000 -0.001127
# 5 0.000897 -0.000174 -0.000071 0.000000 0.053370 0.000000
# 6 0.000000 0.000000 0.000000 -0.001127 0.000000 0.044065
#
#
# Mechanical properties :
#
#
# Convention : Reuss Voigt Hill
#
# Bulk Modulus (GPa) = 47.07012 49.81131 48.44072
# Shear Modulus (GPa) = 23.44780 26.17520 24.81150
#
# Velocity S-wave (km/s) = 3.46896 3.66516 3.56841
# Velocity P-wave (km/s) = 6.34048 6.59355 6.46825
#
# Compressibility (1/GPa) = 0.02124490
#
# Stress axis : x y z
#
# Youngs Moduli (GPa) = 62.63736 84.58424 101.15729
#
# Poissons Ratio (x) = 0.17732 0.50308
# Poissons Ratio (y) = 0.13131 0.11578
# Poissons Ratio (z) = 0.31151 0.09681
#
# Static dielectric constant tensor:
#      x y z
#    x 3.272900 0.000000 -0.081320 
#    y 0.000000 3.639970 0.000000 
#    z -0.081320 0.000000 3.866270 
# 
# 
# High freq. dielectric constant tensor:
#      x y z
#    x 1.737210 0.000000 -0.006320 
#    y 0.000000 1.760600 0.000000 
#    z -0.006320 0.000000 1.765660 
# 
# From -- ./inp_files/34818.got.cif
#   From: 2010.06.25/outbox.cif.g09.slc.cpg/sg11_18_cif.got.tgz:34818.got - 2010.06.27 23:14:04.
