data_PCOD8073304
_publ_section_title
;
Structure prediction by ZEFSAII (Michael W. Deem and Ramdas Pophale) SiO2 
 PCOD8073304
Probable space group: P 21/M
;
_chemical_formula_sum "Si O2"
_cell_formula_units_Z 32
_cell_length_a 21.028820
_cell_length_b 9.230104
_cell_length_c 21.048471
_cell_angle_alpha 90.000000
_cell_angle_beta 27.319197
_cell_angle_gamma 90.000000
_cell_volume 1875.015376
_symmetry_space_group_name_H-M "P 21/M"
_symmetry_group_IT_number 11
_symmetry_cell_setting 'monoclinic'
loop_
_space_group_symop_operation_xyz
x,y,z
-x,1/2+y,-z
-x,-y,-z
x,1/2-y,z
loop_
_atom_site_type_symbol
_atom_site_label
_atom_site_fract_x
_atom_site_fract_y
_atom_site_fract_z
Si Si1 0.220723 0.415675 0.448776
Si Si2 0.670472 0.581016 0.904822
Si Si3 0.061799 0.421337 0.884518
Si Si4 0.014166 0.582710 0.805704
Si Si5 0.726713 0.912952 0.460937
Si Si6 0.379022 0.086614 0.574438
Si Si7 0.945999 0.918423 0.729071
Si Si8 0.599487 0.919580 0.826295
O O1 0.183005 0.250000 0.467653
O O2 0.318838 0.427574 0.424995
O O3 0.303715 0.482096 0.315725
O O4 0.077203 0.496963 0.585858
O O5 0.647623 0.750000 0.937585
O O6 0.813149 0.525662 0.808518
O O7 0.673671 0.544935 0.827124
O O8 0.547227 0.497745 0.048910
O O9 0.038995 0.250000 0.909966
O O10 0.975809 0.482181 0.899971
O O11 0.224376 0.462888 0.732767
O O12 0.000000 0.500000 0.000000
O O13 0.010383 0.750000 0.830445
O O14 0.166414 0.540976 0.646814
O O15 0.917041 0.554548 0.830202
O O16 0.792034 0.750000 0.392119
O O17 0.604624 0.930923 0.517046
O O18 0.401651 0.250000 0.576224
O O19 0.500000 0.000000 0.500000
O O20 0.974538 0.750000 0.691149
O O21 0.572579 0.750000 0.841383
#
# Coordination Sequence:
#
# PCOD8073304 Si02
#       8
#     4   4   4   4   4   4   4   4
#     4   9  17  30  49  71  94 119 152 196 238 276
#     4   9  18  33  49  66  94 129 159 191 235 284
#     4  10  20  34  51  72  97 126 159 195 235 279
#     4   9  16  28  47  69  93 123 157 192 232 279
#     4   8  15  29  46  65  92 123 153 189 234 280
#     4   9  18  31  48  69  93 121 153 188 228 275
#     4   9  18  31  48  71  97 123 154 193 236 282
#     4   9  18  32  49  69  93 124 161 196 233 281
#
# _framework density 17.066526
#
# number of rings (size 3 to 8) (size 9 to 14) (size 15 to 20)
#    0.000    3.000    0.000    1.500    0.000    4.500 
#    0.000    1.250    0.000    3.000    0.000    0.000 
#    0.000    0.000    0.000    0.000    0.000    0.000 
#
# Total GULP energy -396528.264740 kJ/mol
# GULP energy per Si atom -12391.508273 kJ/mol
# Density = 1.702768 g / cm^3
# Si number density = 17.066526 Si / 1000 Ang^3
#
#
#
# Elastic Constant Matrix: (Units=GPa)
#
#
# Indices 1 2 3 4 5 6 
#
# 1 139.7523 51.8131 79.8838 0.0000 2.7593 0.0000
# 2 51.8131 62.0528 45.7180 0.0000 3.3427 0.0000
# 3 79.8838 45.7180 99.0355 0.0000 12.9482 0.0000
# 4 0.0000 0.0000 0.0000 27.9156 0.0000 -0.5615
# 5 2.7593 3.3427 12.9482 0.0000 27.9282 0.0000
# 6 0.0000 0.0000 0.0000 -0.5615 0.0000 26.1064
#
#
#
# Elastic Compliance Matrix: (Units=1/GPa)
#
#
# Indices 1 2 3 4 5 6 
#
# 1 0.014677 -0.005110 -0.009975 0.000000 0.003786 0.000000
# 2 -0.005110 0.026359 -0.008197 0.000000 0.001150 0.000000
# 3 -0.009975 -0.008197 0.023068 0.000000 -0.008729 0.000000
# 4 0.000000 0.000000 0.000000 0.035838 0.000000 0.000771
# 5 0.003786 0.001150 -0.008729 0.000000 0.039341 0.000000
# 6 0.000000 0.000000 0.000000 0.000771 0.000000 0.038321
#
#
# Mechanical properties :
#
#
# Convention : Reuss Voigt Hill
#
# Bulk Modulus (GPa) = 57.00828 72.85226 64.93027
# Shear Modulus (GPa) = 21.73769 24.61840 23.17805
#
# Velocity S-wave (km/s) = 3.57277 3.80214 3.68924
# Velocity P-wave (km/s) = 7.10603 7.87750 7.50169
#
# Compressibility (1/GPa) = 0.01754131
#
# Stress axis : x y z
#
# Youngs Moduli (GPa) = 68.13401 37.93738 43.34949
#
# Poissons Ratio (x) = 0.19386 0.43240
# Poissons Ratio (y) = 0.34816 0.35533
# Poissons Ratio (z) = 0.67962 0.31097
#
# Static dielectric constant tensor:
#      x y z
#    x 3.529680 0.000000 0.207690 
#    y 0.000000 3.193500 0.000000 
#    z 0.207690 0.000000 2.957420 
# 
# 
# High freq. dielectric constant tensor:
#      x y z
#    x 1.671460 0.000000 0.017250 
#    y 0.000000 1.661280 0.000000 
#    z 0.017250 0.000000 1.622560 
# 
# From -- ./inp_files/66408.got.cif
#   From: 2010.06.25/outbox.cif.g09.slc.cpg/sg11_34_cif.got.tgz:66408.got - 2010.06.27 23:14:04.
