data_PCOD8073282
_publ_section_title
;
Structure prediction by ZEFSAII (Michael W. Deem and Ramdas Pophale) SiO2 
 PCOD8073282
Probable space group: P 21/M
;
_chemical_formula_sum "Si O2"
_cell_formula_units_Z 20
_cell_length_a 11.959767
_cell_length_b 9.804064
_cell_length_c 11.959769
_cell_angle_alpha 90.000000
_cell_angle_beta 62.091778
_cell_angle_gamma 90.000000
_cell_volume 1239.240939
_symmetry_space_group_name_H-M "P 21/M"
_symmetry_group_IT_number 11
_symmetry_cell_setting 'monoclinic'
loop_
_space_group_symop_operation_xyz
x,y,z
-x,1/2+y,-z
-x,-y,-z
x,1/2-y,z
loop_
_atom_site_type_symbol
_atom_site_label
_atom_site_fract_x
_atom_site_fract_y
_atom_site_fract_z
Si Si1 0.969865 0.906832 0.851620
Si Si2 0.429145 0.906414 0.683556
Si Si3 0.936508 0.408716 0.436508
Si Si4 0.816444 0.406414 0.070855
Si Si5 0.648380 0.406832 0.530135
O O1 0.929226 0.750000 0.882645
O O2 0.998365 0.945643 0.711134
O O3 0.095275 0.937992 0.864186
O O4 0.853711 0.998842 0.949078
O O5 0.473643 0.750000 0.668734
O O6 0.327409 0.939061 0.827409
O O7 0.364186 0.937992 0.595275
O O8 0.550922 0.001158 0.646289
O O9 0.955859 0.250000 0.455859
O O10 0.788866 0.445643 0.501636
O O11 0.000000 0.500000 0.500000
O O12 0.831266 0.250000 0.026357
O O13 0.617354 0.250000 0.570774
#
# Coordination Sequence:
#
# PCOD8073282 Si02
#       5
#     4   4   4   4   4
#     4   9  17  30  46  67  96 126 155 189 235 281
#     4   9  16  28  47  70  97 124 150 189 237 283
#     4  10  20  34  50  68  96 130 161 196 233 274
#     4   9  16  28  47  70  97 124 150 189 237 283
#     4   9  17  30  46  67  96 126 155 189 235 281
#
# _framework density 16.138912000000001
#
# number of rings (size 3 to 8) (size 9 to 14) (size 15 to 20)
#    0.000    2.800    2.000    0.000    0.000    2.400 
#    0.000    0.000    0.000    1.200    0.000    0.000 
#    0.000    0.000    0.000    0.000    0.000    0.000 
#
# Total GULP energy -248003.432726 kJ/mol
# GULP energy per Si atom -12400.171636 kJ/mol
# Density = 1.610218 g / cm^3
# Si number density = 16.138912 Si / 1000 Ang^3
#
#
#
# Elastic Constant Matrix: (Units=GPa)
#
#
# Indices 1 2 3 4 5 6 
#
# 1 91.5960 65.0050 61.3077 0.0000 -13.8598 0.0000
# 2 65.0050 92.2477 76.9150 0.0000 -16.3612 0.0000
# 3 61.3077 76.9150 115.0637 0.0000 -18.3783 0.0000
# 4 0.0000 0.0000 0.0000 33.4103 0.0000 -4.4017
# 5 -13.8598 -16.3612 -18.3783 0.0000 26.3961 0.0000
# 6 0.0000 0.0000 0.0000 -4.4017 0.0000 30.2061
#
#
#
# Elastic Compliance Matrix: (Units=1/GPa)
#
#
# Indices 1 2 3 4 5 6 
#
# 1 0.022384 -0.013007 -0.002973 0.000000 0.001621 0.000000
# 2 -0.013007 0.032480 -0.014240 0.000000 0.003388 0.000000
# 3 -0.002973 -0.014240 0.020404 0.000000 0.003819 0.000000
# 4 0.000000 0.000000 0.000000 0.030517 0.000000 0.004447
# 5 0.001621 0.003388 0.003819 0.000000 0.043494 0.000000
# 6 0.000000 0.000000 0.000000 0.004447 0.000000 0.033754
#
#
# Mechanical properties :
#
#
# Convention : Reuss Voigt Hill
#
# Bulk Modulus (GPa) = 67.44205 78.37363 72.90784
# Shear Modulus (GPa) = 20.12760 24.38115 22.25437
#
# Velocity S-wave (km/s) = 3.53533 3.89100 3.71742
# Velocity P-wave (km/s) = 7.65140 8.29782 7.98116
#
# Compressibility (1/GPa) = 0.01482754
#
# Stress axis : x y z
#
# Youngs Moduli (GPa) = 44.67566 30.78776 49.01095
#
# Poissons Ratio (x) = 0.40046 0.14570
# Poissons Ratio (y) = 0.58110 0.69793
# Poissons Ratio (z) = 0.13281 0.43842
#
# Static dielectric constant tensor:
#      x y z
#    x 2.863200 0.000000 -0.236700 
#    y 0.000000 3.089110 0.000000 
#    z -0.236700 0.000000 3.035510 
# 
# 
# High freq. dielectric constant tensor:
#      x y z
#    x 1.595720 0.000000 -0.022270 
#    y 0.000000 1.623010 0.000000 
#    z -0.022270 0.000000 1.611930 
# 
# From -- ./inp_files/16525.got.cif
#   From: 2010.06.25/outbox.cif.g09.slc.cpg/sg11_9_cif.got.tgz:16525.got - 2010.06.27 23:14:04.
