data_PCOD8073301
_publ_section_title
;
Structure prediction by ZEFSAII (Michael W. Deem and Ramdas Pophale) SiO2 
 PCOD8073301
Probable space group: P 21/M
;
_chemical_formula_sum "Si O2"
_cell_formula_units_Z 28
_cell_length_a 21.459522
_cell_length_b 10.039692
_cell_length_c 16.240396
_cell_angle_alpha 90.000000
_cell_angle_beta 26.342896
_cell_angle_gamma 90.000000
_cell_volume 1552.629468
_symmetry_space_group_name_H-M "P 21/M"
_symmetry_group_IT_number 11
_symmetry_cell_setting 'monoclinic'
loop_
_space_group_symop_operation_xyz
x,y,z
-x,1/2+y,-z
-x,-y,-z
x,1/2-y,z
loop_
_atom_site_type_symbol
_atom_site_label
_atom_site_fract_x
_atom_site_fract_y
_atom_site_fract_z
Si Si1 0.971287 0.402365 0.459604
Si Si2 0.754040 0.092497 0.466490
Si Si3 0.661273 0.392170 0.858056
Si Si4 0.684028 0.904264 0.226233
Si Si5 0.630992 0.403874 0.437850
Si Si6 0.508309 0.396480 0.872596
Si Si7 0.956241 0.907642 0.804608
O O1 0.016110 0.250000 0.427709
O O2 0.806119 0.414456 0.638671
O O3 0.000000 0.500000 0.500000
O O4 0.046025 0.454675 0.287864
O O5 0.757509 0.250000 0.472155
O O6 0.711369 0.051080 0.424908
O O7 0.633899 0.038770 0.670560
O O8 0.907570 0.032862 0.308048
O O9 0.664839 0.250000 0.901142
O O10 0.546104 0.384015 0.923306
O O11 0.625976 0.504286 0.968851
O O12 0.704546 0.750000 0.228905
O O13 0.537042 0.921689 0.351759
O O14 0.688437 0.998444 0.300150
O O15 0.811125 0.953902 0.017924
O O16 0.664908 0.250000 0.374999
O O17 0.464865 0.250000 0.889279
O O18 0.969616 0.750000 0.790110
#
# Coordination Sequence:
#
# PCOD8073301 Si02
#       7
#     4   4   4   4   4   4   4
#     4  10  20  34  51  71  99 133 168 206 249 294
#     4   9  16  29  51  76  99 127 166 206 243 288
#     4   9  17  30  46  67  96 127 159 198 247 289
#     4   9  18  33  52  73  98 129 164 198 241 297
#     4   9  18  32  51  75 100 125 159 204 246 289
#     4   9  16  28  49  71  92 123 162 200 239 286
#     4   9  17  32  53  73  97 131 166 202 245 294
#
# _framework density 18.033923000000001
#
# number of rings (size 3 to 8) (size 9 to 14) (size 15 to 20)
#    0.000    2.857    1.429    0.000    0.000    2.286 
#    0.000    4.286    0.000    5.143    0.000    0.000 
#    0.000    0.000    0.000    0.000    0.000    0.000 
#
# Total GULP energy -346960.684383 kJ/mol
# GULP energy per Si atom -12391.453014 kJ/mol
# Density = 1.799288 g / cm^3
# Si number density = 18.033923 Si / 1000 Ang^3
#
#
#
# Elastic Constant Matrix: (Units=GPa)
#
#
# Indices 1 2 3 4 5 6 
#
# 1 93.2105 36.6454 46.9644 0.0000 13.6864 0.0000
# 2 36.6454 68.6587 55.4062 0.0000 8.1916 0.0000
# 3 46.9644 55.4062 146.0143 0.0000 14.3465 0.0000
# 4 0.0000 0.0000 0.0000 25.9460 0.0000 2.3706
# 5 13.6864 8.1916 14.3465 0.0000 15.2732 0.0000
# 6 0.0000 0.0000 0.0000 2.3706 0.0000 19.2507
#
#
#
# Elastic Compliance Matrix: (Units=1/GPa)
#
#
# Indices 1 2 3 4 5 6 
#
# 1 0.015149 -0.005477 -0.001927 0.000000 -0.008827 0.000000
# 2 -0.005477 0.023216 -0.006948 0.000000 -0.001017 0.000000
# 3 -0.001927 -0.006948 0.010542 0.000000 -0.004449 0.000000
# 4 0.000000 0.000000 0.000000 0.038980 0.000000 -0.004800
# 5 -0.008827 -0.001017 -0.004449 0.000000 0.078109 0.000000
# 6 0.000000 0.000000 0.000000 -0.004800 0.000000 0.052537
#
#
# Mechanical properties :
#
#
# Convention : Reuss Voigt Hill
#
# Bulk Modulus (GPa) = 49.49743 65.10172 57.29958
# Shear Modulus (GPa) = 19.68717 23.35181 21.51949
#
# Velocity S-wave (km/s) = 3.30763 3.60235 3.45813
# Velocity P-wave (km/s) = 6.48796 7.31304 6.91282
#
# Compressibility (1/GPa) = 0.02020307
#
# Stress axis : x y z
#
# Youngs Moduli (GPa) = 66.01212 43.07284 94.85882
#
# Poissons Ratio (x) = 0.23593 0.18277
# Poissons Ratio (y) = 0.36157 0.65908
# Poissons Ratio (z) = 0.12719 0.29927
#
# Static dielectric constant tensor:
#      x y z
#    x 3.231060 0.000000 -0.172870 
#    y 0.000000 3.420580 0.000000 
#    z -0.172870 0.000000 3.603420 
# 
# 
# High freq. dielectric constant tensor:
#      x y z
#    x 1.681790 0.000000 -0.004750 
#    y 0.000000 1.668890 0.000000 
#    z -0.004750 0.000000 1.703590 
# 
# From -- ./inp_files/46920.got.cif
#   From: 2010.06.25/outbox.cif.g09.slc.cpg/sg11_24_cif.got.tgz:46920.got - 2010.06.27 23:14:04.
