data_PCOD8073636
_publ_section_title
;
Structure prediction by ZEFSAII (Michael W. Deem and Ramdas Pophale) SiO2 
 PCOD8073636
Probable space group: P 21/M
;
_chemical_formula_sum "Si O2"
_cell_formula_units_Z 28
_cell_length_a 19.319260
_cell_length_b 9.062526
_cell_length_c 14.114625
_cell_angle_alpha 90.000000
_cell_angle_beta 145.492352
_cell_angle_gamma 90.000000
_cell_volume 1399.978803
_symmetry_space_group_name_H-M "P 21/M"
_symmetry_group_IT_number 11
_symmetry_cell_setting 'monoclinic'
loop_
_space_group_symop_operation_xyz
x,y,z
-x,1/2+y,-z
-x,-y,-z
x,1/2-y,z
loop_
_atom_site_type_symbol
_atom_site_label
_atom_site_fract_x
_atom_site_fract_y
_atom_site_fract_z
Si Si1 0.044951 0.419014 0.776982
Si Si2 0.483275 0.924097 0.380173
Si Si3 0.614145 0.923997 0.078975
Si Si4 0.211683 0.923017 0.591385
Si Si5 0.704208 0.582288 0.494761
Si Si6 0.969528 0.916738 0.871417
Si Si7 0.682367 0.919503 0.947806
O O1 0.027568 0.250000 0.788565
O O2 0.931737 0.463920 0.581335
O O3 0.046058 0.515590 0.872194
O O4 0.173470 0.446024 0.869817
O O5 0.474329 0.750000 0.385781
O O6 0.595897 0.969893 0.440607
O O7 0.500000 0.000000 0.500000
O O8 0.361967 0.981060 0.189935
O O9 0.610009 0.750000 0.092373
O O10 0.739476 0.989440 0.262628
O O11 0.611471 0.961208 0.964264
O O12 0.500000 0.000000 0.000000
O O13 0.233629 0.750000 0.630550
O O14 0.289319 0.974171 0.587554
O O15 0.684214 0.750000 0.436002
O O16 0.825864 0.569827 0.693261
O O17 0.012986 0.750000 0.931509
O O18 0.000000 0.000000 0.000000
O O19 0.658697 0.750000 0.893299
#
# Coordination Sequence:
#
# PCOD8073636 Si02
#       7
#     4   4   4   4   4   4   4
#     4   9  20  39  59  82 117 156 194 240 293 347
#     4  11  24  40  59  84 114 153 195 240 294 351
#     4  11  23  39  62  90 120 157 197 242 293 348
#     4  10  20  36  61  90 118 151 192 240 292 347
#     4   9  20  38  57  79 112 151 191 236 288 345
#     4  10  20  34  55  83 112 148 192 239 290 346
#     4  10  23  42  61  84 118 157 197 243 294 348
#
# _framework density 20.000302999999999
#
# number of rings (size 3 to 8) (size 9 to 14) (size 15 to 20)
#    0.000    2.000    0.000    2.571    2.000    6.857 
#    0.000    0.000    0.000    0.000    0.000    0.000 
#    0.000    0.000    0.000    0.000    0.000    0.000 
#
# Total GULP energy -347282.965320 kJ/mol
# GULP energy per Si atom -12402.963047 kJ/mol
# Density = 1.995478 g / cm^3
# Si number density = 20.000303 Si / 1000 Ang^3
#
#
#
# Elastic Constant Matrix: (Units=GPa)
#
#
# Indices 1 2 3 4 5 6 
#
# 1 86.7688 46.0144 52.7872 0.0000 2.2333 0.0000
# 2 46.0144 101.7365 50.8241 0.0000 -11.7971 0.0000
# 3 52.7872 50.8241 101.9737 0.0000 -11.6450 0.0000
# 4 0.0000 0.0000 0.0000 38.4279 0.0000 -4.0525
# 5 2.2333 -11.7971 -11.6450 0.0000 35.3566 0.0000
# 6 0.0000 0.0000 0.0000 -4.0525 0.0000 31.7909
#
#
#
# Elastic Compliance Matrix: (Units=1/GPa)
#
#
# Indices 1 2 3 4 5 6 
#
# 1 0.019419 -0.005453 -0.007983 0.000000 -0.005675 0.000000
# 2 -0.005453 0.014803 -0.004106 0.000000 0.003931 0.000000
# 3 -0.007983 -0.004106 0.016507 0.000000 0.004571 0.000000
# 4 0.000000 0.000000 0.000000 0.026377 0.000000 0.003362
# 5 -0.005675 0.003931 0.004571 0.000000 0.031459 0.000000
# 6 0.000000 0.000000 0.000000 0.003362 0.000000 0.031884
#
#
# Mechanical properties :
#
#
# Convention : Reuss Voigt Hill
#
# Bulk Modulus (GPa) = 63.91641 65.52561 64.72101
# Shear Modulus (GPa) = 27.66271 30.50529 29.08400
#
# Velocity S-wave (km/s) = 3.72306 3.90967 3.81751
# Velocity P-wave (km/s) = 7.10694 7.29480 7.20149
#
# Compressibility (1/GPa) = 0.01564543
#
# Stress axis : x y z
#
# Youngs Moduli (GPa) = 51.49516 67.55452 60.58014
#
# Poissons Ratio (x) = 0.36840 0.48359
# Poissons Ratio (y) = 0.28082 0.24873
# Poissons Ratio (z) = 0.41106 0.27737
#
# Static dielectric constant tensor:
#      x y z
#    x 3.536070 0.000000 0.138020 
#    y 0.000000 3.702700 0.000000 
#    z 0.138020 0.000000 3.837430 
# 
# 
# High freq. dielectric constant tensor:
#      x y z
#    x 1.774440 0.000000 0.003000 
#    y 0.000000 1.786260 0.000000 
#    z 0.003000 0.000000 1.790130 
# 
# From -- ./inp_files/54515.got.cif
#   From: 2010.06.25/outbox.cif.g09.slc.cpg/sg11_28_cif.got.tgz:54515.got - 2010.06.27 23:14:04.
