data_PCOD8073923
_publ_section_title
;
Structure prediction by ZEFSAII (Michael W. Deem and Ramdas Pophale) SiO2 
 PCOD8073923
Probable space group: P 21/M
;
_chemical_formula_sum "Si O2"
_cell_formula_units_Z 32
_cell_length_a 10.569331
_cell_length_b 9.692305
_cell_length_c 18.144314
_cell_angle_alpha 90.000000
_cell_angle_beta 57.812670
_cell_angle_gamma 90.000000
_cell_volume 1573.059322
_symmetry_space_group_name_H-M "P 21/M"
_symmetry_group_IT_number 11
_symmetry_cell_setting 'monoclinic'
loop_
_space_group_symop_operation_xyz
x,y,z
-x,1/2+y,-z
-x,-y,-z
x,1/2-y,z
loop_
_atom_site_type_symbol
_atom_site_label
_atom_site_fract_x
_atom_site_fract_y
_atom_site_fract_z
Si Si1 0.730580 0.090677 0.265013
Si Si2 0.987817 0.913058 0.231805
Si Si3 0.546207 0.902506 0.088553
Si Si4 0.715460 0.099522 0.943815
Si Si5 0.251017 0.483423 0.418035
Si Si6 0.484112 0.102537 0.230747
Si Si7 0.008310 0.403090 0.603857
Si Si8 0.508721 0.908048 0.425724
O O1 0.740460 0.250000 0.292353
O O2 0.652686 0.092619 0.209517
O O3 0.639222 0.983924 0.342628
O O4 0.890453 0.015479 0.210799
O O5 0.944453 0.750000 0.237750
O O6 0.154370 0.943335 0.152299
O O7 0.972694 0.970024 0.320928
O O8 0.597365 0.750000 0.098836
O O9 0.435748 0.889203 0.055063
O O10 0.458913 0.977191 0.182665
O O11 0.691687 0.990030 0.017520
O O12 0.750144 0.250000 0.968246
O O13 0.366050 0.392357 0.335006
O O14 0.127049 0.534777 0.400081
O O15 0.352521 0.597552 0.428145
O O16 0.163475 0.403412 0.510175
O O17 0.466268 0.250000 0.194832
O O18 0.956892 0.250000 0.636569
O O19 0.553761 0.750000 0.429987
O O20 0.500000 0.000000 0.500000
#
# Coordination Sequence:
#
# PCOD8073923 Si02
#       8
#     4   4   4   4   4   4   4   4
#     4  10  22  38  55  78 109 144 185 230 274 325
#     4  10  20  36  59  83 110 147 184 223 276 329
#     4  10  20  35  59  88 112 141 183 228 276 331
#     4   9  19  36  57  84 117 147 178 223 279 335
#     4  10  21  35  54  81 112 149 188 224 269 328
#     4  10  21  37  56  79 111 149 185 228 279 326
#     4  10  20  35  54  79 113 147 181 224 272 325
#     4  11  22  36  56  79 106 144 189 235 279 325
#
# _framework density 20.342525999999999
#
# number of rings (size 3 to 8) (size 9 to 14) (size 15 to 20)
#    0.000    2.000    0.000    3.375    0.000    7.500 
#    0.000    5.000    0.000    0.000    0.000    0.000 
#    0.000    0.000    0.000    0.000    0.000    0.000 
#
# Total GULP energy -396452.425900 kJ/mol
# GULP energy per Si atom -12389.138309 kJ/mol
# Density = 2.029623 g / cm^3
# Si number density = 20.342526 Si / 1000 Ang^3
#
#
#
# Elastic Constant Matrix: (Units=GPa)
#
#
# Indices 1 2 3 4 5 6 
#
# 1 59.7048 28.7858 16.3765 0.0000 -12.7740 0.0000
# 2 28.7858 151.2744 47.1363 0.0000 -2.9435 0.0000
# 3 16.3765 47.1363 98.0188 0.0000 -10.5220 0.0000
# 4 0.0000 0.0000 0.0000 28.9138 0.0000 4.4969
# 5 -12.7740 -2.9435 -10.5220 0.0000 20.2673 0.0000
# 6 0.0000 0.0000 0.0000 4.4969 0.0000 20.4314
#
#
#
# Elastic Compliance Matrix: (Units=1/GPa)
#
#
# Indices 1 2 3 4 5 6 
#
# 1 0.021362 -0.003682 -0.000435 0.000000 0.012703 0.000000
# 2 -0.003682 0.008425 -0.003764 0.000000 -0.003051 0.000000
# 3 -0.000435 -0.003764 0.012705 0.000000 0.005775 0.000000
# 4 0.000000 0.000000 0.000000 0.035811 0.000000 -0.007882
# 5 0.012703 -0.003051 0.005775 0.000000 0.059902 0.000000
# 6 0.000000 0.000000 0.000000 -0.007882 0.000000 0.050679
#
#
# Mechanical properties :
#
#
# Convention : Reuss Voigt Hill
#
# Bulk Modulus (GPa) = 37.41147 54.84393 46.12770
# Shear Modulus (GPa) = 23.41326 28.36913 25.89119
#
# Velocity S-wave (km/s) = 3.39625 3.73845 3.57145
# Velocity P-wave (km/s) = 5.81464 6.75673 6.30331
#
# Compressibility (1/GPa) = 0.02672977
#
# Stress axis : x y z
#
# Youngs Moduli (GPa) = 46.81316 118.70070 78.71180
#
# Poissons Ratio (x) = 0.43709 0.03420
# Poissons Ratio (y) = 0.17238 0.29624
# Poissons Ratio (z) = 0.02034 0.44674
#
# Static dielectric constant tensor:
#      x y z
#    x 3.730320 0.000000 -0.042130 
#    y 0.000000 3.888320 0.000000 
#    z -0.042130 0.000000 3.227140 
# 
# 
# High freq. dielectric constant tensor:
#      x y z
#    x 1.783310 0.000000 -0.004880 
#    y 0.000000 1.795390 0.000000 
#    z -0.004880 0.000000 1.789850 
# 
# From -- ./inp_files/64188.got.cif
#   From: 2010.06.25/outbox.cif.g09.slc.cpg/sg11_33_cif.got.tgz:64188.got - 2010.06.27 23:14:04.
