data_PCOD8073878
_publ_section_title
;
Structure prediction by ZEFSAII (Michael W. Deem and Ramdas Pophale) SiO2 
 PCOD8073878
Probable space group: P 21/M
;
_chemical_formula_sum "Si O2"
_cell_formula_units_Z 28
_cell_length_a 15.103525
_cell_length_b 12.781276
_cell_length_c 9.235364
_cell_angle_alpha 90.000000
_cell_angle_beta 60.815377
_cell_angle_gamma 90.000000
_cell_volume 1556.492910
_symmetry_space_group_name_H-M "P 21/M"
_symmetry_group_IT_number 11
_symmetry_cell_setting 'monoclinic'
loop_
_space_group_symop_operation_xyz
x,y,z
-x,1/2+y,-z
-x,-y,-z
x,1/2-y,z
loop_
_atom_site_type_symbol
_atom_site_label
_atom_site_fract_x
_atom_site_fract_y
_atom_site_fract_z
Si Si1 0.760929 0.369582 0.974750
Si Si2 0.048190 0.969075 0.612868
Si Si3 0.632142 0.501806 0.533282
Si Si4 0.089445 0.462030 0.027640
Si Si5 0.173679 0.369243 0.693599
Si Si6 0.754823 0.370094 0.647863
Si Si7 0.432885 0.870791 0.684635
O O1 0.797724 0.250000 0.963035
O O2 0.836661 0.440450 0.005225
O O3 0.764810 0.405431 0.805532
O O4 0.646952 0.383209 0.122270
O O5 0.137949 0.885777 0.519224
O O6 0.959017 0.918299 0.783860
O O7 0.091604 0.071765 0.658736
O O8 0.000000 0.000000 0.500000
O O9 0.714926 0.584578 0.415392
O O10 0.667830 0.441318 0.647906
O O11 0.614155 0.415418 0.424980
O O12 0.531142 0.564523 0.653956
O O13 0.148509 0.375125 0.886111
O O14 0.000000 0.500000 0.000000
O O15 0.173135 0.250000 0.643211
O O16 0.722035 0.250000 0.660681
O O17 0.461545 0.750000 0.635721
#
# Coordination Sequence:
#
# PCOD8073878 Si02
#       7
#     4   4   4   4   4   4   4
#     4  10  20  36  58  82 109 143 182 223 273 328
#     4  10  20  35  56  80 111 142 184 232 271 321
#     4  10  20  36  57  83 110 141 178 231 271 322
#     4  10  20  35  53  80 111 146 183 225 271 321
#     4  10  21  36  54  77 110 148 179 220 276 329
#     4  10  21  36  56  82 111 145 183 225 274 328
#     4  10  20  35  59  84 107 141 183 223 274 327
#
# _framework density 17.989159999999998
#
# number of rings (size 3 to 8) (size 9 to 14) (size 15 to 20)
#    0.000    2.000    2.857    0.857    0.000    4.000 
#    0.000    0.000    0.000    0.000    0.000    0.000 
#    0.000    0.000    0.000    0.000    0.000    0.000 
#
# Total GULP energy -347186.751214 kJ/mol
# GULP energy per Si atom -12399.526829 kJ/mol
# Density = 1.794822 g / cm^3
# Si number density = 17.989160 Si / 1000 Ang^3
#
#
#
# Elastic Constant Matrix: (Units=GPa)
#
#
# Indices 1 2 3 4 5 6 
#
# 1 95.4074 43.3038 37.4776 0.0000 3.1052 0.0000
# 2 43.3038 95.4382 36.5319 0.0000 2.6595 0.0000
# 3 37.4776 36.5319 103.6296 0.0000 1.8757 0.0000
# 4 0.0000 0.0000 0.0000 24.6827 0.0000 2.6728
# 5 3.1052 2.6595 1.8757 0.0000 24.9850 0.0000
# 6 0.0000 0.0000 0.0000 2.6728 0.0000 21.4086
#
#
#
# Elastic Compliance Matrix: (Units=1/GPa)
#
#
# Indices 1 2 3 4 5 6 
#
# 1 0.014130 -0.005127 -0.003285 0.000000 -0.000964 0.000000
# 2 -0.005127 0.013996 -0.003069 0.000000 -0.000622 0.000000
# 3 -0.003285 -0.003069 0.011923 0.000000 -0.000160 0.000000
# 4 0.000000 0.000000 0.000000 0.041069 0.000000 -0.005127
# 5 -0.000964 -0.000622 -0.000160 0.000000 0.040222 0.000000
# 6 0.000000 0.000000 0.000000 -0.005127 0.000000 0.047350
#
#
# Mechanical properties :
#
#
# Convention : Reuss Voigt Hill
#
# Bulk Modulus (GPa) = 58.52336 58.78909 58.65623
# Shear Modulus (GPa) = 25.33589 26.02606 25.68097
#
# Velocity S-wave (km/s) = 3.75693 3.80776 3.78243
# Velocity P-wave (km/s) = 7.17096 7.21688 7.19395
#
# Compressibility (1/GPa) = 0.01708719
#
# Stress axis : x y z
#
# Youngs Moduli (GPa) = 70.76965 71.44788 83.87462
#
# Poissons Ratio (x) = 0.36631 0.27556
# Poissons Ratio (y) = 0.36284 0.25737
# Poissons Ratio (z) = 0.23251 0.21924
#
# Static dielectric constant tensor:
#      x y z
#    x 3.259540 0.000000 0.006680 
#    y 0.000000 3.162550 0.000000 
#    z 0.006680 0.000000 3.701680 
# 
# 
# High freq. dielectric constant tensor:
#      x y z
#    x 1.699250 0.000000 -0.003680 
#    y 0.000000 1.684310 0.000000 
#    z -0.003680 0.000000 1.708920 
# 
# From -- ./inp_files/21164.got.cif
#   From: 2010.06.25/outbox.cif.g09.slc.cpg/sg11_11_cif.got.tgz:21164.got - 2010.06.27 23:14:04.
