data_PCOD8073622
_publ_section_title
;
Structure prediction by ZEFSAII (Michael W. Deem and Ramdas Pophale) SiO2 
 PCOD8073622
Probable space group: P 21/M
;
_chemical_formula_sum "Si O2"
_cell_formula_units_Z 28
_cell_length_a 29.301792
_cell_length_b 8.810850
_cell_length_c 9.329710
_cell_angle_alpha 90.000000
_cell_angle_beta 37.255492
_cell_angle_gamma 90.000000
_cell_volume 1458.146745
_symmetry_space_group_name_H-M "P 21/M"
_symmetry_group_IT_number 11
_symmetry_cell_setting 'monoclinic'
loop_
_space_group_symop_operation_xyz
x,y,z
-x,1/2+y,-z
-x,-y,-z
x,1/2-y,z
loop_
_atom_site_type_symbol
_atom_site_label
_atom_site_fract_x
_atom_site_fract_y
_atom_site_fract_z
Si Si1 0.865462 0.570372 0.678428
Si Si2 0.141193 0.070230 0.979633
Si Si3 0.993219 0.430427 0.860090
Si Si4 0.437654 0.074348 0.752066
Si Si5 0.440563 0.924350 0.046534
Si Si6 0.730990 0.075397 0.508990
Si Si7 0.268862 0.072029 0.184700
O O1 0.865198 0.750000 0.684368
O O2 0.789977 0.513181 0.787284
O O3 0.937585 0.510593 0.410435
O O4 0.868082 0.508566 0.834562
O O5 0.129198 0.250000 0.000301
O O6 0.223918 0.026327 0.717355
O O7 0.082787 0.986303 0.023117
O O8 0.993093 0.250000 0.873593
O O9 0.000000 0.500000 0.000000
O O10 0.454279 0.250000 0.710586
O O11 0.500000 0.000000 0.500000
O O12 0.352297 0.038719 0.913367
O O13 0.448484 0.013489 0.881778
O O14 0.461533 0.750000 0.968709
O O15 0.356144 0.941957 0.318329
O O16 0.500000 0.000000 0.000000
O O17 0.757143 0.250000 0.435041
O O18 0.745985 0.018558 0.632453
O O19 0.258167 0.250000 0.245730
#
# Coordination Sequence:
#
# PCOD8073622 Si02
#       7
#     4   4   4   4   4   4   4
#     4   9  20  37  57  81 109 141 182 228 273 322
#     4  11  22  37  57  82 113 149 184 223 272 327
#     4  11  22  38  60  85 112 144 183 228 275 329
#     4  10  20  34  55  82 113 148 188 234 284 336
#     4  10  21  37  57  81 112 147 187 235 287 342
#     4  10  21  37  56  82 112 144 184 231 278 328
#     4   9  18  36  59  81 106 143 188 231 276 332
#
# _framework density 19.202456999999999
#
# number of rings (size 3 to 8) (size 9 to 14) (size 15 to 20)
#    0.000    2.000    0.000    3.429    0.000    4.571 
#    0.000    5.714    0.000    0.000    0.000    0.000 
#    0.000    0.000    0.000    0.000    0.000    0.000 
#
# Total GULP energy -347236.510074 kJ/mol
# GULP energy per Si atom -12401.303931 kJ/mol
# Density = 1.915875 g / cm^3
# Si number density = 19.202457 Si / 1000 Ang^3
#
#
#
# Elastic Constant Matrix: (Units=GPa)
#
#
# Indices 1 2 3 4 5 6 
#
# 1 128.4975 35.3649 53.7883 0.0000 -3.7517 0.0000
# 2 35.3649 62.9684 51.9666 0.0000 4.2784 0.0000
# 3 53.7883 51.9666 141.9425 0.0000 3.8519 0.0000
# 4 0.0000 0.0000 0.0000 33.5369 0.0000 0.7431
# 5 -3.7517 4.2784 3.8519 0.0000 26.3243 0.0000
# 6 0.0000 0.0000 0.0000 0.7431 0.0000 29.7594
#
#
#
# Elastic Compliance Matrix: (Units=1/GPa)
#
#
# Indices 1 2 3 4 5 6 
#
# 1 0.009898 -0.003685 -0.002466 0.000000 0.002370 0.000000
# 2 -0.003685 0.024292 -0.007405 0.000000 -0.003390 0.000000
# 3 -0.002466 -0.007405 0.010710 0.000000 -0.000715 0.000000
# 4 0.000000 0.000000 0.000000 0.029834 0.000000 -0.000745
# 5 0.002370 -0.003390 -0.000715 0.000000 0.038981 0.000000
# 6 0.000000 0.000000 0.000000 -0.000745 0.000000 0.033621
#
#
# Mechanical properties :
#
#
# Convention : Reuss Voigt Hill
#
# Bulk Modulus (GPa) = 56.21776 68.40533 62.31155
# Shear Modulus (GPa) = 27.71944 30.74336 29.23140
#
# Velocity S-wave (km/s) = 3.80351 4.00561 3.90587
# Velocity P-wave (km/s) = 6.97344 7.55604 7.27058
#
# Compressibility (1/GPa) = 0.01778797
#
# Stress axis : x y z
#
# Youngs Moduli (GPa) = 101.03216 41.16535 93.36937
#
# Poissons Ratio (x) = 0.15169 0.23025
# Poissons Ratio (y) = 0.37229 0.69143
# Poissons Ratio (z) = 0.24915 0.30484
#
# Static dielectric constant tensor:
#      x y z
#    x 3.564630 0.000000 -0.014280 
#    y 0.000000 3.509150 0.000000 
#    z -0.014280 0.000000 3.728810 
# 
# 
# High freq. dielectric constant tensor:
#      x y z
#    x 1.752140 0.000000 -0.007190 
#    y 0.000000 1.745530 0.000000 
#    z -0.007190 0.000000 1.757670 
# 
# From -- ./inp_files/28457.got.cif
#   From: 2010.06.25/outbox.cif.g09.slc.cpg/sg11_15_cif.got.tgz:28457.got - 2010.06.27 23:14:04.
