data_PCOD8073037
_publ_section_title
;
Structure prediction by ZEFSAII (Michael W. Deem and Ramdas Pophale) SiO2 
 PCOD8073037
Probable space group: P 21/M
;
_chemical_formula_sum "Si O2"
_cell_formula_units_Z 28
_cell_length_a 15.831817
_cell_length_b 8.993244
_cell_length_c 12.513112
_cell_angle_alpha 90.000000
_cell_angle_beta 123.410641
_cell_angle_gamma 90.000000
_cell_volume 1487.190543
_symmetry_space_group_name_H-M "P 21/M"
_symmetry_group_IT_number 11
_symmetry_cell_setting 'monoclinic'
loop_
_space_group_symop_operation_xyz
x,y,z
-x,1/2+y,-z
-x,-y,-z
x,1/2-y,z
loop_
_atom_site_type_symbol
_atom_site_label
_atom_site_fract_x
_atom_site_fract_y
_atom_site_fract_z
Si Si1 0.961489 0.925880 0.579419
Si Si2 0.422323 0.076408 0.805922
Si Si3 0.013516 0.425439 0.825225
Si Si4 0.371961 0.077002 0.011444
Si Si5 0.735231 0.576023 0.479955
Si Si6 0.206374 0.924079 0.037028
Si Si7 0.213212 0.579482 0.279883
O O1 0.978134 0.750000 0.588385
O O2 0.844359 0.970141 0.511196
O O3 0.000000 0.000000 0.500000
O O4 0.026815 0.997396 0.719573
O O5 0.448889 0.250000 0.811581
O O6 0.348576 0.017179 0.661439
O O7 0.524284 0.982738 0.866221
O O8 0.368666 0.047577 0.882262
O O9 0.029902 0.250000 0.825553
O O10 0.098508 0.494312 0.960615
O O11 0.904541 0.467490 0.797574
O O12 0.361487 0.250000 0.031395
O O13 0.279047 0.989857 0.997866
O O14 0.724955 0.750000 0.484520
O O15 0.719161 0.509349 0.587214
O O16 0.190062 0.750000 0.004770
O O17 0.253250 0.951587 0.187930
O O18 0.224439 0.750000 0.319641
#
# Coordination Sequence:
#
# PCOD8073037 Si02
#       7
#     4   4   4   4   4   4   4
#     4  10  20  33  50  78 112 146 182 223 268 322
#     4   9  19  38  59  80 109 141 175 224 278 325
#     4  10  20  35  54  77 108 147 186 226 271 319
#     4  10  21  36  57  84 110 140 179 224 273 329
#     4   9  19  35  57  79 105 143 181 221 273 325
#     4  11  22  36  55  81 112 144 183 227 274 323
#     4   9  20  37  55  79 111 145 182 227 270 320
#
# _framework density 18.827446999999999
#
# number of rings (size 3 to 8) (size 9 to 14) (size 15 to 20)
#    0.000    2.286    0.000    2.143    2.000    3.429 
#    0.000    0.714    0.000    0.000    0.000    0.000 
#    0.000    0.000    0.000    0.000    0.000    0.000 
#
# Total GULP energy -347253.126402 kJ/mol
# GULP energy per Si atom -12401.897372 kJ/mol
# Density = 1.878460 g / cm^3
# Si number density = 18.827447 Si / 1000 Ang^3
#
#
#
# Elastic Constant Matrix: (Units=GPa)
#
#
# Indices 1 2 3 4 5 6 
#
# 1 46.4526 22.1478 23.9250 0.0000 -3.2408 0.0000
# 2 22.1478 69.7439 37.2153 0.0000 0.2704 0.0000
# 3 23.9250 37.2153 122.6273 0.0000 6.5471 0.0000
# 4 0.0000 0.0000 0.0000 35.5950 0.0000 -0.3399
# 5 -3.2408 0.2704 6.5471 0.0000 23.3029 0.0000
# 6 0.0000 0.0000 0.0000 -0.3399 0.0000 30.3165
#
#
#
# Elastic Compliance Matrix: (Units=1/GPa)
#
#
# Indices 1 2 3 4 5 6 
#
# 1 0.026834 -0.006694 -0.003459 0.000000 0.004781 0.000000
# 2 -0.006694 0.018816 -0.004409 0.000000 0.000089 0.000000
# 3 -0.003459 -0.004409 0.010346 0.000000 -0.003337 0.000000
# 4 0.000000 0.000000 0.000000 0.028097 0.000000 0.000315
# 5 0.004781 0.000089 -0.003337 0.000000 0.044514 0.000000
# 6 0.000000 0.000000 0.000000 0.000315 0.000000 0.032989
#
#
# Mechanical properties :
#
#
# Convention : Reuss Voigt Hill
#
# Bulk Modulus (GPa) = 37.21414 45.04443 41.12928
# Shear Modulus (GPa) = 25.04023 28.21195 26.62609
#
# Velocity S-wave (km/s) = 3.65085 3.87518 3.76469
# Velocity P-wave (km/s) = 6.13029 6.63321 6.38670
#
# Compressibility (1/GPa) = 0.02687151
#
# Stress axis : x y z
#
# Youngs Moduli (GPa) = 37.26588 53.14533 96.65637
#
# Poissons Ratio (x) = 0.35576 0.33435
# Poissons Ratio (y) = 0.24946 0.42617
# Poissons Ratio (z) = 0.12891 0.23433
#
# Static dielectric constant tensor:
#      x y z
#    x 3.298070 0.000000 -0.032160 
#    y 0.000000 3.485630 0.000000 
#    z -0.032160 0.000000 3.652540 
# 
# 
# High freq. dielectric constant tensor:
#      x y z
#    x 1.714790 0.000000 -0.008550 
#    y 0.000000 1.737150 0.000000 
#    z -0.008550 0.000000 1.738160 
# 
# From -- ./inp_files/37770.got.cif
#   From: 2010.06.25/outbox.cif.g09.slc.cpg/sg11_19_cif.got.tgz:37770.got - 2010.06.27 23:14:04.
