data_PCOD8073766
_publ_section_title
;
Structure prediction by ZEFSAII (Michael W. Deem and Ramdas Pophale) SiO2 
 PCOD8073766
Probable space group: P 21/M
;
_chemical_formula_sum "Si O2"
_cell_formula_units_Z 32
_cell_length_a 12.647010
_cell_length_b 9.068948
_cell_length_c 29.097063
_cell_angle_alpha 90.000000
_cell_angle_beta 152.229994
_cell_angle_gamma 90.000000
_cell_volume 1554.921781
_symmetry_space_group_name_H-M "P 21/M"
_symmetry_group_IT_number 11
_symmetry_cell_setting 'monoclinic'
loop_
_space_group_symop_operation_xyz
x,y,z
-x,1/2+y,-z
-x,-y,-z
x,1/2-y,z
loop_
_atom_site_type_symbol
_atom_site_label
_atom_site_fract_x
_atom_site_fract_y
_atom_site_fract_z
Si Si1 0.377231 0.910001 0.991111
Si Si2 0.801098 0.922166 0.639564
Si Si3 0.796134 0.577239 0.449570
Si Si4 0.211995 0.088305 0.784966
Si Si5 0.494860 0.922476 0.826091
Si Si6 0.339326 0.923634 0.507750
Si Si7 0.899621 0.921052 0.048365
Si Si8 0.584908 0.080752 0.770130
O O1 0.299105 0.750000 0.942334
O O2 0.554508 0.889683 0.099617
O O3 0.500000 0.000000 0.000000
O O4 0.161210 0.995037 0.928035
O O5 0.816904 0.750000 0.634442
O O6 0.608924 0.953261 0.603864
O O7 0.775087 0.011621 0.581890
O O8 0.038252 0.989885 0.749191
O O9 0.854317 0.750000 0.478040
O O10 0.757795 0.504283 0.484653
O O11 0.560248 0.556264 0.331652
O O12 0.000000 0.500000 0.500000
O O13 0.107872 0.250000 0.733724
O O14 0.274700 0.001261 0.762764
O O15 0.452838 0.750000 0.813284
O O16 0.489983 0.972332 0.771866
O O17 0.734065 0.965992 0.942483
O O18 0.288764 0.750000 0.492821
O O19 0.875022 0.750000 0.049897
O O20 0.155573 0.966724 0.136657
O O21 0.568941 0.250000 0.780756
#
# Coordination Sequence:
#
# PCOD8073766 Si02
#       8
#     4   4   4   4   4   4   4   4
#     4  10  21  36  55  81 114 153 190 231 284 341
#     4  10  21  38  63  92 118 150 193 244 298 352
#     4  11  25  43  62  85 118 159 202 249 300 358
#     4  10  21  36  56  83 116 153 193 235 286 347
#     4  10  20  34  57  87 118 151 192 242 288 342
#     4  10  22  41  63  87 118 152 192 245 301 356
#     4   9  19  37  58  83 115 149 190 239 288 345
#     4  10  22  39  59  83 113 154 195 236 295 352
#
# _framework density 20.579812
#
# number of rings (size 3 to 8) (size 9 to 14) (size 15 to 20)
#    0.000    2.000    0.000    2.625    1.750    6.000 
#    0.000    3.750    0.000    0.000    0.000    0.000 
#    0.000    0.000    0.000    0.000    0.000    0.000 
#
# Total GULP energy -396690.888782 kJ/mol
# GULP energy per Si atom -12396.590274 kJ/mol
# Density = 2.053297 g / cm^3
# Si number density = 20.579812 Si / 1000 Ang^3
#
#
#
# Elastic Constant Matrix: (Units=GPa)
#
#
# Indices 1 2 3 4 5 6 
#
# 1 130.6331 67.3598 11.0633 0.0000 10.3582 0.0000
# 2 67.3598 121.7267 20.1437 0.0000 11.5575 0.0000
# 3 11.0633 20.1437 41.7337 0.0000 16.3340 0.0000
# 4 0.0000 0.0000 0.0000 29.5666 0.0000 3.3040
# 5 10.3582 11.5575 16.3340 0.0000 29.9240 0.0000
# 6 0.0000 0.0000 0.0000 3.3040 0.0000 42.2646
#
#
#
# Elastic Compliance Matrix: (Units=1/GPa)
#
#
# Indices 1 2 3 4 5 6 
#
# 1 0.010790 -0.005914 0.000715 0.000000 -0.001841 0.000000
# 2 -0.005914 0.012216 -0.004175 0.000000 -0.000392 0.000000
# 3 0.000715 -0.004175 0.032114 0.000000 -0.016164 0.000000
# 4 0.000000 0.000000 0.000000 0.034120 0.000000 -0.002667
# 5 -0.001841 -0.000392 -0.016164 0.000000 0.043030 0.000000
# 6 0.000000 0.000000 0.000000 -0.002667 0.000000 0.023869
#
#
# Mechanical properties :
#
#
# Convention : Reuss Voigt Hill
#
# Bulk Modulus (GPa) = 27.49482 54.58077 41.03779
# Shear Modulus (GPa) = 26.73630 33.38616 30.06123
#
# Velocity S-wave (km/s) = 3.60829 4.03212 3.82608
# Velocity P-wave (km/s) = 5.54515 6.94668 6.28511
#
# Compressibility (1/GPa) = 0.03637049
#
# Stress axis : x y z
#
# Youngs Moduli (GPa) = 92.67667 81.85893 31.13943
#
# Poissons Ratio (x) = 0.48415 -0.02226
# Poissons Ratio (y) = 0.54813 0.13001
# Poissons Ratio (z) = -0.06625 0.34177
#
# Static dielectric constant tensor:
#      x y z
#    x 3.493950 0.000000 0.176390 
#    y 0.000000 4.134670 0.000000 
#    z 0.176390 0.000000 3.960330 
# 
# 
# High freq. dielectric constant tensor:
#      x y z
#    x 1.802420 0.000000 0.015440 
#    y 0.000000 1.818810 0.000000 
#    z 0.015440 0.000000 1.801230 
# 
# From -- ./inp_files/73182.got.cif
#   From: 2010.06.25/outbox.cif.g09.slc.cpg/sg11_37_cif.got.tgz:73182.got - 2010.06.27 23:14:04.
