data_PCOD8073085
_publ_section_title
;
Structure prediction by ZEFSAII (Michael W. Deem and Ramdas Pophale) SiO2 
 PCOD8073085
Probable space group: P 21/M
;
_chemical_formula_sum "Si O2"
_cell_formula_units_Z 28
_cell_length_a 9.120591
_cell_length_b 9.027034
_cell_length_c 25.517243
_cell_angle_alpha 90.000000
_cell_angle_beta 43.805561
_cell_angle_gamma 90.000000
_cell_volume 1454.258797
_symmetry_space_group_name_H-M "P 21/M"
_symmetry_group_IT_number 11
_symmetry_cell_setting 'monoclinic'
loop_
_space_group_symop_operation_xyz
x,y,z
-x,1/2+y,-z
-x,-y,-z
x,1/2-y,z
loop_
_atom_site_type_symbol
_atom_site_label
_atom_site_fract_x
_atom_site_fract_y
_atom_site_fract_z
Si Si1 0.068211 0.921651 0.796046
Si Si2 0.999727 0.076896 0.918466
Si Si3 0.628171 0.425722 0.513446
Si Si4 0.460466 0.422570 0.356779
Si Si5 0.895917 0.925467 0.630801
Si Si6 0.317722 0.577038 0.909784
Si Si7 0.791909 0.574499 0.771909
O O1 0.012026 0.750000 0.818079
O O2 0.319197 0.947722 0.729971
O O3 0.963121 0.983379 0.769715
O O4 0.963085 0.009090 0.870921
O O5 0.035962 0.250000 0.903919
O O6 0.208380 0.008111 0.890422
O O7 0.793567 0.038479 0.006445
O O8 0.500000 0.500000 0.500000
O O9 0.604969 0.250000 0.515103
O O10 0.534338 0.481903 0.592096
O O11 0.872253 0.476692 0.446954
O O12 0.428915 0.250000 0.379385
O O13 0.274974 0.484273 0.367086
O O14 0.878094 0.750000 0.638108
O O15 0.846114 0.993862 0.700943
O O16 0.299773 0.750000 0.901193
O O17 0.559661 0.523621 0.850503
O O18 0.805326 0.750000 0.764499
#
# Coordination Sequence:
#
# PCOD8073085 Si02
#       7
#     4   4   4   4   4   4   4
#     4  10  20  34  55  79 104 138 176 213 258 313
#     4  10  20  33  51  77 107 137 173 217 261 307
#     4  11  22  36  55  80 110 141 173 212 259 308
#     4  10  20  36  58  81 104 135 176 217 259 308
#     4   9  18  33  55  80 104 133 173 218 258 303
#     4   9  18  34  55  76 101 137 177 215 258 309
#     4   9  17  32  54  78 102 133 176 217 254 304
#
# _framework density 19.253795
#
# number of rings (size 3 to 8) (size 9 to 14) (size 15 to 20)
#    0.000    2.286    0.000    3.000    0.000    6.286 
#    0.000    1.429    0.000    4.286    0.000    0.000 
#    0.000    0.000    0.000    0.000    0.000    0.000 
#
# Total GULP energy -347273.117020 kJ/mol
# GULP energy per Si atom -12402.611322 kJ/mol
# Density = 1.920997 g / cm^3
# Si number density = 19.253795 Si / 1000 Ang^3
#
#
#
# Elastic Constant Matrix: (Units=GPa)
#
#
# Indices 1 2 3 4 5 6 
#
# 1 117.0733 29.4908 34.7867 0.0000 12.7808 0.0000
# 2 29.4908 44.2353 29.4529 0.0000 5.2117 0.0000
# 3 34.7867 29.4529 83.4717 0.0000 10.8543 0.0000
# 4 0.0000 0.0000 0.0000 26.3302 0.0000 7.0733
# 5 12.7808 5.2117 10.8543 0.0000 39.3142 0.0000
# 6 0.0000 0.0000 0.0000 7.0733 0.0000 27.8401
#
#
#
# Elastic Compliance Matrix: (Units=1/GPa)
#
#
# Indices 1 2 3 4 5 6 
#
# 1 0.010833 -0.005423 -0.002320 0.000000 -0.002162 0.000000
# 2 -0.005423 0.032307 -0.009140 0.000000 0.000004 0.000000
# 3 -0.002320 -0.009140 0.016509 0.000000 -0.002592 0.000000
# 4 0.000000 0.000000 0.000000 0.040761 0.000000 -0.010356
# 5 -0.002162 0.000004 -0.002592 0.000000 0.026854 0.000000
# 6 0.000000 0.000000 0.000000 -0.010356 0.000000 0.038551
#
#
# Mechanical properties :
#
#
# Convention : Reuss Voigt Hill
#
# Bulk Modulus (GPa) = 38.63477 48.02681 43.33079
# Shear Modulus (GPa) = 24.01442 28.76690 26.39066
#
# Velocity S-wave (km/s) = 3.53548 3.86954 3.70628
# Velocity P-wave (km/s) = 6.06431 6.70542 6.39291
#
# Compressibility (1/GPa) = 0.02588342
#
# Stress axis : x y z
#
# Youngs Moduli (GPa) = 92.30984 30.95332 60.57266
#
# Poissons Ratio (x) = 0.16785 0.14053
# Poissons Ratio (y) = 0.50056 0.55363
# Poissons Ratio (z) = 0.21417 0.28291
#
# Static dielectric constant tensor:
#      x y z
#    x 3.698990 0.000000 -0.009920 
#    y 0.000000 3.200230 0.000000 
#    z -0.009920 0.000000 3.625630 
# 
# 
# High freq. dielectric constant tensor:
#      x y z
#    x 1.759200 0.000000 0.002090 
#    y 0.000000 1.714560 0.000000 
#    z 0.002090 0.000000 1.760880 
# 
# From -- ./inp_files/28448.got.cif
#   From: 2010.06.25/outbox.cif.g09.slc.cpg/sg11_15_cif.got.tgz:28448.got - 2010.06.27 23:14:04.
