data_PCOD8073010
_publ_section_title
;
Structure prediction by ZEFSAII (Michael W. Deem and Ramdas Pophale) SiO2 
 PCOD8073010
Probable space group: P 21/M
;
_chemical_formula_sum "Si O2"
_cell_formula_units_Z 28
_cell_length_a 22.228764
_cell_length_b 8.808085
_cell_length_c 12.627977
_cell_angle_alpha 90.000000
_cell_angle_beta 138.935292
_cell_angle_gamma 90.000000
_cell_volume 1624.190997
_symmetry_space_group_name_H-M "P 21/M"
_symmetry_group_IT_number 11
_symmetry_cell_setting 'monoclinic'
loop_
_space_group_symop_operation_xyz
x,y,z
-x,1/2+y,-z
-x,-y,-z
x,1/2-y,z
loop_
_atom_site_type_symbol
_atom_site_label
_atom_site_fract_x
_atom_site_fract_y
_atom_site_fract_z
Si Si1 0.708678 0.430152 0.310529
Si Si2 0.603456 0.428557 0.962434
Si Si3 0.714343 0.576058 0.926885
Si Si4 0.411320 0.929983 0.656379
Si Si5 0.410428 0.426654 0.431191
Si Si6 0.903934 0.925606 0.262693
Si Si7 0.104548 0.571085 0.525164
O O1 0.706786 0.250000 0.308124
O O2 0.663725 0.490730 0.359057
O O3 0.813599 0.492237 0.441021
O O4 0.651095 0.487489 0.132895
O O5 0.583168 0.250000 0.937623
O O6 0.667791 0.464274 0.948373
O O7 0.509876 0.519087 0.827120
O O8 0.692910 0.750000 0.931496
O O9 0.676198 0.542780 0.759523
O O10 0.824115 0.546229 0.070521
O O11 0.410568 0.750000 0.644647
O O12 0.385436 0.000355 0.509641
O O13 0.500000 0.500000 0.500000
O O14 0.430606 0.250000 0.473840
O O15 0.911023 0.750000 0.304060
O O16 0.003436 0.980207 0.349879
O O17 0.877855 0.015851 0.332909
O O18 0.113170 0.750000 0.539111
#
# Coordination Sequence:
#
# PCOD8073010 Si02
#       7
#     4   4   4   4   4   4   4
#     4   9  19  33  50  74 103 136 167 203 247 298
#     4  11  20  32  51  75 102 133 168 202 248 301
#     4  10  20  33  50  74 103 131 161 205 254 297
#     4  11  22  36  51  70 101 136 173 209 247 296
#     4  11  22  36  53  72  98 131 172 213 253 292
#     4   9  17  29  49  76 101 128 161 199 250 300
#     4   9  16  30  50  73 102 131 161 198 243 300
#
# _framework density 17.239352
#
# number of rings (size 3 to 8) (size 9 to 14) (size 15 to 20)
#    0.000    2.000    2.857    1.714    0.000    0.571 
#    0.000    3.571    0.000    0.857    0.000    0.000 
#    0.000    0.000    0.000    0.000    0.000    0.286 
#
# Total GULP energy -347108.386459 kJ/mol
# GULP energy per Si atom -12396.728088 kJ/mol
# Density = 1.720011 g / cm^3
# Si number density = 17.239352 Si / 1000 Ang^3
#
#
#
# Elastic Constant Matrix: (Units=GPa)
#
#
# Indices 1 2 3 4 5 6 
#
# 1 137.2626 29.9431 91.7787 0.0000 1.2063 0.0000
# 2 29.9431 47.1591 34.3583 0.0000 -3.2951 0.0000
# 3 91.7787 34.3583 130.4839 0.0000 14.0091 0.0000
# 4 0.0000 0.0000 0.0000 18.3999 0.0000 -5.1255
# 5 1.2063 -3.2951 14.0091 0.0000 29.7633 0.0000
# 6 0.0000 0.0000 0.0000 -5.1255 0.0000 19.1727
#
#
#
# Elastic Compliance Matrix: (Units=1/GPa)
#
#
# Indices 1 2 3 4 5 6 
#
# 1 0.014348 -0.001435 -0.010147 0.000000 0.004036 0.000000
# 2 -0.001435 0.027627 -0.006951 0.000000 0.006388 0.000000
# 3 -0.010147 -0.006951 0.017557 0.000000 -0.008622 0.000000
# 4 0.000000 0.000000 0.000000 0.058721 0.000000 0.015698
# 5 0.004036 0.006388 -0.008622 0.000000 0.038200 0.000000
# 6 0.000000 0.000000 0.000000 0.015698 0.000000 0.056354
#
#
# Mechanical properties :
#
#
# Convention : Reuss Voigt Hill
#
# Bulk Modulus (GPa) = 44.51402 69.67400 57.09401
# Shear Modulus (GPa) = 19.42792 24.05554 21.74173
#
# Velocity S-wave (km/s) = 3.36065 3.73954 3.55515
# Velocity P-wave (km/s) = 6.39811 7.69083 7.07407
#
# Compressibility (1/GPa) = 0.02246483
#
# Stress axis : x y z
#
# Youngs Moduli (GPa) = 69.69796 36.19700 56.95743
#
# Poissons Ratio (x) = 0.05194 0.57795
# Poissons Ratio (y) = 0.10002 0.39591
# Poissons Ratio (z) = 0.70723 0.25161
#
# Static dielectric constant tensor:
#      x y z
#    x 3.595780 0.000000 0.218990 
#    y 0.000000 3.172870 0.000000 
#    z 0.218990 0.000000 3.412840 
# 
# 
# High freq. dielectric constant tensor:
#      x y z
#    x 1.655570 0.000000 0.016700 
#    y 0.000000 1.660200 0.000000 
#    z 0.016700 0.000000 1.663060 
# 
# From -- ./inp_files/42313.got.cif
#   From: 2010.06.25/outbox.cif.g09.slc.cpg/sg11_22_cif.got.tgz:42313.got - 2010.06.27 23:14:04.
