data_PCOD8073798
_publ_section_title
;
Structure prediction by ZEFSAII (Michael W. Deem and Ramdas Pophale) SiO2 
 PCOD8073798
Probable space group: P 21/M
;
_chemical_formula_sum "Si O2"
_cell_formula_units_Z 28
_cell_length_a 9.836804
_cell_length_b 8.838699
_cell_length_c 27.746771
_cell_angle_alpha 90.000000
_cell_angle_beta 37.684846
_cell_angle_gamma 90.000000
_cell_volume 1474.761592
_symmetry_space_group_name_H-M "P 21/M"
_symmetry_group_IT_number 11
_symmetry_cell_setting 'monoclinic'
loop_
_space_group_symop_operation_xyz
x,y,z
-x,1/2+y,-z
-x,-y,-z
x,1/2-y,z
loop_
_atom_site_type_symbol
_atom_site_label
_atom_site_fract_x
_atom_site_fract_y
_atom_site_fract_z
Si Si1 0.653994 0.071608 0.863656
Si Si2 0.032062 0.577094 0.703403
Si Si3 0.285306 0.924631 0.538569
Si Si4 0.778431 0.572243 0.543902
Si Si5 0.944581 0.424435 0.872468
Si Si6 0.658812 0.924843 0.308485
Si Si7 0.142719 0.428211 0.002986
O O1 0.686091 0.250000 0.848278
O O2 0.751847 0.023719 0.888768
O O3 0.399895 0.019869 0.928655
O O4 0.789222 0.989390 0.783259
O O5 0.044731 0.750000 0.717637
O O6 0.077754 0.564924 0.633673
O O7 0.221626 0.483000 0.677099
O O8 0.330454 0.750000 0.511830
O O9 0.500000 0.000000 0.500000
O O10 0.232637 0.025812 0.508009
O O11 0.787440 0.750000 0.546990
O O12 0.571546 0.512882 0.633718
O O13 0.000000 0.500000 0.500000
O O14 0.908590 0.250000 0.896757
O O15 0.946527 0.523664 0.919885
O O16 0.185279 0.451456 0.781381
O O17 0.605105 0.750000 0.331045
O O18 0.121884 0.250000 0.003626
O O19 0.000000 0.500000 0.000000
#
# Coordination Sequence:
#
# PCOD8073798 Si02
#       7
#     4   4   4   4   4   4   4
#     4   9  20  38  60  86 116 151 192 238 288 343
#     4  10  20  34  58  91 119 148 193 244 292 341
#     4  11  22  37  60  89 120 156 198 244 294 347
#     4  12  25  41  60  85 118 159 203 247 297 352
#     4   9  19  37  62  89 114 146 189 238 290 344
#     4  10  20  37  61  87 119 154 193 241 294 349
#     4  11  23  39  59  85 118 156 192 232 287 347
#
# _framework density 18.986118999999999
#
# number of rings (size 3 to 8) (size 9 to 14) (size 15 to 20)
#    0.000    1.714    1.429    4.286    0.000    5.714 
#    2.571    0.000    0.000    0.000    0.000    0.000 
#    0.000    0.000    0.000    0.000    0.000    0.000 
#
# Total GULP energy -347220.406713 kJ/mol
# GULP energy per Si atom -12400.728811 kJ/mol
# Density = 1.894291 g / cm^3
# Si number density = 18.986119 Si / 1000 Ang^3
#
#
#
# Elastic Constant Matrix: (Units=GPa)
#
#
# Indices 1 2 3 4 5 6 
#
# 1 121.3973 50.0113 68.9259 0.0000 -15.9668 0.0000
# 2 50.0113 119.3610 61.6937 0.0000 -11.4463 0.0000
# 3 68.9259 61.6937 131.3946 0.0000 -11.8091 0.0000
# 4 0.0000 0.0000 0.0000 37.5971 0.0000 0.9797
# 5 -15.9668 -11.4463 -11.8091 0.0000 28.4158 0.0000
# 6 0.0000 0.0000 0.0000 0.9797 0.0000 33.4325
#
#
#
# Elastic Compliance Matrix: (Units=1/GPa)
#
#
# Indices 1 2 3 4 5 6 
#
# 1 0.012652 -0.002206 -0.005238 0.000000 0.004044 0.000000
# 2 -0.002206 0.011605 -0.004138 0.000000 0.001716 0.000000
# 3 -0.005238 -0.004138 0.012348 0.000000 0.000522 0.000000
# 4 0.000000 0.000000 0.000000 0.026618 0.000000 -0.000780
# 5 0.004044 0.001716 0.000522 0.000000 0.038372 0.000000
# 6 0.000000 0.000000 0.000000 -0.000780 0.000000 0.029934
#
#
# Mechanical properties :
#
#
# Convention : Reuss Voigt Hill
#
# Bulk Modulus (GPa) = 74.39108 81.49050 77.94079
# Shear Modulus (GPa) = 31.41251 32.65721 32.03486
#
# Velocity S-wave (km/s) = 4.07197 4.15186 4.11211
# Velocity P-wave (km/s) = 7.83420 8.12392 7.98038
#
# Compressibility (1/GPa) = 0.01344247
#
# Stress axis : x y z
#
# Youngs Moduli (GPa) = 79.03998 86.16663 80.98647
#
# Poissons Ratio (x) = 0.19010 0.42417
# Poissons Ratio (y) = 0.17437 0.33509
# Poissons Ratio (z) = 0.41397 0.35652
#
# Static dielectric constant tensor:
#      x y z
#    x 3.183050 0.000000 -0.063020 
#    y 0.000000 3.624530 0.000000 
#    z -0.063020 0.000000 3.668210 
# 
# 
# High freq. dielectric constant tensor:
#      x y z
#    x 1.719740 0.000000 -0.001030 
#    y 0.000000 1.750080 0.000000 
#    z -0.001030 0.000000 1.752450 
# 
# From -- ./inp_files/70633.got.cif
#   From: 2010.06.25/outbox.cif.g09.slc.cpg/sg11_36_cif.got.tgz:70633.got - 2010.06.27 23:14:04.
