data_PCOD8073543
_publ_section_title
;
Structure prediction by ZEFSAII (Michael W. Deem and Ramdas Pophale) SiO2 
 PCOD8073543
Probable space group: P 21/M
;
_chemical_formula_sum "Si O2"
_cell_formula_units_Z 20
_cell_length_a 13.430693
_cell_length_b 8.852751
_cell_length_c 21.961462
_cell_angle_alpha 90.000000
_cell_angle_beta 155.482926
_cell_angle_gamma 90.000000
_cell_volume 1083.549483
_symmetry_space_group_name_H-M "P 21/M"
_symmetry_group_IT_number 11
_symmetry_cell_setting 'monoclinic'
loop_
_space_group_symop_operation_xyz
x,y,z
-x,1/2+y,-z
-x,-y,-z
x,1/2-y,z
loop_
_atom_site_type_symbol
_atom_site_label
_atom_site_fract_x
_atom_site_fract_y
_atom_site_fract_z
Si Si1 0.778101 0.075164 0.221592
Si Si2 0.113485 0.572428 0.503670
Si Si3 0.716792 0.075899 0.049144
Si Si4 0.999489 0.576952 0.909632
Si Si5 0.620607 0.076091 0.775796
O O1 0.812813 0.250000 0.257081
O O2 0.818839 0.041951 0.172873
O O3 0.973657 0.978790 0.365845
O O4 0.511407 0.027230 0.092879
O O5 0.093150 0.750000 0.499170
O O6 0.388286 0.526798 0.649821
O O7 0.000000 0.500000 0.500000
O O8 0.635031 0.250000 0.997520
O O9 0.927411 0.037626 0.118772
O O10 0.916287 0.750000 0.870205
O O11 0.778796 0.470435 0.805275
O O12 0.229610 0.545676 0.079810
O O13 0.544326 0.250000 0.726744
#
# Coordination Sequence:
#
# PCOD8073543 Si02
#       5
#     4   4   4   4   4
#     4  10  20  34  54  81 110 140 179 222 265 315
#     4  12  24  38  56  78 107 140 175 217 268 320
#     4   9  18  34  56  80 108 143 181 221 263 311
#     4   9  18  34  55  78 106 140 176 216 262 311
#     4  10  20  34  54  81 110 138 174 218 263 315
#
# _framework density 18.457856
#
# number of rings (size 3 to 8) (size 9 to 14) (size 15 to 20)
#    0.000    2.000    0.000    4.200    0.000    4.000 
#    0.000    1.000    0.000    0.000    0.000    0.000 
#    0.000    0.000    0.000    0.000    0.000    0.000 
#
# Total GULP energy -248091.248104 kJ/mol
# GULP energy per Si atom -12404.562405 kJ/mol
# Density = 1.841585 g / cm^3
# Si number density = 18.457856 Si / 1000 Ang^3
#
#
#
# Elastic Constant Matrix: (Units=GPa)
#
#
# Indices 1 2 3 4 5 6 
#
# 1 125.6222 48.0209 48.9374 0.0000 6.2117 0.0000
# 2 48.0209 117.2762 55.7278 0.0000 4.2609 0.0000
# 3 48.9374 55.7278 88.7054 0.0000 5.7285 0.0000
# 4 0.0000 0.0000 0.0000 34.7262 0.0000 3.6398
# 5 6.2117 4.2609 5.7285 0.0000 18.4659 0.0000
# 6 0.0000 0.0000 0.0000 3.6398 0.0000 31.8032
#
#
#
# Elastic Compliance Matrix: (Units=1/GPa)
#
#
# Indices 1 2 3 4 5 6 
#
# 1 0.010579 -0.002208 -0.004339 0.000000 -0.001703 0.000000
# 2 -0.002208 0.012620 -0.006704 0.000000 -0.000089 0.000000
# 3 -0.004339 -0.006704 0.018046 0.000000 -0.002592 0.000000
# 4 0.000000 0.000000 0.000000 0.029146 0.000000 -0.003336
# 5 -0.001703 -0.000089 -0.002592 0.000000 0.055551 0.000000
# 6 0.000000 0.000000 0.000000 -0.003336 0.000000 0.031825
#
#
# Mechanical properties :
#
#
# Convention : Reuss Voigt Hill
#
# Bulk Modulus (GPa) = 67.83203 70.77510 69.30356
# Shear Modulus (GPa) = 26.42905 28.92691 27.67798
#
# Velocity S-wave (km/s) = 3.78810 3.96307 3.87657
# Velocity P-wave (km/s) = 7.48080 7.70510 7.59378
#
# Compressibility (1/GPa) = 0.01474230
#
# Stress axis : x y z
#
# Youngs Moduli (GPa) = 94.52708 79.23875 55.41255
#
# Poissons Ratio (x) = 0.17496 0.24044
# Poissons Ratio (y) = 0.20871 0.37151
# Poissons Ratio (z) = 0.41017 0.53125
#
# Static dielectric constant tensor:
#      x y z
#    x 3.563820 0.000000 -0.050530 
#    y 0.000000 3.499350 0.000000 
#    z -0.050530 0.000000 3.258930 
# 
# 
# High freq. dielectric constant tensor:
#      x y z
#    x 1.724390 0.000000 0.000460 
#    y 0.000000 1.725240 0.000000 
#    z 0.000460 0.000000 1.701130 
# 
# From -- ./inp_files/16075.got.cif
#   From: 2010.06.25/outbox.cif.g09.slc.cpg/sg11_9_cif.got.tgz:16075.got - 2010.06.27 23:14:04.
