data_PCOD8073108
_publ_section_title
;
Structure prediction by ZEFSAII (Michael W. Deem and Ramdas Pophale) SiO2 
 PCOD8073108
Probable space group: P 21/M
;
_chemical_formula_sum "Si O2"
_cell_formula_units_Z 32
_cell_length_a 18.967385
_cell_length_b 13.560182
_cell_length_c 6.416982
_cell_angle_alpha 90.000000
_cell_angle_beta 82.988572
_cell_angle_gamma 90.000000
_cell_volume 1638.113028
_symmetry_space_group_name_H-M "P 21/M"
_symmetry_group_IT_number 11
_symmetry_cell_setting 'monoclinic'
loop_
_space_group_symop_operation_xyz
x,y,z
-x,1/2+y,-z
-x,-y,-z
x,1/2-y,z
loop_
_atom_site_type_symbol
_atom_site_label
_atom_site_fract_x
_atom_site_fract_y
_atom_site_fract_z
Si Si1 0.494259 0.360473 0.429979
Si Si2 0.861247 0.984201 0.502903
Si Si3 0.451201 0.966490 0.204879
Si Si4 0.367767 0.636902 0.907005
Si Si5 0.892361 0.363383 0.835737
Si Si6 0.225475 0.535997 0.845898
Si Si7 0.174390 0.137719 0.104165
Si Si8 0.949230 0.861508 0.159731
O O1 0.463558 0.250000 0.425800
O O2 0.508973 0.385567 0.666163
O O3 0.435953 0.436617 0.354425
O O4 0.566845 0.371837 0.274623
O O5 0.828410 0.898394 0.658172
O O6 0.924082 0.938207 0.343192
O O7 0.891747 0.075001 0.623133
O O8 0.797227 0.025035 0.384981
O O9 0.381888 0.917276 0.124752
O O10 0.500000 0.000000 0.000000
O O11 0.350011 0.750000 0.963663
O O12 0.301778 0.586161 0.818735
O O13 0.880644 0.250000 0.779403
O O14 0.968145 0.380444 0.921840
O O15 0.831134 0.396610 0.013456
O O16 0.229745 0.428138 0.952074
O O17 0.200807 0.250000 0.085252
O O18 0.095545 0.123034 0.035409
O O19 0.938071 0.750000 0.248169
#
# Coordination Sequence:
#
# PCOD8073108 Si02
#       8
#     4   4   4   4   4   4   4   4
#     4   9  18  33  57  88 116 143 177 217 258 303
#     4  10  20  33  52  74  99 134 178 224 271 323
#     4   9  18  34  57  84 112 140 176 217 255 299
#     4  10  20  35  56  80 110 149 182 208 249 306
#     4  10  21  34  49  74 106 137 172 219 274 326
#     4  10  22  36  51  75 108 142 177 217 259 310
#     4   9  19  36  56  75  97 131 177 227 276 325
#     4   9  18  33  53  76 100 129 170 223 281 333
#
# _framework density 19.534673000000002
#
# number of rings (size 3 to 8) (size 9 to 14) (size 15 to 20)
#    0.000    2.500    0.000    1.500    0.000    9.500 
#    0.000    4.375    0.000    3.750    0.000    0.000 
#    0.000    0.000    0.000    0.000    0.000    0.000 
#
# Total GULP energy -396739.183292 kJ/mol
# GULP energy per Si atom -12398.099478 kJ/mol
# Density = 1.949021 g / cm^3
# Si number density = 19.534673 Si / 1000 Ang^3
#
#
#
# Elastic Constant Matrix: (Units=GPa)
#
#
# Indices 1 2 3 4 5 6 
#
# 1 58.1287 40.2113 23.7185 0.0000 17.3677 0.0000
# 2 40.2113 142.0899 40.4234 0.0000 14.2151 0.0000
# 3 23.7185 40.4234 97.3781 0.0000 22.0548 0.0000
# 4 0.0000 0.0000 0.0000 25.9820 0.0000 3.8055
# 5 17.3677 14.2151 22.0548 0.0000 22.3628 0.0000
# 6 0.0000 0.0000 0.0000 3.8055 0.0000 30.2950
#
#
#
# Elastic Compliance Matrix: (Units=1/GPa)
#
#
# Indices 1 2 3 4 5 6 
#
# 1 0.026154 -0.005675 -0.000298 0.000000 -0.016411 0.000000
# 2 -0.005675 0.009307 -0.002755 0.000000 0.001208 0.000000
# 3 -0.000298 -0.002755 0.014210 0.000000 -0.012032 0.000000
# 4 0.000000 0.000000 0.000000 0.039210 0.000000 -0.004925
# 5 -0.016411 0.001208 -0.012032 0.000000 0.068561 0.000000
# 6 0.000000 0.000000 0.000000 -0.004925 0.000000 0.033627
#
#
# Mechanical properties :
#
#
# Convention : Reuss Voigt Hill
#
# Bulk Modulus (GPa) = 31.04051 56.25590 43.64820
# Shear Modulus (GPa) = 22.80375 28.61086 25.70731
#
# Velocity S-wave (km/s) = 3.42035 3.83119 3.63158
# Velocity P-wave (km/s) = 5.61452 6.95925 6.32274
#
# Compressibility (1/GPa) = 0.03221596
#
# Stress axis : x y z
#
# Youngs Moduli (GPa) = 38.23559 107.45030 70.37056
#
# Poissons Ratio (x) = 0.60978 0.02095
# Poissons Ratio (y) = 0.21699 0.19385
# Poissons Ratio (z) = 0.01138 0.29600
#
# Static dielectric constant tensor:
#      x y z
#    x 3.266050 0.000000 0.259720 
#    y 0.000000 3.939840 0.000000 
#    z 0.259720 0.000000 3.620180 
# 
# 
# High freq. dielectric constant tensor:
#      x y z
#    x 1.724990 0.000000 0.015000 
#    y 0.000000 1.781110 0.000000 
#    z 0.015000 0.000000 1.762950 
# 
# From -- ./inp_files/8096.got.cif
#   From: 2010.06.25/outbox.cif.g09.slc.cpg/sg11_5_cif.got.tgz:8096.got - 2010.06.27 23:14:04.
