data_PCOD8073208
_publ_section_title
;
Structure prediction by ZEFSAII (Michael W. Deem and Ramdas Pophale) SiO2 
 PCOD8073208
Probable space group: P 21/M
;
_chemical_formula_sum "Si O2"
_cell_formula_units_Z 24
_cell_length_a 11.603523
_cell_length_b 9.231103
_cell_length_c 23.577680
_cell_angle_alpha 90.000000
_cell_angle_beta 28.761684
_cell_angle_gamma 90.000000
_cell_volume 1215.180689
_symmetry_space_group_name_H-M "P 21/M"
_symmetry_group_IT_number 11
_symmetry_cell_setting 'monoclinic'
loop_
_space_group_symop_operation_xyz
x,y,z
-x,1/2+y,-z
-x,-y,-z
x,1/2-y,z
loop_
_atom_site_type_symbol
_atom_site_label
_atom_site_fract_x
_atom_site_fract_y
_atom_site_fract_z
Si Si1 0.829246 0.911989 0.002313
Si Si2 0.498745 0.916649 0.779696
Si Si3 0.898079 0.581880 0.693222
Si Si4 0.324866 0.581404 0.736325
Si Si5 0.553769 0.419937 0.535213
Si Si6 0.587942 0.086843 0.908518
O O1 0.879370 0.750000 0.002823
O O2 0.068719 0.973088 0.869965
O O3 0.622607 0.914261 0.045413
O O4 0.740839 0.005398 0.093871
O O5 0.454440 0.750000 0.812189
O O6 0.743924 0.968575 0.704550
O O7 0.517981 0.943656 0.703758
O O8 0.853700 0.750000 0.726210
O O9 0.820475 0.490758 0.781734
O O10 0.174966 0.550233 0.561855
O O11 0.317054 0.750000 0.721145
O O12 0.384789 0.483943 0.656655
O O13 0.500000 0.500000 0.500000
O O14 0.502245 0.250000 0.549907
O O15 0.659041 0.250000 0.895323
O O16 0.500000 0.000000 0.000000
#
# Coordination Sequence:
#
# PCOD8073208 Si02
#       6
#     4   4   4   4   4   4
#     4   9  19  34  53  82 118 149 179 226 280 328
#     4   9  18  35  60  87 114 146 184 227 278 336
#     4   9  20  39  58  79 111 146 184 235 284 327
#     4  10  21  37  58  85 117 151 185 225 279 336
#     4  11  25  42  59  80 110 149 193 238 283 334
#     4  10  20  33  53  81 111 147 189 230 278 330
#
# _framework density 19.750149
#
# number of rings (size 3 to 8) (size 9 to 14) (size 15 to 20)
#    0.000    2.333    0.000    1.500    2.333    4.000 
#    0.000    0.000    0.000    0.000    0.000    0.000 
#    0.000    0.000    0.000    0.000    0.000    0.000 
#
# Total GULP energy -297596.823925 kJ/mol
# GULP energy per Si atom -12399.867664 kJ/mol
# Density = 1.970520 g / cm^3
# Si number density = 19.750149 Si / 1000 Ang^3
#
#
#
# Elastic Constant Matrix: (Units=GPa)
#
#
# Indices 1 2 3 4 5 6 
#
# 1 69.1529 40.6372 50.8126 0.0000 13.5141 0.0000
# 2 40.6372 89.6351 51.9207 0.0000 12.6007 0.0000
# 3 50.8126 51.9207 104.2526 0.0000 7.0456 0.0000
# 4 0.0000 0.0000 0.0000 37.7653 0.0000 5.2705
# 5 13.5141 12.6007 7.0456 0.0000 33.4917 0.0000
# 6 0.0000 0.0000 0.0000 5.2705 0.0000 26.5488
#
#
#
# Elastic Compliance Matrix: (Units=1/GPa)
#
#
# Indices 1 2 3 4 5 6 
#
# 1 0.025815 -0.005290 -0.009514 0.000000 -0.006425 0.000000
# 2 -0.005290 0.017404 -0.005875 0.000000 -0.003178 0.000000
# 3 -0.009514 -0.005875 0.016988 0.000000 0.002475 0.000000
# 4 0.000000 0.000000 0.000000 0.027234 0.000000 -0.005407
# 5 -0.006425 -0.003178 0.002475 0.000000 0.033125 0.000000
# 6 0.000000 0.000000 0.000000 -0.005407 0.000000 0.038740
#
#
# Mechanical properties :
#
#
# Convention : Reuss Voigt Hill
#
# Bulk Modulus (GPa) = 53.04868 61.08685 57.06777
# Shear Modulus (GPa) = 24.16086 27.53917 25.85001
#
# Velocity S-wave (km/s) = 3.50140 3.73819 3.62173
# Velocity P-wave (km/s) = 6.57758 7.04479 6.81519
#
# Compressibility (1/GPa) = 0.01885061
#
# Stress axis : x y z
#
# Youngs Moduli (GPa) = 38.73663 57.45750 58.86652
#
# Poissons Ratio (x) = 0.30393 0.56004
# Poissons Ratio (y) = 0.20491 0.34583
# Poissons Ratio (z) = 0.36853 0.33755
#
# Static dielectric constant tensor:
#      x y z
#    x 2.285210 0.000000 -0.096420 
#    y 0.000000 3.935710 0.000000 
#    z -0.096420 0.000000 3.511690 
# 
# 
# High freq. dielectric constant tensor:
#      x y z
#    x 1.777780 0.000000 -0.004520 
#    y 0.000000 1.768190 0.000000 
#    z -0.004520 0.000000 1.762730 
# 
# From -- ./inp_files/43894.got.cif
#   From: 2010.06.25/outbox.cif.g09.slc.cpg/sg11_22_cif.got.tgz:43894.got - 2010.06.27 23:14:04.
