data_PCOD8073533
_publ_section_title
;
Structure prediction by ZEFSAII (Michael W. Deem and Ramdas Pophale) SiO2 
 PCOD8073533
Probable space group: P 21/M
;
_chemical_formula_sum "Si O2"
_cell_formula_units_Z 32
_cell_length_a 15.835134
_cell_length_b 8.907879
_cell_length_c 23.361200
_cell_angle_alpha 90.000000
_cell_angle_beta 148.777901
_cell_angle_gamma 90.000000
_cell_volume 1708.126659
_symmetry_space_group_name_H-M "P 21/M"
_symmetry_group_IT_number 11
_symmetry_cell_setting 'monoclinic'
loop_
_space_group_symop_operation_xyz
x,y,z
-x,1/2+y,-z
-x,-y,-z
x,1/2-y,z
loop_
_atom_site_type_symbol
_atom_site_label
_atom_site_fract_x
_atom_site_fract_y
_atom_site_fract_z
Si Si1 0.259522 0.576396 0.656406
Si Si2 0.340097 0.588574 0.420208
Si Si3 0.139506 0.585341 0.192330
Si Si4 0.027353 0.571745 0.298914
Si Si5 0.604633 0.423707 0.861900
Si Si6 0.995536 0.924134 0.412060
Si Si7 0.821935 0.572438 0.892749
Si Si8 0.133610 0.923557 0.897868
O O1 0.306682 0.750000 0.691629
O O2 0.418866 0.475828 0.754217
O O3 0.171294 0.549699 0.543913
O O4 0.137831 0.529173 0.636254
O O5 0.500000 0.500000 0.500000
O O6 0.389294 0.750000 0.475135
O O7 0.258527 0.613227 0.312627
O O8 0.207014 0.509730 0.384818
O O9 0.083032 0.750000 0.135986
O O10 0.242353 0.491738 0.205003
O O11 0.980644 0.494199 0.119700
O O12 0.022575 0.750000 0.286720
O O13 0.000342 0.526021 0.348731
O O14 0.888316 0.501839 0.176960
O O15 0.613062 0.250000 0.848386
O O16 0.702596 0.522483 0.873527
O O17 0.682677 0.444091 0.970916
O O18 0.944528 0.750000 0.388739
O O19 0.830067 0.750000 0.895837
O O20 0.000000 0.500000 0.000000
O O21 0.087929 0.750000 0.863976
#
# Coordination Sequence:
#
# PCOD8073533 Si02
#       8
#     4   4   4   4   4   4   4   4
#     4  10  21  37  60  89 116 146 184 231 287 344
#     4   9  19  33  50  76 108 144 183 228 277 325
#     4  10  20  35  53  74 106 146 188 229 275 329
#     4   9  19  36  58  80 107 145 187 230 281 338
#     4  11  23  38  56  82 117 151 189 234 283 337
#     4   9  19  39  63  85 112 146 186 233 289 345
#     4  12  23  35  54  80 110 147 189 231 276 329
#     4  10  20  34  54  80 110 145 186 229 276 331
#
# _framework density 18.733972000000001
#
# number of rings (size 3 to 8) (size 9 to 14) (size 15 to 20)
#    0.000    2.000    1.250    3.375    0.000    6.000 
#    0.000    1.875    0.000    0.000    0.000    0.000 
#    0.000    0.000    0.000    0.000    0.000    0.000 
#
# Total GULP energy -396630.213218 kJ/mol
# GULP energy per Si atom -12394.694163 kJ/mol
# Density = 1.869133 g / cm^3
# Si number density = 18.733972 Si / 1000 Ang^3
#
#
#
# Elastic Constant Matrix: (Units=GPa)
#
#
# Indices 1 2 3 4 5 6 
#
# 1 104.3198 41.3540 45.5956 0.0000 -19.7628 0.0000
# 2 41.3540 108.1447 38.2120 0.0000 -4.7118 0.0000
# 3 45.5956 38.2120 83.8479 0.0000 1.7020 0.0000
# 4 0.0000 0.0000 0.0000 30.1078 0.0000 1.8403
# 5 -19.7628 -4.7118 1.7020 0.0000 24.5193 0.0000
# 6 0.0000 0.0000 0.0000 1.8403 0.0000 32.2449
#
#
#
# Elastic Compliance Matrix: (Units=1/GPa)
#
#
# Indices 1 2 3 4 5 6 
#
# 1 0.016890 -0.003008 -0.008090 0.000000 0.013597 0.000000
# 2 -0.003008 0.011709 -0.003702 0.000000 0.000083 0.000000
# 3 -0.008090 -0.003702 0.018185 0.000000 -0.008494 0.000000
# 4 0.000000 0.000000 0.000000 0.033330 0.000000 -0.001902
# 5 0.013597 0.000083 -0.008494 0.000000 0.052349 0.000000
# 6 0.000000 0.000000 0.000000 -0.001902 0.000000 0.031121
#
#
# Mechanical properties :
#
#
# Convention : Reuss Voigt Hill
#
# Bulk Modulus (GPa) = 58.19240 60.73729 59.46484
# Shear Modulus (GPa) = 25.13673 28.78446 26.96059
#
# Velocity S-wave (km/s) = 3.66700 3.92405 3.79770
# Velocity P-wave (km/s) = 7.00422 7.28164 7.14427
#
# Compressibility (1/GPa) = 0.01718438
#
# Stress axis : x y z
#
# Youngs Moduli (GPa) = 59.20654 85.40631 54.98999
#
# Poissons Ratio (x) = 0.25688 0.44486
# Poissons Ratio (y) = 0.17808 0.20358
# Poissons Ratio (z) = 0.47897 0.31618
#
# Static dielectric constant tensor:
#      x y z
#    x 3.624440 0.000000 -0.285210 
#    y 0.000000 3.044080 0.000000 
#    z -0.285210 0.000000 3.248360 
# 
# 
# High freq. dielectric constant tensor:
#      x y z
#    x 1.717300 0.000000 -0.014000 
#    y 0.000000 1.738090 0.000000 
#    z -0.014000 0.000000 1.723440 
# 
# From -- ./inp_files/55689.got.cif
#   From: 2010.06.25/outbox.cif.g09.slc.cpg/sg11_28_cif.got.tgz:55689.got - 2010.06.27 23:14:04.
