data_PCOD8073971
_publ_section_title
;
Structure prediction by ZEFSAII (Michael W. Deem and Ramdas Pophale) SiO2 
 PCOD8073971
Probable space group: P 21/M
;
_chemical_formula_sum "Si O2"
_cell_formula_units_Z 28
_cell_length_a 17.137971
_cell_length_b 8.913091
_cell_length_c 15.228630
_cell_angle_alpha 90.000000
_cell_angle_beta 140.848872
_cell_angle_gamma 90.000000
_cell_volume 1468.693554
_symmetry_space_group_name_H-M "P 21/M"
_symmetry_group_IT_number 11
_symmetry_cell_setting 'monoclinic'
loop_
_space_group_symop_operation_xyz
x,y,z
-x,1/2+y,-z
-x,-y,-z
x,1/2-y,z
loop_
_atom_site_type_symbol
_atom_site_label
_atom_site_fract_x
_atom_site_fract_y
_atom_site_fract_z
Si Si1 0.420582 0.926409 0.676234
Si Si2 0.874160 0.916469 0.414305
Si Si3 0.571745 0.924161 0.640592
Si Si4 0.993942 0.081290 0.856522
Si Si5 0.174456 0.080729 0.425072
Si Si6 0.819913 0.082432 0.872086
Si Si7 0.403644 0.429702 0.847048
O O1 0.414630 0.750000 0.692177
O O2 0.526412 0.968048 0.698695
O O3 0.294576 0.977876 0.519725
O O4 0.446272 0.016499 0.788047
O O5 0.887815 0.750000 0.387547
O O6 0.869829 0.914665 0.514461
O O7 0.740690 0.981757 0.262267
O O8 0.000000 0.000000 0.500000
O O9 0.555903 0.750000 0.611774
O O10 0.500000 0.000000 0.500000
O O11 0.711606 0.971875 0.751835
O O12 0.029487 0.250000 0.858041
O O13 0.908074 0.087699 0.865953
O O14 0.933382 0.994538 0.723761
O O15 0.115614 0.987237 0.986077
O O16 0.201752 0.250000 0.415278
O O17 0.773111 0.250000 0.854154
O O18 0.411315 0.250000 0.857152
O O19 0.500000 0.500000 0.000000
#
# Coordination Sequence:
#
# PCOD8073971 Si02
#       7
#     4   4   4   4   4   4   4
#     4  10  21  37  57  83 113 147 189 233 277 335
#     4   9  20  37  57  84 114 143 184 231 279 336
#     4  11  23  37  55  81 113 148 187 231 279 330
#     4  10  20  35  55  79 106 142 184 225 275 329
#     4  10  20  35  56  82 110 142 182 226 273 330
#     4  10  21  36  54  77 108 143 183 229 274 326
#     4  10  21  39  62  88 116 152 193 238 291 351
#
# _framework density 19.064563
#
# number of rings (size 3 to 8) (size 9 to 14) (size 15 to 20)
#    0.000    2.000    0.000    4.286    0.000   10.857 
#    2.571    0.000    0.000    0.000    0.000    0.000 
#    0.000    0.000    0.000    0.000    0.000    0.000 
#
# Total GULP energy -347100.807538 kJ/mol
# GULP energy per Si atom -12396.457412 kJ/mol
# Density = 1.902117 g / cm^3
# Si number density = 19.064563 Si / 1000 Ang^3
#
#
#
# Elastic Constant Matrix: (Units=GPa)
#
#
# Indices 1 2 3 4 5 6 
#
# 1 -15.5660 62.3429 41.6084 0.0000 -11.1574 0.0000
# 2 62.3429 84.3660 41.9797 0.0000 0.5152 0.0000
# 3 41.6084 41.9797 150.6083 0.0000 -2.7402 0.0000
# 4 0.0000 0.0000 0.0000 38.2885 0.0000 -1.7301
# 5 -11.1574 0.5152 -2.7402 0.0000 17.3972 0.0000
# 6 0.0000 0.0000 0.0000 -1.7301 0.0000 30.3645
#
#
#
# Elastic Compliance Matrix: (Units=1/GPa)
#
#
# Indices 1 2 3 4 5 6 
#
# 1 -0.014314 0.010160 0.000953 0.000000 -0.009331 0.000000
# 2 0.010160 0.006568 -0.004536 0.000000 0.005607 0.000000
# 3 0.000953 -0.004536 0.007676 0.000000 0.001954 0.000000
# 4 0.000000 0.000000 0.000000 0.026185 0.000000 0.001492
# 5 -0.009331 0.005607 0.001954 0.000000 0.051638 0.000000
# 6 0.000000 0.000000 0.000000 0.001492 0.000000 0.033018
#
#
# Mechanical properties :
#
#
# Convention : Reuss Voigt Hill
#
# Bulk Modulus (GPa) = 76.42391 56.80781 66.61586
# Shear Modulus (GPa) = 49.03057 22.10853 35.56955
#
# Velocity S-wave (km/s) = 5.07681 3.40908 4.32411
# Velocity P-wave (km/s) = 8.63361 6.73484 7.74265
#
# Compressibility (1/GPa) = 0.01308491
#
# Stress axis : x y z
#
# Youngs Moduli (GPa) = -69.86073 152.26315 130.27066
#
# Poissons Ratio (x) = -1.54707 -0.12411
# Poissons Ratio (y) = 0.70982 0.59086
# Poissons Ratio (z) = 0.06656 0.69061
#
# Static dielectric constant tensor:
#      x y z
#    x 3.236820 0.000000 0.040840 
#    y 0.000000 3.822120 0.000000 
#    z 0.040840 0.000000 3.414440 
# 
# 
# High freq. dielectric constant tensor:
#      x y z
#    x 1.723640 0.000000 -0.000890 
#    y 0.000000 1.756900 0.000000 
#    z -0.000890 0.000000 1.751220 
# 
# From -- ./inp_files/61303.got.cif
#   From: 2010.06.25/outbox.cif.g09.slc.cpg/sg11_31_cif.got.tgz:61303.got - 2010.06.27 23:14:04.
