data_PCOD8073881
_publ_section_title
;
Structure prediction by ZEFSAII (Michael W. Deem and Ramdas Pophale) SiO2 
 PCOD8073881
Probable space group: P 21/M
;
_chemical_formula_sum "Si O2"
_cell_formula_units_Z 28
_cell_length_a 14.499465
_cell_length_b 13.873278
_cell_length_c 7.843909
_cell_angle_alpha 90.000000
_cell_angle_beta 54.532876
_cell_angle_gamma 90.000000
_cell_volume 1285.071490
_symmetry_space_group_name_H-M "P 21/M"
_symmetry_group_IT_number 11
_symmetry_cell_setting 'monoclinic'
loop_
_space_group_symop_operation_xyz
x,y,z
-x,1/2+y,-z
-x,-y,-z
x,1/2-y,z
loop_
_atom_site_type_symbol
_atom_site_label
_atom_site_fract_x
_atom_site_fract_y
_atom_site_fract_z
Si Si1 0.570669 0.139355 0.343358
Si Si2 0.728049 0.356738 0.478004
Si Si3 0.691007 0.861771 0.376894
Si Si4 0.779190 0.544054 0.616578
Si Si5 0.968857 0.358169 0.089556
Si Si6 0.017393 0.972187 0.252458
Si Si7 0.735840 0.506790 0.015863
O O1 0.586829 0.250000 0.267372
O O2 0.616006 0.123572 0.486803
O O3 0.440233 0.109178 0.483661
O O4 0.635861 0.070227 0.142147
O O5 0.724173 0.250000 0.566382
O O6 0.740342 0.435744 0.610721
O O7 0.831845 0.363080 0.231830
O O8 0.709045 0.750000 0.314114
O O9 0.742123 0.883195 0.507983
O O10 0.751299 0.925474 0.165380
O O11 0.917782 0.548498 0.498235
O O12 0.716531 0.569678 0.862630
O O13 0.015334 0.250000 0.052171
O O14 0.011878 0.414878 0.209307
O O15 0.021009 0.406351 0.865968
O O16 0.147648 0.948511 0.156671
#
# Coordination Sequence:
#
# PCOD8073881 Si02
#       7
#     4   4   4   4   4   4   4
#     4  10  21  41  67  91 119 156 203 256 308 358
#     4   9  17  35  60  89 121 153 196 250 303 355
#     4  11  25  45  63  86 123 163 206 255 300 355
#     4  11  24  39  62  92 125 161 201 245 303 364
#     4   9  16  30  57  83 114 161 201 238 297 353
#     4  10  20  35  53  90 126 154 197 249 291 356
#     4  12  23  40  66  90 124 161 204 245 307 362
#
# _framework density 21.78867
#
# number of rings (size 3 to 8) (size 9 to 14) (size 15 to 20)
#    0.000    1.714    2.857    2.571    0.000    4.000 
#    0.000    0.000    0.000    5.143    0.000    0.000 
#    0.000    0.000    0.000    0.000    0.000    0.000 
#
# Total GULP energy -347085.306542 kJ/mol
# GULP energy per Si atom -12395.903805 kJ/mol
# Density = 2.173908 g / cm^3
# Si number density = 21.788670 Si / 1000 Ang^3
#
#
#
# Elastic Constant Matrix: (Units=GPa)
#
#
# Indices 1 2 3 4 5 6 
#
# 1 76.7484 6.7807 34.9155 0.0000 -16.9710 0.0000
# 2 6.7807 89.0718 23.8467 0.0000 1.1116 0.0000
# 3 34.9155 23.8467 101.3696 0.0000 9.5271 0.0000
# 4 0.0000 0.0000 0.0000 16.7231 0.0000 -4.7291
# 5 -16.9710 1.1116 9.5271 0.0000 37.9322 0.0000
# 6 0.0000 0.0000 0.0000 -4.7291 0.0000 24.9558
#
#
#
# Elastic Compliance Matrix: (Units=1/GPa)
#
#
# Indices 1 2 3 4 5 6 
#
# 1 0.018658 0.000459 -0.007494 0.000000 0.010216 0.000000
# 2 0.000459 0.011998 -0.003038 0.000000 0.000617 0.000000
# 3 -0.007494 -0.003038 0.013793 0.000000 -0.006728 0.000000
# 4 0.000000 0.000000 0.000000 0.063183 0.000000 0.011973
# 5 0.010216 0.000617 -0.006728 0.000000 0.032605 0.000000
# 6 0.000000 0.000000 0.000000 0.011973 0.000000 0.042340
#
#
# Mechanical properties :
#
#
# Convention : Reuss Voigt Hill
#
# Bulk Modulus (GPa) = 41.15157 44.25283 42.70220
# Shear Modulus (GPa) = 23.71628 29.36538 26.54083
#
# Velocity S-wave (km/s) = 3.30277 3.67514 3.49392
# Velocity P-wave (km/s) = 5.78551 6.19378 5.99312
#
# Compressibility (1/GPa) = 0.02430041
#
# Stress axis : x y z
#
# Youngs Moduli (GPa) = 53.59734 83.34919 72.49866
#
# Poissons Ratio (x) = -0.03822 0.54334
# Poissons Ratio (y) = -0.02458 0.22027
# Poissons Ratio (z) = 0.40168 0.25324
#
# Static dielectric constant tensor:
#      x y z
#    x 3.862060 0.000000 -0.199060 
#    y 0.000000 3.907290 0.000000 
#    z -0.199060 0.000000 3.873830 
# 
# 
# High freq. dielectric constant tensor:
#      x y z
#    x 1.854460 0.000000 -0.014910 
#    y 0.000000 1.847810 0.000000 
#    z -0.014910 0.000000 1.846740 
# 
# From -- ./inp_files/22107.got.cif
#   From: 2010.06.25/outbox.cif.g09.slc.cpg/sg11_12_cif.got.tgz:22107.got - 2010.06.27 23:14:04.
