data_PCOD8073030
_publ_section_title
;
Structure prediction by ZEFSAII (Michael W. Deem and Ramdas Pophale) SiO2 
 PCOD8073030
Probable space group: P 21/M
;
_chemical_formula_sum "Si O2"
_cell_formula_units_Z 28
_cell_length_a 15.989613
_cell_length_b 9.331315
_cell_length_c 20.362612
_cell_angle_alpha 90.000000
_cell_angle_beta 151.360630
_cell_angle_gamma 90.000000
_cell_volume 1456.187244
_symmetry_space_group_name_H-M "P 21/M"
_symmetry_group_IT_number 11
_symmetry_cell_setting 'monoclinic'
loop_
_space_group_symop_operation_xyz
x,y,z
-x,1/2+y,-z
-x,-y,-z
x,1/2-y,z
loop_
_atom_site_type_symbol
_atom_site_label
_atom_site_fract_x
_atom_site_fract_y
_atom_site_fract_z
Si Si1 0.174225 0.914078 0.946684
Si Si2 0.483796 0.414066 0.747392
Si Si3 0.303372 0.590824 0.435968
Si Si4 0.104241 0.916711 0.168553
Si Si5 0.028791 0.082942 0.318272
Si Si6 0.910299 0.582808 0.496508
Si Si7 0.354361 0.086150 0.259183
O O1 0.112598 0.750000 0.915524
O O2 0.125222 0.963341 0.838381
O O3 0.381868 0.928978 0.098768
O O4 0.077976 0.013636 0.934039
O O5 0.480808 0.250000 0.719266
O O6 0.293260 0.461057 0.640432
O O7 0.549317 0.519097 0.736420
O O8 0.239442 0.750000 0.411025
O O9 0.249468 0.558102 0.324444
O O10 0.511569 0.577939 0.587110
O O11 0.211989 0.483700 0.423297
O O12 0.073858 0.750000 0.131172
O O13 0.178769 0.998081 0.155663
O O14 0.062312 0.250000 0.339236
O O15 0.991073 0.038125 0.367612
O O16 0.930314 0.750000 0.495941
O O17 0.000000 0.500000 0.500000
O O18 0.301534 0.250000 0.207270
#
# Coordination Sequence:
#
# PCOD8073030 Si02
#       7
#     4   4   4   4   4   4   4
#     4   9  19  36  57  78 106 143 182 222 262 310
#     4  10  21  38  57  79 107 141 178 219 270 319
#     4   9  18  31  49  76 107 140 180 225 268 311
#     4  10  20  33  50  75 109 147 185 224 265 312
#     4   9  17  33  57  81 105 138 177 216 262 316
#     4  10  21  37  59  85 110 136 170 214 266 322
#     4  11  21  32  50  77 109 144 185 227 268 311
#
# _framework density 19.228297000000001
#
# number of rings (size 3 to 8) (size 9 to 14) (size 15 to 20)
#    0.000    2.286    1.429    1.286    0.000    3.429 
#    0.000    0.714    0.000    0.000    0.000    0.000 
#    0.000    0.000    0.000    0.000    0.000    0.000 
#
# Total GULP energy -347126.471554 kJ/mol
# GULP energy per Si atom -12397.373984 kJ/mol
# Density = 1.918453 g / cm^3
# Si number density = 19.228297 Si / 1000 Ang^3
#
#
#
# Elastic Constant Matrix: (Units=GPa)
#
#
# Indices 1 2 3 4 5 6 
#
# 1 121.5070 61.7708 42.3024 0.0000 11.8279 0.0000
# 2 61.7708 83.9558 29.8896 0.0000 6.6882 0.0000
# 3 42.3024 29.8896 91.4533 0.0000 7.4399 0.0000
# 4 0.0000 0.0000 0.0000 18.5439 0.0000 2.8780
# 5 11.8279 6.6882 7.4399 0.0000 13.8432 0.0000
# 6 0.0000 0.0000 0.0000 2.8780 0.0000 36.2646
#
#
#
# Elastic Compliance Matrix: (Units=1/GPa)
#
#
# Indices 1 2 3 4 5 6 
#
# 1 0.014596 -0.009070 -0.003272 0.000000 -0.006331 0.000000
# 2 -0.009070 0.019369 -0.002096 0.000000 -0.000482 0.000000
# 3 -0.003272 -0.002096 0.013410 0.000000 -0.003398 0.000000
# 4 0.000000 0.000000 0.000000 0.054598 0.000000 -0.004333
# 5 -0.006331 -0.000482 -0.003398 0.000000 0.079706 0.000000
# 6 0.000000 0.000000 0.000000 -0.004333 0.000000 0.027919
#
#
# Mechanical properties :
#
#
# Convention : Reuss Voigt Hill
#
# Bulk Modulus (GPa) = 54.05767 62.76018 58.40893
# Shear Modulus (GPa) = 20.43812 24.59390 22.51601
#
# Velocity S-wave (km/s) = 3.26378 3.58026 3.42568
# Velocity P-wave (km/s) = 6.50981 7.05701 6.78892
#
# Compressibility (1/GPa) = 0.01849876
#
# Stress axis : x y z
#
# Youngs Moduli (GPa) = 68.50972 51.62930 74.57364
#
# Poissons Ratio (x) = 0.46828 0.24403
# Poissons Ratio (y) = 0.62139 0.15628
# Poissons Ratio (z) = 0.22419 0.10820
#
# Static dielectric constant tensor:
#      x y z
#    x 3.256890 0.000000 -0.280280 
#    y 0.000000 3.539990 0.000000 
#    z -0.280280 0.000000 3.785570 
# 
# 
# High freq. dielectric constant tensor:
#      x y z
#    x 1.717710 0.000000 -0.018460 
#    y 0.000000 1.749970 0.000000 
#    z -0.018460 0.000000 1.757060 
# 
# From -- ./inp_files/37386.got.cif
#   From: 2010.06.25/outbox.cif.g09.slc.cpg/sg11_19_cif.got.tgz:37386.got - 2010.06.27 23:14:04.
