data_PCOD8073294
_publ_section_title
;
Structure prediction by ZEFSAII (Michael W. Deem and Ramdas Pophale) SiO2 
 PCOD8073294
Probable space group: P 21/M
;
_chemical_formula_sum "Si O2"
_cell_formula_units_Z 20
_cell_length_a 16.603600
_cell_length_b 9.708611
_cell_length_c 14.723963
_cell_angle_alpha 90.000000
_cell_angle_beta 27.512322
_cell_angle_gamma 90.000000
_cell_volume 1096.400060
_symmetry_space_group_name_H-M "P 21/M"
_symmetry_group_IT_number 11
_symmetry_cell_setting 'monoclinic'
loop_
_space_group_symop_operation_xyz
x,y,z
-x,1/2+y,-z
-x,-y,-z
x,1/2-y,z
loop_
_atom_site_type_symbol
_atom_site_label
_atom_site_fract_x
_atom_site_fract_y
_atom_site_fract_z
Si Si1 0.206966 0.402803 0.870836
Si Si2 0.499742 0.585974 0.091489
Si Si3 0.806465 0.913553 0.915799
Si Si4 0.793308 0.097193 0.284692
Si Si5 0.192694 0.913543 0.529415
O O1 0.287071 0.250000 0.778597
O O2 0.288239 0.500025 0.711626
O O3 0.253529 0.464372 0.923977
O O4 0.000123 0.394798 0.068248
O O5 0.499896 0.750000 0.072431
O O6 0.329234 0.537863 0.317361
O O7 0.500000 0.500000 0.000000
O O8 0.669767 0.537731 0.977133
O O9 0.814008 0.750000 0.912772
O O10 0.999561 0.971447 0.697858
O O11 0.713159 0.250000 0.352806
O O12 0.747029 0.035568 0.430709
O O13 0.185053 0.750000 0.541691
#
# Coordination Sequence:
#
# PCOD8073294 Si02
#       5
#     4   4   4   4   4
#     4   8  13  23  41  64  89 117 147 177 211 255
#     4  10  20  34  51  68  88 116 151 192 233 270
#     4   8  15  29  48  68  91 121 153 181 217 271
#     4   8  13  23  41  64  89 117 147 177 211 255
#     4   8  15  29  48  68  91 121 153 181 217 271
#
# _framework density 18.241517000000002
#
# number of rings (size 3 to 8) (size 9 to 14) (size 15 to 20)
#    0.000    3.600    0.000    2.400    0.000    0.800 
#    0.000    3.000    0.000    2.400    0.000    0.000 
#    0.000    0.000    0.000    0.000    0.000    0.000 
#
# Total GULP energy -247819.388290 kJ/mol
# GULP energy per Si atom -12390.969415 kJ/mol
# Density = 1.820000 g / cm^3
# Si number density = 18.241517 Si / 1000 Ang^3
#
#
#
# Elastic Constant Matrix: (Units=GPa)
#
#
# Indices 1 2 3 4 5 6 
#
# 1 135.6206 48.6060 100.3882 0.0000 30.7331 0.0000
# 2 48.6060 49.6392 36.2083 0.0000 14.5872 0.0000
# 3 100.3882 36.2083 96.6001 0.0000 12.3540 0.0000
# 4 0.0000 0.0000 0.0000 16.7245 0.0000 12.9729
# 5 30.7331 14.5872 12.3540 0.0000 26.8233 0.0000
# 6 0.0000 0.0000 0.0000 12.9729 0.0000 27.0600
#
#
#
# Elastic Compliance Matrix: (Units=1/GPa)
#
#
# Indices 1 2 3 4 5 6 
#
# 1 0.055150 -0.006726 -0.050131 0.000000 -0.036442 0.000000
# 2 -0.006726 0.031934 -0.003979 0.000000 -0.007828 0.000000
# 3 -0.050131 -0.003979 0.059843 0.000000 0.032040 0.000000
# 4 0.000000 0.000000 0.000000 0.095192 0.000000 -0.045637
# 5 -0.036442 -0.007828 0.032040 0.000000 0.068535 0.000000
# 6 0.000000 0.000000 0.000000 -0.045637 0.000000 0.058834
#
#
# Mechanical properties :
#
#
# Convention : Reuss Voigt Hill
#
# Bulk Modulus (GPa) = 39.59660 72.47389 56.03524
# Shear Modulus (GPa) = 10.00846 20.56538 15.28692
#
# Velocity S-wave (km/s) = 2.34490 3.36131 2.89801
# Velocity P-wave (km/s) = 5.39309 7.40817 6.47944
#
# Compressibility (1/GPa) = 0.02525470
#
# Stress axis : x y z
#
# Youngs Moduli (GPa) = 18.13243 31.31469 16.71049
#
# Poissons Ratio (x) = 0.21062 0.83771
# Poissons Ratio (y) = 0.12196 0.06649
# Poissons Ratio (z) = 0.90900 0.12460
#
# Static dielectric constant tensor:
#      x y z
#    x 3.556590 0.000000 -0.014590 
#    y 0.000000 3.177300 0.000000 
#    z -0.014590 0.000000 3.566850 
# 
# 
# High freq. dielectric constant tensor:
#      x y z
#    x 1.706640 0.000000 0.006210 
#    y 0.000000 1.653900 0.000000 
#    z 0.006210 0.000000 1.701620 
# 
# From -- ./inp_files/16368.got.cif
#   From: 2010.06.25/outbox.cif.g09.slc.cpg/sg11_9_cif.got.tgz:16368.got - 2010.06.27 23:14:04.
