data_PCOD8073099
_publ_section_title
;
Structure prediction by ZEFSAII (Michael W. Deem and Ramdas Pophale) SiO2 
 PCOD8073099
Probable space group: P 21/M
;
_chemical_formula_sum "Si O2"
_cell_formula_units_Z 28
_cell_length_a 14.650547
_cell_length_b 13.266133
_cell_length_c 9.176637
_cell_angle_alpha 90.000000
_cell_angle_beta 133.601120
_cell_angle_gamma 90.000000
_cell_volume 1291.562125
_symmetry_space_group_name_H-M "P 21/M"
_symmetry_group_IT_number 11
_symmetry_cell_setting 'monoclinic'
loop_
_space_group_symop_operation_xyz
x,y,z
-x,1/2+y,-z
-x,-y,-z
x,1/2-y,z
loop_
_atom_site_type_symbol
_atom_site_label
_atom_site_fract_x
_atom_site_fract_y
_atom_site_fract_z
Si Si1 0.643024 0.864401 0.982879
Si Si2 0.415564 0.362782 0.411774
Si Si3 0.802313 0.004312 0.815489
Si Si4 0.591638 0.128670 0.103526
Si Si5 0.823395 0.366253 0.557665
Si Si6 0.901651 0.633494 0.149947
Si Si7 0.340990 0.634186 0.139314
O O1 0.654122 0.750000 0.046401
O O2 0.787329 0.907709 0.129704
O O3 0.576457 0.875105 0.753159
O O4 0.544461 0.915412 0.989917
O O5 0.374485 0.250000 0.411491
O O6 0.318192 0.441210 0.372268
O O7 0.552136 0.386480 0.624039
O O8 0.846030 0.067981 0.726339
O O9 0.778797 0.078241 0.927162
O O10 0.902242 0.925088 0.994140
O O11 0.587490 0.250000 0.098046
O O12 0.709153 0.092876 0.333337
O O13 0.617235 0.086024 0.969347
O O14 0.798084 0.250000 0.574739
O O15 0.959375 0.375560 0.623791
O O16 0.869800 0.750000 0.078363
O O17 0.306830 0.750000 0.079245
#
# Coordination Sequence:
#
# PCOD8073099 Si02
#       7
#     4   4   4   4   4   4   4
#     4   8  14  29  53  75  97 130 172 212 252 302
#     4   9  18  33  52  75 106 140 172 213 264 313
#     4  11  19  32  53  81 105 135 175 221 264 313
#     4   9  18  33  53  77 105 139 177 215 257 311
#     4  10  20  35  56  79 105 140 179 216 260 315
#     4   9  19  35  55  78 105 139 178 220 263 310
#     4  10  20  33  51  79 113 141 170 215 267 312
#
# _framework density 21.679174
#
# number of rings (size 3 to 8) (size 9 to 14) (size 15 to 20)
#    0.000    2.571    0.000    3.429    0.000    3.429 
#    0.000    7.143    0.000    3.429    0.000   20.000 
#    0.000    0.000    0.000    0.000    0.000    0.000 
#
# Total GULP energy -346898.596776 kJ/mol
# GULP energy per Si atom -12389.235599 kJ/mol
# Density = 2.162983 g / cm^3
# Si number density = 21.679174 Si / 1000 Ang^3
#
#
#
# Elastic Constant Matrix: (Units=GPa)
#
#
# Indices 1 2 3 4 5 6 
#
# 1 124.4646 20.7270 54.9465 0.0000 6.1563 0.0000
# 2 20.7270 30.2518 11.5684 0.0000 4.8783 0.0000
# 3 54.9465 11.5684 52.0103 0.0000 5.4816 0.0000
# 4 0.0000 0.0000 0.0000 11.2045 0.0000 2.1860
# 5 6.1563 4.8783 5.4816 0.0000 23.6850 0.0000
# 6 0.0000 0.0000 0.0000 2.1860 0.0000 18.9716
#
#
#
# Elastic Compliance Matrix: (Units=1/GPa)
#
#
# Indices 1 2 3 4 5 6 
#
# 1 0.015680 -0.004888 -0.015533 0.000000 0.000526 0.000000
# 2 -0.004888 0.038425 -0.002750 0.000000 -0.006007 0.000000
# 3 -0.015533 -0.002750 0.036658 0.000000 -0.003880 0.000000
# 4 0.000000 0.000000 0.000000 0.091302 0.000000 -0.010520
# 5 0.000526 -0.006007 -0.003880 0.000000 0.044219 0.000000
# 6 0.000000 0.000000 0.000000 -0.010520 0.000000 0.053923
#
#
# Mechanical properties :
#
#
# Convention : Reuss Voigt Hill
#
# Bulk Modulus (GPa) = 22.51200 42.35674 32.43437
# Shear Modulus (GPa) = 14.64750 18.73785 16.69268
#
# Velocity S-wave (km/s) = 2.60214 2.94313 2.77787
# Velocity P-wave (km/s) = 4.40850 5.57940 5.02815
#
# Compressibility (1/GPa) = 0.04442075
#
# Stress axis : x y z
#
# Youngs Moduli (GPa) = 63.77684 26.02473 27.27943
#
# Poissons Ratio (x) = 0.12720 0.42374
# Poissons Ratio (y) = 0.31173 0.07501
# Poissons Ratio (z) = 0.99066 0.07156
#
# Static dielectric constant tensor:
#      x y z
#    x 3.947550 0.000000 0.178530 
#    y 0.000000 4.053420 0.000000 
#    z 0.178530 0.000000 3.691270 
# 
# 
# High freq. dielectric constant tensor:
#      x y z
#    x 1.841160 0.000000 0.015360 
#    y 0.000000 1.867620 0.000000 
#    z 0.015360 0.000000 1.822610 
# 
# From -- ./inp_files/22274.got.cif
#   From: 2010.06.25/outbox.cif.g09.slc.cpg/sg11_12_cif.got.tgz:22274.got - 2010.06.27 23:14:04.
