data_PCOD8073939
_publ_section_title
;
Structure prediction by ZEFSAII (Michael W. Deem and Ramdas Pophale) SiO2 
 PCOD8073939
Probable space group: P 21/M
;
_chemical_formula_sum "Si O2"
_cell_formula_units_Z 28
_cell_length_a 22.866056
_cell_length_b 8.784225
_cell_length_c 20.072978
_cell_angle_alpha 90.000000
_cell_angle_beta 160.120836
_cell_angle_gamma 90.000000
_cell_volume 1370.987346
_symmetry_space_group_name_H-M "P 21/M"
_symmetry_group_IT_number 11
_symmetry_cell_setting 'monoclinic'
loop_
_space_group_symop_operation_xyz
x,y,z
-x,1/2+y,-z
-x,-y,-z
x,1/2-y,z
loop_
_atom_site_type_symbol
_atom_site_label
_atom_site_fract_x
_atom_site_fract_y
_atom_site_fract_z
Si Si1 0.960053 0.573963 0.259116
Si Si2 0.404926 0.569490 0.554665
Si Si3 0.385995 0.572397 0.821143
Si Si4 0.944467 0.929740 0.871265
Si Si5 0.667272 0.073478 0.378593
Si Si6 0.972039 0.572231 0.541052
Si Si7 0.784393 0.574180 0.935964
O O1 0.981316 0.750000 0.301412
O O2 0.141063 0.505126 0.426076
O O3 0.901587 0.487971 0.264748
O O4 0.817269 0.549357 0.049784
O O5 0.376558 0.750000 0.521323
O O6 0.245864 0.489517 0.348551
O O7 0.416338 0.507272 0.643466
O O8 0.584719 0.527260 0.710428
O O9 0.356647 0.750000 0.806039
O O10 0.453914 0.550045 0.817396
O O11 0.214143 0.477221 0.635317
O O12 0.500000 0.500000 0.000000
O O13 0.936622 0.750000 0.869041
O O14 0.000000 0.000000 0.000000
O O15 0.086190 0.972648 0.967970
O O16 0.695008 0.250000 0.421171
O O17 0.993408 0.750000 0.556209
O O18 0.000000 0.500000 0.500000
O O19 0.816738 0.750000 0.951251
#
# Coordination Sequence:
#
# PCOD8073939 Si02
#       7
#     4   4   4   4   4   4   4
#     4   9  17  34  58  84 118 158 201 249 307 376
#     4  10  20  39  67  97 125 161 209 257 308 373
#     4  10  20  35  54  81 115 157 203 252 308 369
#     4  12  26  44  67  93 129 170 208 258 313 373
#     4   8  15  31  56  82 115 156 200 245 299 369
#     4  11  22  36  54  79 114 157 205 258 312 367
#     4  10  21  39  67  98 129 165 207 255 310 377
#
# _framework density 20.423235999999999
#
# number of rings (size 3 to 8) (size 9 to 14) (size 15 to 20)
#    0.000    2.000    1.429    3.857    0.000    2.857 
#    0.000    3.571    0.000    0.000    0.000    0.000 
#    0.000    0.000    0.000    0.000    0.000    0.000 
#
# Total GULP energy -346940.430107 kJ/mol
# GULP energy per Si atom -12390.729647 kJ/mol
# Density = 2.037675 g / cm^3
# Si number density = 20.423236 Si / 1000 Ang^3
#
#
#
# Elastic Constant Matrix: (Units=GPa)
#
#
# Indices 1 2 3 4 5 6 
#
# 1 87.4277 45.5970 46.5402 0.0000 -14.2065 0.0000
# 2 45.5970 107.6063 46.1769 0.0000 -4.0287 0.0000
# 3 46.5402 46.1769 121.2601 0.0000 -8.2735 0.0000
# 4 0.0000 0.0000 0.0000 28.9725 0.0000 -6.3301
# 5 -14.2065 -4.0287 -8.2735 0.0000 31.6268 0.0000
# 6 0.0000 0.0000 0.0000 -6.3301 0.0000 30.2639
#
#
#
# Elastic Compliance Matrix: (Units=1/GPa)
#
#
# Indices 1 2 3 4 5 6 
#
# 1 0.017480 -0.005354 -0.004257 0.000000 0.006056 0.000000
# 2 -0.005354 0.012751 -0.002906 0.000000 -0.001541 0.000000
# 3 -0.004257 -0.002906 0.011028 0.000000 0.000603 0.000000
# 4 0.000000 0.000000 0.000000 0.036168 0.000000 0.007565
# 5 0.006056 -0.001541 0.000603 0.000000 0.034301 0.000000
# 6 0.000000 0.000000 0.000000 0.007565 0.000000 0.034625
#
#
# Mechanical properties :
#
#
# Convention : Reuss Voigt Hill
#
# Bulk Modulus (GPa) = 61.62840 65.88026 63.75433
# Shear Modulus (GPa) = 28.28113 30.03798 29.15955
#
# Velocity S-wave (km/s) = 3.72526 3.83923 3.78268
# Velocity P-wave (km/s) = 6.98173 7.20975 7.09665
#
# Compressibility (1/GPa) = 0.01622629
#
# Stress axis : x y z
#
# Youngs Moduli (GPa) = 57.20670 78.42484 90.67457
#
# Poissons Ratio (x) = 0.41985 0.38602
# Poissons Ratio (y) = 0.30626 0.26351
# Poissons Ratio (z) = 0.24354 0.22791
#
# Static dielectric constant tensor:
#      x y z
#    x 4.233870 0.000000 -0.487540 
#    y 0.000000 3.770450 0.000000 
#    z -0.487540 0.000000 3.860530 
# 
# 
# High freq. dielectric constant tensor:
#      x y z
#    x 1.807010 0.000000 -0.014830 
#    y 0.000000 1.774940 0.000000 
#    z -0.014830 0.000000 1.793270 
# 
# From -- ./inp_files/66729.got.cif
#   From: 2010.06.25/outbox.cif.g09.slc.cpg/sg11_34_cif.got.tgz:66729.got - 2010.06.27 23:14:04.
