data_PCOD8073821
_publ_section_title
;
Structure prediction by ZEFSAII (Michael W. Deem and Ramdas Pophale) SiO2 
 PCOD8073821
Probable space group: P 21/M
;
_chemical_formula_sum "Si O2"
_cell_formula_units_Z 32
_cell_length_a 19.403252
_cell_length_b 9.021540
_cell_length_c 12.561914
_cell_angle_alpha 90.000000
_cell_angle_beta 115.328982
_cell_angle_gamma 90.000000
_cell_volume 1987.536878
_symmetry_space_group_name_H-M "P 21/M"
_symmetry_group_IT_number 11
_symmetry_cell_setting 'monoclinic'
loop_
_space_group_symop_operation_xyz
x,y,z
-x,1/2+y,-z
-x,-y,-z
x,1/2-y,z
loop_
_atom_site_type_symbol
_atom_site_label
_atom_site_fract_x
_atom_site_fract_y
_atom_site_fract_z
Si Si1 0.836734 0.926401 0.994708
Si Si2 0.190973 0.920269 0.465049
Si Si3 0.043550 0.080299 0.435769
Si Si4 0.691697 0.421831 0.285663
Si Si5 0.854033 0.075778 0.796427
Si Si6 0.731935 0.582868 0.117390
Si Si7 0.992235 0.422932 0.167029
Si Si8 0.573548 0.583442 0.088951
O O1 0.843009 0.750000 0.989149
O O2 0.773782 0.976133 0.039788
O O3 0.810235 0.997107 0.865042
O O4 0.917060 0.995876 0.078768
O O5 0.167074 0.750000 0.466972
O O6 0.272400 0.953455 0.574328
O O7 0.195685 0.956081 0.342514
O O8 0.128359 0.019016 0.480966
O O9 0.050638 0.250000 0.472020
O O10 0.996777 0.056811 0.296532
O O11 0.000000 0.000000 0.500000
O O12 0.676668 0.250000 0.256950
O O13 0.750734 0.480225 0.232814
O O14 0.610330 0.506316 0.219085
O O15 0.863512 0.250000 0.823900
O O16 0.937080 0.002443 0.842808
O O17 0.759690 0.750000 0.160886
O O18 0.639388 0.580120 0.040543
O O19 0.991413 0.250000 0.133903
O O20 0.549971 0.750000 0.103396
O O21 0.500000 0.500000 0.000000
#
# Coordination Sequence:
#
# PCOD8073821 Si02
#       8
#     4   4   4   4   4   4   4   4
#     4  11  21  34  50  69  95 126 161 205 249 290
#     4   9  19  34  49  67  93 123 159 199 240 285
#     4  10  21  32  45  64  89 121 158 198 245 293
#     4   9  17  30  50  73  98 126 155 190 231 280
#     4  10  20  35  51  68  91 125 166 209 249 288
#     4   8  19  33  46  70 101 128 156 189 236 287
#     4  10  21  35  48  66  89 122 165 207 249 295
#     4   9  17  31  49  75 105 133 158 186 228 280
#
# _framework density 16.10033
#
# number of rings (size 3 to 8) (size 9 to 14) (size 15 to 20)
#    0.750    1.750    0.000    2.250    1.750    4.000 
#    0.000    0.000    0.000    0.000    0.000    0.875 
#    0.000    0.000    0.000    0.000    0.000    0.000 
#
# Total GULP energy -396592.001805 kJ/mol
# GULP energy per Si atom -12393.500056 kJ/mol
# Density = 1.606368 g / cm^3
# Si number density = 16.100330 Si / 1000 Ang^3
#
#
#
# Elastic Constant Matrix: (Units=GPa)
#
#
# Indices 1 2 3 4 5 6 
#
# 1 43.4524 27.2328 42.9471 0.0000 2.3216 0.0000
# 2 27.2328 99.2754 52.7366 0.0000 6.0357 0.0000
# 3 42.9471 52.7366 103.6353 0.0000 11.2265 0.0000
# 4 0.0000 0.0000 0.0000 26.9803 0.0000 -1.5032
# 5 2.3216 6.0357 11.2265 0.0000 21.0171 0.0000
# 6 0.0000 0.0000 0.0000 -1.5032 0.0000 24.7896
#
#
#
# Elastic Compliance Matrix: (Units=1/GPa)
#
#
# Indices 1 2 3 4 5 6 
#
# 1 0.040039 -0.002994 -0.015585 0.000000 0.004762 0.000000
# 2 -0.002994 0.014030 -0.005835 0.000000 -0.000581 0.000000
# 3 -0.015585 -0.005835 0.019858 0.000000 -0.007210 0.000000
# 4 0.000000 0.000000 0.000000 0.037190 0.000000 0.002255
# 5 0.004762 -0.000581 -0.007210 0.000000 0.051072 0.000000
# 6 0.000000 0.000000 0.000000 0.002255 0.000000 0.040476
#
#
# Mechanical properties :
#
#
# Convention : Reuss Voigt Hill
#
# Bulk Modulus (GPa) = 39.84317 54.68846 47.26582
# Shear Modulus (GPa) = 19.24111 22.78717 21.01414
#
# Velocity S-wave (km/s) = 3.46074 3.76616 3.61667
# Velocity P-wave (km/s) = 6.38510 7.27688 6.84553
#
# Compressibility (1/GPa) = 0.02509841
#
# Stress axis : x y z
#
# Youngs Moduli (GPa) = 24.97548 71.27823 50.35701
#
# Poissons Ratio (x) = 0.21341 0.78480
# Poissons Ratio (y) = 0.07478 0.29386
# Poissons Ratio (z) = 0.38924 0.41594
#
# Static dielectric constant tensor:
#      x y z
#    x 2.358640 0.000000 0.020050 
#    y 0.000000 3.211320 0.000000 
#    z 0.020050 0.000000 3.102220 
# 
# 
# High freq. dielectric constant tensor:
#      x y z
#    x 1.581170 0.000000 -0.003990 
#    y 0.000000 1.637900 0.000000 
#    z -0.003990 0.000000 1.616000 
# 
# From -- ./inp_files/42555.got.cif
#   From: 2010.06.25/outbox.cif.g09.slc.cpg/sg11_22_cif.got.tgz:42555.got - 2010.06.27 23:14:04.
