data_PCOD8073489
_publ_section_title
;
Structure prediction by ZEFSAII (Michael W. Deem and Ramdas Pophale) SiO2 
 PCOD8073489
Probable space group: P 21/M
;
_chemical_formula_sum "Si O2"
_cell_formula_units_Z 24
_cell_length_a 14.565499
_cell_length_b 10.600676
_cell_length_c 8.551816
_cell_angle_alpha 90.000000
_cell_angle_beta 71.595200
_cell_angle_gamma 90.000000
_cell_volume 1252.894894
_symmetry_space_group_name_H-M "P 21/M"
_symmetry_group_IT_number 11
_symmetry_cell_setting 'monoclinic'
loop_
_space_group_symop_operation_xyz
x,y,z
-x,1/2+y,-z
-x,-y,-z
x,1/2-y,z
loop_
_atom_site_type_symbol
_atom_site_label
_atom_site_fract_x
_atom_site_fract_y
_atom_site_fract_z
Si Si1 0.521977 0.045425 0.741930
Si Si2 0.002916 0.108712 0.371019
Si Si3 0.372713 0.112305 0.067552
Si Si4 0.172079 0.103926 0.040481
Si Si5 0.838728 0.103687 0.206075
Si Si6 0.376896 0.887250 0.613952
O O1 0.463274 0.126493 0.900027
O O2 0.583803 0.124131 0.584663
O O3 0.442201 0.969956 0.689498
O O4 0.599664 0.962189 0.792223
O O5 0.995502 0.250000 0.449513
O O6 0.103555 0.097361 0.226459
O O7 0.913572 0.086824 0.304671
O O8 0.000000 0.000000 0.500000
O O9 0.343402 0.250000 0.142738
O O10 0.278827 0.054678 0.032553
O O11 0.174272 0.250000 0.973886
O O12 0.132911 0.000955 0.938235
O O13 0.842372 0.250000 0.141417
O O14 0.733409 0.065370 0.329185
O O15 0.380586 0.750000 0.688417
#
# Coordination Sequence:
#
# PCOD8073489 Si02
#       6
#     4   4   4   4   4   4
#     4  10  20  34  54  78 110 146 192 218 284 318
#     4  10  23  40  62  86 116 144 183 234 282 336
#     4  10  20  35  54  79 112 145 186 231 275 326
#     4  10  21  39  59  85 114 148 187 231 278 333
#     4  10  21  39  59  85 114 148 187 231 278 333
#     4  10  20  35  54  79 112 145 186 231 275 326
#
# _framework density 19.155636000000001
#
# number of rings (size 3 to 8) (size 9 to 14) (size 15 to 20)
#    0.000    2.000    1.667    1.500    2.333    1.333 
#    0.000    1.667    0.000    0.000    0.000    0.000 
#    0.000    0.000    0.000    0.000    0.000    0.000 
#
# Total GULP energy -297436.812526 kJ/mol
# GULP energy per Si atom -12393.200522 kJ/mol
# Density = 1.911204 g / cm^3
# Si number density = 19.155636 Si / 1000 Ang^3
#
#
#
# Elastic Constant Matrix: (Units=GPa)
#
#
# Indices 1 2 3 4 5 6 
#
# 1 87.5432 39.2930 27.8652 0.0000 5.3512 0.0000
# 2 39.2930 115.6941 50.4770 0.0000 12.8300 0.0000
# 3 27.8652 50.4770 68.9999 0.0000 4.4107 0.0000
# 4 0.0000 0.0000 0.0000 36.9623 0.0000 4.2714
# 5 5.3512 12.8300 4.4107 0.0000 28.3876 0.0000
# 6 0.0000 0.0000 0.0000 4.2714 0.0000 25.4453
#
#
#
# Elastic Compliance Matrix: (Units=1/GPa)
#
#
# Indices 1 2 3 4 5 6 
#
# 1 0.013949 -0.003269 -0.003200 0.000000 -0.000655 0.000000
# 2 -0.003269 0.014013 -0.008652 0.000000 -0.004373 0.000000
# 3 -0.003200 -0.008652 0.022045 0.000000 0.001088 0.000000
# 4 0.000000 0.000000 0.000000 0.027590 0.000000 -0.004631
# 5 -0.000655 -0.004373 0.001088 0.000000 0.037157 0.000000
# 6 0.000000 0.000000 0.000000 -0.004631 0.000000 0.040077
#
#
# Mechanical properties :
#
#
# Convention : Reuss Voigt Hill
#
# Bulk Modulus (GPa) = 50.59279 56.38973 53.49126
# Shear Modulus (GPa) = 26.08768 28.46583 27.27676
#
# Velocity S-wave (km/s) = 3.69437 3.85909 3.77763
# Velocity P-wave (km/s) = 6.68331 7.02555 6.85656
#
# Compressibility (1/GPa) = 0.01976566
#
# Stress axis : x y z
#
# Youngs Moduli (GPa) = 71.69171 71.36055 45.36193
#
# Poissons Ratio (x) = 0.23324 0.14516
# Poissons Ratio (y) = 0.23433 0.39247
# Poissons Ratio (z) = 0.22942 0.61741
#
# Static dielectric constant tensor:
#      x y z
#    x 3.651150 0.000000 -0.103560 
#    y 0.000000 3.575000 0.000000 
#    z -0.103560 0.000000 3.375430 
# 
# 
# High freq. dielectric constant tensor:
#      x y z
#    x 1.762920 0.000000 -0.004090 
#    y 0.000000 1.747350 0.000000 
#    z -0.004090 0.000000 1.728290 
# 
# From -- ./inp_files/16962.got.cif
#   From: 2010.06.25/outbox.cif.g09.slc.cpg/sg11_9_cif.got.tgz:16962.got - 2010.06.27 23:14:04.
