data_PCOD8073984
_publ_section_title
;
Structure prediction by ZEFSAII (Michael W. Deem and Ramdas Pophale) SiO2 
 PCOD8073984
Probable space group: P 21/M
;
_chemical_formula_sum "Si O2"
_cell_formula_units_Z 32
_cell_length_a 25.342915
_cell_length_b 9.171714
_cell_length_c 14.612053
_cell_angle_alpha 90.000000
_cell_angle_beta 30.417299
_cell_angle_gamma 90.000000
_cell_volume 1719.575399
_symmetry_space_group_name_H-M "P 21/M"
_symmetry_group_IT_number 11
_symmetry_cell_setting 'monoclinic'
loop_
_space_group_symop_operation_xyz
x,y,z
-x,1/2+y,-z
-x,-y,-z
x,1/2-y,z
loop_
_atom_site_type_symbol
_atom_site_label
_atom_site_fract_x
_atom_site_fract_y
_atom_site_fract_z
Si Si1 0.781113 0.923738 0.447160
Si Si2 0.763582 0.584740 0.765604
Si Si3 0.732013 0.921988 0.322104
Si Si4 0.058388 0.080280 0.645943
Si Si5 0.710850 0.419019 0.022871
Si Si6 0.393223 0.082614 0.158177
Si Si7 0.155680 0.422307 0.028127
Si Si8 0.513774 0.919199 0.574411
O O1 0.778189 0.750000 0.454841
O O2 0.775810 0.987823 0.352127
O O3 0.886430 0.972858 0.342144
O O4 0.681120 0.983331 0.651819
O O5 0.768231 0.750000 0.796219
O O6 0.865476 0.551437 0.553143
O O7 0.660599 0.562428 0.859405
O O8 0.759527 0.473700 0.855432
O O9 0.724984 0.750000 0.343772
O O10 0.615873 0.981713 0.473793
O O11 0.812702 0.966299 0.122324
O O12 0.027601 0.250000 0.697659
O O13 0.957196 0.984332 0.780311
O O14 0.739818 0.250000 0.991394
O O15 0.586164 0.443554 0.210980
O O16 0.758703 0.508909 0.034299
O O17 0.416701 0.250000 0.143853
O O18 0.500000 0.000000 0.000000
O O19 0.155514 0.250000 0.042862
O O20 0.529842 0.750000 0.526721
O O21 0.500000 0.000000 0.500000
#
# Coordination Sequence:
#
# PCOD8073984 Si02
#       8
#     4   4   4   4   4   4   4   4
#     4   8  16  33  56  78 106 144 180 216 265 323
#     4   9  20  38  56  78 110 147 182 222 276 327
#     4   9  18  33  54  81 110 143 181 214 262 329
#     4   9  19  38  60  80 106 142 183 228 270 320
#     4  11  23  36  56  85 110 142 186 228 269 322
#     4   9  18  32  53  79 108 143 181 219 265 319
#     4  11  22  36  57  81 109 146 180 225 279 323
#     4  10  20  35  55  79 110 146 181 220 268 321
#
# _framework density 18.609245999999999
#
# number of rings (size 3 to 8) (size 9 to 14) (size 15 to 20)
#    0.000    2.500    1.250    2.250    1.750    2.500 
#    0.000    1.875    0.000    3.000    0.000    0.000 
#    0.000    0.000    0.000    0.000    0.000    0.000 
#
# Total GULP energy -396763.072326 kJ/mol
# GULP energy per Si atom -12398.846010 kJ/mol
# Density = 1.856689 g / cm^3
# Si number density = 18.609246 Si / 1000 Ang^3
#
#
#
# Elastic Constant Matrix: (Units=GPa)
#
#
# Indices 1 2 3 4 5 6 
#
# 1 62.4944 28.8039 24.1989 0.0000 17.1274 0.0000
# 2 28.8039 63.3149 38.6763 0.0000 2.6273 0.0000
# 3 24.1989 38.6763 85.9786 0.0000 -3.7215 0.0000
# 4 0.0000 0.0000 0.0000 27.4065 0.0000 -2.8907
# 5 17.1274 2.6273 -3.7215 0.0000 32.3284 0.0000
# 6 0.0000 0.0000 0.0000 -2.8907 0.0000 24.2369
#
#
#
# Elastic Compliance Matrix: (Units=1/GPa)
#
#
# Indices 1 2 3 4 5 6 
#
# 1 0.024923 -0.008513 -0.003745 0.000000 -0.012943 0.000000
# 2 -0.008513 0.024963 -0.008769 0.000000 0.001472 0.000000
# 3 -0.003745 -0.008769 0.016830 0.000000 0.004634 0.000000
# 4 0.000000 0.000000 0.000000 0.036953 0.000000 0.004407
# 5 -0.012943 0.001472 0.004634 0.000000 0.038204 0.000000
# 6 0.000000 0.000000 0.000000 0.004407 0.000000 0.041785
#
#
# Mechanical properties :
#
#
# Convention : Reuss Voigt Hill
#
# Bulk Modulus (GPa) = 40.55139 43.90513 42.22826
# Shear Modulus (GPa) = 21.37369 24.80162 23.08765
#
# Velocity S-wave (km/s) = 3.39271 3.65466 3.52611
# Velocity P-wave (km/s) = 6.09800 6.43841 6.27051
#
# Compressibility (1/GPa) = 0.02466007
#
# Stress axis : x y z
#
# Youngs Moduli (GPa) = 40.12407 40.05976 59.41672
#
# Poissons Ratio (x) = 0.34104 0.22253
# Poissons Ratio (y) = 0.34158 0.52105
# Poissons Ratio (z) = 0.15027 0.35130
#
# Static dielectric constant tensor:
#      x y z
#    x 3.648680 0.000000 0.038520 
#    y 0.000000 3.166090 0.000000 
#    z 0.038520 0.000000 3.475280 
# 
# 
# High freq. dielectric constant tensor:
#      x y z
#    x 1.728160 0.000000 -0.000970 
#    y 0.000000 1.695420 0.000000 
#    z -0.000970 0.000000 1.728200 
# 
# From -- ./inp_files/51781.got.cif
#   From: 2010.06.25/outbox.cif.g09.slc.cpg/sg11_26_cif.got.tgz:51781.got - 2010.06.27 23:14:04.
