data_PCOD8073119
_publ_section_title
;
Structure prediction by ZEFSAII (Michael W. Deem and Ramdas Pophale) SiO2 
 PCOD8073119
Probable space group: P 21/M
;
_chemical_formula_sum "Si O2"
_cell_formula_units_Z 24
_cell_length_a 9.105553
_cell_length_b 8.849549
_cell_length_c 18.914067
_cell_angle_alpha 90.000000
_cell_angle_beta 121.319001
_cell_angle_gamma 90.000000
_cell_volume 1302.014824
_symmetry_space_group_name_H-M "P 21/M"
_symmetry_group_IT_number 11
_symmetry_cell_setting 'monoclinic'
loop_
_space_group_symop_operation_xyz
x,y,z
-x,1/2+y,-z
-x,-y,-z
x,1/2-y,z
loop_
_atom_site_type_symbol
_atom_site_label
_atom_site_fract_x
_atom_site_fract_y
_atom_site_fract_z
Si Si1 0.009613 0.916416 0.338490
Si Si2 0.366358 0.429118 0.765472
Si Si3 0.346748 0.077049 0.420914
Si Si4 0.643846 0.069995 0.085163
Si Si5 0.656223 0.926401 0.745626
Si Si6 0.997082 0.579824 0.167528
O O1 0.048505 0.750000 0.378456
O O2 0.820084 0.971702 0.315107
O O3 0.005664 0.912949 0.253394
O O4 0.161412 0.023510 0.404200
O O5 0.375818 0.250000 0.783073
O O6 0.395389 0.518358 0.845136
O O7 0.507043 0.478935 0.744720
O O8 0.360358 0.250000 0.442487
O O9 0.362323 0.042737 0.342075
O O10 0.500000 0.000000 0.500000
O O11 0.642145 0.250000 0.080594
O O12 0.826290 0.009317 0.101913
O O13 0.500000 0.000000 0.000000
O O14 0.641488 0.750000 0.760365
O O15 0.837865 0.988780 0.820109
O O16 0.994873 0.750000 0.135383
#
# Coordination Sequence:
#
# PCOD8073119 Si02
#       6
#     4   4   4   4   4   4
#     4   8  16  31  51  73  99 131 170 209 250 303
#     4  10  20  35  55  79 105 137 173 212 258 309
#     4  10  20  33  52  76 103 134 172 213 257 306
#     4  11  21  35  55  79 107 138 173 214 256 304
#     4  10  20  34  53  79 106 136 173 215 259 307
#     4   9  17  32  53  76 102 136 174 211 253 307
#
# _framework density 18.432970000000001
#
# number of rings (size 3 to 8) (size 9 to 14) (size 15 to 20)
#    0.000    2.333    0.000    4.500    0.000    6.667 
#    0.000    1.667    0.000    0.000    0.000    0.000 
#    0.000    0.000    0.000    0.000    0.000    0.000 
#
# Total GULP energy -297553.229580 kJ/mol
# GULP energy per Si atom -12398.051232 kJ/mol
# Density = 1.839102 g / cm^3
# Si number density = 18.432970 Si / 1000 Ang^3
#
#
#
# Elastic Constant Matrix: (Units=GPa)
#
#
# Indices 1 2 3 4 5 6 
#
# 1 116.7704 56.7872 47.0028 0.0000 40.1494 0.0000
# 2 56.7872 138.1519 72.2409 0.0000 25.2272 0.0000
# 3 47.0028 72.2409 98.3014 0.0000 39.5441 0.0000
# 4 0.0000 0.0000 0.0000 31.9015 0.0000 6.8912
# 5 40.1494 25.2272 39.5441 0.0000 31.5258 0.0000
# 6 0.0000 0.0000 0.0000 6.8912 0.0000 34.8546
#
#
#
# Elastic Compliance Matrix: (Units=1/GPa)
#
#
# Indices 1 2 3 4 5 6 
#
# 1 0.017717 -0.005783 0.006043 0.000000 -0.025515 0.000000
# 2 -0.005783 0.013775 -0.011882 0.000000 0.011246 0.000000
# 3 0.006043 -0.011882 0.030856 0.000000 -0.036891 0.000000
# 4 0.000000 0.000000 0.000000 0.032745 0.000000 -0.006474
# 5 -0.025515 0.011246 -0.036891 0.000000 0.101489 0.000000
# 6 0.000000 0.000000 0.000000 -0.006474 0.000000 0.029971
#
#
# Mechanical properties :
#
#
# Convention : Reuss Voigt Hill
#
# Bulk Modulus (GPa) = 25.57370 78.36505 51.96938
# Shear Modulus (GPa) = 19.02355 31.46923 25.24639
#
# Velocity S-wave (km/s) = 3.21602 4.13634 3.70487
# Velocity P-wave (km/s) = 5.26255 8.08815 6.82322
#
# Compressibility (1/GPa) = 0.03910267
#
# Stress axis : x y z
#
# Youngs Moduli (GPa) = 56.44380 72.59406 32.40860
#
# Poissons Ratio (x) = 0.41982 -0.19583
# Poissons Ratio (y) = 0.32642 0.38509
# Poissons Ratio (z) = -0.34107 0.86258
#
# Static dielectric constant tensor:
#      x y z
#    x 6.779550 0.000000 1.308250 
#    y 0.000000 3.657910 0.000000 
#    z 1.308250 0.000000 3.510630 
# 
# 
# High freq. dielectric constant tensor:
#      x y z
#    x 1.710900 0.000000 0.033280 
#    y 0.000000 1.731250 0.000000 
#    z 0.033280 0.000000 1.693790 
# 
# From -- ./inp_files/20508.got.cif
#   From: 2010.06.25/outbox.cif.g09.slc.cpg/sg11_11_cif.got.tgz:20508.got - 2010.06.27 23:14:04.
