data_PCOD8073243
_publ_section_title
;
Structure prediction by ZEFSAII (Michael W. Deem and Ramdas Pophale) SiO2 
 PCOD8073243
Probable space group: P 21/M
;
_chemical_formula_sum "Si O2"
_cell_formula_units_Z 24
_cell_length_a 9.165602
_cell_length_b 19.381611
_cell_length_c 8.133149
_cell_angle_alpha 90.000000
_cell_angle_beta 45.829441
_cell_angle_gamma 90.000000
_cell_volume 1036.314330
_symmetry_space_group_name_H-M "P 21/M"
_symmetry_group_IT_number 11
_symmetry_cell_setting 'monoclinic'
loop_
_space_group_symop_operation_xyz
x,y,z
-x,1/2+y,-z
-x,-y,-z
x,1/2-y,z
loop_
_atom_site_type_symbol
_atom_site_label
_atom_site_fract_x
_atom_site_fract_y
_atom_site_fract_z
Si Si1 0.247029 0.538530 0.637239
Si Si2 0.658276 0.672755 0.643738
Si Si3 0.190053 0.174313 0.837761
Si Si4 0.767616 0.538760 0.032826
Si Si5 0.730034 0.173105 0.213761
Si Si6 0.226906 0.471490 0.326629
O O1 0.306773 0.618834 0.608015
O O2 0.340674 0.509706 0.390272
O O3 0.007233 0.522904 0.828342
O O4 0.336007 0.499440 0.729384
O O5 0.723086 0.750000 0.655977
O O6 0.688415 0.665906 0.424759
O O7 0.412373 0.662626 0.837024
O O8 0.774750 0.612175 0.647954
O O9 0.219244 0.250000 0.893149
O O10 0.265819 0.120431 0.914706
O O11 0.956496 0.160819 0.969215
O O12 0.668920 0.515292 0.934879
O O13 0.699983 0.250000 0.311654
O O14 0.000000 0.500000 0.500000
#
# Coordination Sequence:
#
# PCOD8073243 Si02
#       6
#     4   4   4   4   4   4
#     4   9  17  33  55  77 113 146 179 233 278 322
#     4  10  20  36  58  83 111 147 188 231 280 330
#     4   9  17  33  58  81 107 148 187 229 282 328
#     4   9  17  31  54  81 110 144 184 226 274 334
#     4   9  19  34  58  83 106 147 193 229 279 338
#     4  10  20  33  55  85 115 147 186 230 276 338
#
# _framework density 23.158994
#
# number of rings (size 3 to 8) (size 9 to 14) (size 15 to 20)
#    0.000    2.667    1.667    0.000    2.333    1.333 
#    0.000    3.333    0.000    1.000    0.000    0.000 
#    0.000    0.000    0.000    0.000    0.000    0.000 
#
# Total GULP energy -297353.786833 kJ/mol
# GULP energy per Si atom -12389.741118 kJ/mol
# Density = 2.310628 g / cm^3
# Si number density = 23.158994 Si / 1000 Ang^3
#
#
#
# Elastic Constant Matrix: (Units=GPa)
#
#
# Indices 1 2 3 4 5 6 
#
# 1 91.0870 54.1376 27.1846 0.0000 26.0408 0.0000
# 2 54.1376 164.1303 26.9651 0.0000 32.0584 0.0000
# 3 27.1846 26.9651 69.1866 0.0000 40.0025 0.0000
# 4 0.0000 0.0000 0.0000 14.6562 0.0000 6.2474
# 5 26.0408 32.0584 40.0025 0.0000 42.3467 0.0000
# 6 0.0000 0.0000 0.0000 6.2474 0.0000 39.9862
#
#
#
# Elastic Compliance Matrix: (Units=1/GPa)
#
#
# Indices 1 2 3 4 5 6 
#
# 1 0.015099 -0.003755 -0.001640 0.000000 -0.004893 0.000000
# 2 -0.003755 0.008102 0.001166 0.000000 -0.004925 0.000000
# 3 -0.001640 0.001166 0.032107 0.000000 -0.030203 0.000000
# 4 0.000000 0.000000 0.000000 0.073099 0.000000 -0.011421
# 5 -0.004893 -0.004925 -0.030203 0.000000 0.058883 0.000000
# 6 0.000000 0.000000 0.000000 -0.011421 0.000000 0.026793
#
#
# Mechanical properties :
#
#
# Convention : Reuss Voigt Hill
#
# Bulk Modulus (GPa) = 21.34568 60.10872 40.72720
# Shear Modulus (GPa) = 20.99448 33.80560 27.40004
#
# Velocity S-wave (km/s) = 3.01414 3.82477 3.44339
# Velocity P-wave (km/s) = 4.62065 6.74658 5.78216
#
# Compressibility (1/GPa) = 0.04684789
#
# Stress axis : x y z
#
# Youngs Moduli (GPa) = 66.23131 123.42834 31.14605
#
# Poissons Ratio (x) = 0.46349 0.05108
# Poissons Ratio (y) = 0.24871 -0.03630
# Poissons Ratio (z) = 0.10863 -0.14386
#
# Static dielectric constant tensor:
#      x y z
#    x 4.288220 0.000000 0.101610 
#    y 0.000000 4.420240 0.000000 
#    z 0.101610 0.000000 4.194790 
# 
# 
# High freq. dielectric constant tensor:
#      x y z
#    x 1.900850 0.000000 -0.023750 
#    y 0.000000 1.922710 0.000000 
#    z -0.023750 0.000000 1.907250 
# 
# From -- ./inp_files/14209.got.cif
#   From: 2010.06.25/outbox.cif.g09.slc.cpg/sg11_8_cif.got.tgz:14209.got - 2010.06.27 23:14:04.
