data_PCOD8073705
_publ_section_title
;
Structure prediction by ZEFSAII (Michael W. Deem and Ramdas Pophale) SiO2 
 PCOD8073705
Probable space group: P 21/M
;
_chemical_formula_sum "Si O2"
_cell_formula_units_Z 32
_cell_length_a 11.120158
_cell_length_b 16.822464
_cell_length_c 12.054479
_cell_angle_alpha 90.000000
_cell_angle_beta 128.588762
_cell_angle_gamma 90.000000
_cell_volume 1762.614571
_symmetry_space_group_name_H-M "P 21/M"
_symmetry_group_IT_number 11
_symmetry_cell_setting 'monoclinic'
loop_
_space_group_symop_operation_xyz
x,y,z
-x,1/2+y,-z
-x,-y,-z
x,1/2-y,z
loop_
_atom_site_type_symbol
_atom_site_label
_atom_site_fract_x
_atom_site_fract_y
_atom_site_fract_z
Si Si1 0.654889 0.657034 0.120883
Si Si2 0.341220 0.400387 0.113755
Si Si3 0.501404 0.434471 0.778023
Si Si4 0.223879 0.542355 0.606809
Si Si5 0.992088 0.563700 0.090407
Si Si6 0.309085 0.845016 0.295841
Si Si7 0.415429 0.658461 0.596872
Si Si8 0.921340 0.536432 0.288809
O O1 0.668325 0.750000 0.155306
O O2 0.529368 0.617292 0.129803
O O3 0.824138 0.618401 0.235129
O O4 0.596528 0.642795 0.961402
O O5 0.379640 0.494358 0.125861
O O6 0.411110 0.363158 0.266954
O O7 0.159506 0.383895 0.018868
O O8 0.340464 0.470857 0.639244
O O9 0.572783 0.377060 0.726995
O O10 0.309852 0.624793 0.635419
O O11 0.181018 0.533086 0.712613
O O12 0.074055 0.544655 0.446767
O O13 0.969062 0.514753 0.191690
O O14 0.138880 0.620836 0.178606
O O15 0.000000 0.500000 0.000000
O O16 0.302368 0.750000 0.285106
O O17 0.372231 0.876262 0.451215
O O18 0.384692 0.750000 0.574962
#
# Coordination Sequence:
#
# PCOD8073705 Si02
#       8
#     4   4   4   4   4   4   4   4
#     4  10  20  34  56  85 115 147 183 235 288 329
#     4  10  21  36  58  83 112 145 190 231 277 334
#     4  10  20  36  57  81 114 148 189 229 279 335
#     4   9  18  35  57  79 109 146 185 236 269 326
#     4  11  21  37  57  83 112 149 185 228 279 339
#     4  11  23  38  58  84 114 149 189 233 280 337
#     4  10  21  36  55  84 114 146 185 231 287 331
#     4   9  19  34  55  83 109 143 189 226 278 323
#
# _framework density 18.154847
#
# number of rings (size 3 to 8) (size 9 to 14) (size 15 to 20)
#    0.000    2.000    2.500    1.125    0.000    7.000 
#    0.000    0.000    0.000    0.000    0.000    0.000 
#    0.000    0.000    0.000    0.000    0.000    0.000 
#
# Total GULP energy -396601.162887 kJ/mol
# GULP energy per Si atom -12393.786340 kJ/mol
# Density = 1.811353 g / cm^3
# Si number density = 18.154847 Si / 1000 Ang^3
#
#
#
# Elastic Constant Matrix: (Units=GPa)
#
#
# Indices 1 2 3 4 5 6 
#
# 1 103.4254 39.4009 46.6275 0.0000 -10.4718 0.0000
# 2 39.4009 78.2327 39.1032 0.0000 -11.8764 0.0000
# 3 46.6275 39.1032 108.6855 0.0000 4.1251 0.0000
# 4 0.0000 0.0000 0.0000 26.1875 0.0000 -6.4630
# 5 -10.4718 -11.8764 4.1251 0.0000 30.4281 0.0000
# 6 0.0000 0.0000 0.0000 -6.4630 0.0000 17.7500
#
#
#
# Elastic Compliance Matrix: (Units=1/GPa)
#
#
# Indices 1 2 3 4 5 6 
#
# 1 0.013628 -0.004028 -0.004539 0.000000 0.003733 0.000000
# 2 -0.004028 0.018353 -0.005121 0.000000 0.006471 0.000000
# 3 -0.004539 -0.005121 0.013193 0.000000 -0.005349 0.000000
# 4 0.000000 0.000000 0.000000 0.041957 0.000000 0.015277
# 5 0.003733 0.006471 -0.005349 0.000000 0.037400 0.000000
# 6 0.000000 0.000000 0.000000 0.015277 0.000000 0.061901
#
#
# Mechanical properties :
#
#
# Convention : Reuss Voigt Hill
#
# Bulk Modulus (GPa) = 56.18316 60.06742 58.12529
# Shear Modulus (GPa) = 22.75429 25.88726 24.32077
#
# Velocity S-wave (km/s) = 3.54410 3.78022 3.66407
# Velocity P-wave (km/s) = 6.91096 7.22575 7.07011
#
# Compressibility (1/GPa) = 0.01779893
#
# Stress axis : x y z
#
# Youngs Moduli (GPa) = 73.38086 54.48745 75.79519
#
# Poissons Ratio (x) = 0.21947 0.34403
# Poissons Ratio (y) = 0.29557 0.38812
# Poissons Ratio (z) = 0.33307 0.27901
#
# Static dielectric constant tensor:
#      x y z
#    x 3.696610 0.000000 -0.006490 
#    y 0.000000 3.204790 0.000000 
#    z -0.006490 0.000000 3.650010 
# 
# 
# High freq. dielectric constant tensor:
#      x y z
#    x 1.711970 0.000000 0.002830 
#    y 0.000000 1.683990 0.000000 
#    z 0.002830 0.000000 1.714710 
# 
# From -- ./inp_files/36046.got.cif
#   From: 2010.06.25/outbox.cif.g09.slc.cpg/sg11_19_cif.got.tgz:36046.got - 2010.06.27 23:14:04.
