data_PCOD8073740
_publ_section_title
;
Structure prediction by ZEFSAII (Michael W. Deem and Ramdas Pophale) SiO2 
 PCOD8073740
Probable space group: P 21/M
;
_chemical_formula_sum "Si O2"
_cell_formula_units_Z 24
_cell_length_a 21.758712
_cell_length_b 9.426307
_cell_length_c 11.506222
_cell_angle_alpha 90.000000
_cell_angle_beta 31.777681
_cell_angle_gamma 90.000000
_cell_volume 1242.821415
_symmetry_space_group_name_H-M "P 21/M"
_symmetry_group_IT_number 11
_symmetry_cell_setting 'monoclinic'
loop_
_space_group_symop_operation_xyz
x,y,z
-x,1/2+y,-z
-x,-y,-z
x,1/2-y,z
loop_
_atom_site_type_symbol
_atom_site_label
_atom_site_fract_x
_atom_site_fract_y
_atom_site_fract_z
Si Si1 0.421074 0.086962 0.467091
Si Si2 0.665975 0.413628 0.177576
Si Si3 0.278525 0.909686 0.538499
Si Si4 0.952601 0.088896 0.970074
Si Si5 0.117157 0.912247 0.323288
Si Si6 0.121947 0.912150 0.576223
O O1 0.382162 0.250000 0.526183
O O2 0.559759 0.070420 0.257328
O O3 0.354216 0.013458 0.680753
O O4 0.384386 0.012718 0.404436
O O5 0.675717 0.250000 0.203172
O O6 0.783611 0.465394 0.924711
O O7 0.326297 0.750000 0.445501
O O8 0.220058 0.962538 0.511470
O O9 0.187253 0.913840 0.794049
O O10 0.999064 0.250000 0.897544
O O11 0.004763 0.009951 0.772777
O O12 0.000000 0.000000 0.000000
O O13 0.085332 0.750000 0.347468
O O14 0.169752 0.926763 0.368980
O O15 0.000000 0.000000 0.500000
O O16 0.087447 0.750000 0.662344
#
# Coordination Sequence:
#
# PCOD8073740 Si02
#       6
#     4   4   4   4   4   4
#     4  10  20  34  57  83 106 138 182 227 266 314
#     4   9  20  39  57  77 109 144 177 221 274 320
#     4   9  18  32  51  76 107 141 174 215 273 321
#     4   9  17  29  47  72 104 140 174 213 261 310
#     4  10  22  39  58  79 108 144 181 220 269 328
#     4   9  19  35  52  75 107 142 178 218 267 323
#
# _framework density 19.3109
#
# number of rings (size 3 to 8) (size 9 to 14) (size 15 to 20)
#    0.000    2.667    0.000    2.000    2.333    5.333 
#    0.000    0.833    0.000    0.000    0.000    0.000 
#    0.000    0.000    0.000    0.000    0.000    0.000 
#
# Total GULP energy -297479.918209 kJ/mol
# GULP energy per Si atom -12394.996592 kJ/mol
# Density = 1.926695 g / cm^3
# Si number density = 19.310900 Si / 1000 Ang^3
#
#
#
# Elastic Constant Matrix: (Units=GPa)
#
#
# Indices 1 2 3 4 5 6 
#
# 1 88.2733 42.6550 27.7709 0.0000 -11.6879 0.0000
# 2 42.6550 96.4086 35.2765 0.0000 -9.5465 0.0000
# 3 27.7709 35.2765 90.1888 0.0000 -5.8908 0.0000
# 4 0.0000 0.0000 0.0000 24.8238 0.0000 -4.1672
# 5 -11.6879 -9.5465 -5.8908 0.0000 19.8950 0.0000
# 6 0.0000 0.0000 0.0000 -4.1672 0.0000 33.4301
#
#
#
# Elastic Compliance Matrix: (Units=1/GPa)
#
#
# Indices 1 2 3 4 5 6 
#
# 1 0.015426 -0.005429 -0.002248 0.000000 0.005792 0.000000
# 2 -0.005429 0.014423 -0.003799 0.000000 0.002606 0.000000
# 3 -0.002248 -0.003799 0.013318 0.000000 0.000800 0.000000
# 4 0.000000 0.000000 0.000000 0.041145 0.000000 0.005129
# 5 0.005792 0.002606 0.000800 0.000000 0.055154 0.000000
# 6 0.000000 0.000000 0.000000 0.005129 0.000000 0.030553
#
#
# Mechanical properties :
#
#
# Convention : Reuss Voigt Hill
#
# Bulk Modulus (GPa) = 49.47042 54.03060 51.75051
# Shear Modulus (GPa) = 25.03636 26.90766 25.97201
#
# Velocity S-wave (km/s) = 3.60458 3.73687 3.67132
# Velocity P-wave (km/s) = 6.55725 6.83074 6.69539
#
# Compressibility (1/GPa) = 0.02021410
#
# Stress axis : x y z
#
# Youngs Moduli (GPa) = 64.82590 69.33464 75.08382
#
# Poissons Ratio (x) = 0.37641 0.16880
# Poissons Ratio (y) = 0.35193 0.28528
# Poissons Ratio (z) = 0.14574 0.26343
#
# Static dielectric constant tensor:
#      x y z
#    x 3.540270 0.000000 0.066980 
#    y 0.000000 3.764970 0.000000 
#    z 0.066980 0.000000 3.726630 
# 
# 
# High freq. dielectric constant tensor:
#      x y z
#    x 1.753600 0.000000 0.000930 
#    y 0.000000 1.753520 0.000000 
#    z 0.000930 0.000000 1.723330 
# 
# From -- ./inp_files/43879.got.cif
#   From: 2010.06.25/outbox.cif.g09.slc.cpg/sg11_22_cif.got.tgz:43879.got - 2010.06.27 23:14:04.
