data_PCOD8073616
_publ_section_title
;
Structure prediction by ZEFSAII (Michael W. Deem and Ramdas Pophale) SiO2 
 PCOD8073616
Probable space group: P 21/M
;
_chemical_formula_sum "Si O2"
_cell_formula_units_Z 28
_cell_length_a 10.970802
_cell_length_b 13.473120
_cell_length_c 20.502228
_cell_angle_alpha 90.000000
_cell_angle_beta 151.164910
_cell_angle_gamma 90.000000
_cell_volume 1461.558187
_symmetry_space_group_name_H-M "P 21/M"
_symmetry_group_IT_number 11
_symmetry_cell_setting 'monoclinic'
loop_
_space_group_symop_operation_xyz
x,y,z
-x,1/2+y,-z
-x,-y,-z
x,1/2-y,z
loop_
_atom_site_type_symbol
_atom_site_label
_atom_site_fract_x
_atom_site_fract_y
_atom_site_fract_z
Si Si1 0.790319 0.517375 0.994440
Si Si2 0.829133 0.862958 0.448616
Si Si3 0.322381 0.962561 0.201500
Si Si4 0.964427 0.138619 0.179616
Si Si5 0.481456 0.364906 0.364447
Si Si6 0.353889 0.958202 0.869932
Si Si7 0.991919 0.547576 0.391944
O O1 0.054202 0.574655 0.105707
O O2 0.827928 0.428074 0.062359
O O3 0.689516 0.468153 0.881464
O O4 0.570153 0.587679 0.922587
O O5 0.891276 0.750000 0.496994
O O6 0.531368 0.882858 0.320073
O O7 0.900154 0.880341 0.406489
O O8 0.986421 0.935641 0.569398
O O9 0.393530 0.073132 0.259706
O O10 0.899219 0.250000 0.129015
O O11 0.269190 0.122116 0.321515
O O12 0.856622 0.118671 0.202119
O O13 0.511197 0.250000 0.357688
O O14 0.745578 0.409591 0.513912
O O15 0.207089 0.044556 0.760764
O O16 0.500000 0.000000 0.000000
#
# Coordination Sequence:
#
# PCOD8073616 Si02
#       7
#     4   4   4   4   4   4   4
#     4   9  17  33  53  75 109 145 176 222 276 328
#     4  10  20  34  55  82 111 141 180 229 280 333
#     4   9  17  32  55  81 109 141 179 223 282 329
#     4   9  19  34  53  76 103 144 192 225 263 324
#     4   9  18  34  55  80 108 139 183 228 269 327
#     4  10  20  36  54  75 107 146 182 222 269 322
#     4  10  20  35  54  81 110 145 183 224 282 326
#
# _framework density 19.157636
#
# number of rings (size 3 to 8) (size 9 to 14) (size 15 to 20)
#    0.000    2.571    1.429    0.429    0.000    1.714 
#    0.000    4.286    0.000    0.000    0.000    1.000 
#    0.000    0.000    0.000    0.000    0.000    0.000 
#
# Total GULP energy -346947.903825 kJ/mol
# GULP energy per Si atom -12390.996565 kJ/mol
# Density = 1.911403 g / cm^3
# Si number density = 19.157636 Si / 1000 Ang^3
#
#
#
# Elastic Constant Matrix: (Units=GPa)
#
#
# Indices 1 2 3 4 5 6 
#
# 1 142.9918 33.4894 43.7047 0.0000 24.8810 0.0000
# 2 33.4894 86.0184 15.8704 0.0000 9.2520 0.0000
# 3 43.7047 15.8704 92.6778 0.0000 10.1526 0.0000
# 4 0.0000 0.0000 0.0000 13.2323 0.0000 4.0107
# 5 24.8810 9.2520 10.1526 0.0000 30.4687 0.0000
# 6 0.0000 0.0000 0.0000 4.0107 0.0000 21.9952
#
#
#
# Elastic Compliance Matrix: (Units=1/GPa)
#
#
# Indices 1 2 3 4 5 6 
#
# 1 0.009682 -0.002482 -0.003485 0.000000 -0.005992 0.000000
# 2 -0.002482 0.012925 -0.000866 0.000000 -0.001609 0.000000
# 3 -0.003485 -0.000866 0.012705 0.000000 -0.001125 0.000000
# 4 0.000000 0.000000 0.000000 0.079994 0.000000 -0.014586
# 5 -0.005992 -0.001609 -0.001125 0.000000 0.038577 0.000000
# 6 0.000000 0.000000 0.000000 -0.014586 0.000000 0.048124
#
#
# Mechanical properties :
#
#
# Convention : Reuss Voigt Hill
#
# Bulk Modulus (GPa) = 46.19882 56.42411 51.31146
# Shear Modulus (GPa) = 22.43273 28.38080 25.40677
#
# Velocity S-wave (km/s) = 3.42563 3.85312 3.64565
# Velocity P-wave (km/s) = 6.30984 7.02224 6.67555
#
# Compressibility (1/GPa) = 0.02164558
#
# Stress axis : x y z
#
# Youngs Moduli (GPa) = 103.28015 77.37099 78.70979
#
# Poissons Ratio (x) = 0.19205 0.27427
# Poissons Ratio (y) = 0.25637 0.06820
# Poissons Ratio (z) = 0.35988 0.06704
#
# Static dielectric constant tensor:
#      x y z
#    x 4.105560 0.000000 0.439240 
#    y 0.000000 3.189300 0.000000 
#    z 0.439240 0.000000 3.564950 
# 
# 
# High freq. dielectric constant tensor:
#      x y z
#    x 1.760480 0.000000 0.025480 
#    y 0.000000 1.702940 0.000000 
#    z 0.025480 0.000000 1.746610 
# 
# From -- ./inp_files/64685.got.cif
#   From: 2010.06.25/outbox.cif.g09.slc.cpg/sg11_33_cif.got.tgz:64685.got - 2010.06.27 23:14:04.
