data_PCOD8073188
_publ_section_title
;
Structure prediction by ZEFSAII (Michael W. Deem and Ramdas Pophale) SiO2 
 PCOD8073188
Probable space group: P 21/M
;
_chemical_formula_sum "Si O2"
_cell_formula_units_Z 32
_cell_length_a 12.163652
_cell_length_b 8.883196
_cell_length_c 15.989595
_cell_angle_alpha 90.000000
_cell_angle_beta 99.144610
_cell_angle_gamma 90.000000
_cell_volume 1705.750842
_symmetry_space_group_name_H-M "P 21/M"
_symmetry_group_IT_number 11
_symmetry_cell_setting 'monoclinic'
loop_
_space_group_symop_operation_xyz
x,y,z
-x,1/2+y,-z
-x,-y,-z
x,1/2-y,z
loop_
_atom_site_type_symbol
_atom_site_label
_atom_site_fract_x
_atom_site_fract_y
_atom_site_fract_z
Si Si1 0.588806 0.074852 0.847736
Si Si2 0.525923 0.574482 0.590290
Si Si3 0.968320 0.584195 0.770323
Si Si4 0.102203 0.417005 0.050418
Si Si5 0.729135 0.928829 0.723635
Si Si6 0.285648 0.577557 0.980399
Si Si7 0.610314 0.072783 0.266241
Si Si8 0.203067 0.427240 0.803695
O O1 0.580056 0.250000 0.822824
O O2 0.690295 0.004284 0.805976
O O3 0.474062 0.991278 0.813167
O O4 0.601585 0.056579 0.951063
O O5 0.500000 0.500000 0.500000
O O6 0.527352 0.750000 0.574868
O O7 0.645525 0.519498 0.639660
O O8 0.430563 0.530677 0.645794
O O9 0.006231 0.750000 0.742542
O O10 0.073548 0.474075 0.781365
O O11 0.916514 0.601716 0.854865
O O12 0.855885 0.525301 0.709168
O O13 0.119819 0.250000 0.012427
O O14 0.201435 0.528705 0.042339
O O15 0.000000 0.500000 0.000000
O O16 0.720513 0.750000 0.736781
O O17 0.266589 0.750000 0.950553
O O18 0.266243 0.477573 0.896036
O O19 0.618002 0.250000 0.253545
O O20 0.731471 0.999290 0.266581
O O21 0.208520 0.250000 0.798050
#
# Coordination Sequence:
#
# PCOD8073188 Si02
#       8
#     4   4   4   4   4   4   4   4
#     4  10  20  33  53  79 106 139 184 236 280 314
#     4   9  19  36  63  93 115 137 165 207 263 324
#     4  10  20  34  53  75 107 147 186 227 273 321
#     4  11  20  30  48  71 100 141 188 238 279 312
#     4   9  18  34  55  82 113 145 179 217 270 324
#     4  11  22  34  49  72 106 146 189 234 279 322
#     4  10  22  41  60  78 108 145 180 217 269 330
#     4  12  25  37  53  76 106 146 192 233 273 320
#
# _framework density 18.760065999999998
#
# number of rings (size 3 to 8) (size 9 to 14) (size 15 to 20)
#    0.000    1.750    2.500    3.375    0.000    5.500 
#    0.000    0.000    0.000    0.750    0.000    0.000 
#    0.000    0.000    0.000    0.000    0.000    0.000 
#
# Total GULP energy -396486.879613 kJ/mol
# GULP energy per Si atom -12390.214988 kJ/mol
# Density = 1.871737 g / cm^3
# Si number density = 18.760066 Si / 1000 Ang^3
#
#
#
# Elastic Constant Matrix: (Units=GPa)
#
#
# Indices 1 2 3 4 5 6 
#
# 1 92.7279 41.9736 48.9273 0.0000 -6.1745 0.0000
# 2 41.9736 87.2778 37.6194 0.0000 -2.3710 0.0000
# 3 48.9273 37.6194 96.8312 0.0000 9.4882 0.0000
# 4 0.0000 0.0000 0.0000 26.8389 0.0000 -1.5586
# 5 -6.1745 -2.3710 9.4882 0.0000 19.8292 0.0000
# 6 0.0000 0.0000 0.0000 -1.5586 0.0000 29.4270
#
#
#
# Elastic Compliance Matrix: (Units=1/GPa)
#
#
# Indices 1 2 3 4 5 6 
#
# 1 0.017765 -0.004886 -0.007935 0.000000 0.008744 0.000000
# 2 -0.004886 0.015484 -0.003755 0.000000 0.002127 0.000000
# 3 -0.007935 -0.003755 0.016873 0.000000 -0.010993 0.000000
# 4 0.000000 0.000000 0.000000 0.037374 0.000000 0.001979
# 5 0.008744 0.002127 -0.010993 0.000000 0.058668 0.000000
# 6 0.000000 0.000000 0.000000 0.001979 0.000000 0.034087
#
#
# Mechanical properties :
#
#
# Convention : Reuss Voigt Hill
#
# Bulk Modulus (GPa) = 58.92931 59.31973 59.12452
# Shear Modulus (GPa) = 22.82481 25.10678 23.96580
#
# Velocity S-wave (km/s) = 3.49186 3.66226 3.57808
# Velocity P-wave (km/s) = 6.90925 7.04072 6.97530
#
# Compressibility (1/GPa) = 0.01696948
#
# Stress axis : x y z
#
# Youngs Moduli (GPa) = 56.29066 64.58405 59.26676
#
# Poissons Ratio (x) = 0.31554 0.47029
# Poissons Ratio (y) = 0.27502 0.22256
# Poissons Ratio (z) = 0.44667 0.24253
#
# Static dielectric constant tensor:
#      x y z
#    x 3.702680 0.000000 0.133740 
#    y 0.000000 3.517940 0.000000 
#    z 0.133740 0.000000 3.241750 
# 
# 
# High freq. dielectric constant tensor:
#      x y z
#    x 1.734830 0.000000 0.009820 
#    y 0.000000 1.734900 0.000000 
#    z 0.009820 0.000000 1.691560 
# 
# From -- ./inp_files/49361.got.cif
#   From: 2010.06.25/outbox.cif.g09.slc.cpg/sg11_25_cif.got.tgz:49361.got - 2010.06.27 23:14:04.
