data_PCOD8073382
_publ_section_title
;
Structure prediction by ZEFSAII (Michael W. Deem and Ramdas Pophale) SiO2 
 PCOD8073382
Probable space group: P 21/M
;
_chemical_formula_sum "Si O2"
_cell_formula_units_Z 28
_cell_length_a 8.953179
_cell_length_b 8.835538
_cell_length_c 24.429272
_cell_angle_alpha 90.000000
_cell_angle_beta 47.308625
_cell_angle_gamma 90.000000
_cell_volume 1420.423937
_symmetry_space_group_name_H-M "P 21/M"
_symmetry_group_IT_number 11
_symmetry_cell_setting 'monoclinic'
loop_
_space_group_symop_operation_xyz
x,y,z
-x,1/2+y,-z
-x,-y,-z
x,1/2-y,z
loop_
_atom_site_type_symbol
_atom_site_label
_atom_site_fract_x
_atom_site_fract_y
_atom_site_fract_z
Si Si1 0.649010 0.075619 0.785873
Si Si2 0.637659 0.579102 0.246235
Si Si3 0.571169 0.072152 0.375790
Si Si4 0.047242 0.570801 0.650962
Si Si5 0.956733 0.923546 0.084196
Si Si6 0.675554 0.077966 0.070298
Si Si7 0.127991 0.429856 0.516681
O O1 0.711025 0.250000 0.775204
O O2 0.515199 0.042159 0.765387
O O3 0.519844 0.029108 0.872153
O O4 0.849950 0.974091 0.734715
O O5 0.605780 0.750000 0.274831
O O6 0.590958 0.469874 0.307603
O O7 0.870581 0.553820 0.167300
O O8 0.576389 0.250000 0.377845
O O9 0.756330 0.006718 0.365592
O O10 0.359853 0.011888 0.453322
O O11 0.055653 0.750000 0.640318
O O12 0.033962 0.488575 0.596237
O O13 0.902043 0.750000 0.079518
O O14 0.202387 0.948472 0.017894
O O15 0.844572 0.045116 0.074214
O O16 0.600281 0.250000 0.094310
O O17 0.111229 0.250000 0.518350
O O18 0.000000 0.500000 0.500000
#
# Coordination Sequence:
#
# PCOD8073382 Si02
#       7
#     4   4   4   4   4   4   4
#     4  10  20  34  52  78 109 140 178 223 269 319
#     4   9  18  32  52  77 106 139 176 218 263 313
#     4  10  23  39  55  78 109 141 175 216 262 313
#     4  11  23  39  57  79 107 140 178 219 263 313
#     4   8  15  27  43  70 106 139 175 221 269 315
#     4   9  15  25  45  72 103 139 176 219 270 317
#     4  11  23  40  61  85 111 140 174 215 262 311
#
# _framework density 19.712425
#
# number of rings (size 3 to 8) (size 9 to 14) (size 15 to 20)
#    0.000    2.286    0.000    3.857    0.000    8.000 
#    0.000    0.000    0.000    0.857    0.000    0.000 
#    0.000    0.000    0.000    0.000    0.000    0.000 
#
# Total GULP energy -347078.904711 kJ/mol
# GULP energy per Si atom -12395.675168 kJ/mol
# Density = 1.966756 g / cm^3
# Si number density = 19.712425 Si / 1000 Ang^3
#
#
#
# Elastic Constant Matrix: (Units=GPa)
#
#
# Indices 1 2 3 4 5 6 
#
# 1 50.8312 23.5499 21.1863 0.0000 -22.8112 0.0000
# 2 23.5499 54.2524 30.1596 0.0000 -7.8292 0.0000
# 3 21.1863 30.1596 126.0477 0.0000 -27.3289 0.0000
# 4 0.0000 0.0000 0.0000 36.6281 0.0000 0.2393
# 5 -22.8112 -7.8292 -27.3289 0.0000 20.9430 0.0000
# 6 0.0000 0.0000 0.0000 0.2393 0.0000 21.7463
#
#
#
# Elastic Compliance Matrix: (Units=1/GPa)
#
#
# Indices 1 2 3 4 5 6 
#
# 1 0.052430 -0.018900 0.009147 0.000000 0.061978 0.000000
# 2 -0.018900 0.028123 -0.007999 0.000000 -0.020511 0.000000
# 3 0.009147 -0.007999 0.013697 0.000000 0.024847 0.000000
# 4 0.000000 0.000000 0.000000 0.027303 0.000000 -0.000300
# 5 0.061978 -0.020511 0.024847 0.000000 0.140010 0.000000
# 6 0.000000 0.000000 0.000000 -0.000300 0.000000 0.045988
#
#
# Mechanical properties :
#
#
# Convention : Reuss Voigt Hill
#
# Bulk Modulus (GPa) = 17.02224 42.32477 29.67351
# Shear Modulus (GPa) = 13.78783 26.27920 20.03351
#
# Velocity S-wave (km/s) = 2.64758 3.65516 3.19139
# Velocity P-wave (km/s) = 4.24267 6.27147 5.35405
#
# Compressibility (1/GPa) = 0.05874668
#
# Stress axis : x y z
#
# Youngs Moduli (GPa) = 19.07303 35.55745 73.00808
#
# Poissons Ratio (x) = 0.67203 -0.66784
# Poissons Ratio (y) = 0.36048 0.58403
# Poissons Ratio (z) = -0.17447 0.28444
#
# Static dielectric constant tensor:
#      x y z
#    x 3.291260 0.000000 -0.203210 
#    y 0.000000 3.527090 0.000000 
#    z -0.203210 0.000000 4.100600 
# 
# 
# High freq. dielectric constant tensor:
#      x y z
#    x 1.718520 0.000000 -0.011180 
#    y 0.000000 1.769250 0.000000 
#    z -0.011180 0.000000 1.796400 
# 
# From -- ./inp_files/28588.got.cif
#   From: 2010.06.25/outbox.cif.g09.slc.cpg/sg11_15_cif.got.tgz:28588.got - 2010.06.27 23:14:04.
