data_PCOD8073096
_publ_section_title
;
Structure prediction by ZEFSAII (Michael W. Deem and Ramdas Pophale) SiO2 
 PCOD8073096
Probable space group: P 21/M
;
_chemical_formula_sum "Si O2"
_cell_formula_units_Z 28
_cell_length_a 8.991545
_cell_length_b 13.552290
_cell_length_c 20.886223
_cell_angle_alpha 90.000000
_cell_angle_beta 33.779617
_cell_angle_gamma 90.000000
_cell_volume 1415.082230
_symmetry_space_group_name_H-M "P 21/M"
_symmetry_group_IT_number 11
_symmetry_cell_setting 'monoclinic'
loop_
_space_group_symop_operation_xyz
x,y,z
-x,1/2+y,-z
-x,-y,-z
x,1/2-y,z
loop_
_atom_site_type_symbol
_atom_site_label
_atom_site_fract_x
_atom_site_fract_y
_atom_site_fract_z
Si Si1 0.944380 0.980498 0.259348
Si Si2 0.007670 0.140915 0.639167
Si Si3 0.577683 0.139727 0.691316
Si Si4 0.701687 0.367879 0.117547
Si Si5 0.681080 0.468965 0.530666
Si Si6 0.102996 0.137675 0.296669
Si Si7 0.953865 0.966451 0.109807
O O1 0.048330 0.893186 0.268241
O O2 0.625696 0.971307 0.380667
O O3 0.046370 0.972960 0.150429
O O4 0.068432 0.080992 0.242219
O O5 0.129486 0.250000 0.596139
O O6 0.722065 0.135161 0.707469
O O7 0.209679 0.077077 0.524010
O O8 0.596240 0.250000 0.654754
O O9 0.701919 0.059563 0.597932
O O10 0.273441 0.115448 0.815560
O O11 0.767991 0.250000 0.096639
O O12 0.381743 0.385749 0.233748
O O13 0.846385 0.425794 0.124512
O O14 0.799661 0.422125 0.017899
O O15 0.853612 0.388501 0.430953
O O16 0.091352 0.250000 0.280964
#
# Coordination Sequence:
#
# PCOD8073096 Si02
#       7
#     4   4   4   4   4   4   4
#     4  10  22  35  54  81 109 145 180 221 273 324
#     4  10  20  33  51  78 111 144 180 222 270 325
#     4  10  20  35  57  81 106 143 186 226 269 316
#     4  10  22  39  60  82 106 142 183 225 274 325
#     4  10  20  35  53  79 111 146 185 223 269 320
#     4  10  20  36  56  81 115 148 180 222 274 327
#     4  10  21  39  60  81 109 140 181 231 269 321
#
# _framework density 19.786836999999998
#
# number of rings (size 3 to 8) (size 9 to 14) (size 15 to 20)
#    0.000    2.000    0.000    4.714    0.000    7.429 
#    0.000    5.000    0.000    3.429    0.000    0.000 
#    0.000    0.000    0.000    0.000    0.000    0.000 
#
# Total GULP energy -347057.406315 kJ/mol
# GULP energy per Si atom -12394.907368 kJ/mol
# Density = 1.974180 g / cm^3
# Si number density = 19.786837 Si / 1000 Ang^3
#
#
#
# Elastic Constant Matrix: (Units=GPa)
#
#
# Indices 1 2 3 4 5 6 
#
# 1 110.6978 60.9105 25.5625 0.0000 14.6538 0.0000
# 2 60.9105 144.3869 28.4251 0.0000 7.2428 0.0000
# 3 25.5625 28.4251 53.0400 0.0000 12.0629 0.0000
# 4 0.0000 0.0000 0.0000 25.2430 0.0000 -5.9354
# 5 14.6538 7.2428 12.0629 0.0000 26.3085 0.0000
# 6 0.0000 0.0000 0.0000 -5.9354 0.0000 14.4975
#
#
#
# Elastic Compliance Matrix: (Units=1/GPa)
#
#
# Indices 1 2 3 4 5 6 
#
# 1 0.012818 -0.004658 -0.002623 0.000000 -0.004655 0.000000
# 2 -0.004658 0.009437 -0.003139 0.000000 0.001436 0.000000
# 3 -0.002623 -0.003139 0.023748 0.000000 -0.008564 0.000000
# 4 0.000000 0.000000 0.000000 0.043835 0.000000 0.017946
# 5 -0.004655 0.001436 -0.008564 0.000000 0.044135 0.000000
# 6 0.000000 0.000000 0.000000 0.017946 0.000000 0.076325
#
#
# Mechanical properties :
#
#
# Convention : Reuss Voigt Hill
#
# Bulk Modulus (GPa) = 39.74034 59.76897 49.75466
# Shear Modulus (GPa) = 20.87472 26.09156 23.48314
#
# Velocity S-wave (km/s) = 3.25157 3.63524 3.44874
# Velocity P-wave (km/s) = 5.85019 6.92040 6.40768
#
# Compressibility (1/GPa) = 0.02516335
#
# Stress axis : x y z
#
# Youngs Moduli (GPa) = 78.01341 105.97001 42.10929
#
# Poissons Ratio (x) = 0.49357 0.11045
# Poissons Ratio (y) = 0.36335 0.13218
# Poissons Ratio (z) = 0.20463 0.33265
#
# Static dielectric constant tensor:
#      x y z
#    x 3.704770 0.000000 -0.043340 
#    y 0.000000 3.807040 0.000000 
#    z -0.043340 0.000000 3.522950 
# 
# 
# High freq. dielectric constant tensor:
#      x y z
#    x 1.776020 0.000000 -0.003300 
#    y 0.000000 1.779450 0.000000 
#    z -0.003300 0.000000 1.760420 
# 
# From -- ./inp_files/63867.got.cif
#   From: 2010.06.25/outbox.cif.g09.slc.cpg/sg11_32_cif.got.tgz:63867.got - 2010.06.27 23:14:04.
