data_PCOD8073053
_publ_section_title
;
Structure prediction by ZEFSAII (Michael W. Deem and Ramdas Pophale) SiO2 
 PCOD8073053
Probable space group: P 21/M
;
_chemical_formula_sum "Si O2"
_cell_formula_units_Z 32
_cell_length_a 27.826559
_cell_length_b 9.160216
_cell_length_c 22.491694
_cell_angle_alpha 90.000000
_cell_angle_beta 18.211924
_cell_angle_gamma 90.000000
_cell_volume 1791.771934
_symmetry_space_group_name_H-M "P 21/M"
_symmetry_group_IT_number 11
_symmetry_cell_setting 'monoclinic'
loop_
_space_group_symop_operation_xyz
x,y,z
-x,1/2+y,-z
-x,-y,-z
x,1/2-y,z
loop_
_atom_site_type_symbol
_atom_site_label
_atom_site_fract_x
_atom_site_fract_y
_atom_site_fract_z
Si Si1 0.638709 0.421956 0.370477
Si Si2 0.138319 0.582488 0.366197
Si Si3 0.699452 0.079065 0.936434
Si Si4 0.955844 0.420318 0.934044
Si Si5 0.275160 0.083869 0.615118
Si Si6 0.922263 0.423095 0.319033
Si Si7 0.378245 0.082000 0.363918
Si Si8 0.015807 0.079239 0.338917
O O1 0.500000 0.500000 0.500000
O O2 0.608193 0.250000 0.406582
O O3 0.650080 0.477880 0.424403
O O4 0.797945 0.462369 0.151279
O O5 0.099297 0.750000 0.403018
O O6 0.289414 0.545082 0.148551
O O7 0.000000 0.500000 0.500000
O O8 0.134329 0.546012 0.441694
O O9 0.713248 0.250000 0.933549
O O10 0.833743 0.001463 0.814772
O O11 0.537344 0.020662 0.150805
O O12 0.967008 0.250000 0.904821
O O13 0.099121 0.463277 0.808069
O O14 0.962673 0.510263 0.864972
O O15 0.279390 0.250000 0.633992
O O16 0.378845 0.067508 0.434492
O O17 0.922075 0.250000 0.313125
O O18 0.751246 0.481333 0.511921
O O19 0.978164 0.477292 0.317619
O O20 0.348433 0.250000 0.380557
O O21 0.052930 0.250000 0.294485
#
# Coordination Sequence:
#
# PCOD8073053 Si02
#       8
#     4   4   4   4   4   4   4   4
#     4  11  23  37  54  78 106 133 162 200 245 290
#     4   8  14  27  46  67  94 127 163 203 245 290
#     4   9  17  30  51  74  94 127 172 207 241 293
#     4   9  20  38  57  75  98 131 167 203 244 289
#     4   9  18  35  56  75  98 129 165 205 247 291
#     4  10  20  33  51  75 101 131 166 202 244 295
#     4   9  19  35  52  73 102 132 164 204 246 289
#     4   9  18  31  47  71 102 130 160 206 256 293
#
# _framework density 17.859417000000001
#
# number of rings (size 3 to 8) (size 9 to 14) (size 15 to 20)
#    0.000    2.750    0.000    1.875    0.000    5.500 
#    0.000    4.375    0.000    0.000    0.000    0.000 
#    0.000    0.000    0.000    0.000    0.000    0.000 
#
# Total GULP energy -396583.553360 kJ/mol
# GULP energy per Si atom -12393.236043 kJ/mol
# Density = 1.781877 g / cm^3
# Si number density = 17.859417 Si / 1000 Ang^3
#
#
#
# Elastic Constant Matrix: (Units=GPa)
#
#
# Indices 1 2 3 4 5 6 
#
# 1 60.1833 23.4320 12.6746 0.0000 6.2448 0.0000
# 2 23.4320 43.4826 18.7726 0.0000 3.8077 0.0000
# 3 12.6746 18.7726 95.9118 0.0000 8.5374 0.0000
# 4 0.0000 0.0000 0.0000 26.2275 0.0000 -0.7619
# 5 6.2448 3.8077 8.5374 0.0000 18.8929 0.0000
# 6 0.0000 0.0000 0.0000 -0.7619 0.0000 25.7906
#
#
#
# Elastic Compliance Matrix: (Units=1/GPa)
#
#
# Indices 1 2 3 4 5 6 
#
# 1 0.021461 -0.011040 -0.000252 0.000000 -0.004755 0.000000
# 2 -0.011040 0.030959 -0.004553 0.000000 -0.000533 0.000000
# 3 -0.000252 -0.004553 0.011734 0.000000 -0.004301 0.000000
# 4 0.000000 0.000000 0.000000 0.038161 0.000000 0.001127
# 5 -0.004755 -0.000533 -0.004301 0.000000 0.056553 0.000000
# 6 0.000000 0.000000 0.000000 0.001127 0.000000 0.038807
#
#
# Mechanical properties :
#
#
# Convention : Reuss Voigt Hill
#
# Bulk Modulus (GPa) = 30.80365 34.37068 32.58717
# Shear Modulus (GPa) = 20.81732 23.82876 22.32304
#
# Velocity S-wave (km/s) = 3.41782 3.65669 3.53927
# Velocity P-wave (km/s) = 5.73242 6.09224 5.91507
#
# Compressibility (1/GPa) = 0.03246368
#
# Stress axis : x y z
#
# Youngs Moduli (GPa) = 46.59717 32.30058 85.22520
#
# Poissons Ratio (x) = 0.35658 0.02148
# Poissons Ratio (y) = 0.51441 0.38805
# Poissons Ratio (z) = 0.01174 0.14707
#
# Static dielectric constant tensor:
#      x y z
#    x 3.340100 0.000000 0.368500 
#    y 0.000000 3.249250 0.000000 
#    z 0.368500 0.000000 3.565160 
# 
# 
# High freq. dielectric constant tensor:
#      x y z
#    x 1.682220 0.000000 0.022960 
#    y 0.000000 1.691670 0.000000 
#    z 0.022960 0.000000 1.693610 
# 
# From -- ./inp_files/67007.got.cif
#   From: 2010.06.25/outbox.cif.g09.slc.cpg/sg11_34_cif.got.tgz:67007.got - 2010.06.27 23:14:04.
