data_PCOD8073850
_publ_section_title
;
Structure prediction by ZEFSAII (Michael W. Deem and Ramdas Pophale) SiO2 
 PCOD8073850
Probable space group: P 21/M
;
_chemical_formula_sum "Si O2"
_cell_formula_units_Z 32
_cell_length_a 12.376532
_cell_length_b 8.853103
_cell_length_c 19.228966
_cell_angle_alpha 90.000000
_cell_angle_beta 63.980148
_cell_angle_gamma 90.000000
_cell_volume 1893.377363
_symmetry_space_group_name_H-M "P 21/M"
_symmetry_group_IT_number 11
_symmetry_cell_setting 'monoclinic'
loop_
_space_group_symop_operation_xyz
x,y,z
-x,1/2+y,-z
-x,-y,-z
x,1/2-y,z
loop_
_atom_site_type_symbol
_atom_site_label
_atom_site_fract_x
_atom_site_fract_y
_atom_site_fract_z
Si Si1 0.501410 0.928702 0.817774
Si Si2 0.246889 0.076228 0.900880
Si Si3 0.726699 0.425785 0.342738
Si Si4 0.176280 0.077658 0.075633
Si Si5 0.599806 0.427490 0.922819
Si Si6 0.378940 0.073381 0.506889
Si Si7 0.904419 0.425052 0.174323
Si Si8 0.486018 0.073178 0.339100
O O1 0.516614 0.750000 0.822403
O O2 0.542419 0.989286 0.729833
O O3 0.363022 0.970368 0.869031
O O4 0.586697 0.011581 0.848457
O O5 0.286062 0.250000 0.879387
O O6 0.156322 0.028919 0.866142
O O7 0.177531 0.053371 0.992718
O O8 0.709476 0.250000 0.361666
O O9 0.732333 0.504452 0.417711
O O10 0.847418 0.461017 0.265888
O O11 0.612943 0.492799 0.331604
O O12 0.210372 0.250000 0.084815
O O13 0.044379 0.035626 0.140437
O O14 0.268060 0.966480 0.087566
O O15 0.579440 0.250000 0.929343
O O16 0.500000 0.500000 0.000000
O O17 0.383212 0.250000 0.518974
O O18 0.376441 0.038011 0.424163
O O19 0.500000 0.000000 0.500000
O O20 0.883323 0.250000 0.159973
O O21 0.506787 0.250000 0.325100
#
# Coordination Sequence:
#
# PCOD8073850 Si02
#       8
#     4   4   4   4   4   4   4   4
#     4  11  20  34  55  75  99 135 171 208 255 301
#     4  11  21  32  49  76 106 132 171 213 251 299
#     4   9  16  29  46  69  99 133 167 198 240 297
#     4  10  22  38  54  73  98 134 175 214 252 300
#     4  12  24  38  55  75  99 130 169 215 259 302
#     4   9  16  27  43  67  97 130 164 198 240 296
#     4  10  20  35  53  72 102 140 175 205 246 304
#     4   8  15  28  46  69  98 129 164 198 242 301
#
# _framework density 16.901015000000001
#
# number of rings (size 3 to 8) (size 9 to 14) (size 15 to 20)
#    0.000    2.000    2.500    3.375    0.000    1.500 
#    0.000    1.875    0.000    0.000    0.000    0.875 
#    0.000    0.000    0.000    0.000    0.000    0.000 
#
# Total GULP energy -396695.371673 kJ/mol
# GULP energy per Si atom -12396.730365 kJ/mol
# Density = 1.686255 g / cm^3
# Si number density = 16.901015 Si / 1000 Ang^3
#
#
#
# Elastic Constant Matrix: (Units=GPa)
#
#
# Indices 1 2 3 4 5 6 
#
# 1 63.8684 32.4137 47.3250 0.0000 -2.2069 0.0000
# 2 32.4137 80.7426 49.6059 0.0000 3.8487 0.0000
# 3 47.3250 49.6059 150.8990 0.0000 4.6408 0.0000
# 4 0.0000 0.0000 0.0000 26.5254 0.0000 2.1500
# 5 -2.2069 3.8487 4.6408 0.0000 18.4000 0.0000
# 6 0.0000 0.0000 0.0000 2.1500 0.0000 22.7445
#
#
#
# Elastic Compliance Matrix: (Units=1/GPa)
#
#
# Indices 1 2 3 4 5 6 
#
# 1 0.022929 -0.006192 -0.005321 0.000000 0.005387 0.000000
# 2 -0.006192 0.017263 -0.003627 0.000000 -0.003439 0.000000
# 3 -0.005321 -0.003627 0.009559 0.000000 -0.002290 0.000000
# 4 0.000000 0.000000 0.000000 0.037991 0.000000 -0.003591
# 5 0.005387 -0.003439 -0.002290 0.000000 0.056291 0.000000
# 6 0.000000 0.000000 0.000000 -0.003591 0.000000 0.044306
#
#
# Mechanical properties :
#
#
# Convention : Reuss Voigt Hill
#
# Bulk Modulus (GPa) = 51.36253 61.57768 56.47011
# Shear Modulus (GPa) = 22.21144 24.61169 23.41156
#
# Velocity S-wave (km/s) = 3.62913 3.82019 3.72589
# Velocity P-wave (km/s) = 6.92943 7.48144 7.21072
#
# Compressibility (1/GPa) = 0.01946944
#
# Stress axis : x y z
#
# Youngs Moduli (GPa) = 43.61344 57.92626 104.61831
#
# Poissons Ratio (x) = 0.35870 0.55667
# Poissons Ratio (y) = 0.27007 0.37948
# Poissons Ratio (z) = 0.23206 0.21011
#
# Static dielectric constant tensor:
#      x y z
#    x 2.933530 0.000000 0.154580 
#    y 0.000000 3.191780 0.000000 
#    z 0.154580 0.000000 3.681150 
# 
# 
# High freq. dielectric constant tensor:
#      x y z
#    x 1.607460 0.000000 0.008090 
#    y 0.000000 1.650220 0.000000 
#    z 0.008090 0.000000 1.665390 
# 
# From -- ./inp_files/61735.got.cif
#   From: 2010.06.25/outbox.cif.g09.slc.cpg/sg11_31_cif.got.tgz:61735.got - 2010.06.27 23:14:04.
