data_PCOD8073267
_publ_section_title
;
Structure prediction by ZEFSAII (Michael W. Deem and Ramdas Pophale) SiO2 
 PCOD8073267
Probable space group: P 21/M
;
_chemical_formula_sum "Si O2"
_cell_formula_units_Z 32
_cell_length_a 14.280045
_cell_length_b 18.378647
_cell_length_c 12.823129
_cell_angle_alpha 90.000000
_cell_angle_beta 28.985995
_cell_angle_gamma 90.000000
_cell_volume 1630.860398
_symmetry_space_group_name_H-M "P 21/M"
_symmetry_group_IT_number 11
_symmetry_cell_setting 'monoclinic'
loop_
_space_group_symop_operation_xyz
x,y,z
-x,1/2+y,-z
-x,-y,-z
x,1/2-y,z
loop_
_atom_site_type_symbol
_atom_site_label
_atom_site_fract_x
_atom_site_fract_y
_atom_site_fract_z
Si Si1 0.084006 0.419654 0.440774
Si Si2 0.797512 0.529917 0.469784
Si Si3 0.505203 0.064458 0.412112
Si Si4 0.944022 0.450297 0.957588
Si Si5 0.360438 0.167179 0.039111
Si Si6 0.922741 0.666527 0.866230
Si Si7 0.777876 0.118141 0.587128
Si Si8 0.795054 0.836291 0.213120
O O1 0.122731 0.408304 0.526886
O O2 0.287476 0.395024 0.190049
O O3 0.000000 0.500000 0.500000
O O4 0.921420 0.367824 0.545966
O O5 0.617051 0.551325 0.573752
O O6 0.727184 0.466114 0.615875
O O7 0.982758 0.507293 0.217764
O O8 0.423828 0.135947 0.550954
O O9 0.500000 0.000000 0.500000
O O10 0.724119 0.074183 0.163350
O O11 0.065293 0.374825 0.839040
O O12 0.000000 0.500000 0.000000
O O13 0.311565 0.250000 0.124009
O O14 0.259863 0.149684 0.027737
O O15 0.588445 0.163010 0.798323
O O16 0.944032 0.750000 0.871967
O O17 0.123445 0.642928 0.617595
O O18 0.872485 0.631159 0.027237
O O19 0.800412 0.750000 0.219511
#
# Coordination Sequence:
#
# PCOD8073267 Si02
#       8
#     4   4   4   4   4   4   4   4
#     4   9  21  40  57  83 114 150 194 243 286 342
#     4  10  22  36  58  86 112 151 198 250 290 345
#     4  11  23  37  60  88 118 157 202 246 295 351
#     4  11  21  38  59  84 118 155 202 242 298 348
#     4  10  21  36  57  87 121 153 191 241 296 359
#     4   9  19  33  52  82 118 153 185 231 296 359
#     4  10  20  33  60  84 117 150 191 237 298 356
#     4  10  22  38  58  86 122 157 200 251 299 357
#
# _framework density 19.621545999999999
#
# number of rings (size 3 to 8) (size 9 to 14) (size 15 to 20)
#    0.000    2.000    2.500    1.125    1.750    6.000 
#    0.000    5.000    0.000    3.000    0.000    0.000 
#    0.000    0.000    0.000    0.000    0.000    0.000 
#
# Total GULP energy -396442.700900 kJ/mol
# GULP energy per Si atom -12388.834403 kJ/mol
# Density = 1.957689 g / cm^3
# Si number density = 19.621546 Si / 1000 Ang^3
#
#
#
# Elastic Constant Matrix: (Units=GPa)
#
#
# Indices 1 2 3 4 5 6 
#
# 1 108.4766 25.2970 52.7421 0.0000 2.2294 0.0000
# 2 25.2970 34.1008 24.2017 0.0000 6.6184 0.0000
# 3 52.7421 24.2017 124.7311 0.0000 -19.5916 0.0000
# 4 0.0000 0.0000 0.0000 34.7142 0.0000 0.9443
# 5 2.2294 6.6184 -19.5916 0.0000 35.2873 0.0000
# 6 0.0000 0.0000 0.0000 0.9443 0.0000 20.0738
#
#
#
# Elastic Compliance Matrix: (Units=1/GPa)
#
#
# Indices 1 2 3 4 5 6 
#
# 1 0.012900 -0.005779 -0.004701 0.000000 -0.002341 0.000000
# 2 -0.005779 0.041000 -0.007299 0.000000 -0.011377 0.000000
# 3 -0.004701 -0.007299 0.012799 0.000000 0.008772 0.000000
# 4 0.000000 0.000000 0.000000 0.028844 0.000000 -0.001357
# 5 -0.002341 -0.011377 0.008772 0.000000 0.035491 0.000000
# 6 0.000000 0.000000 0.000000 -0.001357 0.000000 0.049880
#
#
# Mechanical properties :
#
#
# Convention : Reuss Voigt Hill
#
# Bulk Modulus (GPa) = 32.11140 52.42112 42.26626
# Shear Modulus (GPa) = 22.04089 29.01957 25.53023
#
# Velocity S-wave (km/s) = 3.35520 3.84990 3.61103
# Velocity P-wave (km/s) = 5.60453 6.82176 6.24288
#
# Compressibility (1/GPa) = 0.03114159
#
# Stress axis : x y z
#
# Youngs Moduli (GPa) = 77.51888 24.39045 78.13014
#
# Poissons Ratio (x) = 0.14095 0.36731
# Poissons Ratio (y) = 0.44796 0.57025
# Poissons Ratio (z) = 0.36444 0.17802
#
# Static dielectric constant tensor:
#      x y z
#    x 3.954920 0.000000 0.029310 
#    y 0.000000 3.503280 0.000000 
#    z 0.029310 0.000000 3.794790 
# 
# 
# High freq. dielectric constant tensor:
#      x y z
#    x 1.763540 0.000000 -0.000950 
#    y 0.000000 1.749220 0.000000 
#    z -0.000950 0.000000 1.766210 
# 
# From -- ./inp_files/39952.got.cif
#   From: 2010.06.25/outbox.cif.g09.slc.cpg/sg11_20_cif.got.tgz:39952.got - 2010.06.27 23:14:04.
