data_PCOD8073199
_publ_section_title
;
Structure prediction by ZEFSAII (Michael W. Deem and Ramdas Pophale) SiO2 
 PCOD8073199
Probable space group: P 21/M
;
_chemical_formula_sum "Si O2"
_cell_formula_units_Z 32
_cell_length_a 29.459347
_cell_length_b 9.160782
_cell_length_c 12.155296
_cell_angle_alpha 90.000000
_cell_angle_beta 148.758813
_cell_angle_gamma 90.000000
_cell_volume 1701.330469
_symmetry_space_group_name_H-M "P 21/M"
_symmetry_group_IT_number 11
_symmetry_cell_setting 'monoclinic'
loop_
_space_group_symop_operation_xyz
x,y,z
-x,1/2+y,-z
-x,-y,-z
x,1/2-y,z
loop_
_atom_site_type_symbol
_atom_site_label
_atom_site_fract_x
_atom_site_fract_y
_atom_site_fract_z
Si Si1 0.558948 0.584526 0.904794
Si Si2 0.018168 0.578717 0.865686
Si Si3 0.363262 0.577670 0.530448
Si Si4 0.319142 0.577052 0.677048
Si Si5 0.934410 0.078073 0.281244
Si Si6 0.734084 0.077843 0.884328
Si Si7 0.123412 0.920956 0.297751
Si Si8 0.588258 0.917599 0.715993
O O1 0.561758 0.750000 0.955624
O O2 0.459511 0.526515 0.693124
O O3 0.601379 0.574534 0.873370
O O4 0.610578 0.481308 0.092979
O O5 0.001461 0.750000 0.829560
O O6 0.049070 0.524267 0.809721
O O7 0.927696 0.501862 0.710838
O O8 0.090299 0.536072 0.106834
O O9 0.358657 0.750000 0.529946
O O10 0.338616 0.509388 0.597149
O O11 0.293828 0.525550 0.295449
O O12 0.326174 0.750000 0.688800
O O13 0.223033 0.527131 0.514720
O O14 0.949842 0.250000 0.321759
O O15 0.835574 0.037283 0.111399
O O16 0.000000 0.000000 0.500000
O O17 0.717354 0.250000 0.865135
O O18 0.675039 0.992432 0.848836
O O19 0.112112 0.750000 0.293897
O O20 0.581152 0.750000 0.661228
O O21 0.500000 0.000000 0.500000
#
# Coordination Sequence:
#
# PCOD8073199 Si02
#       8
#     4   4   4   4   4   4   4   4
#     4  10  21  36  53  76 109 145 177 220 273 320
#     4   9  18  35  57  79 104 141 183 221 270 329
#     4   9  17  34  57  78 105 141 181 224 271 323
#     4  10  20  33  53  80 109 141 179 221 268 326
#     4  10  22  38  58  82 112 148 187 231 280 334
#     4  10  20  38  62  84 108 146 189 231 281 333
#     4   9  18  33  54  81 107 136 178 226 271 320
#     4  11  22  38  59  83 111 145 186 233 276 324
#
# _framework density 18.808807999999999
#
# number of rings (size 3 to 8) (size 9 to 14) (size 15 to 20)
#    0.000    2.250    1.250    1.500    0.000    6.500 
#    0.000    5.625    0.000    3.000    0.000    0.000 
#    0.000    0.000    0.000    0.000    0.000    0.000 
#
# Total GULP energy -396811.659470 kJ/mol
# GULP energy per Si atom -12400.364358 kJ/mol
# Density = 1.876600 g / cm^3
# Si number density = 18.808808 Si / 1000 Ang^3
#
#
#
# Elastic Constant Matrix: (Units=GPa)
#
#
# Indices 1 2 3 4 5 6 
#
# 1 124.5861 45.2595 54.9131 0.0000 13.7059 0.0000
# 2 45.2595 45.4722 38.6917 0.0000 7.5544 0.0000
# 3 54.9131 38.6917 126.1695 0.0000 13.3117 0.0000
# 4 0.0000 0.0000 0.0000 33.3309 0.0000 0.9659
# 5 13.7059 7.5544 13.3117 0.0000 26.4104 0.0000
# 6 0.0000 0.0000 0.0000 0.9659 0.0000 30.2675
#
#
#
# Elastic Compliance Matrix: (Units=1/GPa)
#
#
# Indices 1 2 3 4 5 6 
#
# 1 0.013219 -0.010903 -0.002128 0.000000 -0.002669 0.000000
# 2 -0.010903 0.039182 -0.007060 0.000000 -0.001991 0.000000
# 3 -0.002128 -0.007060 0.011288 0.000000 -0.002566 0.000000
# 4 0.000000 0.000000 0.000000 0.030030 0.000000 -0.000958
# 5 -0.002669 -0.001991 -0.002566 0.000000 0.041111 0.000000
# 6 0.000000 0.000000 0.000000 -0.000958 0.000000 0.033069
#
#
# Mechanical properties :
#
#
# Convention : Reuss Voigt Hill
#
# Bulk Modulus (GPa) = 42.54295 63.77295 53.15795
# Shear Modulus (GPa) = 23.15704 28.49267 25.82485
#
# Velocity S-wave (km/s) = 3.51262 3.89634 3.70945
# Velocity P-wave (km/s) = 6.25453 7.36352 6.83157
#
# Compressibility (1/GPa) = 0.02350566
#
# Stress axis : x y z
#
# Youngs Moduli (GPa) = 75.64858 25.52224 88.59017
#
# Poissons Ratio (x) = 0.27827 0.18854
# Poissons Ratio (y) = 0.82479 0.62547
# Poissons Ratio (z) = 0.16100 0.18019
#
# Static dielectric constant tensor:
#      x y z
#    x 3.739980 0.000000 0.064020 
#    y 0.000000 3.254450 0.000000 
#    z 0.064020 0.000000 3.443720 
# 
# 
# High freq. dielectric constant tensor:
#      x y z
#    x 1.743330 0.000000 0.003670 
#    y 0.000000 1.708600 0.000000 
#    z 0.003670 0.000000 1.732640 
# 
# From -- ./inp_files/42834.got.cif
#   From: 2010.06.25/outbox.cif.g09.slc.cpg/sg11_22_cif.got.tgz:42834.got - 2010.06.27 23:14:04.
