data_PCOD8073130
_publ_section_title
;
Structure prediction by ZEFSAII (Michael W. Deem and Ramdas Pophale) SiO2 
 PCOD8073130
Probable space group: P 21/M
;
_chemical_formula_sum "Si O2"
_cell_formula_units_Z 28
_cell_length_a 20.110211
_cell_length_b 9.102463
_cell_length_c 23.207622
_cell_angle_alpha 90.000000
_cell_angle_beta 160.185660
_cell_angle_gamma 90.000000
_cell_volume 1440.030872
_symmetry_space_group_name_H-M "P 21/M"
_symmetry_group_IT_number 11
_symmetry_cell_setting 'monoclinic'
loop_
_space_group_symop_operation_xyz
x,y,z
-x,1/2+y,-z
-x,-y,-z
x,1/2-y,z
loop_
_atom_site_type_symbol
_atom_site_label
_atom_site_fract_x
_atom_site_fract_y
_atom_site_fract_z
Si Si1 0.902090 0.924983 0.474329
Si Si2 0.901234 0.078082 0.248585
Si Si3 0.177936 0.418849 0.115568
Si Si4 0.268910 0.081696 0.478133
Si Si5 0.550919 0.076209 0.888243
Si Si6 0.390330 0.081538 0.178286
Si Si7 0.512085 0.917746 0.450418
O O1 0.916515 0.750000 0.480807
O O2 0.674222 0.975252 0.289559
O O3 0.017729 0.987412 0.624934
O O4 0.000000 0.000000 0.500000
O O5 0.893907 0.250000 0.252246
O O6 0.049959 0.036723 0.318076
O O7 0.683369 0.023537 0.051455
O O8 0.178786 0.250000 0.137102
O O9 0.194685 0.429647 0.059627
O O10 0.364773 0.505690 0.287970
O O11 0.000000 0.500000 0.000000
O O12 0.315253 0.250000 0.534495
O O13 0.285433 0.068333 0.421299
O O14 0.417510 0.978702 0.633383
O O15 0.564830 0.250000 0.892834
O O16 0.650328 0.006888 0.912943
O O17 0.432400 0.250000 0.197150
O O18 0.454397 0.750000 0.415474
O O19 0.500000 0.000000 0.500000
#
# Coordination Sequence:
#
# PCOD8073130 Si02
#       7
#     4   4   4   4   4   4   4
#     4  10  21  38  59  84 116 151 187 231 282 337
#     4   9  18  35  59  85 110 142 191 236 270 329
#     4  10  21  36  53  76 108 147 190 237 290 346
#     4   9  17  34  57  78 104 146 192 230 278 343
#     4  10  20  36  60  85 111 150 193 230 276 338
#     4  10  20  34  54  81 112 144 183 237 291 336
#     4  10  20  33  52  77 109 148 189 236 287 343
#
# _framework density 19.444026999999998
#
# number of rings (size 3 to 8) (size 9 to 14) (size 15 to 20)
#    0.000    2.286    1.429    1.286    0.000    4.571 
#    0.000    2.857    0.000    0.000    0.000    0.000 
#    0.000    0.000    0.000    0.000    0.000    0.000 
#
# Total GULP energy -346903.379530 kJ/mol
# GULP energy per Si atom -12389.406412 kJ/mol
# Density = 1.939977 g / cm^3
# Si number density = 19.444027 Si / 1000 Ang^3
#
#
#
# Elastic Constant Matrix: (Units=GPa)
#
#
# Indices 1 2 3 4 5 6 
#
# 1 149.7535 46.5360 68.8718 0.0000 -4.2815 0.0000
# 2 46.5360 72.9159 28.9688 0.0000 2.0117 0.0000
# 3 68.8718 28.9688 118.4922 0.0000 -8.8318 0.0000
# 4 0.0000 0.0000 0.0000 18.0421 0.0000 -1.8154
# 5 -4.2815 2.0117 -8.8318 0.0000 27.0236 0.0000
# 6 0.0000 0.0000 0.0000 -1.8154 0.0000 36.0506
#
#
#
# Elastic Compliance Matrix: (Units=1/GPa)
#
#
# Indices 1 2 3 4 5 6 
#
# 1 0.010386 -0.004711 -0.004854 0.000000 0.000410 0.000000
# 2 -0.004711 0.017481 -0.001730 0.000000 -0.002613 0.000000
# 3 -0.004854 -0.001730 0.011927 0.000000 0.003258 0.000000
# 4 0.000000 0.000000 0.000000 0.055708 0.000000 0.002805
# 5 0.000410 -0.002613 0.003258 0.000000 0.038329 0.000000
# 6 0.000000 0.000000 0.000000 0.002805 0.000000 0.027880
#
#
# Mechanical properties :
#
#
# Convention : Reuss Voigt Hill
#
# Bulk Modulus (GPa) = 58.13292 69.99055 64.06173
# Shear Modulus (GPa) = 26.31091 29.34226 27.82659
#
# Velocity S-wave (km/s) = 3.68253 3.88888 3.78711
# Velocity P-wave (km/s) = 6.93136 7.49924 7.22089
#
# Compressibility (1/GPa) = 0.01720196
#
# Stress axis : x y z
#
# Youngs Moduli (GPa) = 96.28481 57.20628 83.84582
#
# Poissons Ratio (x) = 0.26951 0.40701
# Poissons Ratio (y) = 0.45361 0.14506
# Poissons Ratio (z) = 0.46740 0.09897
#
# Static dielectric constant tensor:
#      x y z
#    x 4.526960 0.000000 0.130910 
#    y 0.000000 3.450480 0.000000 
#    z 0.130910 0.000000 3.681930 
# 
# 
# High freq. dielectric constant tensor:
#      x y z
#    x 1.767660 0.000000 0.003730 
#    y 0.000000 1.743950 0.000000 
#    z 0.003730 0.000000 1.740850 
# 
# From -- ./inp_files/29116.got.cif
#   From: 2010.06.25/outbox.cif.g09.slc.cpg/sg11_15_cif.got.tgz:29116.got - 2010.06.27 23:14:04.
