data_PCOD8073210
_publ_section_title
;
Structure prediction by ZEFSAII (Michael W. Deem and Ramdas Pophale) SiO2 
 PCOD8073210
Probable space group: P 21/M
;
_chemical_formula_sum "Si O2"
_cell_formula_units_Z 28
_cell_length_a 16.230044
_cell_length_b 8.842799
_cell_length_c 11.244949
_cell_angle_alpha 90.000000
_cell_angle_beta 119.417644
_cell_angle_gamma 90.000000
_cell_volume 1405.776591
_symmetry_space_group_name_H-M "P 21/M"
_symmetry_group_IT_number 11
_symmetry_cell_setting 'monoclinic'
loop_
_space_group_symop_operation_xyz
x,y,z
-x,1/2+y,-z
-x,-y,-z
x,1/2-y,z
loop_
_atom_site_type_symbol
_atom_site_label
_atom_site_fract_x
_atom_site_fract_y
_atom_site_fract_z
Si Si1 0.183242 0.926640 0.120294
Si Si2 0.638275 0.928912 0.868901
Si Si3 0.080518 0.923502 0.809138
Si Si4 0.722924 0.072870 0.151923
Si Si5 0.524799 0.571197 0.391736
Si Si6 0.297993 0.574345 0.590853
Si Si7 0.112783 0.574051 0.322253
O O1 0.211061 0.750000 0.148299
O O2 0.143332 0.992164 0.215567
O O3 0.277605 0.018422 0.157300
O O4 0.103990 0.954260 0.964073
O O5 0.628052 0.750000 0.856078
O O6 0.541308 0.003568 0.757438
O O7 0.654736 0.980442 0.016207
O O8 0.059918 0.750000 0.769780
O O9 0.168589 0.979395 0.791443
O O10 0.986493 0.009510 0.703520
O O11 0.714536 0.250000 0.114206
O O12 0.691640 0.036408 0.262992
O O13 0.500000 0.500000 0.500000
O O14 0.512758 0.750000 0.390825
O O15 0.632065 0.529542 0.434976
O O16 0.320567 0.750000 0.581182
O O17 0.191655 0.534351 0.475729
O O18 0.098225 0.750000 0.296605
#
# Coordination Sequence:
#
# PCOD8073210 Si02
#       7
#     4   4   4   4   4   4   4
#     4   9  18  34  54  80 116 152 188 235 291 344
#     4  11  22  37  61  89 115 148 190 236 287 340
#     4   9  18  32  52  78 111 153 195 235 282 338
#     4   9  20  40  60  81 114 154 194 237 285 336
#     4  12  25  42  64  90 119 149 184 228 282 341
#     4  10  22  40  60  83 114 152 195 240 285 336
#     4  10  20  33  53  81 112 149 190 236 289 339
#
# _framework density 19.917818
#
# number of rings (size 3 to 8) (size 9 to 14) (size 15 to 20)
#    0.000    2.000    0.000    4.714    0.000    6.286 
#    0.000    0.000    0.000    0.000    0.000    0.000 
#    0.000    0.000    0.000    0.000    0.000    0.000 
#
# Total GULP energy -347298.333560 kJ/mol
# GULP energy per Si atom -12403.511913 kJ/mol
# Density = 1.987248 g / cm^3
# Si number density = 19.917818 Si / 1000 Ang^3
#
#
#
# Elastic Constant Matrix: (Units=GPa)
#
#
# Indices 1 2 3 4 5 6 
#
# 1 78.4552 40.4140 46.7361 0.0000 -3.9763 0.0000
# 2 40.4140 99.0493 50.1773 0.0000 4.5235 0.0000
# 3 46.7361 50.1773 98.1577 0.0000 5.5353 0.0000
# 4 0.0000 0.0000 0.0000 29.8553 0.0000 6.4763
# 5 -3.9763 4.5235 5.5353 0.0000 32.7744 0.0000
# 6 0.0000 0.0000 0.0000 6.4763 0.0000 32.6082
#
#
#
# Elastic Compliance Matrix: (Units=1/GPa)
#
#
# Indices 1 2 3 4 5 6 
#
# 1 0.019618 -0.004514 -0.007272 0.000000 0.004231 0.000000
# 2 -0.004514 0.014679 -0.005260 0.000000 -0.001685 0.000000
# 3 -0.007272 -0.005260 0.016505 0.000000 -0.002944 0.000000
# 4 0.000000 0.000000 0.000000 0.035003 0.000000 -0.006952
# 5 0.004231 -0.001685 -0.002944 0.000000 0.031755 0.000000
# 6 0.000000 0.000000 0.000000 -0.006952 0.000000 0.032048
#
#
# Mechanical properties :
#
#
# Convention : Reuss Voigt Hill
#
# Bulk Modulus (GPa) = 59.84075 61.14634 60.49355
# Shear Modulus (GPa) = 26.41760 28.26987 27.34374
#
# Velocity S-wave (km/s) = 3.64583 3.77148 3.70919
# Velocity P-wave (km/s) = 6.91606 7.05205 6.98438
#
# Compressibility (1/GPa) = 0.01671102
#
# Stress axis : x y z
#
# Youngs Moduli (GPa) = 50.97477 68.12386 60.58874
#
# Poissons Ratio (x) = 0.30750 0.44059
# Poissons Ratio (y) = 0.23009 0.31868
# Poissons Ratio (z) = 0.37068 0.35831
#
# Static dielectric constant tensor:
#      x y z
#    x 3.625750 0.000000 0.002240 
#    y 0.000000 3.506590 0.000000 
#    z 0.002240 0.000000 3.717140 
# 
# 
# High freq. dielectric constant tensor:
#      x y z
#    x 1.777560 0.000000 0.002440 
#    y 0.000000 1.765500 0.000000 
#    z 0.002440 0.000000 1.783150 
# 
# From -- ./inp_files/38460.got.cif
#   From: 2010.06.25/outbox.cif.g09.slc.cpg/sg11_20_cif.got.tgz:38460.got - 2010.06.27 23:14:04.
