data_PCOD8073991
_publ_section_title
;
Structure prediction by ZEFSAII (Michael W. Deem and Ramdas Pophale) SiO2 
 PCOD8073991
Probable space group: P 21/M
;
_chemical_formula_sum "Si O2"
_cell_formula_units_Z 28
_cell_length_a 9.396819
_cell_length_b 9.086932
_cell_length_c 29.302523
_cell_angle_alpha 90.000000
_cell_angle_beta 143.111290
_cell_angle_gamma 90.000000
_cell_volume 1501.911932
_symmetry_space_group_name_H-M "P 21/M"
_symmetry_group_IT_number 11
_symmetry_cell_setting 'monoclinic'
loop_
_space_group_symop_operation_xyz
x,y,z
-x,1/2+y,-z
-x,-y,-z
x,1/2-y,z
loop_
_atom_site_type_symbol
_atom_site_label
_atom_site_fract_x
_atom_site_fract_y
_atom_site_fract_z
Si Si1 0.390482 0.920848 0.801403
Si Si2 0.754574 0.425575 0.068671
Si Si3 0.113725 0.422567 0.806719
Si Si4 0.686054 0.419744 0.632239
Si Si5 0.929336 0.579076 0.935828
Si Si6 0.149211 0.422726 0.500085
Si Si7 0.035155 0.421954 0.370823
O O1 0.359672 0.750000 0.807186
O O2 0.656526 0.957204 0.853976
O O3 0.222397 0.962680 0.715689
O O4 0.324339 0.018796 0.828319
O O5 0.729418 0.250000 0.065759
O O6 0.888929 0.488049 0.147091
O O7 0.907369 0.474417 0.063977
O O8 0.500000 0.500000 0.000000
O O9 0.157135 0.250000 0.826864
O O10 0.859808 0.455238 0.718857
O O11 0.699776 0.250000 0.622208
O O12 0.422182 0.466456 0.578305
O O13 0.757551 0.507930 0.605777
O O14 0.967111 0.750000 0.954147
O O15 0.000000 0.500000 0.000000
O O16 0.109805 0.250000 0.494009
O O17 0.000000 0.500000 0.500000
O O18 0.055769 0.482256 0.427420
O O19 0.082833 0.250000 0.382412
#
# Coordination Sequence:
#
# PCOD8073991 Si02
#       7
#     4   4   4   4   4   4   4
#     4   9  18  35  56  78 104 134 170 218 267 311
#     4  11  23  38  56  80 108 140 177 217 260 310
#     4  10  20  35  55  80 108 139 174 214 260 314
#     4   9  19  35  54  77 107 139 174 216 263 314
#     4  10  22  37  54  76 103 134 170 211 257 307
#     4  10  21  35  51  76 108 141 177 220 266 315
#     4   9  18  33  55  79 102 133 176 218 260 313
#
# _framework density 18.642903
#
# number of rings (size 3 to 8) (size 9 to 14) (size 15 to 20)
#    0.000    2.286    0.000    2.143    0.000    6.857 
#    0.000    1.429    0.000    0.000    0.000    0.000 
#    0.000    0.000    0.000    0.000    0.000    0.000 
#
# Total GULP energy -347268.752647 kJ/mol
# GULP energy per Si atom -12402.455452 kJ/mol
# Density = 1.860047 g / cm^3
# Si number density = 18.642903 Si / 1000 Ang^3
#
#
#
# Elastic Constant Matrix: (Units=GPa)
#
#
# Indices 1 2 3 4 5 6 
#
# 1 175.0604 63.0509 94.8496 0.0000 -3.1472 0.0000
# 2 63.0509 59.4018 48.7893 0.0000 -4.6389 0.0000
# 3 94.8496 48.7893 122.3909 0.0000 -5.3194 0.0000
# 4 0.0000 0.0000 0.0000 28.1280 0.0000 -2.3747
# 5 -3.1472 -4.6389 -5.3194 0.0000 35.8142 0.0000
# 6 0.0000 0.0000 0.0000 -2.3747 0.0000 34.7130
#
#
#
# Elastic Compliance Matrix: (Units=1/GPa)
#
#
# Indices 1 2 3 4 5 6 
#
# 1 0.011706 -0.007449 -0.006140 0.000000 -0.000848 0.000000
# 2 -0.007449 0.029882 -0.006038 0.000000 0.002319 0.000000
# 3 -0.006140 -0.006038 0.015377 0.000000 0.000962 0.000000
# 4 0.000000 0.000000 0.000000 0.035758 0.000000 0.002446
# 5 -0.000848 0.002319 0.000962 0.000000 0.028291 0.000000
# 6 0.000000 0.000000 0.000000 0.002446 0.000000 0.028975
#
#
# Mechanical properties :
#
#
# Convention : Reuss Voigt Hill
#
# Bulk Modulus (GPa) = 56.45955 85.58140 71.02047
# Shear Modulus (GPa) = 25.62160 29.74191 27.68176
#
# Velocity S-wave (km/s) = 3.71122 3.99851 3.85754
# Velocity P-wave (km/s) = 6.97959 8.20504 7.61700
#
# Compressibility (1/GPa) = 0.01771180
#
# Stress axis : x y z
#
# Youngs Moduli (GPa) = 85.42280 33.46505 65.03036
#
# Poissons Ratio (x) = 0.24929 0.39926
# Poissons Ratio (y) = 0.63633 0.39267
# Poissons Ratio (z) = 0.52446 0.20207
#
# Static dielectric constant tensor:
#      x y z
#    x 3.462890 0.000000 -0.027540 
#    y 0.000000 3.398940 0.000000 
#    z -0.027540 0.000000 3.783960 
# 
# 
# High freq. dielectric constant tensor:
#      x y z
#    x 1.720850 0.000000 0.001590 
#    y 0.000000 1.721770 0.000000 
#    z 0.001590 0.000000 1.738930 
# 
# From -- ./inp_files/23969.got.cif
#   From: 2010.06.25/outbox.cif.g09.slc.cpg/sg11_12_cif.got.tgz:23969.got - 2010.06.27 23:14:04.
