data_PCOD8073376
_publ_section_title
;
Structure prediction by ZEFSAII (Michael W. Deem and Ramdas Pophale) SiO2 
 PCOD8073376
Probable space group: P 21/M
;
_chemical_formula_sum "Si O2"
_cell_formula_units_Z 32
_cell_length_a 15.772336
_cell_length_b 8.790262
_cell_length_c 23.301969
_cell_angle_alpha 90.000000
_cell_angle_beta 31.938716
_cell_angle_gamma 90.000000
_cell_volume 1709.054403
_symmetry_space_group_name_H-M "P 21/M"
_symmetry_group_IT_number 11
_symmetry_cell_setting 'monoclinic'
loop_
_space_group_symop_operation_xyz
x,y,z
-x,1/2+y,-z
-x,-y,-z
x,1/2-y,z
loop_
_atom_site_type_symbol
_atom_site_label
_atom_site_fract_x
_atom_site_fract_y
_atom_site_fract_z
Si Si1 0.824985 0.572606 0.098564
Si Si2 0.330081 0.424392 0.601933
Si Si3 0.849018 0.574751 0.909010
Si Si4 0.036238 0.076510 0.697259
Si Si5 0.755593 0.929565 0.650744
Si Si6 0.155969 0.576997 0.801461
Si Si7 0.390210 0.570135 0.874571
Si Si8 0.986917 0.569815 0.418200
O O1 0.833161 0.750000 0.079624
O O2 0.767631 0.538857 0.196311
O O3 0.705458 0.491064 0.124695
O O4 0.000000 0.500000 0.000000
O O5 0.500000 0.500000 0.500000
O O6 0.342182 0.250000 0.616902
O O7 0.240000 0.538758 0.694717
O O8 0.225553 0.431313 0.603853
O O9 0.813610 0.750000 0.916976
O O10 0.921927 0.507359 0.808631
O O11 0.965927 0.555125 0.897559
O O12 0.683580 0.493662 0.023270
O O13 0.976881 0.250000 0.731770
O O14 0.024200 0.004862 0.640354
O O15 0.768565 0.750000 0.650625
O O16 0.572692 0.985293 0.761211
O O17 0.832785 0.980768 0.545178
O O18 0.851050 0.005992 0.647760
O O19 0.191678 0.750000 0.799726
O O20 0.377532 0.750000 0.883500
O O21 0.996182 0.750000 0.411126
#
# Coordination Sequence:
#
# PCOD8073376 Si02
#       8
#     4   4   4   4   4   4   4   4
#     4  12  23  35  53  79 110 146 188 228 272 326
#     4  10  20  34  52  77 110 146 185 231 278 331
#     4  10  20  34  54  79 109 144 185 230 274 327
#     4   9  19  35  57  81 107 145 187 227 279 338
#     4   9  20  37  58  86 114 144 179 225 284 337
#     4  10  20  35  53  74 104 144 186 230 276 324
#     4  11  22  36  56  81 115 151 186 229 280 337
#     4   9  18  37  62  84 109 142 183 228 280 339
#
# _framework density 18.723803
#
# number of rings (size 3 to 8) (size 9 to 14) (size 15 to 20)
#    0.000    2.000    1.250    2.625    0.000    4.000 
#    0.000    3.125    0.000    0.000    0.000    0.000 
#    0.000    0.000    0.000    0.000    0.000    0.000 
#
# Total GULP energy -396624.997631 kJ/mol
# GULP energy per Si atom -12394.531176 kJ/mol
# Density = 1.868119 g / cm^3
# Si number density = 18.723803 Si / 1000 Ang^3
#
#
#
# Elastic Constant Matrix: (Units=GPa)
#
#
# Indices 1 2 3 4 5 6 
#
# 1 120.7439 36.5239 72.4924 0.0000 8.4180 0.0000
# 2 36.5239 69.3021 51.6448 0.0000 -0.4560 0.0000
# 3 72.4924 51.6448 133.8690 0.0000 -11.7776 0.0000
# 4 0.0000 0.0000 0.0000 29.4984 0.0000 0.4621
# 5 8.4180 -0.4560 -11.7776 0.0000 25.3857 0.0000
# 6 0.0000 0.0000 0.0000 0.4621 0.0000 29.8979
#
#
#
# Elastic Compliance Matrix: (Units=1/GPa)
#
#
# Indices 1 2 3 4 5 6 
#
# 1 0.013939 -0.001739 -0.007597 0.000000 -0.008178 0.000000
# 2 -0.001739 0.020754 -0.007279 0.000000 -0.002428 0.000000
# 3 -0.007597 -0.007279 0.015223 0.000000 0.009451 0.000000
# 4 0.000000 0.000000 0.000000 0.033908 0.000000 -0.000524
# 5 -0.008178 -0.002428 0.009451 0.000000 0.046445 0.000000
# 6 0.000000 0.000000 0.000000 -0.000524 0.000000 0.033455
#
#
# Mechanical properties :
#
#
# Convention : Reuss Voigt Hill
#
# Bulk Modulus (GPa) = 59.92365 71.69303 65.80834
# Shear Modulus (GPa) = 24.68923 27.84000 26.26461
#
# Velocity S-wave (km/s) = 3.63519 3.86019 3.74938
# Velocity P-wave (km/s) = 7.04933 7.63158 7.34622
#
# Compressibility (1/GPa) = 0.01668790
#
# Stress axis : x y z
#
# Youngs Moduli (GPa) = 71.73993 48.18323 65.68800
#
# Poissons Ratio (x) = 0.08378 0.49904
# Poissons Ratio (y) = 0.12473 0.47812
# Poissons Ratio (z) = 0.54501 0.35071
#
# Static dielectric constant tensor:
#      x y z
#    x 3.663600 0.000000 0.122830 
#    y 0.000000 3.670680 0.000000 
#    z 0.122830 0.000000 3.529500 
# 
# 
# High freq. dielectric constant tensor:
#      x y z
#    x 1.717670 0.000000 0.011840 
#    y 0.000000 1.731040 0.000000 
#    z 0.011840 0.000000 1.728680 
# 
# From -- ./inp_files/69016.got.cif
#   From: 2010.06.25/outbox.cif.g09.slc.cpg/sg11_35_cif.got.tgz:69016.got - 2010.06.27 23:14:04.
