data_PCOD8073106
_publ_section_title
;
Structure prediction by ZEFSAII (Michael W. Deem and Ramdas Pophale) SiO2 
 PCOD8073106
Probable space group: P 21/M
;
_chemical_formula_sum "Si O2"
_cell_formula_units_Z 28
_cell_length_a 14.425157
_cell_length_b 8.709212
_cell_length_c 13.564000
_cell_angle_alpha 90.000000
_cell_angle_beta 57.445821
_cell_angle_gamma 90.000000
_cell_volume 1436.330839
_symmetry_space_group_name_H-M "P 21/M"
_symmetry_group_IT_number 11
_symmetry_cell_setting 'monoclinic'
loop_
_space_group_symop_operation_xyz
x,y,z
-x,1/2+y,-z
-x,-y,-z
x,1/2-y,z
loop_
_atom_site_type_symbol
_atom_site_label
_atom_site_fract_x
_atom_site_fract_y
_atom_site_fract_z
Si Si1 0.744254 0.432816 0.812264
Si Si2 0.609170 0.423732 0.076421
Si Si3 0.825835 0.075154 0.072633
Si Si4 0.602612 0.430786 0.498417
Si Si5 0.814685 0.928424 0.284480
Si Si6 0.396924 0.569530 0.281537
Si Si7 0.946508 0.068681 0.811872
O O1 0.745730 0.250000 0.810831
O O2 0.703195 0.495846 0.729500
O O3 0.866985 0.495507 0.769709
O O4 0.658397 0.486333 0.945403
O O5 0.564990 0.250000 0.090493
O O6 0.700484 0.430347 0.108738
O O7 0.511170 0.534041 0.163672
O O8 0.856832 0.250000 0.084690
O O9 0.838377 0.961675 0.157056
O O10 0.905620 0.007594 0.941738
O O11 0.500000 0.500000 0.500000
O O12 0.585787 0.250000 0.510515
O O13 0.715786 0.468439 0.379362
O O14 0.608171 0.501908 0.605777
O O15 0.785452 0.750000 0.315139
O O16 0.926232 0.973807 0.280585
O O17 0.384225 0.750000 0.298151
O O18 0.929882 0.250000 0.826880
#
# Coordination Sequence:
#
# PCOD8073106 Si02
#       7
#     4   4   4   4   4   4   4
#     4   8  15  31  52  75 102 131 162 200 246 299
#     4   9  17  29  50  77 104 132 160 195 249 306
#     4   9  17  31  51  76 105 137 168 203 248 300
#     4  11  24  40  55  74 100 132 169 210 252 297
#     4  11  21  33  52  77 102 134 172 209 249 296
#     4  10  20  33  52  74  97 129 170 210 248 290
#     4   8  16  31  52  77 104 133 167 203 248 304
#
# _framework density 19.494116000000002
#
# number of rings (size 3 to 8) (size 9 to 14) (size 15 to 20)
#    0.000    2.571    0.000    4.286    0.000    4.000 
#    0.000    1.429    0.000    4.286    0.000    0.000 
#    0.000    0.000    0.000    0.000    0.000    0.000 
#
# Total GULP energy -347062.005645 kJ/mol
# GULP energy per Si atom -12395.071630 kJ/mol
# Density = 1.944975 g / cm^3
# Si number density = 19.494116 Si / 1000 Ang^3
#
#
#
# Elastic Constant Matrix: (Units=GPa)
#
#
# Indices 1 2 3 4 5 6 
#
# 1 149.1260 23.7258 77.0540 0.0000 6.1792 0.0000
# 2 23.7258 25.5000 14.2398 0.0000 2.8304 0.0000
# 3 77.0540 14.2398 77.9166 0.0000 -0.9125 0.0000
# 4 0.0000 0.0000 0.0000 23.4833 0.0000 -2.6933
# 5 6.1792 2.8304 -0.9125 0.0000 33.0611 0.0000
# 6 0.0000 0.0000 0.0000 -2.6933 0.0000 20.7157
#
#
#
# Elastic Compliance Matrix: (Units=1/GPa)
#
#
# Indices 1 2 3 4 5 6 
#
# 1 0.014743 -0.005866 -0.013539 0.000000 -0.002627 0.000000
# 2 -0.005866 0.046531 -0.002738 0.000000 -0.002963 0.000000
# 3 -0.013539 -0.002738 0.026765 0.000000 0.003504 0.000000
# 4 0.000000 0.000000 0.000000 0.043228 0.000000 0.005620
# 5 -0.002627 -0.002963 0.003504 0.000000 0.031088 0.000000
# 6 0.000000 0.000000 0.000000 0.005620 0.000000 0.049003
#
#
# Mechanical properties :
#
#
# Convention : Reuss Voigt Hill
#
# Bulk Modulus (GPa) = 22.85499 53.62022 38.23760
# Shear Modulus (GPa) = 18.50284 24.62021 21.56152
#
# Velocity S-wave (km/s) = 3.08417 3.55766 3.32935
# Velocity P-wave (km/s) = 4.94290 6.66645 5.86830
#
# Compressibility (1/GPa) = 0.04375413
#
# Stress axis : x y z
#
# Youngs Moduli (GPa) = 67.82661 21.49108 37.36252
#
# Poissons Ratio (x) = 0.12606 0.50585
# Poissons Ratio (y) = 0.39784 0.10230
# Poissons Ratio (z) = 0.91831 0.05884
#
# Static dielectric constant tensor:
#      x y z
#    x 4.139980 0.000000 0.135720 
#    y 0.000000 3.176040 0.000000 
#    z 0.135720 0.000000 3.466490 
# 
# 
# High freq. dielectric constant tensor:
#      x y z
#    x 1.778430 0.000000 -0.000850 
#    y 0.000000 1.723990 0.000000 
#    z -0.000850 0.000000 1.739470 
# 
# From -- ./inp_files/37692.got.cif
#   From: 2010.06.25/outbox.cif.g09.slc.cpg/sg11_19_cif.got.tgz:37692.got - 2010.06.27 23:14:04.
