data_PCOD8073241
_publ_section_title
;
Structure prediction by ZEFSAII (Michael W. Deem and Ramdas Pophale) SiO2 
 PCOD8073241
Probable space group: P 21/M
;
_chemical_formula_sum "Si O2"
_cell_formula_units_Z 28
_cell_length_a 13.872832
_cell_length_b 21.972272
_cell_length_c 6.788491
_cell_angle_alpha 90.000000
_cell_angle_beta 49.280606
_cell_angle_gamma 90.000000
_cell_volume 1568.314002
_symmetry_space_group_name_H-M "P 21/M"
_symmetry_group_IT_number 11
_symmetry_cell_setting 'monoclinic'
loop_
_space_group_symop_operation_xyz
x,y,z
-x,1/2+y,-z
-x,-y,-z
x,1/2-y,z
loop_
_atom_site_type_symbol
_atom_site_label
_atom_site_fract_x
_atom_site_fract_y
_atom_site_fract_z
Si Si1 0.286028 0.817423 0.596453
Si Si2 0.439349 0.628257 0.720767
Si Si3 0.519627 0.819038 0.012458
Si Si4 0.632556 0.911846 0.147354
Si Si5 0.121328 0.034751 0.067563
Si Si6 0.848974 0.437713 0.313161
Si Si7 0.280872 0.528493 0.135686
O O1 0.222036 0.750000 0.675232
O O2 0.370123 0.820145 0.683161
O O3 0.376778 0.825775 0.286017
O O4 0.180527 0.870919 0.736387
O O5 0.527973 0.588651 0.458388
O O6 0.522374 0.658118 0.783508
O O7 0.328907 0.586880 0.955799
O O8 0.567262 0.750000 0.954649
O O9 0.618925 0.855932 0.014877
O O10 0.771912 0.911554 0.066228
O O11 0.617652 0.973684 0.036029
O O12 0.984391 0.066308 0.243361
O O13 0.142734 0.992342 0.232361
O O14 0.147377 0.991177 0.848360
O O15 0.736229 0.455961 0.612939
#
# Coordination Sequence:
#
# PCOD8073241 Si02
#       7
#     4   4   4   4   4   4   4
#     4  10  20  35  54  81 109 140 185 226 265 322
#     4  11  19  35  54  82 113 138 177 226 278 319
#     4  10  21  36  55  77 106 149 184 221 273 323
#     4   9  22  34  52  83 111 140 177 223 268 332
#     4   9  22  36  54  84 109 142 177 221 276 325
#     4  11  19  37  58  80 113 143 180 225 272 320
#     4  10  20  33  55  84 107 141 177 226 271 315
#
# _framework density 17.853567000000002
#
# number of rings (size 3 to 8) (size 9 to 14) (size 15 to 20)
#    0.857    1.143    2.857    1.286    2.000    1.143 
#    0.000    0.714    0.000    0.000    0.000    0.000 
#    0.000    0.000    0.000    0.000    0.000    0.000 
#
# Total GULP energy -346963.271355 kJ/mol
# GULP energy per Si atom -12391.545406 kJ/mol
# Density = 1.781293 g / cm^3
# Si number density = 17.853567 Si / 1000 Ang^3
#
#
#
# Elastic Constant Matrix: (Units=GPa)
#
#
# Indices 1 2 3 4 5 6 
#
# 1 81.3345 52.0779 15.1338 0.0000 4.6343 0.0000
# 2 52.0779 112.3865 42.0926 0.0000 3.1566 0.0000
# 3 15.1338 42.0926 71.2985 0.0000 9.3268 0.0000
# 4 0.0000 0.0000 0.0000 15.0906 0.0000 5.0391
# 5 4.6343 3.1566 9.3268 0.0000 21.7460 0.0000
# 6 0.0000 0.0000 0.0000 5.0391 0.0000 23.8745
#
#
#
# Elastic Compliance Matrix: (Units=1/GPa)
#
#
# Indices 1 2 3 4 5 6 
#
# 1 0.017810 -0.008867 0.001889 0.000000 -0.003318 0.000000
# 2 -0.008867 0.015874 -0.007877 0.000000 0.002964 0.000000
# 3 0.001889 -0.007877 0.019259 0.000000 -0.007519 0.000000
# 4 0.000000 0.000000 0.000000 0.071291 0.000000 -0.015047
# 5 -0.003318 0.002964 -0.007519 0.000000 0.049487 0.000000
# 6 0.000000 0.000000 0.000000 -0.015047 0.000000 0.045062
#
#
# Mechanical properties :
#
#
# Convention : Reuss Voigt Hill
#
# Bulk Modulus (GPa) = 43.04502 53.73646 48.39074
# Shear Modulus (GPa) = 19.51320 22.52323 21.01821
#
# Velocity S-wave (km/s) = 3.30958 3.55569 3.43484
# Velocity P-wave (km/s) = 6.22630 6.85719 6.54934
#
# Compressibility (1/GPa) = 0.02323149
#
# Stress axis : x y z
#
# Youngs Moduli (GPa) = 56.14810 62.99768 51.92491
#
# Poissons Ratio (x) = 0.55860 -0.09806
# Poissons Ratio (y) = 0.49786 0.40901
# Poissons Ratio (z) = -0.10604 0.49623
#
# Static dielectric constant tensor:
#      x y z
#    x 3.223960 0.000000 0.174670 
#    y 0.000000 3.236580 0.000000 
#    z 0.174670 0.000000 3.228340 
# 
# 
# High freq. dielectric constant tensor:
#      x y z
#    x 1.676830 0.000000 0.021250 
#    y 0.000000 1.683920 0.000000 
#    z 0.021250 0.000000 1.687040 
# 
# From -- ./inp_files/6958.got.cif
#   From: 2010.06.25/outbox.cif.g09.slc.cpg/sg11_4_cif.got.tgz:6958.got - 2010.06.27 23:14:04.
