data_PCOD8073485
_publ_section_title
;
Structure prediction by ZEFSAII (Michael W. Deem and Ramdas Pophale) SiO2 
 PCOD8073485
Probable space group: P 21/M
;
_chemical_formula_sum "Si O2"
_cell_formula_units_Z 28
_cell_length_a 6.740585
_cell_length_b 28.951780
_cell_length_c 9.018185
_cell_angle_alpha 90.000000
_cell_angle_beta 49.465103
_cell_angle_gamma 90.000000
_cell_volume 1337.554414
_symmetry_space_group_name_H-M "P 21/M"
_symmetry_group_IT_number 11
_symmetry_cell_setting 'monoclinic'
loop_
_space_group_symop_operation_xyz
x,y,z
-x,1/2+y,-z
-x,-y,-z
x,1/2-y,z
loop_
_atom_site_type_symbol
_atom_site_label
_atom_site_fract_x
_atom_site_fract_y
_atom_site_fract_z
Si Si1 0.760102 0.198418 0.048370
Si Si2 0.639469 0.435798 0.411301
Si Si3 0.670268 0.641611 0.905437
Si Si4 0.748912 0.333877 0.378441
Si Si5 0.586833 0.002493 0.704344
Si Si6 0.205747 0.039199 0.122212
Si Si7 0.667261 0.698004 0.198426
O O1 0.674514 0.250000 0.040846
O O2 0.556586 0.161289 0.087935
O O3 0.767614 0.196177 0.222066
O O4 0.057764 0.187858 0.849249
O O5 0.591813 0.381373 0.425923
O O6 0.431466 0.461168 0.407242
O O7 0.628083 0.450824 0.590119
O O8 0.919187 0.448387 0.206596
O O9 0.632502 0.586379 0.927312
O O10 0.957982 0.655423 0.703842
O O11 0.626890 0.660820 0.090306
O O12 0.583048 0.304394 0.574438
O O13 0.814063 0.989768 0.712543
O O14 0.331246 0.008466 0.931677
O O15 0.679219 0.750000 0.126734
#
# Coordination Sequence:
#
# PCOD8073485 Si02
#       7
#     4   4   4   4   4   4   4
#     4  10  21  37  56  80 109 140 178 223 269 320
#     4  10  20  35  54  78 107 139 177 219 264 314
#     4  10  21  37  57  81 110 143 180 223 269 319
#     4  10  21  37  57  81 110 143 180 223 269 319
#     4  10  20  34  54  78 106 140 176 216 264 316
#     4  10  20  35  54  78 107 139 177 219 264 314
#     4  10  21  37  56  80 109 140 178 223 269 320
#
# _framework density 20.933730000000001
#
# number of rings (size 3 to 8) (size 9 to 14) (size 15 to 20)
#    0.000    2.000    0.000    3.429    0.000    2.857 
#    0.000    7.143    0.000    0.000    0.000    0.000 
#    0.000    0.000    0.000    0.000    0.000    0.000 
#
# Total GULP energy -347160.809091 kJ/mol
# GULP energy per Si atom -12398.600325 kJ/mol
# Density = 2.088608 g / cm^3
# Si number density = 20.933730 Si / 1000 Ang^3
#
#
#
# Elastic Constant Matrix: (Units=GPa)
#
#
# Indices 1 2 3 4 5 6 
#
# 1 61.0565 11.4514 15.8848 0.0000 -0.2119 0.0000
# 2 11.4514 64.3272 8.6861 0.0000 5.8238 0.0000
# 3 15.8848 8.6861 79.3183 0.0000 -0.5885 0.0000
# 4 0.0000 0.0000 0.0000 29.0609 0.0000 -1.9631
# 5 -0.2119 5.8238 -0.5885 0.0000 22.2671 0.0000
# 6 0.0000 0.0000 0.0000 -1.9631 0.0000 31.3213
#
#
#
# Elastic Compliance Matrix: (Units=1/GPa)
#
#
# Indices 1 2 3 4 5 6 
#
# 1 0.017749 -0.002796 -0.003242 0.000000 0.000814 0.000000
# 2 -0.002796 0.016617 -0.001293 0.000000 -0.004407 0.000000
# 3 -0.003242 -0.001293 0.013403 0.000000 0.000661 0.000000
# 4 0.000000 0.000000 0.000000 0.034557 0.000000 0.002166
# 5 0.000814 -0.004407 0.000661 0.000000 0.046087 0.000000
# 6 0.000000 0.000000 0.000000 0.002166 0.000000 0.032063
#
#
# Mechanical properties :
#
#
# Convention : Reuss Voigt Hill
#
# Bulk Modulus (GPa) = 30.20415 30.74961 30.47688
# Shear Modulus (GPa) = 26.85681 27.77517 27.31599
#
# Velocity S-wave (km/s) = 3.58571 3.64650 3.61623
# Velocity P-wave (km/s) = 5.62164 5.69651 5.65920
#
# Compressibility (1/GPa) = 0.03310803
#
# Stress axis : x y z
#
# Youngs Moduli (GPa) = 56.34132 60.18051 74.60898
#
# Poissons Ratio (x) = 0.16824 0.24191
# Poissons Ratio (y) = 0.15751 0.09643
# Poissons Ratio (z) = 0.18268 0.07778
#
# Static dielectric constant tensor:
#      x y z
#    x 3.612960 0.000000 -0.102620 
#    y 0.000000 3.793600 0.000000 
#    z -0.102620 0.000000 3.689650 
# 
# 
# High freq. dielectric constant tensor:
#      x y z
#    x 1.805660 0.000000 -0.006130 
#    y 0.000000 1.826460 0.000000 
#    z -0.006130 0.000000 1.816060 
# 
# From -- ./inp_files/10807.got.cif
#   From: 2010.06.25/outbox.cif.g09.slc.cpg/sg11_6_cif.got.tgz:10807.got - 2010.06.27 23:14:04.
