data_PCOD8073320
_publ_section_title
;
Structure prediction by ZEFSAII (Michael W. Deem and Ramdas Pophale) SiO2 
 PCOD8073320
Probable space group: P 21/M
;
_chemical_formula_sum "Si O2"
_cell_formula_units_Z 28
_cell_length_a 10.443905
_cell_length_b 8.982296
_cell_length_c 15.068329
_cell_angle_alpha 90.000000
_cell_angle_beta 65.427765
_cell_angle_gamma 90.000000
_cell_volume 1285.548116
_symmetry_space_group_name_H-M "P 21/M"
_symmetry_group_IT_number 11
_symmetry_cell_setting 'monoclinic'
loop_
_space_group_symop_operation_xyz
x,y,z
-x,1/2+y,-z
-x,-y,-z
x,1/2-y,z
loop_
_atom_site_type_symbol
_atom_site_label
_atom_site_fract_x
_atom_site_fract_y
_atom_site_fract_z
Si Si1 0.791587 0.913348 0.170519
Si Si2 0.940141 0.926603 0.429025
Si Si3 0.958385 0.084663 0.781730
Si Si4 0.486804 0.916466 0.912726
Si Si5 0.382814 0.074049 0.470509
Si Si6 0.520873 0.073089 0.730900
Si Si7 0.158913 0.582932 0.006480
O O1 0.759985 0.750000 0.140977
O O2 0.640107 0.981473 0.237585
O O3 0.878347 0.909829 0.235986
O O4 0.891984 0.992445 0.066593
O O5 0.958270 0.750000 0.432314
O O6 0.777069 0.964935 0.455195
O O7 0.035412 0.989135 0.318149
O O8 0.000000 0.000000 0.500000
O O9 0.895052 0.250000 0.789132
O O10 0.869763 0.006062 0.887818
O O11 0.550660 0.750000 0.899806
O O12 0.569117 0.010826 0.813394
O O13 0.322957 0.909270 0.937860
O O14 0.500000 0.000000 0.000000
O O15 0.410374 0.250000 0.462621
O O16 0.500000 0.000000 0.500000
O O17 0.390247 0.008481 0.369581
O O18 0.544358 0.250000 0.718508
O O19 0.091622 0.750000 0.027667
#
# Coordination Sequence:
#
# PCOD8073320 Si02
#       7
#     4   4   4   4   4   4   4
#     4   9  17  31  53  80 110 141 174 217 274 336
#     4  10  23  42  61  84 117 155 198 246 297 354
#     4   9  17  33  55  76 104 143 179 217 271 337
#     4  10  20  34  51  76 109 144 184 230 280 342
#     4  11  23  40  63  91 120 154 200 253 304 359
#     4  10  20  35  56  82 111 147 189 237 294 350
#     4   9  18  31  50  77 106 136 173 216 268 332
#
# _framework density 21.780593
#
# number of rings (size 3 to 8) (size 9 to 14) (size 15 to 20)
#    0.000    2.286    0.000    2.571    0.000    5.714 
#    0.000    2.857    0.000    0.000    0.000    0.000 
#    0.000    0.000    0.000    0.000    0.000    0.000 
#
# Total GULP energy -346879.042187 kJ/mol
# GULP energy per Si atom -12388.537221 kJ/mol
# Density = 2.173102 g / cm^3
# Si number density = 21.780593 Si / 1000 Ang^3
#
#
#
# Elastic Constant Matrix: (Units=GPa)
#
#
# Indices 1 2 3 4 5 6 
#
# 1 33.9106 18.5808 17.9940 0.0000 12.8201 0.0000
# 2 18.5808 79.0750 47.6264 0.0000 7.9885 0.0000
# 3 17.9940 47.6264 167.7107 0.0000 21.6100 0.0000
# 4 0.0000 0.0000 0.0000 35.4968 0.0000 7.4544
# 5 12.8201 7.9885 21.6100 0.0000 36.9899 0.0000
# 6 0.0000 0.0000 0.0000 7.4544 0.0000 24.9153
#
#
#
# Elastic Compliance Matrix: (Units=1/GPa)
#
#
# Indices 1 2 3 4 5 6 
#
# 1 0.038150 -0.007521 -0.000501 0.000000 -0.011305 0.000000
# 2 -0.007521 0.016761 -0.004134 0.000000 0.001402 0.000000
# 3 -0.000501 -0.004134 0.007627 0.000000 -0.003390 0.000000
# 4 0.000000 0.000000 0.000000 0.030060 0.000000 -0.008994
# 5 -0.011305 0.001402 -0.003390 0.000000 0.032630 0.000000
# 6 0.000000 0.000000 0.000000 -0.008994 0.000000 0.042827
#
#
# Mechanical properties :
#
#
# Convention : Reuss Voigt Hill
#
# Bulk Modulus (GPa) = 26.15854 49.89985 38.02920
# Shear Modulus (GPa) = 24.37734 32.58008 28.47871
#
# Velocity S-wave (km/s) = 3.34911 3.87179 3.61990
# Velocity P-wave (km/s) = 5.19533 6.55345 5.91351
#
# Compressibility (1/GPa) = 0.03822843
#
# Stress axis : x y z
#
# Youngs Moduli (GPa) = 26.21232 59.66072 131.11351
#
# Poissons Ratio (x) = 0.44869 0.06565
# Poissons Ratio (y) = 0.19713 0.54197
# Poissons Ratio (z) = 0.01313 0.24661
#
# Static dielectric constant tensor:
#      x y z
#    x 3.949870 0.000000 -0.048210 
#    y 0.000000 3.955280 0.000000 
#    z -0.048210 0.000000 4.223270 
# 
# 
# High freq. dielectric constant tensor:
#      x y z
#    x 1.846980 0.000000 -0.001430 
#    y 0.000000 1.827740 0.000000 
#    z -0.001430 0.000000 1.878940 
# 
# From -- ./inp_files/49135.got.cif
#   From: 2010.06.25/outbox.cif.g09.slc.cpg/sg11_25_cif.got.tgz:49135.got - 2010.06.27 23:14:04.
