data_PCOD8073972
_publ_section_title
;
Structure prediction by ZEFSAII (Michael W. Deem and Ramdas Pophale) SiO2 
 PCOD8073972
Probable space group: P 21/M
;
_chemical_formula_sum "Si O2"
_cell_formula_units_Z 28
_cell_length_a 17.540075
_cell_length_b 13.541292
_cell_length_c 6.556802
_cell_angle_alpha 90.000000
_cell_angle_beta 112.532934
_cell_angle_gamma 90.000000
_cell_volume 1438.452343
_symmetry_space_group_name_H-M "P 21/M"
_symmetry_group_IT_number 11
_symmetry_cell_setting 'monoclinic'
loop_
_space_group_symop_operation_xyz
x,y,z
-x,1/2+y,-z
-x,-y,-z
x,1/2-y,z
loop_
_atom_site_type_symbol
_atom_site_label
_atom_site_fract_x
_atom_site_fract_y
_atom_site_fract_z
Si Si1 0.382165 0.972887 0.817850
Si Si2 0.526620 0.938248 0.721777
Si Si3 0.911157 0.507110 0.095329
Si Si4 0.816180 0.636907 0.683938
Si Si5 0.059131 0.866946 0.230727
Si Si6 0.631323 0.856099 0.511045
Si Si7 0.191601 0.966634 0.622572
O O1 0.395497 0.069527 0.692550
O O2 0.447508 0.897966 0.772564
O O3 0.288160 0.934468 0.725452
O O4 0.412488 0.995183 0.076383
O O5 0.579733 0.852516 0.670044
O O6 0.500000 0.000000 0.500000
O O7 0.845039 0.468589 0.189100
O O8 0.989645 0.565266 0.274739
O O9 0.875889 0.590241 0.910096
O O10 0.936798 0.408528 0.996795
O O11 0.842005 0.750000 0.667352
O O12 0.724733 0.625606 0.679421
O O13 0.820776 0.576824 0.476910
O O14 0.039124 0.750000 0.209394
O O15 0.145344 0.885263 0.436668
O O16 0.622793 0.750000 0.395640
#
# Coordination Sequence:
#
# PCOD8073972 Si02
#       7
#     4   4   4   4   4   4   4
#     4   9  18  32  51  74 102 133 171 214 260 310
#     4   9  17  31  51  72  96 134 172 207 253 305
#     4  10  20  36  57  80 106 140 179 222 271 319
#     4   9  18  31  50  81 114 139 171 217 266 317
#     4  10  22  38  55  78 107 140 181 224 267 321
#     4   9  17  29  47  74 105 134 165 205 257 312
#     4  10  20  35  55  79 107 140 178 219 265 322
#
# _framework density 19.465364999999998
#
# number of rings (size 3 to 8) (size 9 to 14) (size 15 to 20)
#    0.000    2.571    0.000    1.714    0.000    3.429 
#    0.000    3.571    0.000    3.429    0.000    0.000 
#    0.000    0.000    0.000    0.000    0.000    0.000 
#
# Total GULP energy -346893.106475 kJ/mol
# GULP energy per Si atom -12389.039517 kJ/mol
# Density = 1.942106 g / cm^3
# Si number density = 19.465365 Si / 1000 Ang^3
#
#
#
# Elastic Constant Matrix: (Units=GPa)
#
#
# Indices 1 2 3 4 5 6 
#
# 1 125.9616 21.1577 35.8510 0.0000 -3.6380 0.0000
# 2 21.1577 71.3439 12.9120 0.0000 -4.6464 0.0000
# 3 35.8510 12.9120 76.6293 0.0000 5.2679 0.0000
# 4 0.0000 0.0000 0.0000 14.8295 0.0000 0.6649
# 5 -3.6380 -4.6464 5.2679 0.0000 36.4042 0.0000
# 6 0.0000 0.0000 0.0000 0.6649 0.0000 20.5630
#
#
#
# Elastic Compliance Matrix: (Units=1/GPa)
#
#
# Indices 1 2 3 4 5 6 
#
# 1 0.009505 -0.001973 -0.004204 0.000000 0.001306 0.000000
# 2 -0.001973 0.015047 -0.001748 0.000000 0.001976 0.000000
# 3 -0.004204 -0.001748 0.015510 0.000000 -0.002888 0.000000
# 4 0.000000 0.000000 0.000000 0.067531 0.000000 -0.002183
# 5 0.001306 0.001976 -0.002888 0.000000 0.028270 0.000000
# 6 0.000000 0.000000 0.000000 -0.002183 0.000000 0.048702
#
#
# Mechanical properties :
#
#
# Convention : Reuss Voigt Hill
#
# Bulk Modulus (GPa) = 41.30370 45.97512 43.63941
# Shear Modulus (GPa) = 23.98261 27.96030 25.97145
#
# Velocity S-wave (km/s) = 3.51389 3.79412 3.65669
# Velocity P-wave (km/s) = 6.14234 6.54706 6.34792
#
# Compressibility (1/GPa) = 0.02421091
#
# Stress axis : x y z
#
# Youngs Moduli (GPa) = 105.21244 66.45952 64.47528
#
# Poissons Ratio (x) = 0.13111 0.27106
# Poissons Ratio (y) = 0.20755 0.11272
# Poissons Ratio (z) = 0.44233 0.11619
#
# Static dielectric constant tensor:
#      x y z
#    x 4.121390 0.000000 -0.011790 
#    y 0.000000 3.348960 0.000000 
#    z -0.011790 0.000000 3.475080 
# 
# 
# High freq. dielectric constant tensor:
#      x y z
#    x 1.777710 0.000000 0.007580 
#    y 0.000000 1.722430 0.000000 
#    z 0.007580 0.000000 1.755650 
# 
# From -- ./inp_files/7935.got.cif
#   From: 2010.06.25/outbox.cif.g09.slc.cpg/sg11_4_cif.got.tgz:7935.got - 2010.06.27 23:14:04.
