data_PCOD8073182
_publ_section_title
;
Structure prediction by ZEFSAII (Michael W. Deem and Ramdas Pophale) SiO2 
 PCOD8073182
Probable space group: P 21/M
;
_chemical_formula_sum "Si O2"
_cell_formula_units_Z 32
_cell_length_a 25.825513
_cell_length_b 13.467376
_cell_length_c 9.939347
_cell_angle_alpha 90.000000
_cell_angle_beta 29.389004
_cell_angle_gamma 90.000000
_cell_volume 1696.438796
_symmetry_space_group_name_H-M "P 21/M"
_symmetry_group_IT_number 11
_symmetry_cell_setting 'monoclinic'
loop_
_space_group_symop_operation_xyz
x,y,z
-x,1/2+y,-z
-x,-y,-z
x,1/2-y,z
loop_
_atom_site_type_symbol
_atom_site_label
_atom_site_fract_x
_atom_site_fract_y
_atom_site_fract_z
Si Si1 0.708590 0.133816 0.678004
Si Si2 0.884831 0.637618 0.995503
Si Si3 0.965255 0.133084 0.846944
Si Si4 0.853656 0.636186 0.761221
Si Si5 0.442448 0.633132 0.738160
Si Si6 0.940547 0.367100 0.203351
Si Si7 0.349589 0.489966 0.732080
Si Si8 0.745646 0.033914 0.325018
O O1 0.716689 0.250000 0.626488
O O2 0.819805 0.095003 0.487993
O O3 0.685358 0.078244 0.590113
O O4 0.615110 0.109166 0.991224
O O5 0.866643 0.750000 0.083682
O O6 0.776819 0.581281 0.279662
O O7 0.907765 0.629344 0.785151
O O8 0.984338 0.587785 0.849689
O O9 0.952044 0.250000 0.863672
O O10 0.062146 0.095873 0.537040
O O11 0.987572 0.102388 0.951386
O O12 0.855638 0.088504 0.041728
O O13 0.820146 0.750000 0.806535
O O14 0.752688 0.565646 0.979376
O O15 0.443945 0.750000 0.704360
O O16 0.379809 0.579683 0.761027
O O17 0.560119 0.592687 0.483645
O O18 0.940297 0.250000 0.224125
O O19 0.331118 0.540683 0.629090
#
# Coordination Sequence:
#
# PCOD8073182 Si02
#       8
#     4   4   4   4   4   4   4   4
#     4   9  19  35  55  78 103 134 171 213 263 310
#     4   9  18  30  45  70 105 144 179 209 251 307
#     4   9  18  31  49  76 108 141 174 210 258 310
#     4   9  18  33  52  75 108 145 176 211 256 309
#     4  10  22  40  59  78 102 134 174 222 271 316
#     4   8  15  29  46  69 102 134 169 209 247 298
#     4  10  22  37  56  80 104 134 177 221 265 314
#     4  10  20  33  53  78 108 138 171 217 260 310
#
# _framework density 18.863045
#
# number of rings (size 3 to 8) (size 9 to 14) (size 15 to 20)
#    0.000    2.750    0.000    1.500    0.000    9.000 
#    0.000    2.500    0.000    3.000    0.000    0.000 
#    0.000    0.000    0.000    0.000    0.000    0.000 
#
# Total GULP energy -396768.767455 kJ/mol
# GULP energy per Si atom -12399.023983 kJ/mol
# Density = 1.882011 g / cm^3
# Si number density = 18.863045 Si / 1000 Ang^3
#
#
#
# Elastic Constant Matrix: (Units=GPa)
#
#
# Indices 1 2 3 4 5 6 
#
# 1 127.0770 50.1926 59.4677 0.0000 -4.9499 0.0000
# 2 50.1926 64.3117 63.8641 0.0000 6.2439 0.0000
# 3 59.4677 63.8641 105.7723 0.0000 8.1446 0.0000
# 4 0.0000 0.0000 0.0000 24.8267 0.0000 2.4713
# 5 -4.9499 6.2439 8.1446 0.0000 19.5312 0.0000
# 6 0.0000 0.0000 0.0000 2.4713 0.0000 22.4405
#
#
#
# Elastic Compliance Matrix: (Units=1/GPa)
#
#
# Indices 1 2 3 4 5 6 
#
# 1 0.012481 -0.007275 -0.003148 0.000000 0.006802 0.000000
# 2 -0.007275 0.043214 -0.021486 0.000000 -0.006699 0.000000
# 3 -0.003148 -0.021486 0.024517 0.000000 -0.004153 0.000000
# 4 0.000000 0.000000 0.000000 0.040726 0.000000 -0.004485
# 5 0.006802 -0.006699 -0.004153 0.000000 0.056797 0.000000
# 6 0.000000 0.000000 0.000000 -0.004485 0.000000 0.045056
#
#
# Mechanical properties :
#
#
# Convention : Reuss Voigt Hill
#
# Bulk Modulus (GPa) = 61.00001 71.57885 66.28943
# Shear Modulus (GPa) = 17.11892 21.60211 19.36052
#
# Velocity S-wave (km/s) = 3.01580 3.38776 3.20718
# Velocity P-wave (km/s) = 6.67348 7.30285 6.99525
#
# Compressibility (1/GPa) = 0.01639344
#
# Stress axis : x y z
#
# Youngs Moduli (GPa) = 80.12278 23.14066 40.78746
#
# Poissons Ratio (x) = 0.16834 0.12842
# Poissons Ratio (y) = 0.58286 0.87637
# Poissons Ratio (z) = 0.25226 0.49721
#
# Static dielectric constant tensor:
#      x y z
#    x 3.544450 0.000000 0.053530 
#    y 0.000000 3.530590 0.000000 
#    z 0.053530 0.000000 3.398600 
# 
# 
# High freq. dielectric constant tensor:
#      x y z
#    x 1.732350 0.000000 0.005390 
#    y 0.000000 1.741910 0.000000 
#    z 0.005390 0.000000 1.717070 
# 
# From -- ./inp_files/27789.got.cif
#   From: 2010.06.25/outbox.cif.g09.slc.cpg/sg11_14_cif.got.tgz:27789.got - 2010.06.27 23:14:04.
