data_PCOD8073264
_publ_section_title
;
Structure prediction by ZEFSAII (Michael W. Deem and Ramdas Pophale) SiO2 
 PCOD8073264
Probable space group: P 21/M
;
_chemical_formula_sum "Si O2"
_cell_formula_units_Z 28
_cell_length_a 30.424900
_cell_length_b 8.786206
_cell_length_c 10.107501
_cell_angle_alpha 90.000000
_cell_angle_beta 147.365352
_cell_angle_gamma 90.000000
_cell_volume 1457.097984
_symmetry_space_group_name_H-M "P 21/M"
_symmetry_group_IT_number 11
_symmetry_cell_setting 'monoclinic'
loop_
_space_group_symop_operation_xyz
x,y,z
-x,1/2+y,-z
-x,-y,-z
x,1/2-y,z
loop_
_atom_site_type_symbol
_atom_site_label
_atom_site_fract_x
_atom_site_fract_y
_atom_site_fract_z
Si Si1 0.414828 0.073399 0.427364
Si Si2 0.007613 0.073417 0.661952
Si Si3 0.599373 0.426460 0.887169
Si Si4 0.274745 0.573698 0.212793
Si Si5 0.169468 0.923996 0.690429
Si Si6 0.244183 0.072527 0.629354
Si Si7 0.166160 0.570651 0.179927
O O1 0.403770 0.250000 0.362792
O O2 0.507920 0.039234 0.705056
O O3 0.389756 0.973355 0.237815
O O4 0.356685 0.024966 0.400514
O O5 0.023708 0.250000 0.680173
O O6 0.926267 0.044453 0.540208
O O7 0.000000 0.000000 0.500000
O O8 0.080043 0.003724 0.930232
O O9 0.621861 0.250000 0.956055
O O10 0.661260 0.521250 0.135198
O O11 0.299433 0.750000 0.280887
O O12 0.234189 0.519024 0.246482
O O13 0.209971 0.539946 0.933824
O O14 0.186940 0.750000 0.692128
O O15 0.206808 0.037054 0.677722
O O16 0.238192 0.250000 0.583571
O O17 0.193348 0.980590 0.392998
O O18 0.154067 0.750000 0.144237
#
# Coordination Sequence:
#
# PCOD8073264 Si02
#       7
#     4   4   4   4   4   4   4
#     4  10  20  33  57  91 119 150 197 247 291 340
#     4  11  22  39  63  91 121 154 199 247 294 348
#     4  10  20  36  57  84 121 159 193 239 296 349
#     4  10  20  37  61  88 118 156 198 238 292 354
#     4  10  21  39  62  88 119 157 196 240 293 352
#     4  12  25  40  60  90 120 156 201 244 295 352
#     4  11  24  43  63  86 120 161 197 241 302 356
#
# _framework density 19.216277999999999
#
# number of rings (size 3 to 8) (size 9 to 14) (size 15 to 20)
#    0.000    1.429    2.857    3.000    0.000    4.571 
#    0.000    0.714    0.000    0.000    0.000    0.000 
#    0.000    0.000    0.000    0.000    0.000    0.000 
#
# Total GULP energy -347352.197918 kJ/mol
# GULP energy per Si atom -12405.435640 kJ/mol
# Density = 1.917254 g / cm^3
# Si number density = 19.216278 Si / 1000 Ang^3
#
#
#
# Elastic Constant Matrix: (Units=GPa)
#
#
# Indices 1 2 3 4 5 6 
#
# 1 62.9954 35.8840 25.4621 0.0000 11.8725 0.0000
# 2 35.8840 73.0307 31.0316 0.0000 15.2381 0.0000
# 3 25.4621 31.0316 99.7926 0.0000 12.9037 0.0000
# 4 0.0000 0.0000 0.0000 33.4156 0.0000 3.4661
# 5 11.8725 15.2381 12.9037 0.0000 30.0376 0.0000
# 6 0.0000 0.0000 0.0000 3.4661 0.0000 32.1174
#
#
#
# Elastic Compliance Matrix: (Units=1/GPa)
#
#
# Indices 1 2 3 4 5 6 
#
# 1 0.022904 -0.009549 -0.002468 0.000000 -0.003149 0.000000
# 2 -0.009549 0.020947 -0.003379 0.000000 -0.005401 0.000000
# 3 -0.002468 -0.003379 0.012021 0.000000 -0.002475 0.000000
# 4 0.000000 0.000000 0.000000 0.030265 0.000000 -0.003266
# 5 -0.003149 -0.005401 -0.002475 0.000000 0.038339 0.000000
# 6 0.000000 0.000000 0.000000 -0.003266 0.000000 0.031488
#
#
# Mechanical properties :
#
#
# Convention : Reuss Voigt Hill
#
# Bulk Modulus (GPa) = 39.86904 46.73043 43.29974
# Shear Modulus (GPa) = 25.62576 28.67685 27.15130
#
# Velocity S-wave (km/s) = 3.65573 3.86725 3.76298
# Velocity P-wave (km/s) = 6.21384 6.65671 6.43908
#
# Compressibility (1/GPa) = 0.02508212
#
# Stress axis : x y z
#
# Youngs Moduli (GPa) = 43.66024 47.73876 83.18679
#
# Poissons Ratio (x) = 0.45583 0.20527
# Poissons Ratio (y) = 0.41689 0.28110
# Poissons Ratio (z) = 0.10774 0.16132
#
# Static dielectric constant tensor:
#      x y z
#    x 3.501370 0.000000 0.238020 
#    y 0.000000 3.569570 0.000000 
#    z 0.238020 0.000000 3.488960 
# 
# 
# High freq. dielectric constant tensor:
#      x y z
#    x 1.743760 0.000000 0.019370 
#    y 0.000000 1.754610 0.000000 
#    z 0.019370 0.000000 1.747080 
# 
# From -- ./inp_files/28298.got.cif
#   From: 2010.06.25/outbox.cif.g09.slc.cpg/sg11_15_cif.got.tgz:28298.got - 2010.06.27 23:14:04.
