data_PCOD8073899
_publ_section_title
;
Structure prediction by ZEFSAII (Michael W. Deem and Ramdas Pophale) SiO2 
 PCOD8073899
Probable space group: P 21/M
;
_chemical_formula_sum "Si O2"
_cell_formula_units_Z 32
_cell_length_a 27.951387
_cell_length_b 9.105820
_cell_length_c 21.525676
_cell_angle_alpha 90.000000
_cell_angle_beta 18.847511
_cell_angle_gamma 90.000000
_cell_volume 1769.904088
_symmetry_space_group_name_H-M "P 21/M"
_symmetry_group_IT_number 11
_symmetry_cell_setting 'monoclinic'
loop_
_space_group_symop_operation_xyz
x,y,z
-x,1/2+y,-z
-x,-y,-z
x,1/2-y,z
loop_
_atom_site_type_symbol
_atom_site_label
_atom_site_fract_x
_atom_site_fract_y
_atom_site_fract_z
Si Si1 0.668352 0.420948 0.682217
Si Si2 0.167059 0.076834 0.408621
Si Si3 0.172594 0.919865 0.170893
Si Si4 0.657351 0.424363 0.298853
Si Si5 0.823400 0.082542 0.972156
Si Si6 0.934022 0.574427 0.020263
Si Si7 0.919511 0.081776 0.285212
Si Si8 0.664164 0.576442 0.921114
O O1 0.668029 0.250000 0.699775
O O2 0.749847 0.504201 0.636653
O O3 0.751353 0.448868 0.514043
O O4 0.502894 0.483011 0.879883
O O5 0.182651 0.250000 0.397297
O O6 0.241251 0.020890 0.253699
O O7 0.996925 0.027032 0.616730
O O8 0.185412 0.750000 0.173715
O O9 0.270372 0.014119 0.096428
O O10 0.236951 0.950240 0.022692
O O11 0.500000 0.500000 0.500000
O O12 0.650509 0.250000 0.321721
O O13 0.700439 0.456896 0.174446
O O14 0.775003 0.502011 0.200162
O O15 0.871943 0.250000 0.918511
O O16 0.974232 0.996290 0.796659
O O17 0.916472 0.750000 0.050613
O O18 0.000000 0.500000 0.000000
O O19 0.050491 0.531868 0.822490
O O20 0.962390 0.250000 0.237963
O O21 0.666803 0.750000 0.923165
#
# Coordination Sequence:
#
# PCOD8073899 Si02
#       8
#     4   4   4   4   4   4   4   4
#     4  10  20  35  54  78 107 137 175 219 264 316
#     4  10  20  35  56  78 102 137 180 221 263 315
#     4  10  20  35  54  77 105 137 178 221 262 312
#     4  10  20  36  58  83 112 144 180 223 272 324
#     4   9  18  34  56  79 106 138 178 221 259 309
#     4  10  20  36  57  82 112 144 183 225 270 324
#     4   9  18  33  55  79 105 138 178 218 259 313
#     4  10  22  36  50  76 111 141 173 218 268 316
#
# _framework density 18.080075999999998
#
# number of rings (size 3 to 8) (size 9 to 14) (size 15 to 20)
#    0.000    2.250    1.250    1.500    0.000    3.000 
#    2.250    0.000    0.000    0.000    0.000    0.000 
#    0.000    0.000    0.000    0.000    0.000    0.000 
#
# Total GULP energy -396770.800925 kJ/mol
# GULP energy per Si atom -12399.087529 kJ/mol
# Density = 1.803893 g / cm^3
# Si number density = 18.080076 Si / 1000 Ang^3
#
#
#
# Elastic Constant Matrix: (Units=GPa)
#
#
# Indices 1 2 3 4 5 6 
#
# 1 125.3937 40.7568 55.4350 0.0000 -2.7013 0.0000
# 2 40.7568 49.4168 34.0669 0.0000 -2.4218 0.0000
# 3 55.4350 34.0669 100.6246 0.0000 -0.8680 0.0000
# 4 0.0000 0.0000 0.0000 23.4267 0.0000 -4.8501
# 5 -2.7013 -2.4218 -0.8680 0.0000 26.1170 0.0000
# 6 0.0000 0.0000 0.0000 -4.8501 0.0000 37.0120
#
#
#
# Elastic Compliance Matrix: (Units=1/GPa)
#
#
# Indices 1 2 3 4 5 6 
#
# 1 0.012187 -0.007048 -0.004324 0.000000 0.000463 0.000000
# 2 -0.007048 0.030594 -0.006459 0.000000 0.001893 0.000000
# 3 -0.004324 -0.006459 0.014502 0.000000 -0.000564 0.000000
# 4 0.000000 0.000000 0.000000 0.043877 0.000000 0.005750
# 5 0.000463 0.001893 -0.000564 0.000000 0.038494 0.000000
# 6 0.000000 0.000000 0.000000 0.005750 0.000000 0.027772
#
#
# Mechanical properties :
#
#
# Convention : Reuss Voigt Hill
#
# Bulk Modulus (GPa) = 46.24917 59.55027 52.89972
# Shear Modulus (GPa) = 23.77627 26.98958 25.38293
#
# Velocity S-wave (km/s) = 3.63030 3.86784 3.75095
# Velocity P-wave (km/s) = 6.57327 7.27705 6.93409
#
# Compressibility (1/GPa) = 0.02162201
#
# Stress axis : x y z
#
# Youngs Moduli (GPa) = 82.05319 32.68608 68.95711
#
# Poissons Ratio (x) = 0.23037 0.29817
# Poissons Ratio (y) = 0.57830 0.44537
# Poissons Ratio (z) = 0.35479 0.21111
#
# Static dielectric constant tensor:
#      x y z
#    x 3.388350 0.000000 0.245680 
#    y 0.000000 3.341900 0.000000 
#    z 0.245680 0.000000 3.744410 
# 
# 
# High freq. dielectric constant tensor:
#      x y z
#    x 1.699620 0.000000 0.012560 
#    y 0.000000 1.700540 0.000000 
#    z 0.012560 0.000000 1.705140 
# 
# From -- ./inp_files/66934.got.cif
#   From: 2010.06.25/outbox.cif.g09.slc.cpg/sg11_34_cif.got.tgz:66934.got - 2010.06.27 23:14:04.
