data_PCOD8073016
_publ_section_title
;
Structure prediction by ZEFSAII (Michael W. Deem and Ramdas Pophale) SiO2 
 PCOD8073016
Probable space group: P 21/M
;
_chemical_formula_sum "Si O2"
_cell_formula_units_Z 32
_cell_length_a 21.232234
_cell_length_b 9.704293
_cell_length_c 11.302805
_cell_angle_alpha 90.000000
_cell_angle_beta 128.127964
_cell_angle_gamma 90.000000
_cell_volume 1831.970252
_symmetry_space_group_name_H-M "P 21/M"
_symmetry_group_IT_number 11
_symmetry_cell_setting 'monoclinic'
loop_
_space_group_symop_operation_xyz
x,y,z
-x,1/2+y,-z
-x,-y,-z
x,1/2-y,z
loop_
_atom_site_type_symbol
_atom_site_label
_atom_site_fract_x
_atom_site_fract_y
_atom_site_fract_z
Si Si1 0.235055 0.413714 0.814201
Si Si2 0.481266 0.901960 0.810794
Si Si3 0.732880 0.912612 0.887575
Si Si4 0.933420 0.589225 0.486566
Si Si5 0.027714 0.408155 0.202028
Si Si6 0.382426 0.096151 0.836412
Si Si7 0.445168 0.087941 0.351661
Si Si8 0.108957 0.089963 0.055704
O O1 0.242319 0.250000 0.826622
O O2 0.150728 0.461347 0.663325
O O3 0.304959 0.470489 0.809780
O O4 0.245576 0.475690 0.958412
O O5 0.444319 0.750000 0.750856
O O6 0.527429 0.949569 0.748052
O O7 0.407458 0.003716 0.753158
O O8 0.545070 0.900209 0.988760
O O9 0.728308 0.750000 0.897371
O O10 0.646642 0.964031 0.741432
O O11 0.800619 0.955763 0.871117
O O12 0.948942 0.750000 0.477776
O O13 0.932399 0.560161 0.625694
O O14 0.000000 0.500000 0.500000
O O15 0.999071 0.250000 0.160309
O O16 0.093340 0.440056 0.176170
O O17 0.950829 0.504165 0.096201
O O18 0.363552 0.250000 0.767648
O O19 0.453647 0.250000 0.389957
O O20 0.500000 0.000000 0.500000
O O21 0.095390 0.250000 0.008703
#
# Coordination Sequence:
#
# PCOD8073016 Si02
#       8
#     4   4   4   4   4   4   4   4
#     4   9  16  29  50  74  98 128 165 205 244 286
#     4   9  17  31  50  70  99 129 155 197 252 293
#     4   9  16  30  52  74  95 124 167 206 239 288
#     4  10  20  33  50  74 105 133 161 201 249 294
#     4   9  18  32  48  73 107 132 157 200 248 287
#     4   9  16  29  51  75  95 123 164 202 237 286
#     4  10  20  35  52  72 100 131 163 205 250 292
#     4   9  17  31  54  76  95 130 171 201 234 285
#
# _framework density 17.467531000000001
#
# number of rings (size 3 to 8) (size 9 to 14) (size 15 to 20)
#    0.000    2.750    1.250    0.750    0.000    2.000 
#    2.250    1.250    0.000    1.500    0.000    0.000 
#    0.000    0.000    0.000    0.000    0.000    0.000 
#
# Total GULP energy -396715.238153 kJ/mol
# GULP energy per Si atom -12397.351192 kJ/mol
# Density = 1.742777 g / cm^3
# Si number density = 17.467531 Si / 1000 Ang^3
#
#
#
# Elastic Constant Matrix: (Units=GPa)
#
#
# Indices 1 2 3 4 5 6 
#
# 1 150.1879 49.0414 55.0791 0.0000 16.3336 0.0000
# 2 49.0414 46.1631 32.7114 0.0000 2.4973 0.0000
# 3 55.0791 32.7114 99.4644 0.0000 9.3931 0.0000
# 4 0.0000 0.0000 0.0000 22.6787 0.0000 -0.0935
# 5 16.3336 2.4973 9.3931 0.0000 23.6463 0.0000
# 6 0.0000 0.0000 0.0000 -0.0935 0.0000 27.2578
#
#
#
# Elastic Compliance Matrix: (Units=1/GPa)
#
#
# Indices 1 2 3 4 5 6 
#
# 1 0.011533 -0.010173 -0.002483 0.000000 -0.005906 0.000000
# 2 -0.010173 0.037230 -0.007172 0.000000 0.005944 0.000000
# 3 -0.002483 -0.007172 0.014082 0.000000 -0.003121 0.000000
# 4 0.000000 0.000000 0.000000 0.044095 0.000000 0.000151
# 5 -0.005906 0.005944 -0.003121 0.000000 0.046981 0.000000
# 6 0.000000 0.000000 0.000000 0.000151 0.000000 0.036687
#
#
# Mechanical properties :
#
#
# Convention : Reuss Voigt Hill
#
# Bulk Modulus (GPa) = 43.12351 63.27544 53.19948
# Shear Modulus (GPa) = 21.00877 25.31547 23.16212
#
# Velocity S-wave (km/s) = 3.47181 3.81108 3.64539
# Velocity P-wave (km/s) = 6.38848 7.46117 6.94556
#
# Compressibility (1/GPa) = 0.02318920
#
# Stress axis : x y z
#
# Youngs Moduli (GPa) = 86.70668 26.85973 71.01070
#
# Poissons Ratio (x) = 0.27325 0.17633
# Poissons Ratio (y) = 0.88208 0.50929
# Poissons Ratio (z) = 0.21530 0.19264
#
# Static dielectric constant tensor:
#      x y z
#    x 3.255120 0.000000 0.287630 
#    y 0.000000 1.937490 0.000000 
#    z 0.287630 0.000000 2.885380 
# 
# 
# High freq. dielectric constant tensor:
#      x y z
#    x 1.689570 0.000000 -0.002920 
#    y 0.000000 1.645510 0.000000 
#    z -0.002920 0.000000 1.660390 
# 
# From -- ./inp_files/42941.got.cif
#   From: 2010.06.25/outbox.cif.g09.slc.cpg/sg11_22_cif.got.tgz:42941.got - 2010.06.27 23:14:04.
