data_PCOD8073891
_publ_section_title
;
Structure prediction by ZEFSAII (Michael W. Deem and Ramdas Pophale) SiO2 
 PCOD8073891
Probable space group: P 21/M
;
_chemical_formula_sum "Si O2"
_cell_formula_units_Z 32
_cell_length_a 11.475565
_cell_length_b 9.068652
_cell_length_c 22.205747
_cell_angle_alpha 90.000000
_cell_angle_beta 45.979401
_cell_angle_gamma 90.000000
_cell_volume 1661.749117
_symmetry_space_group_name_H-M "P 21/M"
_symmetry_group_IT_number 11
_symmetry_cell_setting 'monoclinic'
loop_
_space_group_symop_operation_xyz
x,y,z
-x,1/2+y,-z
-x,-y,-z
x,1/2-y,z
loop_
_atom_site_type_symbol
_atom_site_label
_atom_site_fract_x
_atom_site_fract_y
_atom_site_fract_z
Si Si1 0.234812 0.578205 0.737454
Si Si2 0.571215 0.579043 0.232730
Si Si3 0.127780 0.078600 0.538807
Si Si4 0.649796 0.920652 0.076876
Si Si5 0.872094 0.924497 0.889902
Si Si6 0.621031 0.420449 0.912219
Si Si7 0.212328 0.918097 0.389854
Si Si8 0.673058 0.075426 0.430101
O O1 0.260373 0.750000 0.737045
O O2 0.369499 0.499340 0.728643
O O3 0.257385 0.533166 0.660195
O O4 0.058746 0.528887 0.824555
O O5 0.613864 0.750000 0.223682
O O6 0.657744 0.511422 0.141484
O O7 0.378924 0.555402 0.294692
O O8 0.169013 0.250000 0.534293
O O9 0.934561 0.049733 0.603749
O O10 0.209569 0.027492 0.447371
O O11 0.198234 0.985158 0.568400
O O12 0.692737 0.750000 0.065882
O O13 0.462115 0.940147 0.123147
O O14 0.781957 0.988047 0.982601
O O15 0.848530 0.750000 0.891974
O O16 0.794389 0.999599 0.857959
O O17 0.640066 0.250000 0.922622
O O18 0.500000 0.500000 0.000000
O O19 0.198808 0.750000 0.418761
O O20 0.653686 0.250000 0.445442
O O21 0.500000 0.000000 0.500000
#
# Coordination Sequence:
#
# PCOD8073891 Si02
#       8
#     4   4   4   4   4   4   4   4
#     4  10  23  39  53  74 105 140 175 218 270 315
#     4  10  20  35  54  76 103 137 178 218 258 309
#     4  10  20  35  57  83 109 139 176 216 263 317
#     4   8  16  31  52  76 102 135 170 210 259 305
#     4   9  18  35  54  73 105 141 173 214 263 313
#     4   9  16  29  51  77 105 136 172 214 261 311
#     4   9  19  35  55  80 111 142 172 214 264 313
#     4  11  23  39  58  80 108 141 178 218 265 321
#
# _framework density 19.256819
#
# number of rings (size 3 to 8) (size 9 to 14) (size 15 to 20)
#    0.000    2.500    0.000    2.625    0.000    6.000 
#    0.000    4.375    0.000    0.000    0.000    0.000 
#    0.000    0.000    0.000    0.000    0.000    0.000 
#
# Total GULP energy -396633.855527 kJ/mol
# GULP energy per Si atom -12394.807985 kJ/mol
# Density = 1.921299 g / cm^3
# Si number density = 19.256819 Si / 1000 Ang^3
#
#
#
# Elastic Constant Matrix: (Units=GPa)
#
#
# Indices 1 2 3 4 5 6 
#
# 1 127.5115 49.5841 65.2889 0.0000 4.2875 0.0000
# 2 49.5841 59.5683 38.7053 0.0000 3.6550 0.0000
# 3 65.2889 38.7053 110.5913 0.0000 2.2646 0.0000
# 4 0.0000 0.0000 0.0000 21.5688 0.0000 -0.1795
# 5 4.2875 3.6550 2.2646 0.0000 29.0897 0.0000
# 6 0.0000 0.0000 0.0000 -0.1795 0.0000 35.2038
#
#
#
# Elastic Compliance Matrix: (Units=1/GPa)
#
#
# Indices 1 2 3 4 5 6 
#
# 1 0.013628 -0.007878 -0.005275 0.000000 -0.000608 0.000000
# 2 -0.007878 0.026417 -0.004558 0.000000 -0.001803 0.000000
# 3 -0.005275 -0.004558 0.013746 0.000000 0.000280 0.000000
# 4 0.000000 0.000000 0.000000 0.046365 0.000000 0.000236
# 5 -0.000608 -0.001803 0.000280 0.000000 0.034671 0.000000
# 6 0.000000 0.000000 0.000000 0.000236 0.000000 0.028407
#
#
# Mechanical properties :
#
#
# Convention : Reuss Voigt Hill
#
# Bulk Modulus (GPa) = 54.44225 67.20309 60.82267
# Shear Modulus (GPa) = 24.41642 26.77865 25.59754
#
# Velocity S-wave (km/s) = 3.56467 3.73313 3.64987
# Velocity P-wave (km/s) = 6.72871 7.31818 7.02963
#
# Compressibility (1/GPa) = 0.01836809
#
# Stress axis : x y z
#
# Youngs Moduli (GPa) = 73.38040 37.85381 72.74780
#
# Poissons Ratio (x) = 0.29823 0.38378
# Poissons Ratio (y) = 0.57812 0.33156
# Poissons Ratio (z) = 0.38711 0.17253
#
# Static dielectric constant tensor:
#      x y z
#    x 3.841560 0.000000 -0.010250 
#    y 0.000000 3.557230 0.000000 
#    z -0.010250 0.000000 3.604190 
# 
# 
# High freq. dielectric constant tensor:
#      x y z
#    x 1.756490 0.000000 -0.002840 
#    y 0.000000 1.736890 0.000000 
#    z -0.002840 0.000000 1.741600 
# 
# From -- ./inp_files/64395.got.cif
#   From: 2010.06.25/outbox.cif.g09.slc.cpg/sg11_33_cif.got.tgz:64395.got - 2010.06.27 23:14:04.
