data_PCOD8073812
_publ_section_title
;
Structure prediction by ZEFSAII (Michael W. Deem and Ramdas Pophale) SiO2 
 PCOD8073812
Probable space group: P 21/M
;
_chemical_formula_sum "Si O2"
_cell_formula_units_Z 28
_cell_length_a 5.245082
_cell_length_b 22.732662
_cell_length_c 10.735029
_cell_angle_alpha 90.000000
_cell_angle_beta 85.112855
_cell_angle_gamma 90.000000
_cell_volume 1275.334230
_symmetry_space_group_name_H-M "P 21/M"
_symmetry_group_IT_number 11
_symmetry_cell_setting 'monoclinic'
loop_
_space_group_symop_operation_xyz
x,y,z
-x,1/2+y,-z
-x,-y,-z
x,1/2-y,z
loop_
_atom_site_type_symbol
_atom_site_label
_atom_site_fract_x
_atom_site_fract_y
_atom_site_fract_z
Si Si1 0.911628 0.124027 0.737800
Si Si2 0.497614 0.250000 0.468036
Si Si3 0.079062 0.964610 0.694291
Si Si4 0.036569 0.750000 0.359269
Si Si5 0.608228 0.931634 0.145127
Si Si6 0.804514 0.561164 0.466237
Si Si7 0.366529 0.446617 0.140063
Si Si8 0.466320 0.872203 0.647546
O O1 0.941020 0.194484 0.734762
O O2 0.124477 0.094555 0.818696
O O3 0.965968 0.102669 0.594066
O O4 0.627741 0.104453 0.787914
O O5 0.227372 0.250000 0.551187
O O6 0.529659 0.302922 0.368588
O O7 0.725860 0.250000 0.556683
O O8 0.185473 0.898531 0.685849
O O9 0.879168 0.973611 0.588277
O O10 0.915711 0.976327 0.827675
O O11 0.279623 0.017417 0.646706
O O12 0.586122 0.004015 0.163024
O O13 0.597855 0.920802 0.997489
O O14 0.564076 0.601559 0.511607
O O15 0.370866 0.392613 0.238340
#
# Coordination Sequence:
#
# PCOD8073812 Si02
#       8
#     4   2   4   2   4   4   4   4
#     4  12  24  43  69  97 133 175 227 276 337 392
#     4  12  26  44  70  97 135 176 224 275 342 406
#     4  10  20  36  62  95 133 172 211 277 340 412
#     4  12  26  48  68  99 137 176 228 277 330 412
#     4  11  26  43  70  99 135 183 224 279 335 401
#     4  10  20  34  60  97 130 160 214 271 346 399
#     4  10  24  42  66 100 136 176 228 275 339 405
#     4  11  23  39  64  94 134 178 219 281 336 409
#
# _framework density 21.955027000000001
#
# number of rings (size 3 to 8) (size 9 to 14) (size 15 to 20)
#    0.000    1.143    2.857    3.000    6.000    1.143 
#    0.000    1.429    0.000    0.000    0.000    0.000 
#    0.000    0.000    0.000    0.000    0.000    0.000 
#
# Total GULP energy -346935.930899 kJ/mol
# GULP energy per Si atom -12390.568961 kJ/mol
# Density = 2.190506 g / cm^3
# Si number density = 21.955027 Si / 1000 Ang^3
#
#
#
# Elastic Constant Matrix: (Units=GPa)
#
#
# Indices 1 2 3 4 5 6 
#
# 1 76.6284 17.2663 9.5866 0.0000 -8.3705 0.0000
# 2 17.2663 148.3538 28.8551 0.0000 1.7157 0.0000
# 3 9.5866 28.8551 96.6401 0.0000 -11.6992 0.0000
# 4 0.0000 0.0000 0.0000 30.5635 0.0000 -0.3036
# 5 -8.3705 1.7157 -11.6992 0.0000 32.5427 0.0000
# 6 0.0000 0.0000 0.0000 -0.3036 0.0000 30.1867
#
#
#
# Elastic Compliance Matrix: (Units=1/GPa)
#
#
# Indices 1 2 3 4 5 6 
#
# 1 0.013840 -0.001556 -0.000489 0.000000 0.003466 0.000000
# 2 -0.001556 0.007376 -0.002241 0.000000 -0.001595 0.000000
# 3 -0.000489 -0.002241 0.011568 0.000000 0.004151 0.000000
# 4 0.000000 0.000000 0.000000 0.032722 0.000000 0.000329
# 5 0.003466 -0.001595 0.004151 0.000000 0.033197 0.000000
# 6 0.000000 0.000000 0.000000 0.000329 0.000000 0.033131
#
#
# Mechanical properties :
#
#
# Convention : Reuss Voigt Hill
#
# Bulk Modulus (GPa) = 41.30040 48.11536 44.70788
# Shear Modulus (GPa) = 33.67547 36.38619 35.03083
#
# Velocity S-wave (km/s) = 3.92067 4.07542 3.99879
# Velocity P-wave (km/s) = 6.27278 6.64141 6.45973
#
# Compressibility (1/GPa) = 0.02421284
#
# Stress axis : x y z
#
# Youngs Moduli (GPa) = 72.25249 135.57369 86.44653
#
# Poissons Ratio (x) = 0.21093 0.04225
# Poissons Ratio (y) = 0.11241 0.19373
# Poissons Ratio (z) = 0.03532 0.30383
#
# Static dielectric constant tensor:
#      x y z
#    x 3.989890 0.000000 -0.137450 
#    y 0.000000 4.133410 0.000000 
#    z -0.137450 0.000000 4.070470 
# 
# 
# High freq. dielectric constant tensor:
#      x y z
#    x 1.876220 0.000000 -0.006460 
#    y 0.000000 1.846170 0.000000 
#    z -0.006460 0.000000 1.867230 
# 
# From -- ./inp_files/29987.got.cif
#   From: 2010.06.25/outbox.cif.g09.slc.cpg/sg11_15_cif.got.tgz:29987.got - 2010.06.27 23:14:04.
