data_PCOD8073330
_publ_section_title
;
Structure prediction by ZEFSAII (Michael W. Deem and Ramdas Pophale) SiO2 
 PCOD8073330
Probable space group: P 21/M
;
_chemical_formula_sum "Si O2"
_cell_formula_units_Z 28
_cell_length_a 25.948634
_cell_length_b 9.523816
_cell_length_c 23.806312
_cell_angle_alpha 90.000000
_cell_angle_beta 163.858966
_cell_angle_gamma 90.000000
_cell_volume 1635.560400
_symmetry_space_group_name_H-M "P 21/M"
_symmetry_group_IT_number 11
_symmetry_cell_setting 'monoclinic'
loop_
_space_group_symop_operation_xyz
x,y,z
-x,1/2+y,-z
-x,-y,-z
x,1/2-y,z
loop_
_atom_site_type_symbol
_atom_site_label
_atom_site_fract_x
_atom_site_fract_y
_atom_site_fract_z
Si Si1 0.014636 0.090524 0.459836
Si Si2 0.471077 0.416052 0.413211
Si Si3 0.380502 0.083632 0.141511
Si Si4 0.131034 0.415996 0.982341
Si Si5 0.720282 0.415997 0.571593
Si Si6 0.569442 0.590524 0.124242
Si Si7 0.677106 0.414187 0.031333
O O1 0.972613 0.250000 0.434012
O O2 0.213116 0.073189 0.639356
O O3 0.871547 0.041633 0.262628
O O4 0.000000 0.000000 0.500000
O O5 0.500000 0.500000 0.500000
O O6 0.477027 0.250000 0.431062
O O7 0.635504 0.461535 0.542820
O O8 0.271826 0.461523 0.179140
O O9 0.375359 0.250000 0.126077
O O10 0.579486 0.036268 0.375059
O O11 0.216086 0.036260 0.011658
O O12 0.350991 0.004768 0.052963
O O13 0.115865 0.250000 0.966575
O O14 0.925765 0.482684 0.777288
O O15 0.734855 0.250000 0.585574
O O16 0.511218 0.750000 0.049819
O O17 0.500000 0.500000 0.000000
O O18 0.480479 0.541634 0.089398
O O19 0.669157 0.250000 0.007476
#
# Coordination Sequence:
#
# PCOD8073330 Si02
#       7
#     4   4   4   4   4   4   4
#     4  10  20  34  52  72  95 125 159 193 235 290
#     4   9  17  29  47  72 100 130 162 196 238 284
#     4   9  18  32  51  73  91 118 166 208 234 278
#     4   8  15  30  50  69  94 128 163 201 241 278
#     4   8  15  30  50  69  94 128 163 201 241 278
#     4  10  20  34  52  72  95 125 159 193 235 290
#     4  10  21  35  49  71 103 130 151 192 254 300
#
# _framework density 17.119513999999999
#
# number of rings (size 3 to 8) (size 9 to 14) (size 15 to 20)
#    0.000    2.857    1.429    1.714    0.000    2.857 
#    0.000    2.857    0.000    1.714    0.000    0.000 
#    0.000    0.000    0.000    0.000    0.000    0.000 
#
# Total GULP energy -347087.747287 kJ/mol
# GULP energy per Si atom -12395.990975 kJ/mol
# Density = 1.708055 g / cm^3
# Si number density = 17.119514 Si / 1000 Ang^3
#
#
#
# Elastic Constant Matrix: (Units=GPa)
#
#
# Indices 1 2 3 4 5 6 
#
# 1 155.3240 55.5169 105.7701 0.0000 -9.9368 0.0000
# 2 55.5169 46.4488 45.0452 0.0000 -11.5861 0.0000
# 3 105.7701 45.0452 151.9464 0.0000 6.2317 0.0000
# 4 0.0000 0.0000 0.0000 22.9364 0.0000 -9.9977
# 5 -9.9368 -11.5861 6.2317 0.0000 38.1566 0.0000
# 6 0.0000 0.0000 0.0000 -9.9977 0.0000 31.9819
#
#
#
# Elastic Compliance Matrix: (Units=1/GPa)
#
#
# Indices 1 2 3 4 5 6 
#
# 1 0.015762 -0.010626 -0.007911 0.000000 0.002170 0.000000
# 2 -0.010626 0.042457 -0.005643 0.000000 0.011046 0.000000
# 3 -0.007911 -0.005643 0.014009 0.000000 -0.006062 0.000000
# 4 0.000000 0.000000 0.000000 0.050477 0.000000 0.015779
# 5 0.002170 0.011046 -0.006062 0.000000 0.031117 0.000000
# 6 0.000000 0.000000 0.000000 0.015779 0.000000 0.036200
#
#
# Mechanical properties :
#
#
# Convention : Reuss Voigt Hill
#
# Bulk Modulus (GPa) = 41.89487 85.15373 63.52430
# Shear Modulus (GPa) = 20.29723 28.44079 24.36901
#
# Velocity S-wave (km/s) = 3.44702 4.08034 3.77698
# Velocity P-wave (km/s) = 6.35356 8.48809 7.49718
#
# Compressibility (1/GPa) = 0.02386927
#
# Stress axis : x y z
#
# Youngs Moduli (GPa) = 63.44353 23.55302 71.38042
#
# Poissons Ratio (x) = 0.25028 0.56468
# Poissons Ratio (y) = 0.67416 0.40279
# Poissons Ratio (z) = 0.50189 0.13291
#
# Static dielectric constant tensor:
#      x y z
#    x 3.334120 0.000000 0.380450 
#    y 0.000000 2.899920 0.000000 
#    z 0.380450 0.000000 3.678050 
# 
# 
# High freq. dielectric constant tensor:
#      x y z
#    x 1.664000 0.000000 0.009460 
#    y 0.000000 1.627980 0.000000 
#    z 0.009460 0.000000 1.672550 
# 
# From -- ./inp_files/61534.got.cif
#   From: 2010.06.25/outbox.cif.g09.slc.cpg/sg11_31_cif.got.tgz:61534.got - 2010.06.27 23:14:04.
