data_PCOD8073084
_publ_section_title
;
Structure prediction by ZEFSAII (Michael W. Deem and Ramdas Pophale) SiO2 
 PCOD8073084
Probable space group: P 21/M
;
_chemical_formula_sum "Si O2"
_cell_formula_units_Z 32
_cell_length_a 24.863876
_cell_length_b 9.014414
_cell_length_c 20.798799
_cell_angle_alpha 90.000000
_cell_angle_beta 21.585847
_cell_angle_gamma 90.000000
_cell_volume 1715.016578
_symmetry_space_group_name_H-M "P 21/M"
_symmetry_group_IT_number 11
_symmetry_cell_setting 'monoclinic'
loop_
_space_group_symop_operation_xyz
x,y,z
-x,1/2+y,-z
-x,-y,-z
x,1/2-y,z
loop_
_atom_site_type_symbol
_atom_site_label
_atom_site_fract_x
_atom_site_fract_y
_atom_site_fract_z
Si Si1 0.013664 0.422551 0.660640
Si Si2 0.568493 0.923598 0.985698
Si Si3 0.698205 0.078925 0.625512
Si Si4 0.873671 0.425238 0.681679
Si Si5 0.924533 0.416232 0.897961
Si Si6 0.399255 0.424895 0.525039
Si Si7 0.687373 0.923783 0.239239
Si Si8 0.740807 0.582916 0.449296
O O1 0.053297 0.250000 0.622148
O O2 0.910413 0.457650 0.715237
O O3 0.926629 0.472380 0.821545
O O4 0.169823 0.503791 0.481324
O O5 0.596747 0.750000 0.940593
O O6 0.455318 0.947796 0.169128
O O7 0.500000 0.000000 0.000000
O O8 0.719755 0.001517 0.835964
O O9 0.738767 0.250000 0.575677
O O10 0.678665 0.015294 0.575980
O O11 0.867351 0.250000 0.674119
O O12 0.000000 0.500000 0.500000
O O13 0.858488 0.250000 0.975679
O O14 0.086039 0.418993 0.746251
O O15 0.836407 0.528475 0.040144
O O16 0.420180 0.250000 0.500575
O O17 0.312936 0.473677 0.685571
O O18 0.557022 0.498678 0.346182
O O19 0.312384 0.482668 0.559501
O O20 0.667394 0.750000 0.254901
O O21 0.682495 0.750000 0.524594
#
# Coordination Sequence:
#
# PCOD8073084 Si02
#       8
#     4   4   4   4   4   4   4   4
#     4   9  20  38  58  79 107 145 183 216 260 323
#     4  11  24  40  58  83 114 147 183 224 271 322
#     4  10  21  36  56  83 112 139 173 223 274 313
#     4  11  23  39  60  85 112 145 184 225 270 320
#     4   9  18  34  54  77 105 138 176 216 260 313
#     4   9  19  36  54  73 102 140 179 218 262 315
#     4  10  20  33  51  77 106 137 175 219 267 315
#     4   9  19  36  57  78 103 140 181 217 260 320
#
# _framework density 18.658711
#
# number of rings (size 3 to 8) (size 9 to 14) (size 15 to 20)
#    0.000    2.250    0.000    3.000    0.000    9.500 
#    0.000    3.750    0.000    0.000    0.000    0.000 
#    0.000    0.000    0.000    0.000    0.000    0.000 
#
# Total GULP energy -396835.129835 kJ/mol
# GULP energy per Si atom -12401.097807 kJ/mol
# Density = 1.861624 g / cm^3
# Si number density = 18.658711 Si / 1000 Ang^3
#
#
#
# Elastic Constant Matrix: (Units=GPa)
#
#
# Indices 1 2 3 4 5 6 
#
# 1 160.3955 58.6308 62.9197 0.0000 -5.6535 0.0000
# 2 58.6308 78.5509 54.6381 0.0000 -1.7148 0.0000
# 3 62.9197 54.6381 110.1994 0.0000 0.7700 0.0000
# 4 0.0000 0.0000 0.0000 37.1600 0.0000 -1.3611
# 5 -5.6535 -1.7148 0.7700 0.0000 20.0046 0.0000
# 6 0.0000 0.0000 0.0000 -1.3611 0.0000 29.2015
#
#
#
# Elastic Compliance Matrix: (Units=1/GPa)
#
#
# Indices 1 2 3 4 5 6 
#
# 1 0.009208 -0.004815 -0.002886 0.000000 0.002301 0.000000
# 2 -0.004815 0.022034 -0.008181 0.000000 0.000843 0.000000
# 3 -0.002886 -0.008181 0.014793 0.000000 -0.002086 0.000000
# 4 0.000000 0.000000 0.000000 0.026957 0.000000 0.001256
# 5 0.002301 0.000843 -0.002086 0.000000 0.050791 0.000000
# 6 0.000000 0.000000 0.000000 0.001256 0.000000 0.034303
#
#
# Mechanical properties :
#
#
# Convention : Reuss Voigt Hill
#
# Bulk Modulus (GPa) = 70.07684 77.94701 74.01192
# Shear Modulus (GPa) = 25.69273 28.80369 27.24821
#
# Velocity S-wave (km/s) = 3.71480 3.93327 3.82560
# Velocity P-wave (km/s) = 7.48588 7.90527 7.69843
#
# Compressibility (1/GPa) = 0.01427005
#
# Stress axis : x y z
#
# Youngs Moduli (GPa) = 108.60184 45.38509 67.59880
#
# Poissons Ratio (x) = 0.21854 0.19509
# Poissons Ratio (y) = 0.52294 0.55304
# Poissons Ratio (z) = 0.31343 0.37130
#
# Static dielectric constant tensor:
#      x y z
#    x 3.713430 0.000000 0.040140 
#    y 0.000000 3.504470 0.000000 
#    z 0.040140 0.000000 3.585880 
# 
# 
# High freq. dielectric constant tensor:
#      x y z
#    x 1.733480 0.000000 0.005900 
#    y 0.000000 1.727510 0.000000 
#    z 0.005900 0.000000 1.723550 
# 
# From -- ./inp_files/67114.got.cif
#   From: 2010.06.25/outbox.cif.g09.slc.cpg/sg11_34_cif.got.tgz:67114.got - 2010.06.27 23:14:04.
