data_PCOD8073072
_publ_section_title
;
Structure prediction by ZEFSAII (Michael W. Deem and Ramdas Pophale) SiO2 
 PCOD8073072
Probable space group: P 21/M
;
_chemical_formula_sum "Si O2"
_cell_formula_units_Z 20
_cell_length_a 18.130977
_cell_length_b 9.229058
_cell_length_c 16.582422
_cell_angle_alpha 90.000000
_cell_angle_beta 156.709932
_cell_angle_gamma 90.000000
_cell_volume 1097.104885
_symmetry_space_group_name_H-M "P 21/M"
_symmetry_group_IT_number 11
_symmetry_cell_setting 'monoclinic'
loop_
_space_group_symop_operation_xyz
x,y,z
-x,1/2+y,-z
-x,-y,-z
x,1/2-y,z
loop_
_atom_site_type_symbol
_atom_site_label
_atom_site_fract_x
_atom_site_fract_y
_atom_site_fract_z
Si Si1 0.980462 0.081546 0.363586
Si Si2 0.302677 0.582668 0.394357
Si Si3 0.671539 0.085898 0.760081
Si Si4 0.697687 0.920428 0.189126
Si Si5 0.980062 0.915410 0.780287
O O1 0.923153 0.250000 0.312969
O O2 0.176152 0.051825 0.605078
O O3 0.008823 0.032151 0.300371
O O4 0.810491 0.986572 0.227169
O O5 0.303066 0.750000 0.415149
O O6 0.240343 0.550960 0.239438
O O7 0.508489 0.524002 0.616449
O O8 0.166193 0.510302 0.319704
O O9 0.593238 0.250000 0.680858
O O10 0.820145 0.063222 0.978924
O O11 0.663217 0.750000 0.140058
O O12 0.500000 0.000000 0.000000
O O13 0.913136 0.750000 0.717900
#
# Coordination Sequence:
#
# PCOD8073072 Si02
#       5
#     4   4   4   4   4
#     4   9  20  37  55  78 104 132 171 212 250 300
#     4  10  20  33  51  76 105 136 172 214 256 300
#     4   9  19  35  53  73 100 138 178 212 251 300
#     4  10  20  36  58  79 103 135 167 205 254 306
#     4  10  20  35  55  76 102 136 172 212 255 300
#
# _framework density 18.229796
#
# number of rings (size 3 to 8) (size 9 to 14) (size 15 to 20)
#    0.000    2.400    0.000    1.800    0.000    4.800 
#    0.000    8.000    0.000    0.000    0.000    0.000 
#    0.000    0.000    0.000    0.000    0.000    0.000 
#
# Total GULP energy -248022.315434 kJ/mol
# GULP energy per Si atom -12401.115772 kJ/mol
# Density = 1.818830 g / cm^3
# Si number density = 18.229796 Si / 1000 Ang^3
#
#
#
# Elastic Constant Matrix: (Units=GPa)
#
#
# Indices 1 2 3 4 5 6 
#
# 1 205.4792 97.1872 95.0989 0.0000 9.7946 0.0000
# 2 97.1872 108.1012 68.9071 0.0000 14.3620 0.0000
# 3 95.0989 68.9071 101.0571 0.0000 10.1665 0.0000
# 4 0.0000 0.0000 0.0000 37.7342 0.0000 8.5538
# 5 9.7946 14.3620 10.1665 0.0000 25.6941 0.0000
# 6 0.0000 0.0000 0.0000 8.5538 0.0000 34.5647
#
#
#
# Elastic Compliance Matrix: (Units=1/GPa)
#
#
# Indices 1 2 3 4 5 6 
#
# 1 0.010174 -0.005577 -0.005931 0.000000 0.001586 0.000000
# 2 -0.005577 0.020041 -0.007815 0.000000 -0.005984 0.000000
# 3 -0.005931 -0.007815 0.020973 0.000000 -0.001669 0.000000
# 4 0.000000 0.000000 0.000000 0.028076 0.000000 -0.006948
# 5 0.001586 -0.005984 -0.001669 0.000000 0.042320 0.000000
# 6 0.000000 0.000000 0.000000 -0.006948 0.000000 0.030651
#
#
# Mechanical properties :
#
#
# Convention : Reuss Voigt Hill
#
# Bulk Modulus (GPa) = 79.72912 104.11376 91.92144
# Shear Modulus (GPa) = 25.63293 29.82821 27.73057
#
# Velocity S-wave (km/s) = 3.75387 4.04943 3.90445
# Velocity P-wave (km/s) = 7.91323 8.89380 8.41781
#
# Compressibility (1/GPa) = 0.01254247
#
# Stress axis : x y z
#
# Youngs Moduli (GPa) = 98.29397 49.89776 47.67938
#
# Poissons Ratio (x) = 0.27826 0.28277
# Poissons Ratio (y) = 0.54815 0.37263
# Poissons Ratio (z) = 0.58296 0.38997
#
# Static dielectric constant tensor:
#      x y z
#    x 3.418540 0.000000 -0.071570 
#    y 0.000000 3.460200 0.000000 
#    z -0.071570 0.000000 3.401330 
# 
# 
# High freq. dielectric constant tensor:
#      x y z
#    x 1.709210 0.000000 -0.001980 
#    y 0.000000 1.712850 0.000000 
#    z -0.001980 0.000000 1.704840 
# 
# From -- ./inp_files/56657.got.cif
#   From: 2010.06.25/outbox.cif.g09.slc.cpg/sg11_29_cif.got.tgz:56657.got - 2010.06.27 23:14:04.
