data_PCOD8073970
_publ_section_title
;
Structure prediction by ZEFSAII (Michael W. Deem and Ramdas Pophale) SiO2 
 PCOD8073970
Probable space group: P 21/M
;
_chemical_formula_sum "Si O2"
_cell_formula_units_Z 28
_cell_length_a 31.657860
_cell_length_b 8.938157
_cell_length_c 9.391758
_cell_angle_alpha 90.000000
_cell_angle_beta 32.350313
_cell_angle_gamma 90.000000
_cell_volume 1422.023669
_symmetry_space_group_name_H-M "P 21/M"
_symmetry_group_IT_number 11
_symmetry_cell_setting 'monoclinic'
loop_
_space_group_symop_operation_xyz
x,y,z
-x,1/2+y,-z
-x,-y,-z
x,1/2-y,z
loop_
_atom_site_type_symbol
_atom_site_label
_atom_site_fract_x
_atom_site_fract_y
_atom_site_fract_z
Si Si1 0.816484 0.582913 0.237514
Si Si2 0.325431 0.418558 0.144414
Si Si3 0.221643 0.926527 0.216909
Si Si4 0.429031 0.420756 0.283668
Si Si5 0.084454 0.428175 0.779884
Si Si6 0.521727 0.079974 0.293932
Si Si7 0.736288 0.075227 0.224055
O O1 0.834828 0.750000 0.129596
O O2 0.736271 0.581891 0.553896
O O3 0.885833 0.527550 0.145923
O O4 0.806704 0.474595 0.130098
O O5 0.343099 0.250000 0.041294
O O6 0.296280 0.514119 0.092550
O O7 0.403508 0.494365 0.986659
O O8 0.212453 0.750000 0.265551
O O9 0.142155 0.007283 0.495121
O O10 0.236006 0.969285 0.012236
O O11 0.423541 0.250000 0.245849
O O12 0.448109 0.429402 0.397075
O O13 0.344772 0.496513 0.498964
O O14 0.500000 0.500000 0.000000
O O15 0.082012 0.250000 0.769672
O O16 0.000000 0.500000 0.000000
O O17 0.545846 0.250000 0.256421
O O18 0.500000 0.000000 0.500000
O O19 0.722013 0.250000 0.279270
#
# Coordination Sequence:
#
# PCOD8073970 Si02
#       7
#     4   4   4   4   4   4   4
#     4   9  20  37  58  83 111 144 181 221 269 326
#     4  10  20  35  55  79 106 141 186 233 280 333
#     4  10  21  37  58  85 116 150 187 230 277 330
#     4  11  24  39  56  78 108 148 192 237 287 337
#     4  10  21  39  64  92 118 147 183 224 272 329
#     4  11  23  36  52  76 104 140 185 234 286 336
#     4  11  23  37  56  83 114 148 189 233 279 331
#
# _framework density 19.690249000000001
#
# number of rings (size 3 to 8) (size 9 to 14) (size 15 to 20)
#    0.000    1.714    0.000    5.143    0.000   12.571 
#    0.000    0.714    0.000    0.000    0.000    0.000 
#    0.000    0.000    0.000    0.000    0.000    0.000 
#
# Total GULP energy -347263.389551 kJ/mol
# GULP energy per Si atom -12402.263913 kJ/mol
# Density = 1.964543 g / cm^3
# Si number density = 19.690249 Si / 1000 Ang^3
#
#
#
# Elastic Constant Matrix: (Units=GPa)
#
#
# Indices 1 2 3 4 5 6 
#
# 1 109.9416 48.2771 38.3378 0.0000 -2.3282 0.0000
# 2 48.2771 112.1604 40.1522 0.0000 3.2861 0.0000
# 3 38.3378 40.1522 60.6194 0.0000 -6.3338 0.0000
# 4 0.0000 0.0000 0.0000 34.4060 0.0000 -0.9967
# 5 -2.3282 3.2861 -6.3338 0.0000 35.5636 0.0000
# 6 0.0000 0.0000 0.0000 -0.9967 0.0000 35.8138
#
#
#
# Elastic Compliance Matrix: (Units=1/GPa)
#
#
# Indices 1 2 3 4 5 6 
#
# 1 0.012567 -0.003371 -0.005702 0.000000 0.000119 0.000000
# 2 -0.003371 0.012815 -0.006626 0.000000 -0.002585 0.000000
# 3 -0.005702 -0.006626 0.024981 0.000000 0.004688 0.000000
# 4 0.000000 0.000000 0.000000 0.029088 0.000000 0.000809
# 5 0.000119 -0.002585 0.004688 0.000000 0.029200 0.000000
# 6 0.000000 0.000000 0.000000 0.000809 0.000000 0.027945
#
#
# Mechanical properties :
#
#
# Convention : Reuss Voigt Hill
#
# Bulk Modulus (GPa) = 52.73201 59.58396 56.15799
# Shear Modulus (GPa) = 28.68337 31.55363 30.11850
#
# Velocity S-wave (km/s) = 3.82085 4.00747 3.91527
# Velocity P-wave (km/s) = 6.80471 7.19301 7.00155
#
# Compressibility (1/GPa) = 0.01896381
#
# Stress axis : x y z
#
# Youngs Moduli (GPa) = 79.57244 78.03559 40.02976
#
# Poissons Ratio (x) = 0.26308 0.22827
# Poissons Ratio (y) = 0.26827 0.26523
# Poissons Ratio (z) = 0.45376 0.51706
#
# Static dielectric constant tensor:
#      x y z
#    x 3.870820 0.000000 -0.047430 
#    y 0.000000 3.854100 0.000000 
#    z -0.047430 0.000000 3.439800 
# 
# 
# High freq. dielectric constant tensor:
#      x y z
#    x 1.776440 0.000000 0.003890 
#    y 0.000000 1.781720 0.000000 
#    z 0.003890 0.000000 1.750330 
# 
# From -- ./inp_files/29020.got.cif
#   From: 2010.06.25/outbox.cif.g09.slc.cpg/sg11_15_cif.got.tgz:29020.got - 2010.06.27 23:14:04.
