data_PCOD8073040
_publ_section_title
;
Structure prediction by ZEFSAII (Michael W. Deem and Ramdas Pophale) SiO2 
 PCOD8073040
Probable space group: P 21/M
;
_chemical_formula_sum "Si O2"
_cell_formula_units_Z 28
_cell_length_a 14.514050
_cell_length_b 8.836452
_cell_length_c 19.452380
_cell_angle_alpha 90.000000
_cell_angle_beta 138.986281
_cell_angle_gamma 90.000000
_cell_volume 1637.200223
_symmetry_space_group_name_H-M "P 21/M"
_symmetry_group_IT_number 11
_symmetry_cell_setting 'monoclinic'
loop_
_space_group_symop_operation_xyz
x,y,z
-x,1/2+y,-z
-x,-y,-z
x,1/2-y,z
loop_
_atom_site_type_symbol
_atom_site_label
_atom_site_fract_x
_atom_site_fract_y
_atom_site_fract_z
Si Si1 0.529896 0.427181 0.619748
Si Si2 0.093173 0.570323 0.993029
Si Si3 0.992220 0.573619 0.197730
Si Si4 0.277508 0.073887 0.380991
Si Si5 0.516298 0.571781 0.115487
Si Si6 0.590655 0.070585 0.804760
Si Si7 0.707984 0.574331 0.105432
O O1 0.567365 0.250000 0.635233
O O2 0.649495 0.519397 0.647761
O O3 0.377430 0.460961 0.502142
O O4 0.530224 0.487699 0.698147
O O5 0.083199 0.750000 0.991211
O O6 0.036461 0.516933 0.887812
O O7 0.251770 0.511185 0.093409
O O8 0.000000 0.500000 0.000000
O O9 0.001779 0.750000 0.184862
O O10 0.135107 0.517732 0.313174
O O11 0.872076 0.541113 0.187048
O O12 0.243016 0.250000 0.354872
O O13 0.504825 0.750000 0.111719
O O14 0.511399 0.509862 0.191283
O O15 0.657153 0.521646 0.153427
O O16 0.377219 0.515991 0.999363
O O17 0.592704 0.250000 0.804774
O O18 0.672620 0.750000 0.075145
#
# Coordination Sequence:
#
# PCOD8073040 Si02
#       7
#     4   4   4   4   4   4   4
#     4   9  18  34  53  73  97 125 162 206 249 294
#     4  11  21  32  47  72 102 132 161 194 243 299
#     4  11  21  33  48  69 100 134 165 201 242 288
#     4  10  20  33  51  73  95 127 169 207 244 290
#     4   9  16  30  50  71  95 124 159 199 243 296
#     4   9  17  30  50  72  95 124 156 195 245 296
#     4   9  18  30  47  71  97 126 161 199 242 287
#
# _framework density 17.102366
#
# number of rings (size 3 to 8) (size 9 to 14) (size 15 to 20)
#    0.000    2.286    1.429    2.143    0.000    2.286 
#    0.000    1.429    0.000    0.857    0.000    0.000 
#    0.000    0.000    0.000    0.000    0.000    0.571 
#
# Total GULP energy -347112.595292 kJ/mol
# GULP energy per Si atom -12396.878403 kJ/mol
# Density = 1.706344 g / cm^3
# Si number density = 17.102366 Si / 1000 Ang^3
#
#
#
# Elastic Constant Matrix: (Units=GPa)
#
#
# Indices 1 2 3 4 5 6 
#
# 1 151.0649 34.8599 72.5395 0.0000 -5.9705 0.0000
# 2 34.8599 40.1543 22.1282 0.0000 2.2084 0.0000
# 3 72.5395 22.1282 97.4211 0.0000 -3.4469 0.0000
# 4 0.0000 0.0000 0.0000 22.0877 0.0000 1.8858
# 5 -5.9705 2.2084 -3.4469 0.0000 26.0278 0.0000
# 6 0.0000 0.0000 0.0000 1.8858 0.0000 20.9462
#
#
#
# Elastic Compliance Matrix: (Units=1/GPa)
#
#
# Indices 1 2 3 4 5 6 
#
# 1 0.011565 -0.006243 -0.007114 0.000000 0.002240 0.000000
# 2 -0.006243 0.032120 -0.002808 0.000000 -0.004529 0.000000
# 3 -0.007114 -0.002808 0.016226 0.000000 0.000755 0.000000
# 4 0.000000 0.000000 0.000000 0.045625 0.000000 -0.004108
# 5 0.002240 -0.004529 0.000755 0.000000 0.039419 0.000000
# 6 0.000000 0.000000 0.000000 -0.004108 0.000000 0.048111
#
#
# Mechanical properties :
#
#
# Convention : Reuss Voigt Hill
#
# Bulk Modulus (GPa) = 36.25511 60.85505 48.55508
# Shear Modulus (GPa) = 21.31395 24.41986 22.86691
#
# Velocity S-wave (km/s) = 3.53407 3.78281 3.66055
# Velocity P-wave (km/s) = 6.15611 7.39862 6.80578
#
# Compressibility (1/GPa) = 0.02758232
#
# Stress axis : x y z
#
# Youngs Moduli (GPa) = 86.46913 31.13332 61.62918
#
# Poissons Ratio (x) = 0.19436 0.43842
# Poissons Ratio (y) = 0.53982 0.17302
# Poissons Ratio (z) = 0.61513 0.08741
#
# Static dielectric constant tensor:
#      x y z
#    x 4.460540 0.000000 -0.763430 
#    y 0.000000 3.138100 0.000000 
#    z -0.763430 0.000000 3.687470 
# 
# 
# High freq. dielectric constant tensor:
#      x y z
#    x 1.668170 0.000000 -0.003030 
#    y 0.000000 1.653680 0.000000 
#    z -0.003030 0.000000 1.640410 
# 
# From -- ./inp_files/37143.got.cif
#   From: 2010.06.25/outbox.cif.g09.slc.cpg/sg11_19_cif.got.tgz:37143.got - 2010.06.27 23:14:04.
