data_PCOD8073696
_publ_section_title
;
Structure prediction by ZEFSAII (Michael W. Deem and Ramdas Pophale) SiO2 
 PCOD8073696
Probable space group: P 21/M
;
_chemical_formula_sum "Si O2"
_cell_formula_units_Z 28
_cell_length_a 18.444911
_cell_length_b 8.860080
_cell_length_c 8.995721
_cell_angle_alpha 90.000000
_cell_angle_beta 76.447191
_cell_angle_gamma 90.000000
_cell_volume 1429.174983
_symmetry_space_group_name_H-M "P 21/M"
_symmetry_group_IT_number 11
_symmetry_cell_setting 'monoclinic'
loop_
_space_group_symop_operation_xyz
x,y,z
-x,1/2+y,-z
-x,-y,-z
x,1/2-y,z
loop_
_atom_site_type_symbol
_atom_site_label
_atom_site_fract_x
_atom_site_fract_y
_atom_site_fract_z
Si Si1 0.851316 0.425870 0.754798
Si Si2 0.160868 0.923718 0.583377
Si Si3 0.295173 0.425102 0.671683
Si Si4 0.566118 0.927378 0.876306
Si Si5 0.996031 0.576454 0.659677
Si Si6 0.431600 0.571305 0.446242
Si Si7 0.283504 0.076982 0.021753
O O1 0.863728 0.250000 0.762207
O O2 0.836796 0.473044 0.590772
O O3 0.927384 0.501836 0.782583
O O4 0.782608 0.472867 0.889135
O O5 0.186933 0.750000 0.586311
O O6 0.077851 0.944196 0.693995
O O7 0.213892 0.033723 0.649628
O O8 0.312269 0.250000 0.629838
O O9 0.355135 0.530097 0.563564
O O10 0.299173 0.460255 0.843484
O O11 0.551833 0.750000 0.863813
O O12 0.642503 0.961980 0.923785
O O13 0.570477 0.006648 0.716865
O O14 0.500000 0.000000 0.000000
O O15 0.977008 0.750000 0.646229
O O16 0.000000 0.500000 0.500000
O O17 0.500000 0.500000 0.500000
O O18 0.441594 0.750000 0.435422
O O19 0.259729 0.250000 0.055407
#
# Coordination Sequence:
#
# PCOD8073696 Si02
#       7
#     4   4   4   4   4   4   4
#     4  10  20  34  56  84 112 145 190 238 287 342
#     4   9  19  35  55  83 114 147 188 235 286 343
#     4  11  23  39  59  85 116 152 194 238 286 342
#     4  11  23  41  65  91 120 155 193 237 288 342
#     4   9  17  31  53  80 112 146 186 235 286 340
#     4  12  25  42  64  90 120 153 193 239 287 344
#     4  10  23  40  57  81 115 152 191 234 282 339
#
# _framework density 19.591721
#
# number of rings (size 3 to 8) (size 9 to 14) (size 15 to 20)
#    0.000    1.714    0.000    5.571    0.000    9.143 
#    0.000    0.714    0.000    0.000    0.000    0.000 
#    0.000    0.000    0.000    0.000    0.000    0.000 
#
# Total GULP energy -347240.305514 kJ/mol
# GULP energy per Si atom -12401.439483 kJ/mol
# Density = 1.954713 g / cm^3
# Si number density = 19.591721 Si / 1000 Ang^3
#
#
#
# Elastic Constant Matrix: (Units=GPa)
#
#
# Indices 1 2 3 4 5 6 
#
# 1 135.8264 73.4487 64.6605 0.0000 -7.7038 0.0000
# 2 73.4487 122.0504 59.4928 0.0000 -4.3671 0.0000
# 3 64.6605 59.4928 111.1700 0.0000 0.0252 0.0000
# 4 0.0000 0.0000 0.0000 32.8236 0.0000 -5.2926
# 5 -7.7038 -4.3671 0.0252 0.0000 29.6238 0.0000
# 6 0.0000 0.0000 0.0000 -5.2926 0.0000 39.8572
#
#
#
# Elastic Compliance Matrix: (Units=1/GPa)
#
#
# Indices 1 2 3 4 5 6 
#
# 1 0.012448 -0.005240 -0.004436 0.000000 0.002468 0.000000
# 2 -0.005240 0.013371 -0.004108 0.000000 0.000612 0.000000
# 3 -0.004436 -0.004108 0.013774 0.000000 -0.001771 0.000000
# 4 0.000000 0.000000 0.000000 0.031132 0.000000 0.004134
# 5 0.002468 0.000612 -0.001771 0.000000 0.034490 0.000000
# 6 0.000000 0.000000 0.000000 0.004134 0.000000 0.025639
#
#
# Mechanical properties :
#
#
# Convention : Reuss Voigt Hill
#
# Bulk Modulus (GPa) = 83.16379 84.91676 84.04028
# Shear Modulus (GPa) = 30.78217 31.89058 31.33637
#
# Velocity S-wave (km/s) = 3.96811 4.03892 4.00368
# Velocity P-wave (km/s) = 7.97089 8.07390 8.02256
#
# Compressibility (1/GPa) = 0.01202446
#
# Stress axis : x y z
#
# Youngs Moduli (GPa) = 80.33416 74.78839 72.59888
#
# Poissons Ratio (x) = 0.39191 0.32208
# Poissons Ratio (y) = 0.42097 0.29822
# Poissons Ratio (z) = 0.35640 0.30721
#
# Static dielectric constant tensor:
#      x y z
#    x 3.960730 0.000000 -0.085490 
#    y 0.000000 4.106560 0.000000 
#    z -0.085490 0.000000 3.474880 
# 
# 
# High freq. dielectric constant tensor:
#      x y z
#    x 1.781910 0.000000 -0.009200 
#    y 0.000000 1.775280 0.000000 
#    z -0.009200 0.000000 1.749720 
# 
# From -- ./inp_files/23997.got.cif
#   From: 2010.06.25/outbox.cif.g09.slc.cpg/sg11_12_cif.got.tgz:23997.got - 2010.06.27 23:14:04.
