data_PCOD8073175
_publ_section_title
;
Structure prediction by ZEFSAII (Michael W. Deem and Ramdas Pophale) SiO2 
 PCOD8073175
Probable space group: P 21/M
;
_chemical_formula_sum "Si O2"
_cell_formula_units_Z 24
_cell_length_a 23.535930
_cell_length_b 8.804844
_cell_length_c 11.224771
_cell_angle_alpha 90.000000
_cell_angle_beta 35.166647
_cell_angle_gamma 90.000000
_cell_volume 1339.739108
_symmetry_space_group_name_H-M "P 21/M"
_symmetry_group_IT_number 11
_symmetry_cell_setting 'monoclinic'
loop_
_space_group_symop_operation_xyz
x,y,z
-x,1/2+y,-z
-x,-y,-z
x,1/2-y,z
loop_
_atom_site_type_symbol
_atom_site_label
_atom_site_fract_x
_atom_site_fract_y
_atom_site_fract_z
Si Si1 0.692003 0.577462 0.837951
Si Si2 0.142690 0.574820 0.302116
Si Si3 0.717431 0.926689 0.515556
Si Si4 0.476875 0.925935 0.164334
Si Si5 0.088590 0.571315 0.921153
Si Si6 0.942541 0.925910 0.774905
O O1 0.725453 0.750000 0.806085
O O2 0.754537 0.463917 0.811346
O O3 0.709446 0.539854 0.669542
O O4 0.576585 0.555362 0.071825
O O5 0.141672 0.750000 0.265408
O O6 0.131123 0.472839 0.204618
O O7 0.054836 0.539502 0.544922
O O8 0.729634 0.750000 0.466180
O O9 0.618568 0.988288 0.617997
O O10 0.809022 0.017000 0.307921
O O11 0.450796 0.750000 0.191182
O O12 0.500000 0.000000 0.000000
O O13 0.080767 0.750000 0.921924
O O14 0.082164 0.526429 0.069382
O O15 0.000000 0.500000 0.000000
O O16 0.926250 0.750000 0.833579
#
# Coordination Sequence:
#
# PCOD8073175 Si02
#       6
#     4   4   4   4   4   4
#     4   9  18  31  50  76 105 136 170 210 254 303
#     4  10  20  33  53  78 102 132 171 214 256 301
#     4  10  20  34  52  76 106 139 174 213 260 308
#     4   9  17  30  48  73 104 137 173 213 259 306
#     4  12  24  37  54  77 106 138 173 210 252 306
#     4  10  21  37  54  74 103 137 172 211 256 303
#
# _framework density 17.913936
#
# number of rings (size 3 to 8) (size 9 to 14) (size 15 to 20)
#    0.000    2.000    0.000    5.500    0.000    8.667 
#    0.000    0.000    0.000    1.000    0.000    0.000 
#    0.000    0.000    0.000    0.000    0.000    0.000 
#
# Total GULP energy -297602.501854 kJ/mol
# GULP energy per Si atom -12400.104244 kJ/mol
# Density = 1.787316 g / cm^3
# Si number density = 17.913936 Si / 1000 Ang^3
#
#
#
# Elastic Constant Matrix: (Units=GPa)
#
#
# Indices 1 2 3 4 5 6 
#
# 1 82.2290 45.3731 50.4668 0.0000 -16.6430 0.0000
# 2 45.3731 121.4320 55.9477 0.0000 -7.9923 0.0000
# 3 50.4668 55.9477 107.7799 0.0000 -16.5603 0.0000
# 4 0.0000 0.0000 0.0000 31.9241 0.0000 -3.6728
# 5 -16.6430 -7.9923 -16.5603 0.0000 25.2407 0.0000
# 6 0.0000 0.0000 0.0000 -3.6728 0.0000 33.6257
#
#
#
# Elastic Compliance Matrix: (Units=1/GPa)
#
#
# Indices 1 2 3 4 5 6 
#
# 1 0.019593 -0.004118 -0.005841 0.000000 0.007783 0.000000
# 2 -0.004118 0.011691 -0.004436 0.000000 -0.001924 0.000000
# 3 -0.005841 -0.004436 0.015023 0.000000 0.004600 0.000000
# 4 0.000000 0.000000 0.000000 0.031723 0.000000 0.003465
# 5 0.007783 -0.001924 0.004600 0.000000 0.047160 0.000000
# 6 0.000000 0.000000 0.000000 0.003465 0.000000 0.030118
#
#
# Mechanical properties :
#
#
# Convention : Reuss Voigt Hill
#
# Bulk Modulus (GPa) = 57.08655 68.33513 62.71084
# Shear Modulus (GPa) = 26.32462 28.80165 27.56314
#
# Velocity S-wave (km/s) = 3.83757 4.01406 3.92681
# Velocity P-wave (km/s) = 7.18138 7.72740 7.45939
#
# Compressibility (1/GPa) = 0.01751726
#
# Stress axis : x y z
#
# Youngs Moduli (GPa) = 51.03758 85.53665 66.56538
#
# Poissons Ratio (x) = 0.35221 0.38882
# Poissons Ratio (y) = 0.21015 0.29530
# Poissons Ratio (z) = 0.29812 0.37946
#
# Static dielectric constant tensor:
#      x y z
#    x 3.267040 0.000000 -0.300570 
#    y 0.000000 3.933700 0.000000 
#    z -0.300570 0.000000 3.496690 
# 
# 
# High freq. dielectric constant tensor:
#      x y z
#    x 1.677380 0.000000 -0.023870 
#    y 0.000000 1.710990 0.000000 
#    z -0.023870 0.000000 1.685250 
# 
# From -- ./inp_files/42254.got.cif
#   From: 2010.06.25/outbox.cif.g09.slc.cpg/sg11_22_cif.got.tgz:42254.got - 2010.06.27 23:14:04.
