data_PCOD8073286
_publ_section_title
;
Structure prediction by ZEFSAII (Michael W. Deem and Ramdas Pophale) SiO2 
 PCOD8073286
Probable space group: P 21/M
;
_chemical_formula_sum "Si O2"
_cell_formula_units_Z 24
_cell_length_a 11.322043
_cell_length_b 8.918277
_cell_length_c 19.757740
_cell_angle_alpha 90.000000
_cell_angle_beta 136.091647
_cell_angle_gamma 90.000000
_cell_volume 1383.546595
_symmetry_space_group_name_H-M "P 21/M"
_symmetry_group_IT_number 11
_symmetry_cell_setting 'monoclinic'
loop_
_space_group_symop_operation_xyz
x,y,z
-x,1/2+y,-z
-x,-y,-z
x,1/2-y,z
loop_
_atom_site_type_symbol
_atom_site_label
_atom_site_fract_x
_atom_site_fract_y
_atom_site_fract_z
Si Si1 0.812602 0.425085 0.780132
Si Si2 0.220572 0.423157 0.642053
Si Si3 0.885109 0.574824 0.008978
Si Si4 0.316929 0.571781 0.415766
Si Si5 0.893722 0.577024 0.555030
Si Si6 0.395462 0.573076 0.177357
O O1 0.775657 0.250000 0.762258
O O2 0.763146 0.493132 0.687094
O O3 0.691539 0.490864 0.789718
O O4 0.014056 0.455719 0.878734
O O5 0.183255 0.250000 0.644028
O O6 0.206745 0.449748 0.556171
O O7 0.407619 0.473126 0.742811
O O8 0.089103 0.526460 0.628227
O O9 0.868435 0.750000 0.987949
O O10 0.697515 0.500438 0.926805
O O11 0.000000 0.500000 0.000000
O O12 0.500000 0.500000 0.500000
O O13 0.334589 0.750000 0.422393
O O14 0.194081 0.524385 0.425284
O O15 0.887701 0.750000 0.574539
O O16 0.371886 0.750000 0.162860
#
# Coordination Sequence:
#
# PCOD8073286 Si02
#       6
#     4   4   4   4   4   4
#     4   8  16  30  47  67  96 130 155 185 234 286
#     4   9  18  33  52  71  96 129 159 192 238 288
#     4   9  16  28  45  67  94 123 156 193 235 278
#     4  11  21  34  51  71  97 129 162 193 233 284
#     4  10  20  34  50  71  98 126 160 199 236 277
#     4   9  16  29  49  72  96 122 155 193 236 282
#
# _framework density 17.346723000000001
#
# number of rings (size 3 to 8) (size 9 to 14) (size 15 to 20)
#    0.000    2.667    0.000    3.500    0.000    4.000 
#    0.000   11.667    0.000    1.000    0.000    0.000 
#    0.000    0.000    0.000    0.000    0.000    0.000 
#
# Total GULP energy -297478.630574 kJ/mol
# GULP energy per Si atom -12394.942941 kJ/mol
# Density = 1.730724 g / cm^3
# Si number density = 17.346723 Si / 1000 Ang^3
#
#
#
# Elastic Constant Matrix: (Units=GPa)
#
#
# Indices 1 2 3 4 5 6 
#
# 1 69.2242 31.7536 56.2176 0.0000 5.8434 0.0000
# 2 31.7536 61.3789 52.4912 0.0000 6.2711 0.0000
# 3 56.2176 52.4912 162.8879 0.0000 18.5768 0.0000
# 4 0.0000 0.0000 0.0000 29.4810 0.0000 4.9549
# 5 5.8434 6.2711 18.5768 0.0000 25.1449 0.0000
# 6 0.0000 0.0000 0.0000 4.9549 0.0000 26.2731
#
#
#
# Elastic Compliance Matrix: (Units=1/GPa)
#
#
# Indices 1 2 3 4 5 6 
#
# 1 0.021920 -0.006727 -0.005469 0.000000 0.000624 0.000000
# 2 -0.006727 0.024557 -0.005538 0.000000 -0.000470 0.000000
# 3 -0.005469 -0.005538 0.010384 0.000000 -0.005019 0.000000
# 4 0.000000 0.000000 0.000000 0.035031 0.000000 -0.006607
# 5 0.000624 -0.000470 -0.005019 0.000000 0.043450 0.000000
# 6 0.000000 0.000000 0.000000 -0.006607 0.000000 0.039308
#
#
# Mechanical properties :
#
#
# Convention : Reuss Voigt Hill
#
# Bulk Modulus (GPa) = 46.74500 63.82399 55.28450
# Shear Modulus (GPa) = 23.01528 26.38171 24.69849
#
# Velocity S-wave (km/s) = 3.64645 3.90403 3.77744
# Velocity P-wave (km/s) = 6.68840 7.56274 7.13897
#
# Compressibility (1/GPa) = 0.02139266
#
# Stress axis : x y z
#
# Youngs Moduli (GPa) = 45.62051 40.72218 96.30461
#
# Poissons Ratio (x) = 0.27394 0.52665
# Poissons Ratio (y) = 0.30689 0.53336
# Poissons Ratio (z) = 0.24948 0.22553
#
# Static dielectric constant tensor:
#      x y z
#    x 3.074400 0.000000 0.061900 
#    y 0.000000 3.219740 0.000000 
#    z 0.061900 0.000000 3.764240 
# 
# 
# High freq. dielectric constant tensor:
#      x y z
#    x 1.636360 0.000000 0.013010 
#    y 0.000000 1.663130 0.000000 
#    z 0.013010 0.000000 1.683720 
# 
# From -- ./inp_files/42255.got.cif
#   From: 2010.06.25/outbox.cif.g09.slc.cpg/sg11_22_cif.got.tgz:42255.got - 2010.06.27 23:14:04.
