data_PCOD8073975
_publ_section_title
;
Structure prediction by ZEFSAII (Michael W. Deem and Ramdas Pophale) SiO2 
 PCOD8073975
Probable space group: P 21/M
;
_chemical_formula_sum "Si O2"
_cell_formula_units_Z 32
_cell_length_a 15.635348
_cell_length_b 8.955982
_cell_length_c 25.111621
_cell_angle_alpha 90.000000
_cell_angle_beta 29.715235
_cell_angle_gamma 90.000000
_cell_volume 1743.031908
_symmetry_space_group_name_H-M "P 21/M"
_symmetry_group_IT_number 11
_symmetry_cell_setting 'monoclinic'
loop_
_space_group_symop_operation_xyz
x,y,z
-x,1/2+y,-z
-x,-y,-z
x,1/2-y,z
loop_
_atom_site_type_symbol
_atom_site_label
_atom_site_fract_x
_atom_site_fract_y
_atom_site_fract_z
Si Si1 0.832893 0.075511 0.066345
Si Si2 0.569366 0.076391 0.821882
Si Si3 0.895619 0.423608 0.713134
Si Si4 0.635173 0.075512 0.465587
Si Si5 0.974729 0.922798 0.775528
Si Si6 0.481215 0.925529 0.272455
Si Si7 0.223955 0.922798 0.025786
Si Si8 0.720198 0.925528 0.526127
O O1 0.829865 0.250000 0.081835
O O2 0.667148 0.998574 0.182693
O O3 0.834617 0.045862 0.002589
O O4 0.000000 0.000000 0.000000
O O5 0.532628 0.250000 0.850654
O O6 0.747026 0.025063 0.752976
O O7 0.582885 0.037937 0.752315
O O8 0.413744 0.988147 0.933718
O O9 0.882772 0.250000 0.733945
O O10 0.871352 0.511857 0.781184
O O11 0.077290 0.462057 0.587516
O O12 0.594756 0.250000 0.493541
O O13 0.823000 0.045864 0.339797
O O14 0.500000 0.000000 0.500000
O O15 0.617613 0.998574 0.532541
O O16 0.930920 0.750000 0.802893
O O17 0.916321 0.000002 0.861225
O O18 0.493692 0.750000 0.276715
O O19 0.341790 0.999999 0.386071
O O20 0.229486 0.750000 0.036700
O O21 0.682460 0.750000 0.547128
#
# Coordination Sequence:
#
# PCOD8073975 Si02
#       8
#     4   4   4   4   4   4   4   4
#     4  10  21  37  56  79 107 139 177 219 264 314
#     4   9  19  36  56  78 106 140 177 217 261 310
#     4   9  19  36  56  78 106 140 177 217 261 310
#     4  10  21  37  56  79 107 139 177 219 264 314
#     4  10  21  36  55  79 106 138 175 216 262 312
#     4  10  20  35  55  79 108 141 177 218 264 313
#     4  10  21  36  55  79 106 138 175 216 262 312
#     4  10  20  35  55  79 108 141 177 218 264 313
#
# _framework density 18.358815
#
# number of rings (size 3 to 8) (size 9 to 14) (size 15 to 20)
#    0.000    2.250    0.000    2.250    0.000    6.500 
#    0.000    2.500    0.000    0.000    0.000    0.000 
#    0.000    0.000    0.000    0.000    0.000    0.000 
#
# Total GULP energy -396952.802549 kJ/mol
# GULP energy per Si atom -12404.775080 kJ/mol
# Density = 1.831703 g / cm^3
# Si number density = 18.358815 Si / 1000 Ang^3
#
#
#
# Elastic Constant Matrix: (Units=GPa)
#
#
# Indices 1 2 3 4 5 6 
#
# 1 105.3719 53.8777 48.1244 0.0000 -18.2534 0.0000
# 2 53.8777 104.6121 55.8326 0.0000 1.2559 0.0000
# 3 48.1244 55.8326 90.1379 0.0000 8.4798 0.0000
# 4 0.0000 0.0000 0.0000 37.7096 0.0000 3.5222
# 5 -18.2534 1.2559 8.4798 0.0000 31.5798 0.0000
# 6 0.0000 0.0000 0.0000 3.5222 0.0000 32.2271
#
#
#
# Elastic Compliance Matrix: (Units=1/GPa)
#
#
# Indices 1 2 3 4 5 6 
#
# 1 0.017728 -0.005384 -0.007298 0.000000 0.012421 0.000000
# 2 -0.005384 0.016022 -0.006870 0.000000 -0.001905 0.000000
# 3 -0.007298 -0.006870 0.020126 0.000000 -0.009350 0.000000
# 4 0.000000 0.000000 0.000000 0.026792 0.000000 -0.002928
# 5 0.012421 -0.001905 -0.009350 0.000000 0.041432 0.000000
# 6 0.000000 0.000000 0.000000 -0.002928 0.000000 0.031350
#
#
# Mechanical properties :
#
#
# Convention : Reuss Voigt Hill
#
# Bulk Modulus (GPa) = 67.70583 68.42127 68.06355
# Shear Modulus (GPa) = 25.31923 29.78909 27.55416
#
# Velocity S-wave (km/s) = 3.71770 4.03253 3.87831
# Velocity P-wave (km/s) = 7.44228 7.68320 7.56370
#
# Compressibility (1/GPa) = 0.01476978
#
# Stress axis : x y z
#
# Youngs Moduli (GPa) = 56.40735 62.41511 49.68741
#
# Poissons Ratio (x) = 0.33606 0.36264
# Poissons Ratio (y) = 0.30371 0.34137
# Poissons Ratio (z) = 0.41169 0.42881
#
# Static dielectric constant tensor:
#      x y z
#    x 3.405200 0.000000 -0.000460 
#    y 0.000000 3.524950 0.000000 
#    z -0.000460 0.000000 3.404390 
# 
# 
# High freq. dielectric constant tensor:
#      x y z
#    x 1.712610 0.000000 0.000730 
#    y 0.000000 1.725490 0.000000 
#    z 0.000730 0.000000 1.713740 
# 
# From -- ./inp_files/51685.got.cif
#   From: 2010.06.25/outbox.cif.g09.slc.cpg/sg11_26_cif.got.tgz:51685.got - 2010.06.27 23:14:04.
