data_PCOD8073458
_publ_section_title
;
Structure prediction by ZEFSAII (Michael W. Deem and Ramdas Pophale) SiO2 
 PCOD8073458
Probable space group: P 21/M
;
_chemical_formula_sum "Si O2"
_cell_formula_units_Z 28
_cell_length_a 20.661160
_cell_length_b 9.082641
_cell_length_c 15.636262
_cell_angle_alpha 90.000000
_cell_angle_beta 151.180337
_cell_angle_gamma 90.000000
_cell_volume 1414.476778
_symmetry_space_group_name_H-M "P 21/M"
_symmetry_group_IT_number 11
_symmetry_cell_setting 'monoclinic'
loop_
_space_group_symop_operation_xyz
x,y,z
-x,1/2+y,-z
-x,-y,-z
x,1/2-y,z
loop_
_atom_site_type_symbol
_atom_site_label
_atom_site_fract_x
_atom_site_fract_y
_atom_site_fract_z
Si Si1 0.124038 0.922792 0.041080
Si Si2 0.848459 0.081601 0.416280
Si Si3 0.683318 0.075758 0.883699
Si Si4 0.406824 0.080381 0.630843
Si Si5 0.121729 0.580858 0.744045
Si Si6 0.148359 0.922893 0.265213
Si Si7 0.405053 0.081249 0.823697
O O1 0.098192 0.750000 0.999401
O O2 0.246312 0.978222 0.122455
O O3 0.165113 0.963584 0.184864
O O4 0.987237 0.004160 0.855206
O O5 0.838625 0.250000 0.434845
O O6 0.816682 0.066192 0.279006
O O7 0.742888 0.986394 0.346325
O O8 0.994164 0.022258 0.607857
O O9 0.677900 0.250000 0.881355
O O10 0.529589 0.019265 0.713929
O O11 0.768945 0.019192 0.063400
O O12 0.371941 0.250000 0.569264
O O13 0.456941 0.065438 0.786731
O O14 0.276008 0.983404 0.463267
O O15 0.080675 0.750000 0.715449
O O16 0.138066 0.750000 0.268326
O O17 0.399088 0.250000 0.845403
O O18 0.500000 0.000000 0.000000
#
# Coordination Sequence:
#
# PCOD8073458 Si02
#       7
#     4   4   4   4   4   4   4
#     4   9  19  37  61  85 112 149 188 231 284 339
#     4  10  20  34  53  79 111 147 187 234 284 333
#     4   9  18  35  59  82 106 144 192 235 276 333
#     4  10  22  39  59  83 113 151 192 233 281 341
#     4   9  18  34  55  79 109 144 188 235 279 331
#     4  10  21  37  57  86 119 147 184 233 283 339
#     4  11  23  38  57  80 110 149 192 234 284 339
#
# _framework density 19.795304999999999
#
# number of rings (size 3 to 8) (size 9 to 14) (size 15 to 20)
#    0.000    2.286    0.000    2.143    2.000    5.143 
#    0.000    1.429    0.000    0.000    0.000    0.000 
#    0.000    0.000    0.000    0.000    0.000    0.000 
#
# Total GULP energy -347236.933659 kJ/mol
# GULP energy per Si atom -12401.319059 kJ/mol
# Density = 1.975025 g / cm^3
# Si number density = 19.795305 Si / 1000 Ang^3
#
#
#
# Elastic Constant Matrix: (Units=GPa)
#
#
# Indices 1 2 3 4 5 6 
#
# 1 100.1657 37.0928 27.7540 0.0000 20.5295 0.0000
# 2 37.0928 86.3410 36.6558 0.0000 10.2056 0.0000
# 3 27.7540 36.6558 88.3421 0.0000 7.4692 0.0000
# 4 0.0000 0.0000 0.0000 29.6622 0.0000 1.1206
# 5 20.5295 10.2056 7.4692 0.0000 25.8002 0.0000
# 6 0.0000 0.0000 0.0000 1.1206 0.0000 23.7705
#
#
#
# Elastic Compliance Matrix: (Units=1/GPa)
#
#
# Indices 1 2 3 4 5 6 
#
# 1 0.013838 -0.004092 -0.001902 0.000000 -0.008842 0.000000
# 2 -0.004092 0.015677 -0.005095 0.000000 -0.001470 0.000000
# 3 -0.001902 -0.005095 0.014077 0.000000 -0.000547 0.000000
# 4 0.000000 0.000000 0.000000 0.033773 0.000000 -0.001592
# 5 -0.008842 -0.001470 -0.000547 0.000000 0.046534 0.000000
# 6 0.000000 0.000000 0.000000 -0.001592 0.000000 0.042144
#
#
# Mechanical properties :
#
#
# Convention : Reuss Voigt Hill
#
# Bulk Modulus (GPa) = 46.69820 53.09489 49.89654
# Shear Modulus (GPa) = 25.59379 27.40301 26.49840
#
# Velocity S-wave (km/s) = 3.59962 3.72468 3.66269
# Velocity P-wave (km/s) = 6.39673 6.73631 6.56871
#
# Compressibility (1/GPa) = 0.02141410
#
# Stress axis : x y z
#
# Youngs Moduli (GPa) = 72.26453 63.78835 71.03622
#
# Poissons Ratio (x) = 0.26105 0.13510
# Poissons Ratio (y) = 0.29574 0.36192
# Poissons Ratio (z) = 0.13743 0.32499
#
# Static dielectric constant tensor:
#      x y z
#    x 3.915430 0.000000 0.083190 
#    y 0.000000 3.482340 0.000000 
#    z 0.083190 0.000000 3.511550 
# 
# 
# High freq. dielectric constant tensor:
#      x y z
#    x 1.779080 0.000000 0.004960 
#    y 0.000000 1.756720 0.000000 
#    z 0.004960 0.000000 1.770250 
# 
# From -- ./inp_files/54476.got.cif
#   From: 2010.06.25/outbox.cif.g09.slc.cpg/sg11_28_cif.got.tgz:54476.got - 2010.06.27 23:14:04.
