data_PCOD8073730
_publ_section_title
;
Structure prediction by ZEFSAII (Michael W. Deem and Ramdas Pophale) SiO2 
 PCOD8073730
Probable space group: P 21/M
;
_chemical_formula_sum "Si O2"
_cell_formula_units_Z 32
_cell_length_a 11.325038
_cell_length_b 8.725490
_cell_length_c 16.306955
_cell_angle_alpha 90.000000
_cell_angle_beta 92.329039
_cell_angle_gamma 90.000000
_cell_volume 1610.065183
_symmetry_space_group_name_H-M "P 21/M"
_symmetry_group_IT_number 11
_symmetry_cell_setting 'monoclinic'
loop_
_space_group_symop_operation_xyz
x,y,z
-x,1/2+y,-z
-x,-y,-z
x,1/2-y,z
loop_
_atom_site_type_symbol
_atom_site_label
_atom_site_fract_x
_atom_site_fract_y
_atom_site_fract_z
Si Si1 0.569949 0.073191 0.880449
Si Si2 0.840652 0.570751 0.176678
Si Si3 0.724337 0.932060 0.338640
Si Si4 0.070390 0.928992 0.270144
Si Si5 0.680975 0.926921 0.732243
Si Si6 0.500765 0.928470 0.590014
Si Si7 0.673089 0.928563 0.036047
Si Si8 0.945514 0.069610 0.418373
O O1 0.589331 0.250000 0.859354
O O2 0.438925 0.039862 0.908916
O O3 0.587231 0.974672 0.798937
O O4 0.664724 0.024346 0.952338
O O5 0.816446 0.750000 0.175579
O O6 0.765706 0.504397 0.251156
O O7 0.788430 0.508847 0.088990
O O8 0.980026 0.533357 0.192146
O O9 0.723911 0.750000 0.342690
O O10 0.595701 0.993542 0.355145
O O11 0.816335 0.995652 0.407510
O O12 0.061136 0.750000 0.292532
O O13 0.202767 0.971614 0.249663
O O14 0.031765 0.028563 0.346274
O O15 0.714553 0.750000 0.743895
O O16 0.625489 0.955789 0.640232
O O17 0.472757 0.750000 0.580600
O O18 0.500000 0.000000 0.500000
O O19 0.681614 0.750000 0.012862
O O20 0.933059 0.250000 0.425686
O O21 0.000000 0.000000 0.500000
#
# Coordination Sequence:
#
# PCOD8073730 Si02
#       8
#     4   4   4   4   4   4   4   4
#     4  10  20  34  56  88 118 151 190 231 286 345
#     4   8  16  33  58  85 111 145 186 231 284 338
#     4  10  20  37  59  84 114 145 186 235 286 341
#     4  10  21  38  59  84 112 149 195 241 290 345
#     4  11  24  41  59  81 115 155 194 236 288 350
#     4  11  25  41  58  82 112 148 191 236 288 348
#     4   9  17  33  58  86 118 149 185 234 285 340
#     4  11  22  37  58  83 112 147 190 238 288 337
#
# _framework density 19.874973000000001
#
# number of rings (size 3 to 8) (size 9 to 14) (size 15 to 20)
#    0.000    2.000    0.000    4.500    1.750    3.500 
#    0.000    4.375    0.000    0.000    0.000    0.000 
#    0.000    0.000    0.000    0.000    0.000    0.000 
#
# Total GULP energy -396790.417623 kJ/mol
# GULP energy per Si atom -12399.700551 kJ/mol
# Density = 1.982974 g / cm^3
# Si number density = 19.874973 Si / 1000 Ang^3
#
#
#
# Elastic Constant Matrix: (Units=GPa)
#
#
# Indices 1 2 3 4 5 6 
#
# 1 83.2526 31.3178 27.8675 0.0000 15.8078 0.0000
# 2 31.3178 86.3945 28.0694 0.0000 9.6952 0.0000
# 3 27.8675 28.0694 90.6957 0.0000 26.6878 0.0000
# 4 0.0000 0.0000 0.0000 31.9733 0.0000 -1.5982
# 5 15.8078 9.6952 26.6878 0.0000 34.6078 0.0000
# 6 0.0000 0.0000 0.0000 -1.5982 0.0000 32.4794
#
#
#
# Elastic Compliance Matrix: (Units=1/GPa)
#
#
# Indices 1 2 3 4 5 6 
#
# 1 0.015122 -0.004341 -0.002106 0.000000 -0.004067 0.000000
# 2 -0.004341 0.014128 -0.003179 0.000000 0.000476 0.000000
# 3 -0.002106 -0.003179 0.015667 0.000000 -0.010229 0.000000
# 4 0.000000 0.000000 0.000000 0.031353 0.000000 0.001543
# 5 -0.004067 0.000476 -0.010229 0.000000 0.038508 0.000000
# 6 0.000000 0.000000 0.000000 0.001543 0.000000 0.030865
#
#
# Mechanical properties :
#
#
# Convention : Reuss Voigt Hill
#
# Bulk Modulus (GPa) = 38.96421 48.31691 43.64056
# Shear Modulus (GPa) = 28.82704 31.35129 30.08917
#
# Velocity S-wave (km/s) = 3.81257 3.97599 3.89514
# Velocity P-wave (km/s) = 6.24725 6.74101 6.49882
#
# Compressibility (1/GPa) = 0.02566458
#
# Stress axis : x y z
#
# Youngs Moduli (GPa) = 66.12949 70.78289 63.82954
#
# Poissons Ratio (x) = 0.30726 0.13444
# Poissons Ratio (y) = 0.28706 0.20290
# Poissons Ratio (z) = 0.13928 0.22500
#
# Static dielectric constant tensor:
#      x y z
#    x 3.661530 0.000000 0.275940 
#    y 0.000000 3.591800 0.000000 
#    z 0.275940 0.000000 3.722970 
# 
# 
# High freq. dielectric constant tensor:
#      x y z
#    x 1.773080 0.000000 0.019600 
#    y 0.000000 1.772440 0.000000 
#    z 0.019600 0.000000 1.773180 
# 
# From -- ./inp_files/49343.got.cif
#   From: 2010.06.25/outbox.cif.g09.slc.cpg/sg11_25_cif.got.tgz:49343.got - 2010.06.27 23:14:04.
