data_PCOD8073172
_publ_section_title
;
Structure prediction by ZEFSAII (Michael W. Deem and Ramdas Pophale) SiO2 
 PCOD8073172
Probable space group: P 21/M
;
_chemical_formula_sum "Si O2"
_cell_formula_units_Z 32
_cell_length_a 17.257606
_cell_length_b 13.392161
_cell_length_c 20.259326
_cell_angle_alpha 90.000000
_cell_angle_beta 20.225375
_cell_angle_gamma 90.000000
_cell_volume 1618.724437
_symmetry_space_group_name_H-M "P 21/M"
_symmetry_group_IT_number 11
_symmetry_cell_setting 'monoclinic'
loop_
_space_group_symop_operation_xyz
x,y,z
-x,1/2+y,-z
-x,-y,-z
x,1/2-y,z
loop_
_atom_site_type_symbol
_atom_site_label
_atom_site_fract_x
_atom_site_fract_y
_atom_site_fract_z
Si Si1 0.645535 0.863841 0.670434
Si Si2 0.165628 0.368544 0.344940
Si Si3 0.214048 0.959121 0.515779
Si Si4 0.288513 0.365411 0.663164
Si Si5 0.674226 0.368231 0.708750
Si Si6 0.448278 0.999106 0.646922
Si Si7 0.217947 0.637676 0.933593
Si Si8 0.745281 0.631473 0.871783
O O1 0.727858 0.750000 0.600403
O O2 0.694834 0.910781 0.703837
O O3 0.381257 0.875089 0.866366
O O4 0.791053 0.923106 0.499444
O O5 0.171416 0.250000 0.344179
O O6 0.278260 0.402427 0.185934
O O7 0.907744 0.406689 0.554481
O O8 0.345133 0.904477 0.351141
O O9 0.966790 0.917608 0.726191
O O10 0.355460 0.944918 0.469447
O O11 0.353752 0.250000 0.617865
O O12 0.452466 0.415376 0.480104
O O13 0.315839 0.416247 0.712868
O O14 0.034878 0.380028 0.840287
O O15 0.671443 0.250000 0.709666
O O16 0.468948 0.408558 0.916982
O O17 0.274353 0.943843 0.833489
O O18 0.245350 0.750000 0.882588
O O19 0.773681 0.750000 0.854551
#
# Coordination Sequence:
#
# PCOD8073172 Si02
#       8
#     4   4   4   4   4   4   4   4
#     4   9  18  33  52  74 104 141 178 218 258 299
#     4   8  15  31  51  71 101 139 177 217 260 302
#     4  10  20  33  53  77 104 137 173 211 257 309
#     4  10  21  37  58  82 106 136 172 209 256 313
#     4   9  18  33  52  74 103 137 173 216 264 311
#     4  10  21  36  56  80 109 137 169 213 258 308
#     4   9  18  35  57  79 107 140 173 212 259 308
#     4   9  18  33  52  75 105 139 174 216 264 307
#
# _framework density 19.768651999999999
#
# number of rings (size 3 to 8) (size 9 to 14) (size 15 to 20)
#    0.000    2.750    0.000    1.875    0.000    5.500 
#    0.000    5.000    0.000   15.750    0.000    0.000 
#    0.000    0.000    0.000    0.000    0.000    0.000 
#
# Total GULP energy -396771.157771 kJ/mol
# GULP energy per Si atom -12399.098680 kJ/mol
# Density = 1.972366 g / cm^3
# Si number density = 19.768652 Si / 1000 Ang^3
#
#
#
# Elastic Constant Matrix: (Units=GPa)
#
#
# Indices 1 2 3 4 5 6 
#
# 1 107.9989 30.4992 37.2314 0.0000 -17.9557 0.0000
# 2 30.4992 57.7730 38.5280 0.0000 -12.0505 0.0000
# 3 37.2314 38.5280 106.9879 0.0000 1.3570 0.0000
# 4 0.0000 0.0000 0.0000 25.6812 0.0000 -2.9665
# 5 -17.9557 -12.0505 1.3570 0.0000 22.0126 0.0000
# 6 0.0000 0.0000 0.0000 -2.9665 0.0000 29.3698
#
#
#
# Elastic Compliance Matrix: (Units=1/GPa)
#
#
# Indices 1 2 3 4 5 6 
#
# 1 0.012751 -0.002285 -0.003733 0.000000 0.009380 0.000000
# 2 -0.002285 0.027620 -0.009327 0.000000 0.013831 0.000000
# 3 -0.003733 -0.009327 0.014119 0.000000 -0.009022 0.000000
# 4 0.000000 0.000000 0.000000 0.039399 0.000000 0.003979
# 5 0.009380 0.013831 -0.009022 0.000000 0.061208 0.000000
# 6 0.000000 0.000000 0.000000 0.003979 0.000000 0.034451
#
#
# Mechanical properties :
#
#
# Convention : Reuss Voigt Hill
#
# Bulk Modulus (GPa) = 42.01657 53.91964 47.96811
# Shear Modulus (GPa) = 21.91327 26.51281 24.21304
#
# Velocity S-wave (km/s) = 3.33300 3.66615 3.50354
# Velocity P-wave (km/s) = 6.00934 6.72721 6.37839
#
# Compressibility (1/GPa) = 0.02380014
#
# Stress axis : x y z
#
# Youngs Moduli (GPa) = 78.42303 36.20526 70.82559
#
# Poissons Ratio (x) = 0.08274 0.26442
# Poissons Ratio (y) = 0.17921 0.66057
# Poissons Ratio (z) = 0.29279 0.33767
#
# Static dielectric constant tensor:
#      x y z
#    x 3.756450 0.000000 -0.108130 
#    y 0.000000 3.658340 0.000000 
#    z -0.108130 0.000000 3.520690 
# 
# 
# High freq. dielectric constant tensor:
#      x y z
#    x 1.769110 0.000000 -0.007460 
#    y 0.000000 1.780660 0.000000 
#    z -0.007460 0.000000 1.756310 
# 
# From -- ./inp_files/66280.got.cif
#   From: 2010.06.25/outbox.cif.g09.slc.cpg/sg11_34_cif.got.tgz:66280.got - 2010.06.27 23:14:04.
