data_PCOD8073220
_publ_section_title
;
Structure prediction by ZEFSAII (Michael W. Deem and Ramdas Pophale) SiO2 
 PCOD8073220
Probable space group: P 21/M
;
_chemical_formula_sum "Si O2"
_cell_formula_units_Z 32
_cell_length_a 11.593390
_cell_length_b 8.942874
_cell_length_c 29.595142
_cell_angle_alpha 90.000000
_cell_angle_beta 29.905214
_cell_angle_gamma 90.000000
_cell_volume 1529.787788
_symmetry_space_group_name_H-M "P 21/M"
_symmetry_group_IT_number 11
_symmetry_cell_setting 'monoclinic'
loop_
_space_group_symop_operation_xyz
x,y,z
-x,1/2+y,-z
-x,-y,-z
x,1/2-y,z
loop_
_atom_site_type_symbol
_atom_site_label
_atom_site_fract_x
_atom_site_fract_y
_atom_site_fract_z
Si Si1 0.816795 0.074150 0.197870
Si Si2 0.073323 0.071477 0.022705
Si Si3 0.293645 0.079644 0.596604
Si Si4 0.003964 0.912680 0.562003
Si Si5 0.445118 0.425852 0.133084
Si Si6 0.996304 0.425200 0.231894
Si Si7 0.177253 0.581238 0.297185
Si Si8 0.347890 0.085907 0.396500
O O1 0.802505 0.250000 0.196667
O O2 0.986449 0.032776 0.182112
O O3 0.561829 0.011679 0.296749
O O4 0.903826 0.010730 0.120161
O O5 0.068745 0.250000 0.019373
O O6 0.323847 0.018503 0.954604
O O7 0.000000 0.000000 0.000000
O O8 0.364673 0.250000 0.582552
O O9 0.073166 0.069626 0.639496
O O10 0.500000 0.000000 0.500000
O O11 0.220526 0.001927 0.668763
O O12 0.033381 0.750000 0.575788
O O13 0.873750 0.890346 0.559409
O O14 0.262685 0.979743 0.466374
O O15 0.846694 0.025481 0.643798
O O16 0.497458 0.250000 0.113079
O O17 0.358357 0.470018 0.212281
O O18 0.247860 0.477977 0.164409
O O19 0.969080 0.250000 0.249853
O O20 0.274457 0.750000 0.262870
O O21 0.422948 0.250000 0.390227
#
# Coordination Sequence:
#
# PCOD8073220 Si02
#       8
#     4   4   4   4   4   4   4   4
#     4   9  20  39  63  88 117 156 199 246 303 358
#     4  11  24  42  65  93 122 157 200 247 302 363
#     4  10  21  35  53  81 118 157 197 243 293 346
#     4  10  20  33  53  82 115 154 197 244 294 348
#     4  10  21  39  62  88 120 154 196 249 300 355
#     4   9  19  38  62  87 116 156 201 244 296 358
#     4  10  21  36  56  82 113 156 199 239 292 353
#     4   9  19  36  55  78 113 155 195 240 293 352
#
# _framework density 20.917933000000001
#
# number of rings (size 3 to 8) (size 9 to 14) (size 15 to 20)
#    0.000    2.250    0.000    1.875    3.500    3.000 
#    0.000    2.500    0.000    0.000    0.000    0.000 
#    0.000    0.000    0.000    0.000    0.000    0.000 
#
# Total GULP energy -396657.446240 kJ/mol
# GULP energy per Si atom -12395.545195 kJ/mol
# Density = 2.087032 g / cm^3
# Si number density = 20.917933 Si / 1000 Ang^3
#
#
#
# Elastic Constant Matrix: (Units=GPa)
#
#
# Indices 1 2 3 4 5 6 
#
# 1 61.7434 24.5413 42.6892 0.0000 12.4562 0.0000
# 2 24.5413 85.2556 35.1710 0.0000 2.4011 0.0000
# 3 42.6892 35.1710 136.2525 0.0000 3.4305 0.0000
# 4 0.0000 0.0000 0.0000 34.3908 0.0000 0.3292
# 5 12.4562 2.4011 3.4305 0.0000 33.6939 0.0000
# 6 0.0000 0.0000 0.0000 0.3292 0.0000 23.5818
#
#
#
# Elastic Compliance Matrix: (Units=1/GPa)
#
#
# Indices 1 2 3 4 5 6 
#
# 1 0.023646 -0.004042 -0.006168 0.000000 -0.007826 0.000000
# 2 -0.004042 0.013830 -0.002322 0.000000 0.000745 0.000000
# 3 -0.006168 -0.002322 0.009835 0.000000 0.001444 0.000000
# 4 0.000000 0.000000 0.000000 0.029081 0.000000 -0.000406
# 5 -0.007826 0.000745 0.001444 0.000000 0.032372 0.000000
# 6 0.000000 0.000000 0.000000 -0.000406 0.000000 0.042411
#
#
# Mechanical properties :
#
#
# Convention : Reuss Voigt Hill
#
# Bulk Modulus (GPa) = 44.95112 54.22828 49.58970
# Shear Modulus (GPa) = 27.22493 30.38998 28.80746
#
# Velocity S-wave (km/s) = 3.61156 3.81572 3.71504
# Velocity P-wave (km/s) = 6.23916 6.73747 6.49310
#
# Compressibility (1/GPa) = 0.02224639
#
# Stress axis : x y z
#
# Youngs Moduli (GPa) = 42.29064 72.30698 101.67778
#
# Poissons Ratio (x) = 0.29224 0.62717
# Poissons Ratio (y) = 0.17092 0.23614
# Poissons Ratio (z) = 0.26086 0.16793
#
# Static dielectric constant tensor:
#      x y z
#    x 3.701610 0.000000 0.024950 
#    y 0.000000 3.929410 0.000000 
#    z 0.024950 0.000000 3.991430 
# 
# 
# High freq. dielectric constant tensor:
#      x y z
#    x 1.811770 0.000000 -0.000570 
#    y 0.000000 1.810510 0.000000 
#    z -0.000570 0.000000 1.822120 
# 
# From -- ./inp_files/73061.got.cif
#   From: 2010.06.25/outbox.cif.g09.slc.cpg/sg11_37_cif.got.tgz:73061.got - 2010.06.27 23:14:04.
