data_PCOD8073410
_publ_section_title
;
Structure prediction by ZEFSAII (Michael W. Deem and Ramdas Pophale) SiO2 
 PCOD8073410
Probable space group: P 21/M
;
_chemical_formula_sum "Si O2"
_cell_formula_units_Z 32
_cell_length_a 31.774960
_cell_length_b 9.427434
_cell_length_c 13.494469
_cell_angle_alpha 90.000000
_cell_angle_beta 155.152271
_cell_angle_gamma 90.000000
_cell_volume 1698.629942
_symmetry_space_group_name_H-M "P 21/M"
_symmetry_group_IT_number 11
_symmetry_cell_setting 'monoclinic'
loop_
_space_group_symop_operation_xyz
x,y,z
-x,1/2+y,-z
-x,-y,-z
x,1/2-y,z
loop_
_atom_site_type_symbol
_atom_site_label
_atom_site_fract_x
_atom_site_fract_y
_atom_site_fract_z
Si Si1 0.465711 0.418315 0.127442
Si Si2 0.820991 0.084881 0.993679
Si Si3 0.320991 0.584881 0.493679
Si Si4 0.965711 0.918315 0.627442
Si Si5 0.283240 0.085904 0.605854
Si Si6 0.935835 0.585627 0.784515
Si Si7 0.564165 0.914373 0.715485
Si Si8 0.216760 0.414096 0.894146
O O1 0.460446 0.250000 0.121955
O O2 0.567927 0.470552 0.294828
O O3 0.459883 0.476645 0.227019
O O4 0.373153 0.476227 0.865067
O O5 0.821958 0.250000 0.023345
O O6 0.750000 0.053606 0.750000
O O7 0.932073 0.029448 0.205172
O O8 0.776619 0.999894 0.990455
O O9 0.321958 0.750000 0.523345
O O10 0.276619 0.499894 0.490455
O O11 0.960446 0.750000 0.621955
O O12 0.959883 0.976645 0.727019
O O13 0.873153 0.976226 0.365067
O O14 0.301748 0.250000 0.619487
O O15 0.181607 0.064063 0.448894
O O16 0.966453 0.750000 0.858810
O O17 0.000000 0.500000 0.000000
O O18 0.533547 0.750000 0.641190
O O19 0.500000 0.000000 0.500000
O O20 0.681607 0.935936 0.948894
O O21 0.198252 0.250000 0.880512
#
# Coordination Sequence:
#
# PCOD8073410 Si02
#       8
#     4   4   4   4   4   4   4   4
#     4   9  18  34  54  75 102 137 173 206 247 302
#     4  10  20  34  53  76 104 138 170 204 251 304
#     4  10  20  34  53  76 104 138 170 204 251 304
#     4   9  18  34  54  75 102 137 173 206 247 302
#     4  10  20  34  54  78 102 132 171 213 253 295
#     4  10  20  35  55  77 102 133 170 211 254 301
#     4  10  20  35  55  77 102 133 170 211 254 301
#     4  10  20  34  54  78 102 132 171 213 253 295
#
# _framework density 18.838711
#
# number of rings (size 3 to 8) (size 9 to 14) (size 15 to 20)
#    0.000    2.250    0.000    3.000    0.000    6.500 
#    0.000    2.500    0.000    3.000    0.000    0.000 
#    0.000    0.000    0.000    0.000    0.000    0.000 
#
# Total GULP energy -396907.548997 kJ/mol
# GULP energy per Si atom -12403.360906 kJ/mol
# Density = 1.879583 g / cm^3
# Si number density = 18.838711 Si / 1000 Ang^3
#
#
#
# Elastic Constant Matrix: (Units=GPa)
#
#
# Indices 1 2 3 4 5 6 
#
# 1 77.4179 25.6440 2.0296 0.0000 -13.6851 0.0000
# 2 25.6440 37.1837 26.6471 0.0000 -9.2703 0.0000
# 3 2.0296 26.6471 91.2768 0.0000 -0.1229 0.0000
# 4 0.0000 0.0000 0.0000 25.1662 0.0000 -1.5110
# 5 -13.6851 -9.2703 -0.1229 0.0000 32.6910 0.0000
# 6 0.0000 0.0000 0.0000 -1.5110 0.0000 28.6038
#
#
#
# Elastic Compliance Matrix: (Units=1/GPa)
#
#
# Indices 1 2 3 4 5 6 
#
# 1 0.018217 -0.014403 0.003805 0.000000 0.003556 0.000000
# 2 -0.014403 0.048707 -0.013889 0.000000 0.007730 0.000000
# 3 0.003805 -0.013889 0.014923 0.000000 -0.002290 0.000000
# 4 0.000000 0.000000 0.000000 0.039862 0.000000 0.002106
# 5 0.003556 0.007730 -0.002290 0.000000 0.034262 0.000000
# 6 0.000000 0.000000 0.000000 0.002106 0.000000 0.035072
#
#
# Mechanical properties :
#
#
# Convention : Reuss Voigt Hill
#
# Bulk Modulus (GPa) = 30.42134 34.94664 32.68399
# Shear Modulus (GPa) = 19.92237 27.39604 23.65921
#
# Velocity S-wave (km/s) = 3.25549 3.81759 3.54769
# Velocity P-wave (km/s) = 5.50584 6.16625 5.84538
#
# Compressibility (1/GPa) = 0.03287166
#
# Stress axis : x y z
#
# Youngs Moduli (GPa) = 54.89477 20.53085 67.01223
#
# Poissons Ratio (x) = 0.29571 -0.25495
# Poissons Ratio (y) = 0.79066 0.93072
# Poissons Ratio (z) = -0.20885 0.28515
#
# Static dielectric constant tensor:
#      x y z
#    x 3.600660 0.000000 0.069840 
#    y 0.000000 3.148260 0.000000 
#    z 0.069840 0.000000 3.649030 
# 
# 
# High freq. dielectric constant tensor:
#      x y z
#    x 1.746930 0.000000 0.002920 
#    y 0.000000 1.694860 0.000000 
#    z 0.002920 0.000000 1.750130 
# 
# From -- ./inp_files/45312.got.cif
#   From: 2010.06.25/outbox.cif.g09.slc.cpg/sg11_23_cif.got.tgz:45312.got - 2010.06.27 23:14:04.
