data_PCOD8073456
_publ_section_title
;
Structure prediction by ZEFSAII (Michael W. Deem and Ramdas Pophale) SiO2 
 PCOD8073456
Probable space group: P 21/M
;
_chemical_formula_sum "Si O2"
_cell_formula_units_Z 28
_cell_length_a 18.557098
_cell_length_b 9.030092
_cell_length_c 15.190818
_cell_angle_alpha 90.000000
_cell_angle_beta 38.217659
_cell_angle_gamma 90.000000
_cell_volume 1574.812366
_symmetry_space_group_name_H-M "P 21/M"
_symmetry_group_IT_number 11
_symmetry_cell_setting 'monoclinic'
loop_
_space_group_symop_operation_xyz
x,y,z
-x,1/2+y,-z
-x,-y,-z
x,1/2-y,z
loop_
_atom_site_type_symbol
_atom_site_label
_atom_site_fract_x
_atom_site_fract_y
_atom_site_fract_z
Si Si1 0.243812 0.921574 0.114336
Si Si2 0.117408 0.074381 0.074918
Si Si3 0.274341 0.080456 0.409257
Si Si4 0.876757 0.922087 0.613242
Si Si5 0.120911 0.578120 0.900923
Si Si6 0.496503 0.079750 0.095903
Si Si7 0.849146 0.419229 0.320792
O O1 0.204626 0.750000 0.151142
O O2 0.179418 0.010547 0.100440
O O3 0.212363 0.995094 0.237285
O O4 0.382254 0.936891 0.968465
O O5 0.132075 0.250000 0.056878
O O6 0.982004 0.025128 0.207067
O O7 0.179524 0.002897 0.928642
O O8 0.296086 0.250000 0.411328
O O9 0.169388 0.059653 0.441287
O O10 0.393871 0.011642 0.255147
O O11 0.241860 0.004588 0.531708
O O12 0.887324 0.750000 0.630127
O O13 0.000000 0.000000 0.500000
O O14 0.101434 0.750000 0.942036
O O15 0.192753 0.560392 0.740719
O O16 0.000000 0.500000 0.000000
O O17 0.466800 0.250000 0.103765
O O18 0.500000 0.000000 0.000000
O O19 0.844085 0.250000 0.354624
#
# Coordination Sequence:
#
# PCOD8073456 Si02
#       7
#     4   4   4   4   4   4   4
#     4  11  22  35  54  77 103 137 176 220 268 315
#     4  10  20  34  53  79 110 141 175 215 263 319
#     4  10  21  35  52  74 102 136 174 217 260 307
#     4  11  22  35  51  74 107 140 173 213 261 315
#     4   9  17  31  51  77 109 141 175 214 259 314
#     4  10  21  38  56  75  99 134 181 225 265 310
#     4   9  19  33  51  78 108 138 170 209 259 312
#
# _framework density 17.779896000000001
#
# number of rings (size 3 to 8) (size 9 to 14) (size 15 to 20)
#    0.000    2.000    1.429    3.429    0.000    8.000 
#    0.000    0.000    0.000    0.857    0.000    0.000 
#    0.000    0.000    0.000    0.000    0.000    0.000 
#
# Total GULP energy -347158.193659 kJ/mol
# GULP energy per Si atom -12398.506916 kJ/mol
# Density = 1.773943 g / cm^3
# Si number density = 17.779896 Si / 1000 Ang^3
#
#
#
# Elastic Constant Matrix: (Units=GPa)
#
#
# Indices 1 2 3 4 5 6 
#
# 1 36.4772 25.5836 30.8367 0.0000 14.1861 0.0000
# 2 25.5836 91.4967 48.8802 0.0000 11.2543 0.0000
# 3 30.8367 48.8802 118.9239 0.0000 10.8924 0.0000
# 4 0.0000 0.0000 0.0000 31.8404 0.0000 7.9458
# 5 14.1861 11.2543 10.8924 0.0000 31.7719 0.0000
# 6 0.0000 0.0000 0.0000 7.9458 0.0000 28.7869
#
#
#
# Elastic Compliance Matrix: (Units=1/GPa)
#
#
# Indices 1 2 3 4 5 6 
#
# 1 0.043980 -0.006547 -0.007358 0.000000 -0.014796 0.000000
# 2 -0.006547 0.015278 -0.004495 0.000000 -0.000948 0.000000
# 3 -0.007358 -0.004495 0.012097 0.000000 0.000730 0.000000
# 4 0.000000 0.000000 0.000000 0.033730 0.000000 -0.009310
# 5 -0.014796 -0.000948 0.000730 0.000000 0.038166 0.000000
# 6 0.000000 0.000000 0.000000 -0.009310 0.000000 0.037308
#
#
# Mechanical properties :
#
#
# Convention : Reuss Voigt Hill
#
# Bulk Modulus (GPa) = 28.93872 50.83319 39.88596
# Shear Modulus (GPa) = 21.84572 27.91964 24.88268
#
# Velocity S-wave (km/s) = 3.50905 3.96699 3.74503
# Velocity P-wave (km/s) = 5.72095 7.04521 6.41733
#
# Compressibility (1/GPa) = 0.03455578
#
# Stress axis : x y z
#
# Youngs Moduli (GPa) = 22.73746 65.45399 82.66241
#
# Poissons Ratio (x) = 0.42851 0.60823
# Poissons Ratio (y) = 0.14885 0.37158
# Poissons Ratio (z) = 0.16730 0.29423
#
# Static dielectric constant tensor:
#      x y z
#    x 3.312320 0.000000 0.148520 
#    y 0.000000 3.398070 0.000000 
#    z 0.148520 0.000000 3.482740 
# 
# 
# High freq. dielectric constant tensor:
#      x y z
#    x 1.675590 0.000000 0.017140 
#    y 0.000000 1.698030 0.000000 
#    z 0.017140 0.000000 1.679770 
# 
# From -- ./inp_files/37937.got.cif
#   From: 2010.06.25/outbox.cif.g09.slc.cpg/sg11_19_cif.got.tgz:37937.got - 2010.06.27 23:14:04.
