data_PCOD8073434
_publ_section_title
;
Structure prediction by ZEFSAII (Michael W. Deem and Ramdas Pophale) SiO2 
 PCOD8073434
Probable space group: P 21/M
;
_chemical_formula_sum "Si O2"
_cell_formula_units_Z 32
_cell_length_a 20.695426
_cell_length_b 8.918868
_cell_length_c 22.674681
_cell_angle_alpha 90.000000
_cell_angle_beta 156.279488
_cell_angle_gamma 90.000000
_cell_volume 1683.638858
_symmetry_space_group_name_H-M "P 21/M"
_symmetry_group_IT_number 11
_symmetry_cell_setting 'monoclinic'
loop_
_space_group_symop_operation_xyz
x,y,z
-x,1/2+y,-z
-x,-y,-z
x,1/2-y,z
loop_
_atom_site_type_symbol
_atom_site_label
_atom_site_fract_x
_atom_site_fract_y
_atom_site_fract_z
Si Si1 0.400744 0.074212 0.834701
Si Si2 0.263263 0.573808 0.829694
Si Si3 0.199285 0.921441 0.134172
Si Si4 0.018504 0.921603 0.819477
Si Si5 0.017079 0.923783 0.333496
Si Si6 0.372345 0.918462 0.167123
Si Si7 0.092427 0.579325 0.165346
Si Si8 0.357004 0.577335 0.674933
O O1 0.374795 0.250000 0.818594
O O2 0.277985 0.995979 0.777044
O O3 0.360834 0.023441 0.735946
O O4 0.583474 0.028064 0.002589
O O5 0.248884 0.750000 0.810571
O O6 0.104649 0.514202 0.727681
O O7 0.134681 0.750000 0.069733
O O8 0.358305 0.942248 0.226489
O O9 0.232559 0.945173 0.232463
O O10 0.071659 0.043963 0.006296
O O11 0.983333 0.750000 0.773697
O O12 0.992912 0.023314 0.741629
O O13 0.198706 0.945218 0.992974
O O14 0.891816 0.973318 0.764230
O O15 0.971726 0.750000 0.299017
O O16 0.194582 0.956688 0.504734
O O17 0.432216 0.750000 0.202517
O O18 0.496470 0.037303 0.245522
O O19 0.089732 0.750000 0.185603
O O20 0.371998 0.750000 0.706051
#
# Coordination Sequence:
#
# PCOD8073434 Si02
#       8
#     4   4   4   4   4   4   4   4
#     4  10  21  38  61  86 110 138 172 211 257 309
#     4  10  21  38  61  87 111 137 172 213 257 307
#     4   8  15  27  44  71 105 136 170 214 262 313
#     4  10  20  34  53  78 106 137 176 220 265 315
#     4  11  24  39  54  76 107 142 179 218 261 309
#     4   9  18  33  53  77 105 137 174 216 262 313
#     4   9  15  25  45  73 104 136 169 212 265 314
#     4  11  24  38  53  77 108 141 178 219 261 308
#
# _framework density 19.006451999999999
#
# number of rings (size 3 to 8) (size 9 to 14) (size 15 to 20)
#    0.000    2.250    0.000    3.750    0.000   10.000 
#    0.000    0.000    0.000    0.750    0.000    0.000 
#    0.000    0.000    0.000    0.000    0.000    0.000 
#
# Total GULP energy -396719.960017 kJ/mol
# GULP energy per Si atom -12397.498751 kJ/mol
# Density = 1.896319 g / cm^3
# Si number density = 19.006452 Si / 1000 Ang^3
#
#
#
# Elastic Constant Matrix: (Units=GPa)
#
#
# Indices 1 2 3 4 5 6 
#
# 1 141.2690 36.8307 43.0696 0.0000 -20.3245 0.0000
# 2 36.8307 61.4133 27.8600 0.0000 -4.7882 0.0000
# 3 43.0696 27.8600 44.9668 0.0000 3.1808 0.0000
# 4 0.0000 0.0000 0.0000 24.4213 0.0000 -1.5266
# 5 -20.3245 -4.7882 3.1808 0.0000 -7.5493 0.0000
# 6 0.0000 0.0000 0.0000 -1.5266 0.0000 36.3648
#
#
#
# Elastic Compliance Matrix: (Units=1/GPa)
#
#
# Indices 1 2 3 4 5 6 
#
# 1 0.006591 -0.004014 -0.002671 0.000000 -0.016324 0.000000
# 2 -0.004014 0.022433 -0.009528 0.000000 -0.007437 0.000000
# 3 -0.002671 -0.009528 0.028903 0.000000 0.025414 0.000000
# 4 0.000000 0.000000 0.000000 0.041056 0.000000 0.001724
# 5 -0.016324 -0.007437 0.025414 0.000000 -0.073088 0.000000
# 6 0.000000 0.000000 0.000000 0.001724 0.000000 0.027572
#
#
# Mechanical properties :
#
#
# Convention : Reuss Voigt Hill
#
# Bulk Modulus (GPa) = 39.21542 51.46332 45.33937
# Shear Modulus (GPa) = 52.97048 19.97326 36.47187
#
# Velocity S-wave (km/s) = 5.28491 3.24523 4.38530
# Velocity P-wave (km/s) = 7.61037 6.41697 7.03901
#
# Compressibility (1/GPa) = 0.02550017
#
# Stress axis : x y z
#
# Youngs Moduli (GPa) = 151.72290 44.57763 34.59837
#
# Poissons Ratio (x) = 0.17892 0.09243
# Poissons Ratio (y) = 0.60895 0.32966
# Poissons Ratio (z) = 0.40532 0.42475
#
# Static dielectric constant tensor:
#      x y z
#    x 3.886330 0.000000 -0.127770 
#    y 0.000000 3.575500 0.000000 
#    z -0.127770 0.000000 3.130790 
# 
# 
# High freq. dielectric constant tensor:
#      x y z
#    x 1.762490 0.000000 -0.013880 
#    y 0.000000 1.751260 0.000000 
#    z -0.013880 0.000000 1.690840 
# 
# From -- ./inp_files/66461.got.cif
#   From: 2010.06.25/outbox.cif.g09.slc.cpg/sg11_34_cif.got.tgz:66461.got - 2010.06.27 23:14:04.
