data_PCOD8073596
_publ_section_title
;
Structure prediction by ZEFSAII (Michael W. Deem and Ramdas Pophale) SiO2 
 PCOD8073596
Probable space group: P 21/M
;
_chemical_formula_sum "Si O2"
_cell_formula_units_Z 32
_cell_length_a 19.664367
_cell_length_b 8.996296
_cell_length_c 27.613890
_cell_angle_alpha 90.000000
_cell_angle_beta 158.546600
_cell_angle_gamma 90.000000
_cell_volume 1786.688959
_symmetry_space_group_name_H-M "P 21/M"
_symmetry_group_IT_number 11
_symmetry_cell_setting 'monoclinic'
loop_
_space_group_symop_operation_xyz
x,y,z
-x,1/2+y,-z
-x,-y,-z
x,1/2-y,z
loop_
_atom_site_type_symbol
_atom_site_label
_atom_site_fract_x
_atom_site_fract_y
_atom_site_fract_z
Si Si1 0.184216 0.083850 0.866727
Si Si2 0.272585 0.926278 0.561281
Si Si3 0.967217 0.915675 0.125256
Si Si4 0.415592 0.426257 0.160798
Si Si5 0.308981 0.421740 0.385055
Si Si6 0.839475 0.922241 0.606754
Si Si7 0.555731 0.425314 0.152795
Si Si8 0.029516 0.573447 0.571405
O O1 0.174199 0.250000 0.837563
O O2 0.114232 0.088548 0.875101
O O3 0.396965 0.020265 0.009298
O O4 0.054409 0.975398 0.749204
O O5 0.243297 0.750000 0.543854
O O6 0.469475 0.974504 0.715554
O O7 0.276850 0.983993 0.509301
O O8 0.106051 0.004940 0.479090
O O9 0.027374 0.750000 0.148938
O O10 0.800798 0.979907 0.980512
O O11 0.148306 0.019279 0.242581
O O12 0.411895 0.250000 0.153697
O O13 0.520008 0.493835 0.182769
O O14 0.500000 0.500000 0.500000
O O15 0.333521 0.250000 0.390695
O O16 0.256118 0.454481 0.405391
O O17 0.836003 0.750000 0.590402
O O18 0.531047 0.250000 0.140728
O O19 0.762119 0.467062 0.272142
O O20 0.000693 0.750000 0.547954
O O21 0.000000 0.500000 0.500000
#
# Coordination Sequence:
#
# PCOD8073596 Si02
#       8
#     4   4   4   4   4   4   4   4
#     4   8  14  28  51  72  91 126 169 207 250 302
#     4  11  21  34  52  73 101 138 178 212 250 306
#     4   8  14  27  50  76 101 127 161 203 248 294
#     4   8  14  27  48  73  98 129 168 209 250 294
#     4  10  20  34  55  81 108 132 160 201 247 297
#     4  10  21  36  51  74 106 133 162 206 255 301
#     4   8  14  27  48  71  96 125 166 217 259 296
#     4  11  20  32  49  72 103 136 173 219 264 304
#
# _framework density 17.910223999999999
#
# number of rings (size 3 to 8) (size 9 to 14) (size 15 to 20)
#    0.000    2.750    1.250    3.000    0.000    1.500 
#    0.000    3.125    0.000    0.750    0.000    0.000 
#    0.000    0.000    0.000    0.000    0.000    0.000 
#
# Total GULP energy -396583.055241 kJ/mol
# GULP energy per Si atom -12393.220476 kJ/mol
# Density = 1.786946 g / cm^3
# Si number density = 17.910224 Si / 1000 Ang^3
#
#
#
# Elastic Constant Matrix: (Units=GPa)
#
#
# Indices 1 2 3 4 5 6 
#
# 1 38.1999 33.7287 48.7580 0.0000 -2.9621 0.0000
# 2 33.7287 83.0028 63.2813 0.0000 3.5266 0.0000
# 3 48.7580 63.2813 184.2100 0.0000 0.6018 0.0000
# 4 0.0000 0.0000 0.0000 25.8308 0.0000 0.0080
# 5 -2.9621 3.5266 0.6018 0.0000 24.6172 0.0000
# 6 0.0000 0.0000 0.0000 0.0080 0.0000 24.0502
#
#
#
# Elastic Compliance Matrix: (Units=1/GPa)
#
#
# Indices 1 2 3 4 5 6 
#
# 1 0.050200 -0.014363 -0.008380 0.000000 0.008303 0.000000
# 2 -0.014363 0.020552 -0.003244 0.000000 -0.004593 0.000000
# 3 -0.008380 -0.003244 0.008764 0.000000 -0.000758 0.000000
# 4 0.000000 0.000000 0.000000 0.038713 0.000000 -0.000013
# 5 0.008303 -0.004593 -0.000758 0.000000 0.042298 0.000000
# 6 0.000000 0.000000 0.000000 -0.000013 0.000000 0.041580
#
#
# Mechanical properties :
#
#
# Convention : Reuss Voigt Hill
#
# Bulk Modulus (GPa) = 36.30767 66.32764 51.31765
# Shear Modulus (GPa) = 18.99255 25.54264 22.26760
#
# Velocity S-wave (km/s) = 3.25996 3.78054 3.52986
# Velocity P-wave (km/s) = 5.87246 7.49469 6.73261
#
# Compressibility (1/GPa) = 0.02754239
#
# Stress axis : x y z
#
# Youngs Moduli (GPa) = 19.92023 48.65641 114.10892
#
# Poissons Ratio (x) = 0.69884 0.95629
# Poissons Ratio (y) = 0.28611 0.37013
# Poissons Ratio (z) = 0.16694 0.15782
#
# Static dielectric constant tensor:
#      x y z
#    x 3.007250 0.000000 -0.120160 
#    y 0.000000 3.213840 0.000000 
#    z -0.120160 0.000000 3.927060 
# 
# 
# High freq. dielectric constant tensor:
#      x y z
#    x 1.644800 0.000000 -0.005360 
#    y 0.000000 1.676470 0.000000 
#    z -0.005360 0.000000 1.714470 
# 
# From -- ./inp_files/73647.got.cif
#   From: 2010.06.25/outbox.cif.g09.slc.cpg/sg11_37_cif.got.tgz:73647.got - 2010.06.27 23:14:04.
