data_PCOD8073623
_publ_section_title
;
Structure prediction by ZEFSAII (Michael W. Deem and Ramdas Pophale) SiO2 
 PCOD8073623
Probable space group: P 21/M
;
_chemical_formula_sum "Si O2"
_cell_formula_units_Z 28
_cell_length_a 16.677375
_cell_length_b 8.611750
_cell_length_c 12.373601
_cell_angle_alpha 90.000000
_cell_angle_beta 59.557087
_cell_angle_gamma 90.000000
_cell_volume 1532.110894
_symmetry_space_group_name_H-M "P 21/M"
_symmetry_group_IT_number 11
_symmetry_cell_setting 'monoclinic'
loop_
_space_group_symop_operation_xyz
x,y,z
-x,1/2+y,-z
-x,-y,-z
x,1/2-y,z
loop_
_atom_site_type_symbol
_atom_site_label
_atom_site_fract_x
_atom_site_fract_y
_atom_site_fract_z
Si Si1 0.596127 0.931330 0.892401
Si Si2 0.381859 0.071806 0.760369
Si Si3 0.591604 0.072042 0.667617
Si Si4 0.710466 0.070223 0.381566
Si Si5 0.104712 0.430140 0.807126
Si Si6 0.270691 0.568708 0.028766
Si Si7 0.911049 0.930494 0.932969
O O1 0.597422 0.750000 0.917748
O O2 0.607512 0.959600 0.757621
O O3 0.500000 0.000000 0.000000
O O4 0.681438 0.013058 0.894137
O O5 0.357535 0.250000 0.804760
O O6 0.491582 0.041615 0.682378
O O7 0.341644 0.033046 0.671082
O O8 0.337002 0.964847 0.882278
O O9 0.599817 0.250000 0.701144
O O10 0.669241 0.030041 0.526683
O O11 0.695448 0.250000 0.363175
O O12 0.819391 0.028855 0.310197
O O13 0.121884 0.250000 0.773355
O O14 0.002790 0.476332 0.834860
O O15 0.116164 0.472119 0.925579
O O16 0.250388 0.750000 0.048290
O O17 0.172955 0.480146 0.086454
O O18 0.932700 0.750000 0.905304
#
# Coordination Sequence:
#
# PCOD8073623 Si02
#       7
#     4   4   4   4   4   4   4
#     4  12  24  39  60  83 111 149 193 239 284 331
#     4  11  21  35  55  81 116 154 191 233 279 335
#     4  10  23  40  57  80 114 154 196 236 279 335
#     4  11  22  36  56  83 117 155 191 232 282 339
#     4  10  20  34  55  82 115 150 186 232 281 338
#     4  12  23  36  58  85 116 150 187 233 285 338
#     4  10  20  35  56  83 115 148 185 233 283 337
#
# _framework density 18.27544
#
# number of rings (size 3 to 8) (size 9 to 14) (size 15 to 20)
#    0.000    1.143    2.857    4.714    0.000    2.857 
#    0.000    0.000    0.000    0.857    0.000    0.000 
#    0.000    0.000    0.000    0.000    0.000    0.000 
#
# Total GULP energy -347402.733133 kJ/mol
# GULP energy per Si atom -12407.240469 kJ/mol
# Density = 1.823384 g / cm^3
# Si number density = 18.275440 Si / 1000 Ang^3
#
#
#
# Elastic Constant Matrix: (Units=GPa)
#
#
# Indices 1 2 3 4 5 6 
#
# 1 104.9544 15.7778 40.7007 0.0000 -11.9960 0.0000
# 2 15.7778 56.4246 23.5611 0.0000 -1.7213 0.0000
# 3 40.7007 23.5611 90.6398 0.0000 -7.4593 0.0000
# 4 0.0000 0.0000 0.0000 27.5178 0.0000 -1.0693
# 5 -11.9960 -1.7213 -7.4593 0.0000 24.4640 0.0000
# 6 0.0000 0.0000 0.0000 -1.0693 0.0000 33.6657
#
#
#
# Elastic Compliance Matrix: (Units=1/GPa)
#
#
# Indices 1 2 3 4 5 6 
#
# 1 0.012050 -0.001264 -0.004722 0.000000 0.004380 0.000000
# 2 -0.001264 0.020014 -0.004688 0.000000 -0.000641 0.000000
# 3 -0.004722 -0.004688 0.014518 0.000000 0.001782 0.000000
# 4 0.000000 0.000000 0.000000 0.036385 0.000000 0.001156
# 5 0.004380 -0.000641 0.001782 0.000000 0.043522 0.000000
# 6 0.000000 0.000000 0.000000 0.001156 0.000000 0.029740
#
#
# Mechanical properties :
#
#
# Convention : Reuss Voigt Hill
#
# Bulk Modulus (GPa) = 39.62771 45.78867 42.70819
# Shear Modulus (GPa) = 26.88346 28.59479 27.73912
#
# Velocity S-wave (km/s) = 3.83954 3.95987 3.90017
# Velocity P-wave (km/s) = 6.43326 6.78355 6.61072
#
# Compressibility (1/GPa) = 0.02523487
#
# Stress axis : x y z
#
# Youngs Moduli (GPa) = 82.98994 49.96482 68.87996
#
# Poissons Ratio (x) = 0.06316 0.32523
# Poissons Ratio (y) = 0.10491 0.32288
# Poissons Ratio (z) = 0.39185 0.23421
#
# Static dielectric constant tensor:
#      x y z
#    x 3.428240 0.000000 -0.084610 
#    y 0.000000 3.468340 0.000000 
#    z -0.084610 0.000000 3.221070 
# 
# 
# High freq. dielectric constant tensor:
#      x y z
#    x 1.710660 0.000000 -0.012190 
#    y 0.000000 1.722940 0.000000 
#    z -0.012190 0.000000 1.686910 
# 
# From -- ./inp_files/37685.got.cif
#   From: 2010.06.25/outbox.cif.g09.slc.cpg/sg11_19_cif.got.tgz:37685.got - 2010.06.27 23:14:04.
