data_PCOD8073502
_publ_section_title
;
Structure prediction by ZEFSAII (Michael W. Deem and Ramdas Pophale) SiO2 
 PCOD8073502
Probable space group: P 21/M
;
_chemical_formula_sum "Si O2"
_cell_formula_units_Z 32
_cell_length_a 27.447878
_cell_length_b 8.993348
_cell_length_c 22.317191
_cell_angle_alpha 90.000000
_cell_angle_beta 18.077415
_cell_angle_gamma 90.000000
_cell_volume 1709.440146
_symmetry_space_group_name_H-M "P 21/M"
_symmetry_group_IT_number 11
_symmetry_cell_setting 'monoclinic'
loop_
_space_group_symop_operation_xyz
x,y,z
-x,1/2+y,-z
-x,-y,-z
x,1/2-y,z
loop_
_atom_site_type_symbol
_atom_site_label
_atom_site_fract_x
_atom_site_fract_y
_atom_site_fract_z
Si Si1 0.438966 0.078736 0.307143
Si Si2 0.182662 0.077938 0.943412
Si Si3 0.441978 0.423248 0.944926
Si Si4 0.502035 0.081716 0.641428
Si Si5 0.094990 0.078296 0.663370
Si Si6 0.846133 0.074827 0.653906
Si Si7 0.784562 0.421868 0.589624
Si Si8 0.652449 0.078226 0.346510
O O1 0.483412 0.250000 0.244559
O O2 0.255705 0.050315 0.510811
O O3 0.541328 0.978433 0.142742
O O4 0.479406 0.034806 0.327294
O O5 0.153448 0.250000 0.965316
O O6 0.337714 0.049090 0.801100
O O7 0.036205 0.013385 0.149505
O O8 0.197681 0.998476 0.860570
O O9 0.398710 0.250000 0.995190
O O10 0.600612 0.456721 0.796124
O O11 0.305305 0.514300 0.135638
O O12 0.504599 0.250000 0.663658
O O13 0.647131 0.059997 0.424974
O O14 0.047050 0.250000 0.717435
O O15 0.110323 0.020426 0.577542
O O16 0.855563 0.250000 0.652722
O O17 0.833679 0.033287 0.598781
O O18 0.000000 0.000000 0.500000
O O19 0.819070 0.250000 0.535157
O O20 0.648335 0.250000 0.332930
O O21 0.500000 0.000000 0.500000
#
# Coordination Sequence:
#
# PCOD8073502 Si02
#       8
#     4   4   4   4   4   4   4   4
#     4  10  21  36  55  80 108 139 177 219 263 314
#     4  10  20  34  54  79 106 139 179 220 265 316
#     4  10  20  37  60  81 104 139 179 217 262 314
#     4   9  19  34  53  78 106 138 176 219 265 315
#     4  10  21  36  55  80 108 138 176 221 265 313
#     4  11  23  38  56  82 114 142 173 216 263 310
#     4   9  20  38  59  80 104 139 179 217 260 314
#     4   9  17  31  51  76 106 138 176 219 263 314
#
# _framework density 18.719580000000001
#
# number of rings (size 3 to 8) (size 9 to 14) (size 15 to 20)
#    0.000    2.250    0.000    3.375    0.000    7.000 
#    0.000    1.875    0.000    0.000    0.000    0.000 
#    0.000    0.000    0.000    0.000    0.000    0.000 
#
# Total GULP energy -396835.466940 kJ/mol
# GULP energy per Si atom -12401.108342 kJ/mol
# Density = 1.867697 g / cm^3
# Si number density = 18.719580 Si / 1000 Ang^3
#
#
#
# Elastic Constant Matrix: (Units=GPa)
#
#
# Indices 1 2 3 4 5 6 
#
# 1 174.4239 90.8103 123.5393 0.0000 30.3277 0.0000
# 2 90.8103 130.3713 101.3087 0.0000 20.6699 0.0000
# 3 123.5393 101.3087 189.8268 0.0000 33.6605 0.0000
# 4 0.0000 0.0000 0.0000 40.2712 0.0000 6.1965
# 5 30.3277 20.6699 33.6605 0.0000 22.0040 0.0000
# 6 0.0000 0.0000 0.0000 6.1965 0.0000 31.5858
#
#
#
# Elastic Compliance Matrix: (Units=1/GPa)
#
#
# Indices 1 2 3 4 5 6 
#
# 1 0.012144 -0.003756 -0.004880 0.000000 -0.005744 0.000000
# 2 -0.003756 0.014346 -0.005133 0.000000 -0.000448 0.000000
# 3 -0.004880 -0.005133 0.012536 0.000000 -0.007629 0.000000
# 4 0.000000 0.000000 0.000000 0.025605 0.000000 -0.005023
# 5 -0.005744 -0.000448 -0.007629 0.000000 0.065455 0.000000
# 6 0.000000 0.000000 0.000000 -0.005023 0.000000 0.032645
#
#
# Mechanical properties :
#
#
# Convention : Reuss Voigt Hill
#
# Bulk Modulus (GPa) = 87.04245 125.10429 106.07337
# Shear Modulus (GPa) = 25.76029 30.70309 28.23169
#
# Velocity S-wave (km/s) = 3.71363 4.05428 3.88769
# Velocity P-wave (km/s) = 8.06145 9.42826 8.77152
#
# Compressibility (1/GPa) = 0.01148865
#
# Stress axis : x y z
#
# Youngs Moduli (GPa) = 82.34683 69.70614 79.76998
#
# Poissons Ratio (x) = 0.26180 0.38929
# Poissons Ratio (y) = 0.30927 0.40943
# Poissons Ratio (z) = 0.40187 0.35777
#
# Static dielectric constant tensor:
#      x y z
#    x 3.466490 0.000000 0.187780 
#    y 0.000000 3.661110 0.000000 
#    z 0.187780 0.000000 3.516990 
# 
# 
# High freq. dielectric constant tensor:
#      x y z
#    x 1.716760 0.000000 0.019030 
#    y 0.000000 1.741650 0.000000 
#    z 0.019030 0.000000 1.728200 
# 
# From -- ./inp_files/66970.got.cif
#   From: 2010.06.25/outbox.cif.g09.slc.cpg/sg11_34_cif.got.tgz:66970.got - 2010.06.27 23:14:04.
