data_PCOD8073745
_publ_section_title
;
Structure prediction by ZEFSAII (Michael W. Deem and Ramdas Pophale) SiO2 
 PCOD8073745
Probable space group: P 21/M
;
_chemical_formula_sum "Si O2"
_cell_formula_units_Z 32
_cell_length_a 31.413012
_cell_length_b 8.778230
_cell_length_c 12.824687
_cell_angle_alpha 90.000000
_cell_angle_beta 152.326905
_cell_angle_gamma 90.000000
_cell_volume 1642.404215
_symmetry_space_group_name_H-M "P 21/M"
_symmetry_group_IT_number 11
_symmetry_cell_setting 'monoclinic'
loop_
_space_group_symop_operation_xyz
x,y,z
-x,1/2+y,-z
-x,-y,-z
x,1/2-y,z
loop_
_atom_site_type_symbol
_atom_site_label
_atom_site_fract_x
_atom_site_fract_y
_atom_site_fract_z
Si Si1 0.565447 0.932387 0.951100
Si Si2 0.283212 0.430700 0.144092
Si Si3 0.095145 0.921954 0.683757
Si Si4 0.370698 0.430883 0.551504
Si Si5 0.287164 0.568249 0.571913
Si Si6 0.835598 0.419824 0.390834
Si Si7 0.906904 0.424891 0.764792
Si Si8 0.658315 0.573688 0.948925
O O1 0.558863 0.750000 0.945046
O O2 0.473066 0.009637 0.790257
O O3 0.582539 0.987047 0.867220
O O4 0.646139 0.990022 0.200188
O O5 0.275732 0.250000 0.120152
O O6 0.335545 0.482598 0.361396
O O7 0.180294 0.494606 0.923571
O O8 0.339587 0.496979 0.164517
O O9 0.094070 0.750000 0.723722
O O10 0.101715 0.928423 0.574039
O O11 0.000000 0.000000 0.500000
O O12 0.367608 0.250000 0.558961
O O13 0.307128 0.510201 0.499112
O O14 0.298504 0.750000 0.604264
O O15 0.183844 0.513581 0.373507
O O16 0.791890 0.250000 0.308125
O O17 0.899707 0.458052 0.626651
O O18 0.755769 0.543572 0.213634
O O19 0.916485 0.250000 0.812735
O O20 0.000000 0.500000 0.000000
O O21 0.641781 0.750000 0.900078
#
# Coordination Sequence:
#
# PCOD8073745 Si02
#       8
#     4   4   4   4   4   4   4   4
#     4  11  22  37  61  90 117 150 195 242 292 350
#     4   9  20  39  58  81 116 153 191 237 292 344
#     4  10  20  34  57  84 112 148 191 237 286 345
#     4  11  24  40  59  84 119 160 196 238 292 349
#     4  11  23  41  62  84 116 154 197 245 290 344
#     4   9  18  35  55  78 108 144 185 230 283 337
#     4  10  22  38  58  84 113 146 187 235 289 343
#     4   9  18  34  59  86 111 144 187 235 282 338
#
# _framework density 19.483633000000001
#
# number of rings (size 3 to 8) (size 9 to 14) (size 15 to 20)
#    0.000    2.000    1.250    1.875    0.000    5.000 
#    0.000    3.750    0.000    0.000    0.000    0.000 
#    0.000    0.000    0.000    0.000    0.000    0.000 
#
# Total GULP energy -396667.164247 kJ/mol
# GULP energy per Si atom -12395.848883 kJ/mol
# Density = 1.943929 g / cm^3
# Si number density = 19.483633 Si / 1000 Ang^3
#
#
#
# Elastic Constant Matrix: (Units=GPa)
#
#
# Indices 1 2 3 4 5 6 
#
# 1 113.3938 31.1583 60.1888 0.0000 1.2440 0.0000
# 2 31.1583 41.9161 23.5553 0.0000 0.9309 0.0000
# 3 60.1888 23.5553 113.8648 0.0000 2.8930 0.0000
# 4 0.0000 0.0000 0.0000 31.8162 0.0000 2.2911
# 5 1.2440 0.9309 2.8930 0.0000 32.0490 0.0000
# 6 0.0000 0.0000 0.0000 2.2911 0.0000 26.4774
#
#
#
# Elastic Compliance Matrix: (Units=1/GPa)
#
#
# Indices 1 2 3 4 5 6 
#
# 1 0.013865 -0.007004 -0.005885 0.000000 0.000197 0.000000
# 2 -0.007004 0.030536 -0.002605 0.000000 -0.000380 0.000000
# 3 -0.005885 -0.002605 0.012453 0.000000 -0.000820 0.000000
# 4 0.000000 0.000000 0.000000 0.031628 0.000000 -0.002737
# 5 0.000197 -0.000380 -0.000820 0.000000 0.031280 0.000000
# 6 0.000000 0.000000 0.000000 -0.002737 0.000000 0.038005
#
#
# Mechanical properties :
#
#
# Convention : Reuss Voigt Hill
#
# Bulk Modulus (GPa) = 38.66111 55.44218 47.05165
# Shear Modulus (GPa) = 25.33240 28.35333 26.84287
#
# Velocity S-wave (km/s) = 3.60973 3.81890 3.71578
# Velocity P-wave (km/s) = 6.10405 6.92552 6.52772
#
# Compressibility (1/GPa) = 0.02586578
#
# Stress axis : x y z
#
# Youngs Moduli (GPa) = 72.12443 32.74848 80.30190
#
# Poissons Ratio (x) = 0.22936 0.47259
# Poissons Ratio (y) = 0.50513 0.20920
# Poissons Ratio (z) = 0.42446 0.08532
#
# Static dielectric constant tensor:
#      x y z
#    x 4.155660 0.000000 -0.085820 
#    y 0.000000 4.023290 0.000000 
#    z -0.085820 0.000000 3.502970 
# 
# 
# High freq. dielectric constant tensor:
#      x y z
#    x 1.776880 0.000000 -0.004440 
#    y 0.000000 1.756550 0.000000 
#    z -0.004440 0.000000 1.748930 
# 
# From -- ./inp_files/45352.got.cif
#   From: 2010.06.25/outbox.cif.g09.slc.cpg/sg11_23_cif.got.tgz:45352.got - 2010.06.27 23:14:04.
