data_PCOD8073003
_publ_section_title
;
Structure prediction by ZEFSAII (Michael W. Deem and Ramdas Pophale) SiO2 
 PCOD8073003
Probable space group: P 21/M
;
_chemical_formula_sum "Si O2"
_cell_formula_units_Z 32
_cell_length_a 20.913478
_cell_length_b 9.121800
_cell_length_c 8.799970
_cell_angle_alpha 90.000000
_cell_angle_beta 106.808408
_cell_angle_gamma 90.000000
_cell_volume 1607.036196
_symmetry_space_group_name_H-M "P 21/M"
_symmetry_group_IT_number 11
_symmetry_cell_setting 'monoclinic'
loop_
_space_group_symop_operation_xyz
x,y,z
-x,1/2+y,-z
-x,-y,-z
x,1/2-y,z
loop_
_atom_site_type_symbol
_atom_site_label
_atom_site_fract_x
_atom_site_fract_y
_atom_site_fract_z
Si Si1 0.695353 0.085836 0.413522
Si Si2 0.078837 0.413969 0.916806
Si Si3 0.542348 0.580121 0.812431
Si Si4 0.833368 0.080045 0.621765
Si Si5 0.414994 0.418914 0.817510
Si Si6 0.042451 0.084585 0.245234
Si Si7 0.343352 0.580774 0.264164
Si Si8 0.782926 0.577642 0.884127
O O1 0.675189 0.250000 0.349876
O O2 0.775860 0.065640 0.453263
O O3 0.673373 0.058802 0.571577
O O4 0.659079 0.970878 0.278823
O O5 0.064039 0.250000 0.849335
O O6 0.032767 0.522330 0.785934
O O7 0.061674 0.426161 0.082598
O O8 0.157929 0.451446 0.951484
O O9 0.537326 0.750000 0.765478
O O10 0.468260 0.513267 0.758951
O O11 0.586108 0.496725 0.717489
O O12 0.576455 0.554263 0.998442
O O13 0.842174 0.250000 0.676133
O O14 0.904806 0.012336 0.619687
O O15 0.808183 0.984415 0.743359
O O16 0.424766 0.250000 0.781426
O O17 0.043965 0.250000 0.307611
O O18 0.347414 0.750000 0.219752
O O19 0.285906 0.504447 0.120108
O O20 0.768676 0.750000 0.857697
#
# Coordination Sequence:
#
# PCOD8073003 Si02
#       8
#     4   4   4   4   4   4   4   4
#     4   9  19  33  49  71  98 128 160 195 237 284
#     4   8  14  22  32  49  76 112 151 188 228 275
#     4  10  21  37  55  74  97 125 157 194 236 282
#     4   9  16  26  39  57  85 119 154 191 232 279
#     4  10  21  36  55  76  96 123 158 195 237 282
#     4   9  15  21  32  51  76 111 153 192 231 274
#     4  10  20  33  50  73  99 128 161 195 236 284
#     4   9  16  26  40  59  85 118 154 192 235 278
#
# _framework density 19.912433
#
# number of rings (size 3 to 8) (size 9 to 14) (size 15 to 20)
#    0.000    2.750    0.000    3.750    0.000    8.500 
#    0.000    0.000    0.000    0.000    0.000    0.000 
#    0.000    1.000    0.000    3.250    0.000    8.750 
#
# Total GULP energy -396634.572619 kJ/mol
# GULP energy per Si atom -12394.830394 kJ/mol
# Density = 1.986711 g / cm^3
# Si number density = 19.912433 Si / 1000 Ang^3
#
#
#
# Elastic Constant Matrix: (Units=GPa)
#
#
# Indices 1 2 3 4 5 6 
#
# 1 18.8486 18.5816 17.7925 0.0000 20.2761 0.0000
# 2 18.5816 118.1567 36.2784 0.0000 20.8340 0.0000
# 3 17.7925 36.2784 50.6360 0.0000 29.7413 0.0000
# 4 0.0000 0.0000 0.0000 27.6184 0.0000 14.0761
# 5 20.2761 20.8340 29.7413 0.0000 27.5245 0.0000
# 6 0.0000 0.0000 0.0000 14.0761 0.0000 33.6060
#
#
#
# Elastic Compliance Matrix: (Units=1/GPa)
#
#
# Indices 1 2 3 4 5 6 
#
# 1 0.389766 -0.026638 0.106556 0.000000 -0.382098 0.000000
# 2 -0.026638 0.012673 -0.015359 0.000000 0.026626 0.000000
# 3 0.106556 -0.015359 0.089197 0.000000 -0.163251 0.000000
# 4 0.000000 0.000000 0.000000 0.046035 0.000000 -0.019282
# 5 -0.382098 0.026626 -0.163251 0.000000 0.474050 0.000000
# 6 0.000000 0.000000 0.000000 -0.019282 0.000000 0.037833
#
#
# Mechanical properties :
#
#
# Convention : Reuss Voigt Hill
#
# Bulk Modulus (GPa) = 1.61094 36.99403 19.30249
# Shear Modulus (GPa) = 4.43516 25.41570 14.92543
#
# Velocity S-wave (km/s) = 1.49404 3.57651 2.74077
# Velocity P-wave (km/s) = 1.94602 5.97277 4.44190
#
# Compressibility (1/GPa) = 0.62075441
#
# Stress axis : x y z
#
# Youngs Moduli (GPa) = 2.56564 78.90566 11.21114
#
# Poissons Ratio (x) = 2.10193 -1.19462
# Poissons Ratio (y) = 0.06834 0.17219
# Poissons Ratio (z) = -0.27339 1.21189
#
# Static dielectric constant tensor:
#      x y z
#    x 3.741830 0.000000 0.712420 
#    y 0.000000 3.751600 0.000000 
#    z 0.712420 0.000000 3.431750 
# 
# 
# High freq. dielectric constant tensor:
#      x y z
#    x 1.758160 0.000000 0.049720 
#    y 0.000000 1.789250 0.000000 
#    z 0.049720 0.000000 1.738910 
# 
# From -- ./inp_files/42510.got.cif
#   From: 2010.06.25/outbox.cif.g09.slc.cpg/sg11_22_cif.got.tgz:42510.got - 2010.06.27 23:14:04.
