data_PCOD8073217
_publ_section_title
;
Structure prediction by ZEFSAII (Michael W. Deem and Ramdas Pophale) SiO2 
 PCOD8073217
Probable space group: P 21/M
;
_chemical_formula_sum "Si O2"
_cell_formula_units_Z 28
_cell_length_a 15.403285
_cell_length_b 9.224334
_cell_length_c 12.307068
_cell_angle_alpha 90.000000
_cell_angle_beta 52.319423
_cell_angle_gamma 90.000000
_cell_volume 1383.935706
_symmetry_space_group_name_H-M "P 21/M"
_symmetry_group_IT_number 11
_symmetry_cell_setting 'monoclinic'
loop_
_space_group_symop_operation_xyz
x,y,z
-x,1/2+y,-z
-x,-y,-z
x,1/2-y,z
loop_
_atom_site_type_symbol
_atom_site_label
_atom_site_fract_x
_atom_site_fract_y
_atom_site_fract_z
Si Si1 0.521884 0.419495 0.308558
Si Si2 0.067260 0.907470 0.032912
Si Si3 0.993190 0.415616 0.395340
Si Si4 0.867953 0.592506 0.335056
Si Si5 0.657295 0.917133 0.374087
Si Si6 0.198723 0.414089 0.084262
Si Si7 0.446617 0.422168 0.937512
O O1 0.541683 0.250000 0.268935
O O2 0.414558 0.446063 0.463484
O O3 0.624510 0.483062 0.297686
O O4 0.505355 0.506562 0.209113
O O5 0.100793 0.750000 0.958591
O O6 0.987118 0.883960 0.194660
O O7 0.175190 0.988798 0.995337
O O8 0.000000 0.000000 0.000000
O O9 0.969764 0.250000 0.438841
O O10 0.107497 0.437857 0.245635
O O11 0.000000 0.500000 0.500000
O O12 0.884874 0.474434 0.415950
O O13 0.826990 0.750000 0.412207
O O14 0.781293 0.537934 0.310988
O O15 0.647706 0.750000 0.344194
O O16 0.197133 0.250000 0.042647
O O17 0.316644 0.453957 0.043298
O O18 0.471987 0.250000 0.919611
O O19 0.500000 0.500000 0.000000
#
# Coordination Sequence:
#
# PCOD8073217 Si02
#       7
#     4   4   4   4   4   4   4
#     4  10  21  37  58  85 115 148 192 242 291 343
#     4  10  20  33  53  82 114 145 180 222 272 331
#     4  10  20  36  57  81 110 144 183 227 277 332
#     4   9  19  35  54  78 108 144 183 221 269 332
#     4   9  19  37  59  83 115 153 190 233 288 348
#     4   9  21  40  58  78 109 149 188 228 276 335
#     4  11  24  42  62  83 113 153 199 245 294 351
#
# _framework density 20.232154000000001
#
# number of rings (size 3 to 8) (size 9 to 14) (size 15 to 20)
#    0.000    2.286    0.000    1.714    2.000    4.571 
#    0.000    5.714    0.000    0.000    0.000    0.000 
#    0.000    0.000    0.000    0.000    0.000    0.000 
#
# Total GULP energy -347110.231963 kJ/mol
# GULP energy per Si atom -12396.793999 kJ/mol
# Density = 2.018610 g / cm^3
# Si number density = 20.232154 Si / 1000 Ang^3
#
#
#
# Elastic Constant Matrix: (Units=GPa)
#
#
# Indices 1 2 3 4 5 6 
#
# 1 145.1667 78.4437 29.4535 0.0000 19.0928 0.0000
# 2 78.4437 154.4585 40.6723 0.0000 25.8858 0.0000
# 3 29.4535 40.6723 43.0857 0.0000 19.4708 0.0000
# 4 0.0000 0.0000 0.0000 31.4335 0.0000 8.9212
# 5 19.0928 25.8858 19.4708 0.0000 35.5843 0.0000
# 6 0.0000 0.0000 0.0000 8.9212 0.0000 42.5365
#
#
#
# Elastic Compliance Matrix: (Units=1/GPa)
#
#
# Indices 1 2 3 4 5 6 
#
# 1 0.009737 -0.004188 -0.002283 0.000000 -0.000928 0.000000
# 2 -0.004188 0.010577 -0.006190 0.000000 -0.002059 0.000000
# 3 -0.002283 -0.006190 0.037232 0.000000 -0.014644 0.000000
# 4 0.000000 0.000000 0.000000 0.033827 0.000000 -0.007094
# 5 -0.000928 -0.002059 -0.014644 0.000000 0.038112 0.000000
# 6 0.000000 0.000000 0.000000 -0.007094 0.000000 0.024997
#
#
# Mechanical properties :
#
#
# Convention : Reuss Voigt Hill
#
# Bulk Modulus (GPa) = 31.03465 71.09442 51.06454
# Shear Modulus (GPa) = 26.24058 34.85362 30.54710
#
# Velocity S-wave (km/s) = 3.60526 4.15503 3.88987
# Velocity P-wave (km/s) = 5.71866 7.63116 6.74306
#
# Compressibility (1/GPa) = 0.03222205
#
# Stress axis : x y z
#
# Youngs Moduli (GPa) = 102.69836 94.54894 26.85897
#
# Poissons Ratio (x) = 0.39601 0.06132
# Poissons Ratio (y) = 0.43014 0.16626
# Poissons Ratio (z) = 0.23446 0.58527
#
# Static dielectric constant tensor:
#      x y z
#    x 3.660130 0.000000 -0.021950 
#    y 0.000000 3.868430 0.000000 
#    z -0.021950 0.000000 3.601790 
# 
# 
# High freq. dielectric constant tensor:
#      x y z
#    x 1.793300 0.000000 0.001430 
#    y 0.000000 1.801500 0.000000 
#    z 0.001430 0.000000 1.775210 
# 
# From -- ./inp_files/37837.got.cif
#   From: 2010.06.25/outbox.cif.g09.slc.cpg/sg11_19_cif.got.tgz:37837.got - 2010.06.27 23:14:04.
