data_PCOD8073598
_publ_section_title
;
Structure prediction by ZEFSAII (Michael W. Deem and Ramdas Pophale) SiO2 
 PCOD8073598
Probable space group: P 21/M
;
_chemical_formula_sum "Si O2"
_cell_formula_units_Z 24
_cell_length_a 9.606287
_cell_length_b 8.921537
_cell_length_c 20.541983
_cell_angle_alpha 90.000000
_cell_angle_beta 131.702590
_cell_angle_gamma 90.000000
_cell_volume 1314.408344
_symmetry_space_group_name_H-M "P 21/M"
_symmetry_group_IT_number 11
_symmetry_cell_setting 'monoclinic'
loop_
_space_group_symop_operation_xyz
x,y,z
-x,1/2+y,-z
-x,-y,-z
x,1/2-y,z
loop_
_atom_site_type_symbol
_atom_site_label
_atom_site_fract_x
_atom_site_fract_y
_atom_site_fract_z
Si Si1 0.377729 0.075973 0.773424
Si Si2 0.627343 0.073673 0.093469
Si Si3 0.043250 0.920082 0.354636
Si Si4 0.052927 0.425210 0.225878
Si Si5 0.401760 0.572897 0.284706
Si Si6 0.588463 0.076879 0.465073
O O1 0.406363 0.250000 0.798356
O O2 0.510445 0.023060 0.756500
O O3 0.164716 0.041377 0.685800
O O4 0.433815 0.983818 0.854760
O O5 0.600231 0.250000 0.083237
O O6 0.840751 0.027583 0.144738
O O7 0.500000 0.000000 0.000000
O O8 0.051908 0.750000 0.330062
O O9 0.186672 0.939617 0.459009
O O10 0.105388 0.029765 0.315817
O O11 0.084964 0.250000 0.226939
O O12 0.190179 0.512264 0.219677
O O13 0.403317 0.750000 0.293838
O O14 0.525566 0.502971 0.380084
O O15 0.526906 0.250000 0.443386
O O16 0.500000 0.000000 0.500000
#
# Coordination Sequence:
#
# PCOD8073598 Si02
#       6
#     4   4   4   4   4   4
#     4   9  20  38  57  79 110 144 181 225 272 323
#     4  10  21  38  62  88 109 136 175 219 269 328
#     4   9  18  34  54  75 103 144 188 227 270 316
#     4  10  20  34  55  81 108 140 181 223 265 320
#     4  11  22  35  53  79 112 149 183 223 275 318
#     4  11  21  32  51  78 109 145 191 233 268 315
#
# _framework density 18.259164999999999
#
# number of rings (size 3 to 8) (size 9 to 14) (size 15 to 20)
#    0.000    2.000    1.667    2.000    0.000    4.667 
#    0.000    0.833    0.000    0.000    0.000    0.000 
#    0.000    0.000    0.000    0.000    0.000    0.000 
#
# Total GULP energy -297636.932329 kJ/mol
# GULP energy per Si atom -12401.538847 kJ/mol
# Density = 1.821761 g / cm^3
# Si number density = 18.259165 Si / 1000 Ang^3
#
#
#
# Elastic Constant Matrix: (Units=GPa)
#
#
# Indices 1 2 3 4 5 6 
#
# 1 150.6958 63.3060 70.3280 0.0000 -5.6973 0.0000
# 2 63.3060 89.6588 56.3153 0.0000 -6.0428 0.0000
# 3 70.3280 56.3153 134.2085 0.0000 -3.6801 0.0000
# 4 0.0000 0.0000 0.0000 32.6815 0.0000 -0.2565
# 5 -5.6973 -6.0428 -3.6801 0.0000 19.7231 0.0000
# 6 0.0000 0.0000 0.0000 -0.2565 0.0000 27.6348
#
#
#
# Elastic Compliance Matrix: (Units=1/GPa)
#
#
# Indices 1 2 3 4 5 6 
#
# 1 0.010370 -0.005254 -0.003208 0.000000 0.000787 0.000000
# 2 -0.005254 0.018047 -0.004734 0.000000 0.003128 0.000000
# 3 -0.003208 -0.004734 0.011110 0.000000 -0.000304 0.000000
# 4 0.000000 0.000000 0.000000 0.030601 0.000000 0.000284
# 5 0.000787 0.003128 -0.000304 0.000000 0.051831 0.000000
# 6 0.000000 0.000000 0.000000 0.000284 0.000000 0.036189
#
#
# Mechanical properties :
#
#
# Convention : Reuss Voigt Hill
#
# Bulk Modulus (GPa) = 76.12698 83.82908 79.97803
# Shear Modulus (GPa) = 26.46655 28.31548 27.39101
#
# Velocity S-wave (km/s) = 3.81135 3.94223 3.87735
# Velocity P-wave (km/s) = 7.81994 8.16896 7.99636
#
# Compressibility (1/GPa) = 0.01313595
#
# Stress axis : x y z
#
# Youngs Moduli (GPa) = 96.43343 55.40982 90.00831
#
# Poissons Ratio (x) = 0.29112 0.28873
# Poissons Ratio (y) = 0.50666 0.42609
# Poissons Ratio (z) = 0.30934 0.26230
#
# Static dielectric constant tensor:
#      x y z
#    x 3.456540 0.000000 0.241120 
#    y 0.000000 3.444620 0.000000 
#    z 0.241120 0.000000 3.276970 
# 
# 
# High freq. dielectric constant tensor:
#      x y z
#    x 1.702420 0.000000 0.015940 
#    y 0.000000 1.718400 0.000000 
#    z 0.015940 0.000000 1.698710 
# 
# From -- ./inp_files/20507.got.cif
#   From: 2010.06.25/outbox.cif.g09.slc.cpg/sg11_11_cif.got.tgz:20507.got - 2010.06.27 23:14:04.
