data_PCOD8073086
_publ_section_title
;
Structure prediction by ZEFSAII (Michael W. Deem and Ramdas Pophale) SiO2 
 PCOD8073086
Probable space group: P 21/M
;
_chemical_formula_sum "Si O2"
_cell_formula_units_Z 20
_cell_length_a 17.262892
_cell_length_b 9.222022
_cell_length_c 16.132196
_cell_angle_alpha 90.000000
_cell_angle_beta 24.421651
_cell_angle_gamma 90.000000
_cell_volume 1061.829166
_symmetry_space_group_name_H-M "P 21/M"
_symmetry_group_IT_number 11
_symmetry_cell_setting 'monoclinic'
loop_
_space_group_symop_operation_xyz
x,y,z
-x,1/2+y,-z
-x,-y,-z
x,1/2-y,z
loop_
_atom_site_type_symbol
_atom_site_label
_atom_site_fract_x
_atom_site_fract_y
_atom_site_fract_z
Si Si1 0.265882 0.081366 0.152445
Si Si2 0.620096 0.586008 0.776533
Si Si3 0.023835 0.084827 0.669287
Si Si4 0.967774 0.418983 0.911892
Si Si5 0.696747 0.579287 0.293499
O O1 0.258869 0.250000 0.142364
O O2 0.273531 0.042061 0.242244
O O3 0.081197 0.013062 0.294430
O O4 0.446034 0.018218 0.929339
O O5 0.544663 0.750000 0.858408
O O6 0.756503 0.570272 0.565288
O O7 0.956501 0.250000 0.723745
O O8 0.989969 0.031746 0.795482
O O9 0.915166 0.250000 0.971980
O O10 0.166179 0.450834 0.762565
O O11 0.798123 0.513428 0.113914
O O12 0.500000 0.500000 0.500000
O O13 0.661239 0.750000 0.314839
#
# Coordination Sequence:
#
# PCOD8073086 Si02
#       5
#     4   4   4   4   4
#     4  10  20  33  51  77 107 138 176 221 265 309
#     4   9  19  35  53  74 103 142 182 216 258 313
#     4  10  20  35  55  76 102 138 177 217 261 310
#     4   9  20  37  55  78 105 135 175 216 256 311
#     4  10  20  36  58  81 107 138 171 210 259 313
#
# _framework density 18.835422999999999
#
# number of rings (size 3 to 8) (size 9 to 14) (size 15 to 20)
#    0.000    2.400    0.000    1.800    0.000    4.800 
#    0.000    4.000    0.000    0.000    0.000    0.000 
#    0.000    0.000    0.000    0.000    0.000    0.000 
#
# Total GULP energy -248035.655797 kJ/mol
# GULP energy per Si atom -12401.782790 kJ/mol
# Density = 1.879255 g / cm^3
# Si number density = 18.835423 Si / 1000 Ang^3
#
#
#
# Elastic Constant Matrix: (Units=GPa)
#
#
# Indices 1 2 3 4 5 6 
#
# 1 44.4231 21.9965 30.9555 0.0000 15.1010 0.0000
# 2 21.9965 77.7709 50.8060 0.0000 4.5623 0.0000
# 3 30.9555 50.8060 113.1016 0.0000 11.9001 0.0000
# 4 0.0000 0.0000 0.0000 38.4573 0.0000 -4.1656
# 5 15.1010 4.5623 11.9001 0.0000 26.9433 0.0000
# 6 0.0000 0.0000 0.0000 -4.1656 0.0000 25.4195
#
#
#
# Elastic Compliance Matrix: (Units=1/GPa)
#
#
# Indices 1 2 3 4 5 6 
#
# 1 0.034259 -0.005272 -0.005330 0.000000 -0.015954 0.000000
# 2 -0.005272 0.019018 -0.007417 0.000000 0.003010 0.000000
# 3 -0.005330 -0.007417 0.013828 0.000000 -0.001865 0.000000
# 4 0.000000 0.000000 0.000000 0.026473 0.000000 0.004338
# 5 -0.015954 0.003010 -0.001865 0.000000 0.046371 0.000000
# 6 0.000000 0.000000 0.000000 0.004338 0.000000 0.040051
#
#
# Mechanical properties :
#
#
# Convention : Reuss Voigt Hill
#
# Bulk Modulus (GPa) = 32.18749 49.20128 40.69438
# Shear Modulus (GPa) = 22.08561 26.93321 24.50941
#
# Velocity S-wave (km/s) = 3.42798 3.78553 3.61118
# Velocity P-wave (km/s) = 5.72660 6.72944 6.24817
#
# Compressibility (1/GPa) = 0.03106797
#
# Stress axis : x y z
#
# Youngs Moduli (GPa) = 29.18979 52.58165 72.31610
#
# Poissons Ratio (x) = 0.27721 0.38542
# Poissons Ratio (y) = 0.15389 0.53636
# Poissons Ratio (z) = 0.15557 0.38999
#
# Static dielectric constant tensor:
#      x y z
#    x 3.363890 0.000000 0.085120 
#    y 0.000000 3.491250 0.000000 
#    z 0.085120 0.000000 3.410910 
# 
# 
# High freq. dielectric constant tensor:
#      x y z
#    x 1.721030 0.000000 0.004820 
#    y 0.000000 1.733980 0.000000 
#    z 0.004820 0.000000 1.736190 
# 
# From -- ./inp_files/7452.got.cif
#   From: 2010.06.25/outbox.cif.g09.slc.cpg/sg11_4_cif.got.tgz:7452.got - 2010.06.27 23:14:04.
