data_PCOD8073646
_publ_section_title
;
Structure prediction by ZEFSAII (Michael W. Deem and Ramdas Pophale) SiO2 
 PCOD8073646
Probable space group: P 21/M
;
_chemical_formula_sum "Si O2"
_cell_formula_units_Z 32
_cell_length_a 30.911428
_cell_length_b 9.358361
_cell_length_c 11.868095
_cell_angle_alpha 90.000000
_cell_angle_beta 27.462343
_cell_angle_gamma 90.000000
_cell_volume 1583.276334
_symmetry_space_group_name_H-M "P 21/M"
_symmetry_group_IT_number 11
_symmetry_cell_setting 'monoclinic'
loop_
_space_group_symop_operation_xyz
x,y,z
-x,1/2+y,-z
-x,-y,-z
x,1/2-y,z
loop_
_atom_site_type_symbol
_atom_site_label
_atom_site_fract_x
_atom_site_fract_y
_atom_site_fract_z
Si Si1 0.576653 0.412251 0.462367
Si Si2 0.056406 0.583688 0.532588
Si Si3 0.590933 0.588249 0.824762
Si Si4 0.264459 0.417562 0.325685
Si Si5 0.077063 0.920890 0.746677
Si Si6 0.632452 0.910567 0.134674
Si Si7 0.322469 0.088977 0.605288
Si Si8 0.867724 0.583376 0.840908
O O1 0.607655 0.250000 0.399674
O O2 0.468092 0.432662 0.689527
O O3 0.643516 0.483029 0.213305
O O4 0.594904 0.489525 0.538103
O O5 0.079137 0.750000 0.466660
O O6 0.061962 0.538082 0.650439
O O7 0.130090 0.497620 0.284412
O O8 0.953844 0.543787 0.723135
O O9 0.555956 0.750000 0.924141
O O10 0.644479 0.533170 0.812648
O O11 0.671356 0.579609 0.543380
O O12 0.500000 0.500000 0.000000
O O13 0.242060 0.250000 0.401268
O O14 0.176664 0.517331 0.558360
O O15 0.287985 0.443825 0.140394
O O16 0.072644 0.750000 0.775568
O O17 0.000000 0.000000 0.000000
O O18 0.642304 0.750000 0.158438
O O19 0.340160 0.250000 0.606367
O O20 0.222435 0.033162 0.879966
O O21 0.865720 0.750000 0.817153
#
# Coordination Sequence:
#
# PCOD8073646 Si02
#       8
#     4   4   4   4   4   4   4   4
#     4  10  20  34  55  83 116 151 189 236 287 340
#     4   9  20  39  61  85 116 150 188 238 292 343
#     4  10  22  40  63  88 120 160 202 250 303 356
#     4  10  22  40  63  87 117 159 202 244 298 358
#     4  11  25  42  63  90 122 158 199 247 299 356
#     4   9  19  36  56  81 114 153 192 231 284 350
#     4  10  21  35  56  84 113 150 193 235 289 353
#     4   9  19  36  60  86 113 150 191 234 288 352
#
# _framework density 20.211254
#
# number of rings (size 3 to 8) (size 9 to 14) (size 15 to 20)
#    0.000    2.250    0.000    1.500    3.500    4.500 
#    0.000    0.000    0.000    0.000    0.000    0.000 
#    0.000    0.000    0.000    0.000    0.000    0.000 
#
# Total GULP energy -396802.336139 kJ/mol
# GULP energy per Si atom -12400.073004 kJ/mol
# Density = 2.016525 g / cm^3
# Si number density = 20.211254 Si / 1000 Ang^3
#
#
#
# Elastic Constant Matrix: (Units=GPa)
#
#
# Indices 1 2 3 4 5 6 
#
# 1 84.1028 31.6340 19.1844 0.0000 4.7655 0.0000
# 2 31.6340 75.9203 38.1553 0.0000 -1.8293 0.0000
# 3 19.1844 38.1553 97.9554 0.0000 5.7484 0.0000
# 4 0.0000 0.0000 0.0000 30.3095 0.0000 -0.4792
# 5 4.7655 -1.8293 5.7484 0.0000 24.2184 0.0000
# 6 0.0000 0.0000 0.0000 -0.4792 0.0000 32.7071
#
#
#
# Elastic Compliance Matrix: (Units=1/GPa)
#
#
# Indices 1 2 3 4 5 6 
#
# 1 0.014364 -0.005897 -0.000329 0.000000 -0.003194 0.000000
# 2 -0.005897 0.018987 -0.006483 0.000000 0.004133 0.000000
# 3 -0.000329 -0.006483 0.013005 0.000000 -0.003512 0.000000
# 4 0.000000 0.000000 0.000000 0.033001 0.000000 0.000484
# 5 -0.003194 0.004133 -0.003512 0.000000 0.043065 0.000000
# 6 0.000000 0.000000 0.000000 0.000484 0.000000 0.030582
#
#
# Mechanical properties :
#
#
# Convention : Reuss Voigt Hill
#
# Bulk Modulus (GPa) = 47.76135 48.43618 48.09876
# Shear Modulus (GPa) = 26.96872 28.71397 27.84135
#
# Velocity S-wave (km/s) = 3.65683 3.77330 3.71552
# Velocity P-wave (km/s) = 6.44300 6.55749 6.50050
#
# Compressibility (1/GPa) = 0.02093743
#
# Stress axis : x y z
#
# Youngs Moduli (GPa) = 69.61745 52.66850 76.89602
#
# Poissons Ratio (x) = 0.31058 0.02529
# Poissons Ratio (y) = 0.41053 0.49854
# Poissons Ratio (z) = 0.02289 0.34147
#
# Static dielectric constant tensor:
#      x y z
#    x 3.704800 0.000000 0.116720 
#    y 0.000000 3.628270 0.000000 
#    z 0.116720 0.000000 3.706820 
# 
# 
# High freq. dielectric constant tensor:
#      x y z
#    x 1.793390 0.000000 0.005940 
#    y 0.000000 1.781060 0.000000 
#    z 0.005940 0.000000 1.793420 
# 
# From -- ./inp_files/45142.got.cif
#   From: 2010.06.25/outbox.cif.g09.slc.cpg/sg11_23_cif.got.tgz:45142.got - 2010.06.27 23:14:04.
