data_PCOD8073127
_publ_section_title
;
Structure prediction by ZEFSAII (Michael W. Deem and Ramdas Pophale) SiO2 
 PCOD8073127
Probable space group: P 21/M
;
_chemical_formula_sum "Si O2"
_cell_formula_units_Z 32
_cell_length_a 28.984509
_cell_length_b 9.616259
_cell_length_c 11.413825
_cell_angle_alpha 90.000000
_cell_angle_beta 30.311700
_cell_angle_gamma 90.000000
_cell_volume 1605.609720
_symmetry_space_group_name_H-M "P 21/M"
_symmetry_group_IT_number 11
_symmetry_cell_setting 'monoclinic'
loop_
_space_group_symop_operation_xyz
x,y,z
-x,1/2+y,-z
-x,-y,-z
x,1/2-y,z
loop_
_atom_site_type_symbol
_atom_site_label
_atom_site_fract_x
_atom_site_fract_y
_atom_site_fract_z
Si Si1 0.589424 0.405552 0.302676
Si Si2 0.134493 0.913433 0.428341
Si Si3 0.200439 0.411573 0.820950
Si Si4 0.221254 0.584542 0.001874
Si Si5 0.594212 0.599272 0.667921
Si Si6 0.972608 0.913072 0.945951
Si Si7 0.311417 0.905743 0.160024
Si Si8 0.444520 0.098101 0.982810
O O1 0.500000 0.500000 0.500000
O O2 0.560531 0.250000 0.403241
O O3 0.672606 0.457716 0.204953
O O4 0.627173 0.405200 0.089517
O O5 0.148268 0.750000 0.389005
O O6 0.211115 0.966126 0.351643
O O7 0.036438 0.955848 0.695182
O O8 0.155060 0.969743 0.252514
O O9 0.188623 0.250000 0.881766
O O10 0.183175 0.505590 0.972199
O O11 0.300786 0.446140 0.551810
O O12 0.129667 0.449732 0.872197
O O13 0.213637 0.750000 0.999972
O O14 0.586636 0.750000 0.619730
O O15 0.533572 0.482680 0.734671
O O16 0.548128 0.617608 0.895047
O O17 0.984102 0.750000 0.950677
O O18 0.000000 0.000000 0.000000
O O19 0.307878 0.750000 0.221833
O O20 0.352934 0.011565 0.161983
O O21 0.440714 0.250000 0.930210
#
# Coordination Sequence:
#
# PCOD8073127 Si02
#       8
#     4   4   4   4   4   4   4   4
#     4   9  19  33  50  75 108 144 181 225 272 320
#     4   8  17  37  60  81 111 149 185 226 277 333
#     4  10  22  38  57  83 116 149 182 231 290 336
#     4   9  19  37  58  81 111 147 191 232 272 331
#     4   9  20  37  51  70 108 149 180 221 279 332
#     4  10  22  40  62  88 115 147 186 229 283 341
#     4   9  18  33  53  76 105 145 181 217 274 332
#     4  10  20  33  52  77 104 141 188 231 268 319
#
# _framework density 19.930122000000001
#
# number of rings (size 3 to 8) (size 9 to 14) (size 15 to 20)
#    0.000    2.750    0.000    1.875    3.500    3.000 
#    0.000    2.500    0.000    0.000    0.000    0.000 
#    0.000    0.000    0.000    0.000    0.000    0.000 
#
# Total GULP energy -396585.348729 kJ/mol
# GULP energy per Si atom -12393.292148 kJ/mol
# Density = 1.988476 g / cm^3
# Si number density = 19.930122 Si / 1000 Ang^3
#
#
#
# Elastic Constant Matrix: (Units=GPa)
#
#
# Indices 1 2 3 4 5 6 
#
# 1 88.5007 47.3724 23.8478 0.0000 -10.6622 0.0000
# 2 47.3724 89.5454 30.8253 0.0000 -8.1896 0.0000
# 3 23.8478 30.8253 93.0987 0.0000 -14.2061 0.0000
# 4 0.0000 0.0000 0.0000 16.4503 0.0000 0.2716
# 5 -10.6622 -8.1896 -14.2061 0.0000 23.6749 0.0000
# 6 0.0000 0.0000 0.0000 0.2716 0.0000 34.4511
#
#
#
# Elastic Compliance Matrix: (Units=1/GPa)
#
#
# Indices 1 2 3 4 5 6 
#
# 1 0.016276 -0.007921 -0.000931 0.000000 0.004031 0.000000
# 2 -0.007921 0.016550 -0.003436 0.000000 0.000096 0.000000
# 3 -0.000931 -0.003436 0.013069 0.000000 0.006234 0.000000
# 4 0.000000 0.000000 0.000000 0.060797 0.000000 -0.000479
# 5 0.004031 0.000096 0.006234 0.000000 0.047828 0.000000
# 6 0.000000 0.000000 0.000000 -0.000479 0.000000 0.029030
#
#
# Mechanical properties :
#
#
# Convention : Reuss Voigt Hill
#
# Bulk Modulus (GPa) = 46.91021 52.80399 49.85710
# Shear Modulus (GPa) = 23.23065 26.18854 24.70960
#
# Velocity S-wave (km/s) = 3.41780 3.62887 3.52492
# Velocity P-wave (km/s) = 6.25808 6.64156 6.45267
#
# Compressibility (1/GPa) = 0.02131732
#
# Stress axis : x y z
#
# Youngs Moduli (GPa) = 61.44005 60.42407 76.51826
#
# Poissons Ratio (x) = 0.47864 0.07126
# Poissons Ratio (y) = 0.48668 0.26292
# Poissons Ratio (z) = 0.05722 0.20762
#
# Static dielectric constant tensor:
#      x y z
#    x 3.527200 0.000000 -0.197740 
#    y 0.000000 3.782060 0.000000 
#    z -0.197740 0.000000 3.709980 
# 
# 
# High freq. dielectric constant tensor:
#      x y z
#    x 1.767610 0.000000 -0.008740 
#    y 0.000000 1.762940 0.000000 
#    z -0.008740 0.000000 1.775280 
# 
# From -- ./inp_files/45206.got.cif
#   From: 2010.06.25/outbox.cif.g09.slc.cpg/sg11_23_cif.got.tgz:45206.got - 2010.06.27 23:14:04.
