data_PCOD8073535
_publ_section_title
;
Structure prediction by ZEFSAII (Michael W. Deem and Ramdas Pophale) SiO2 
 PCOD8073535
Probable space group: P 21/M
;
_chemical_formula_sum "Si O2"
_cell_formula_units_Z 24
_cell_length_a 21.571826
_cell_length_b 9.296368
_cell_length_c 11.003399
_cell_angle_alpha 90.000000
_cell_angle_beta 32.642427
_cell_angle_gamma 90.000000
_cell_volume 1190.237319
_symmetry_space_group_name_H-M "P 21/M"
_symmetry_group_IT_number 11
_symmetry_cell_setting 'monoclinic'
loop_
_space_group_symop_operation_xyz
x,y,z
-x,1/2+y,-z
-x,-y,-z
x,1/2-y,z
loop_
_atom_site_type_symbol
_atom_site_label
_atom_site_fract_x
_atom_site_fract_y
_atom_site_fract_z
Si Si1 0.116686 0.915315 0.303860
Si Si2 0.881911 0.417940 0.217673
Si Si3 0.308016 0.082420 0.865713
Si Si4 0.562025 0.912717 0.102391
Si Si5 0.331024 0.915070 0.593860
Si Si6 0.746959 0.086562 0.673195
O O1 0.096362 0.750000 0.300211
O O2 0.175045 0.928932 0.337732
O O3 0.000000 0.000000 0.500000
O O4 0.192323 0.991722 0.076518
O O5 0.910554 0.250000 0.186254
O O6 0.796089 0.445377 0.247132
O O7 0.819499 0.479141 0.441675
O O8 0.000000 0.500000 0.000000
O O9 0.278022 0.250000 0.901019
O O10 0.394934 0.053602 0.832183
O O11 0.361683 0.022275 0.652794
O O12 0.591099 0.750000 0.018886
O O13 0.424925 0.942380 0.331357
O O14 0.625356 0.007997 0.896286
O O15 0.343095 0.750000 0.619037
O O16 0.714889 0.250000 0.695480
#
# Coordination Sequence:
#
# PCOD8073535 Si02
#       6
#     4   4   4   4   4   4
#     4  10  20  34  54  80 110 146 185 231 282 332
#     4  10  23  41  58  80 111 149 188 231 278 328
#     4  10  20  34  54  83 115 147 185 228 276 336
#     4   9  19  36  58  85 115 145 182 229 281 335
#     4  10  21  37  57  83 115 150 186 229 280 329
#     4   9  20  38  57  79 111 145 182 231 279 328
#
# _framework density 20.164045000000002
#
# number of rings (size 3 to 8) (size 9 to 14) (size 15 to 20)
#    0.000    2.333    0.000    1.500    2.333    4.000 
#    0.000    0.000    0.000    0.000    0.000    0.000 
#    0.000    0.000    0.000    0.000    0.000    0.000 
#
# Total GULP energy -297617.930227 kJ/mol
# GULP energy per Si atom -12400.747093 kJ/mol
# Density = 2.011815 g / cm^3
# Si number density = 20.164045 Si / 1000 Ang^3
#
#
#
# Elastic Constant Matrix: (Units=GPa)
#
#
# Indices 1 2 3 4 5 6 
#
# 1 29.8873 27.0750 31.0165 0.0000 1.9754 0.0000
# 2 27.0750 100.0708 60.5711 0.0000 -1.2805 0.0000
# 3 31.0165 60.5711 137.8198 0.0000 -2.4052 0.0000
# 4 0.0000 0.0000 0.0000 44.0937 0.0000 0.2716
# 5 1.9754 -1.2805 -2.4052 0.0000 38.8685 0.0000
# 6 0.0000 0.0000 0.0000 0.2716 0.0000 23.3054
#
#
#
# Elastic Compliance Matrix: (Units=1/GPa)
#
#
# Indices 1 2 3 4 5 6 
#
# 1 0.049314 -0.009036 -0.007184 0.000000 -0.003249 0.000000
# 2 -0.009036 0.015271 -0.004666 0.000000 0.000674 0.000000
# 3 -0.007184 -0.004666 0.010939 0.000000 0.000888 0.000000
# 4 0.000000 0.000000 0.000000 0.022681 0.000000 -0.000264
# 5 -0.003249 0.000674 0.000888 0.000000 0.025970 0.000000
# 6 0.000000 0.000000 0.000000 -0.000264 0.000000 0.042912
#
#
# Mechanical properties :
#
#
# Convention : Reuss Voigt Hill
#
# Bulk Modulus (GPa) = 29.62744 56.12254 42.87499
# Shear Modulus (GPa) = 22.71613 31.19454 26.95533
#
# Velocity S-wave (km/s) = 3.36008 3.93751 3.66020
# Velocity P-wave (km/s) = 5.45698 6.96888 6.25875
#
# Compressibility (1/GPa) = 0.03375250
#
# Stress axis : x y z
#
# Youngs Moduli (GPa) = 20.27806 65.48561 91.41793
#
# Poissons Ratio (x) = 0.59171 0.65672
# Poissons Ratio (y) = 0.18323 0.42656
# Poissons Ratio (z) = 0.14567 0.30556
#
# Static dielectric constant tensor:
#      x y z
#    x 4.064510 0.000000 0.307590 
#    y 0.000000 3.714860 0.000000 
#    z 0.307590 0.000000 4.016530 
# 
# 
# High freq. dielectric constant tensor:
#      x y z
#    x 1.777110 0.000000 -0.001570 
#    y 0.000000 1.781700 0.000000 
#    z -0.001570 0.000000 1.798970 
# 
# From -- ./inp_files/33887.got.cif
#   From: 2010.06.25/outbox.cif.g09.slc.cpg/sg11_17_cif.got.tgz:33887.got - 2010.06.27 23:14:04.
