data_PCOD8073354
_publ_section_title
;
Structure prediction by ZEFSAII (Michael W. Deem and Ramdas Pophale) SiO2 
 PCOD8073354
Probable space group: P 21/M
;
_chemical_formula_sum "Si O2"
_cell_formula_units_Z 28
_cell_length_a 10.584355
_cell_length_b 11.606062
_cell_length_c 14.687326
_cell_angle_alpha 90.000000
_cell_angle_beta 123.317554
_cell_angle_gamma 90.000000
_cell_volume 1507.685573
_symmetry_space_group_name_H-M "P 21/M"
_symmetry_group_IT_number 11
_symmetry_cell_setting 'monoclinic'
loop_
_space_group_symop_operation_xyz
x,y,z
-x,1/2+y,-z
-x,-y,-z
x,1/2-y,z
loop_
_atom_site_type_symbol
_atom_site_label
_atom_site_fract_x
_atom_site_fract_y
_atom_site_fract_z
Si Si1 0.822554 0.880612 0.469810
Si Si2 0.064821 0.383656 0.846495
Si Si3 0.495025 0.116163 0.560480
Si Si4 0.097028 0.519555 0.676021
Si Si5 0.242256 0.618116 0.191027
Si Si6 0.332018 0.505849 0.039849
Si Si7 0.368540 0.623736 0.873816
O O1 0.857708 0.750000 0.456859
O O2 0.653904 0.895878 0.438547
O O3 0.842438 0.955460 0.388375
O O4 0.937596 0.919415 0.594386
O O5 0.039990 0.250000 0.824303
O O6 0.078472 0.431715 0.750893
O O7 0.917434 0.435120 0.838922
O O8 0.213987 0.406423 0.965305
O O9 0.496460 0.250000 0.517036
O O10 0.639869 0.104999 0.681160
O O11 0.500000 0.000000 0.500000
O O12 0.222044 0.613799 0.751903
O O13 0.224006 0.750000 0.153588
O O14 0.296596 0.547945 0.125914
O O15 0.504377 0.464326 0.108499
O O16 0.318794 0.605774 0.959081
O O17 0.437127 0.750000 0.890710
#
# Coordination Sequence:
#
# PCOD8073354 Si02
#       7
#     4   4   4   4   4   4   4
#     4  10  20  35  55  78 106 138 176 221 266 317
#     4  10  20  34  53  77 106 137 170 213 260 311
#     4  10  21  38  58  81 110 143 180 222 269 320
#     4  10  20  34  54  78 104 136 174 213 262 316
#     4  10  20  35  55  77 104 138 176 216 260 313
#     4  10  20  34  53  76 103 136 173 211 257 311
#     4  10  20  34  52  75 104 135 170 214 259 306
#
# _framework density 18.571511000000001
#
# number of rings (size 3 to 8) (size 9 to 14) (size 15 to 20)
#    0.000    2.000    0.000    3.857    0.000    0.000 
#    0.000   10.714    0.000    6.857    0.000    0.000 
#    0.000    0.000    0.000    0.000    0.000    0.000 
#
# Total GULP energy -347071.401042 kJ/mol
# GULP energy per Si atom -12395.407180 kJ/mol
# Density = 1.852924 g / cm^3
# Si number density = 18.571511 Si / 1000 Ang^3
#
#
#
# Elastic Constant Matrix: (Units=GPa)
#
#
# Indices 1 2 3 4 5 6 
#
# 1 87.7104 20.9046 23.8501 0.0000 2.2073 0.0000
# 2 20.9046 79.5937 21.5179 0.0000 -6.9256 0.0000
# 3 23.8501 21.5179 70.5185 0.0000 -0.0546 0.0000
# 4 0.0000 0.0000 0.0000 7.6029 0.0000 8.4768
# 5 2.2073 -6.9256 -0.0546 0.0000 29.3749 0.0000
# 6 0.0000 0.0000 0.0000 8.4768 0.0000 22.7915
#
#
#
# Elastic Compliance Matrix: (Units=1/GPa)
#
#
# Indices 1 2 3 4 5 6 
#
# 1 0.013043 -0.002585 -0.003624 0.000000 -0.001596 0.000000
# 2 -0.002585 0.014517 -0.003553 0.000000 0.003610 0.000000
# 3 -0.003624 -0.003553 0.016490 0.000000 -0.000535 0.000000
# 4 0.000000 0.000000 0.000000 0.224711 0.000000 -0.083577
# 5 -0.001596 0.003610 -0.000535 0.000000 0.035013 0.000000
# 6 0.000000 0.000000 0.000000 -0.083577 0.000000 0.074961
#
#
# Mechanical properties :
#
#
# Convention : Reuss Voigt Hill
#
# Bulk Modulus (GPa) = 40.77073 41.15196 40.96135
# Shear Modulus (GPa) = 12.30215 23.39053 17.84634
#
# Velocity S-wave (km/s) = 2.57655 3.55277 3.10329
# Velocity P-wave (km/s) = 5.55450 6.24791 5.91138
#
# Compressibility (1/GPa) = 0.02452740
#
# Stress axis : x y z
#
# Youngs Moduli (GPa) = 76.67102 68.88327 60.64311
#
# Poissons Ratio (x) = 0.17805 0.21975
# Poissons Ratio (y) = 0.19818 0.21545
# Poissons Ratio (z) = 0.27783 0.24473
#
# Static dielectric constant tensor:
#      x y z
#    x 3.532690 0.000000 0.190370 
#    y 0.000000 3.511650 0.000000 
#    z 0.190370 0.000000 3.476370 
# 
# 
# High freq. dielectric constant tensor:
#      x y z
#    x 1.731380 0.000000 0.013540 
#    y 0.000000 1.718870 0.000000 
#    z 0.013540 0.000000 1.726830 
# 
# From -- ./inp_files/21440.got.cif
#   From: 2010.06.25/outbox.cif.g09.slc.cpg/sg11_11_cif.got.tgz:21440.got - 2010.06.27 23:14:04.
