data_PCOD8073603
_publ_section_title
;
Structure prediction by ZEFSAII (Michael W. Deem and Ramdas Pophale) SiO2 
 PCOD8073603
Probable space group: P 21/M
;
_chemical_formula_sum "Si O2"
_cell_formula_units_Z 32
_cell_length_a 21.511441
_cell_length_b 10.558190
_cell_length_c 21.682188
_cell_angle_alpha 90.000000
_cell_angle_beta 159.460408
_cell_angle_gamma 90.000000
_cell_volume 1727.782987
_symmetry_space_group_name_H-M "P 21/M"
_symmetry_group_IT_number 11
_symmetry_cell_setting 'monoclinic'
loop_
_space_group_symop_operation_xyz
x,y,z
-x,1/2+y,-z
-x,-y,-z
x,1/2-y,z
loop_
_atom_site_type_symbol
_atom_site_label
_atom_site_fract_x
_atom_site_fract_y
_atom_site_fract_z
Si Si1 0.609750 0.102042 0.756086
Si Si2 0.868379 0.894978 0.582661
Si Si3 0.771805 0.899411 0.623795
Si Si4 0.595432 0.608409 0.978495
Si Si5 0.966741 0.098252 0.023690
Si Si6 0.533266 0.104228 0.823578
Si Si7 0.921770 0.499606 0.330864
Si Si8 0.770764 0.110025 0.304733
O O1 0.607806 0.250000 0.743957
O O2 0.428729 0.044389 0.558200
O O3 0.619941 0.071968 0.838063
O O4 0.782206 0.050615 0.881419
O O5 0.920122 0.750000 0.635464
O O6 0.867233 0.954916 0.650814
O O7 0.677492 0.914253 0.374185
O O8 0.022248 0.955779 0.684972
O O9 0.756466 0.750000 0.598700
O O10 0.878794 0.932180 0.784196
O O11 0.568572 0.750000 0.925231
O O12 0.613966 0.498546 0.944820
O O13 0.432863 0.571543 0.872389
O O14 0.778971 0.611931 0.188018
O O15 0.967570 0.250000 0.006495
O O16 0.000000 0.000000 0.000000
O O17 0.578245 0.250000 0.884690
O O18 0.814407 0.397664 0.272426
O O19 0.098960 0.527097 0.533046
O O20 0.804458 0.250000 0.359745
#
# Coordination Sequence:
#
# PCOD8073603 Si02
#       8
#     4   4   4   4   4   4   4   4
#     4   8  16  32  54  79 109 140 178 221 268 311
#     4   9  17  32  56  85 110 133 183 239 279 317
#     4   8  16  31  52  79 108 139 174 223 271 315
#     4  11  23  38  54  79 113 150 182 220 280 342
#     4  10  20  34  55  81 111 146 177 217 264 315
#     4   9  18  35  58  85 110 139 181 233 274 323
#     4  11  21  35  57  79 102 145 190 228 273 331
#     4  10  22  39  53  73 110 147 184 229 279 332
#
# _framework density 18.520845000000001
#
# number of rings (size 3 to 8) (size 9 to 14) (size 15 to 20)
#    0.000    2.500    1.250    2.625    1.750    1.500 
#    0.000    1.250    0.000    3.000    0.000    0.000 
#    0.000    0.000    0.000    0.000    0.000    0.000 
#
# Total GULP energy -396420.089827 kJ/mol
# GULP energy per Si atom -12388.127807 kJ/mol
# Density = 1.847869 g / cm^3
# Si number density = 18.520845 Si / 1000 Ang^3
#
#
#
# Elastic Constant Matrix: (Units=GPa)
#
#
# Indices 1 2 3 4 5 6 
#
# 1 123.1375 43.6353 49.1784 0.0000 19.6671 0.0000
# 2 43.6353 62.2547 30.9756 0.0000 2.1912 0.0000
# 3 49.1784 30.9756 86.9844 0.0000 15.5007 0.0000
# 4 0.0000 0.0000 0.0000 16.3270 0.0000 -1.1442
# 5 19.6671 2.1912 15.5007 0.0000 29.4115 0.0000
# 6 0.0000 0.0000 0.0000 -1.1442 0.0000 26.7465
#
#
#
# Elastic Compliance Matrix: (Units=1/GPa)
#
#
# Indices 1 2 3 4 5 6 
#
# 1 0.013157 -0.007117 -0.003786 0.000000 -0.006272 0.000000
# 2 -0.007117 0.023532 -0.005399 0.000000 0.005851 0.000000
# 3 -0.003786 -0.005399 0.016595 0.000000 -0.005812 0.000000
# 4 0.000000 0.000000 0.000000 0.061432 0.000000 0.002628
# 5 -0.006272 0.005851 -0.005812 0.000000 0.040822 0.000000
# 6 0.000000 0.000000 0.000000 0.002628 0.000000 0.037500
#
#
# Mechanical properties :
#
#
# Convention : Reuss Voigt Hill
#
# Bulk Modulus (GPa) = 48.35698 57.77280 53.06489
# Shear Modulus (GPa) = 21.50202 24.40283 22.95243
#
# Velocity S-wave (km/s) = 3.41099 3.63380 3.52415
# Velocity P-wave (km/s) = 6.45595 6.99050 6.72854
#
# Compressibility (1/GPa) = 0.02067954
#
# Stress axis : x y z
#
# Youngs Moduli (GPa) = 76.00488 42.49564 60.25819
#
# Poissons Ratio (x) = 0.30245 0.22816
# Poissons Ratio (y) = 0.54094 0.32531
# Poissons Ratio (z) = 0.28779 0.22942
#
# Static dielectric constant tensor:
#      x y z
#    x 3.561160 0.000000 0.279670 
#    y 0.000000 3.020140 0.000000 
#    z 0.279670 0.000000 3.747580 
# 
# 
# High freq. dielectric constant tensor:
#      x y z
#    x 1.717570 0.000000 0.013600 
#    y 0.000000 1.674650 0.000000 
#    z 0.013600 0.000000 1.733480 
# 
# From -- ./inp_files/66531.got.cif
#   From: 2010.06.25/outbox.cif.g09.slc.cpg/sg11_34_cif.got.tgz:66531.got - 2010.06.27 23:14:04.
