data_PCOD8073216
_publ_section_title
;
Structure prediction by ZEFSAII (Michael W. Deem and Ramdas Pophale) SiO2 
 PCOD8073216
Probable space group: P 21/M
;
_chemical_formula_sum "Si O2"
_cell_formula_units_Z 32
_cell_length_a 12.459175
_cell_length_b 9.550290
_cell_length_c 29.053086
_cell_angle_alpha 90.000000
_cell_angle_beta 150.802316
_cell_angle_gamma 90.000000
_cell_volume 1686.403949
_symmetry_space_group_name_H-M "P 21/M"
_symmetry_group_IT_number 11
_symmetry_cell_setting 'monoclinic'
loop_
_space_group_symop_operation_xyz
x,y,z
-x,1/2+y,-z
-x,-y,-z
x,1/2-y,z
loop_
_atom_site_type_symbol
_atom_site_label
_atom_site_fract_x
_atom_site_fract_y
_atom_site_fract_z
Si Si1 0.382086 0.903945 0.991604
Si Si2 0.793020 0.089418 0.624628
Si Si3 0.786179 0.585089 0.436596
Si Si4 0.278835 0.097807 0.800304
Si Si5 0.583633 0.912474 0.860375
Si Si6 0.370797 0.085971 0.520261
Si Si7 0.907394 0.905539 0.063242
Si Si8 0.601084 0.093298 0.778356
O O1 0.323910 0.750000 0.949779
O O2 0.544084 0.888696 0.094247
O O3 0.500000 0.000000 0.000000
O O4 0.160146 0.980542 0.924286
O O5 0.752592 0.250000 0.595031
O O6 0.628357 0.051032 0.605189
O O7 0.042690 0.061224 0.734521
O O8 0.767701 0.996230 0.569596
O O9 0.841727 0.750000 0.457092
O O10 0.702758 0.537247 0.456180
O O11 0.590128 0.548756 0.328175
O O12 0.000000 0.500000 0.500000
O O13 0.263056 0.250000 0.769097
O O14 0.356874 0.978282 0.794534
O O15 0.540072 0.750000 0.836379
O O16 0.628748 0.981973 0.828695
O O17 0.795184 0.941317 0.971954
O O18 0.323806 0.250000 0.497173
O O19 0.824959 0.750000 0.046959
O O20 0.168477 0.908914 0.161580
O O21 0.557006 0.250000 0.781340
#
# Coordination Sequence:
#
# PCOD8073216 Si02
#       8
#     4   4   4   4   4   4   4   4
#     4  10  20  34  53  78 110 145 178 219 270 323
#     4   9  18  34  58  82 103 135 178 224 271 324
#     4  10  23  40  57  79 110 147 186 229 276 333
#     4   9  19  34  53  78 106 140 180 219 265 326
#     4  10  20  33  53  82 113 142 177 228 274 319
#     4   9  19  36  55  78 107 136 174 225 279 324
#     4   9  19  36  56  79 108 142 183 226 271 325
#     4  10  21  37  57  79 105 146 187 222 272 332
#
# _framework density 18.975287000000002
#
# number of rings (size 3 to 8) (size 9 to 14) (size 15 to 20)
#    0.000    2.500    0.000    1.125    1.750    4.000 
#    0.000    3.750    0.000    3.000    0.000    0.000 
#    0.000    0.000    0.000    0.000    0.000    0.000 
#
# Total GULP energy -396604.824532 kJ/mol
# GULP energy per Si atom -12393.900767 kJ/mol
# Density = 1.893210 g / cm^3
# Si number density = 18.975287 Si / 1000 Ang^3
#
#
#
# Elastic Constant Matrix: (Units=GPa)
#
#
# Indices 1 2 3 4 5 6 
#
# 1 104.0796 60.0153 32.1912 0.0000 11.1587 0.0000
# 2 60.0153 107.8704 32.0854 0.0000 5.3187 0.0000
# 3 32.1912 32.0854 84.0295 0.0000 25.5393 0.0000
# 4 0.0000 0.0000 0.0000 20.4952 0.0000 1.1644
# 5 11.1587 5.3187 25.5393 0.0000 24.2437 0.0000
# 6 0.0000 0.0000 0.0000 1.1644 0.0000 38.0745
#
#
#
# Elastic Compliance Matrix: (Units=1/GPa)
#
#
# Indices 1 2 3 4 5 6 
#
# 1 0.014895 -0.007586 -0.001812 0.000000 -0.003283 0.000000
# 2 -0.007586 0.014454 -0.003987 0.000000 0.004521 0.000000
# 3 -0.001812 -0.003987 0.020002 0.000000 -0.019362 0.000000
# 4 0.000000 0.000000 0.000000 0.048877 0.000000 -0.001495
# 5 -0.003283 0.004521 -0.019362 0.000000 0.062164 0.000000
# 6 0.000000 0.000000 0.000000 -0.001495 0.000000 0.026310
#
#
# Mechanical properties :
#
#
# Convention : Reuss Voigt Hill
#
# Bulk Modulus (GPa) = 44.28455 60.50702 52.39578
# Shear Modulus (GPa) = 22.62471 28.00852 25.31662
#
# Velocity S-wave (km/s) = 3.45675 3.84611 3.65662
# Velocity P-wave (km/s) = 6.27063 7.18888 6.74540
#
# Compressibility (1/GPa) = 0.02258124
#
# Stress axis : x y z
#
# Youngs Moduli (GPa) = 67.13779 69.18493 49.99588
#
# Poissons Ratio (x) = 0.52485 0.09057
# Poissons Ratio (y) = 0.50932 0.19932
# Poissons Ratio (z) = 0.12163 0.27582
#
# Static dielectric constant tensor:
#      x y z
#    x 3.453550 0.000000 0.180560 
#    y 0.000000 3.843260 0.000000 
#    z 0.180560 0.000000 3.411510 
# 
# 
# High freq. dielectric constant tensor:
#      x y z
#    x 1.733110 0.000000 0.015200 
#    y 0.000000 1.743620 0.000000 
#    z 0.015200 0.000000 1.729480 
# 
# From -- ./inp_files/45234.got.cif
#   From: 2010.06.25/outbox.cif.g09.slc.cpg/sg11_23_cif.got.tgz:45234.got - 2010.06.27 23:14:04.
