data_PCOD8073631
_publ_section_title
;
Structure prediction by ZEFSAII (Michael W. Deem and Ramdas Pophale) SiO2 
 PCOD8073631
Probable space group: P 21/M
;
_chemical_formula_sum "Si O2"
_cell_formula_units_Z 24
_cell_length_a 21.591233
_cell_length_b 9.442813
_cell_length_c 7.956734
_cell_angle_alpha 90.000000
_cell_angle_beta 126.126385
_cell_angle_gamma 90.000000
_cell_volume 1310.308888
_symmetry_space_group_name_H-M "P 21/M"
_symmetry_group_IT_number 11
_symmetry_cell_setting 'monoclinic'
loop_
_space_group_symop_operation_xyz
x,y,z
-x,1/2+y,-z
-x,-y,-z
x,1/2-y,z
loop_
_atom_site_type_symbol
_atom_site_label
_atom_site_fract_x
_atom_site_fract_y
_atom_site_fract_z
Si Si1 0.525019 0.402330 0.896108
Si Si2 0.428895 0.405741 0.442188
Si Si3 0.159505 0.584877 0.735095
Si Si4 0.091566 0.085140 0.312779
Si Si5 0.667930 0.413405 0.907072
Si Si6 0.910658 0.087306 0.019380
O O1 0.550068 0.250000 0.007755
O O2 0.446433 0.385485 0.665512
O O3 0.600071 0.464218 0.922688
O O4 0.500000 0.500000 0.000000
O O5 0.500000 0.500000 0.500000
O O6 0.426913 0.250000 0.351400
O O7 0.348022 0.488297 0.282335
O O8 0.139514 0.750000 0.670528
O O9 0.126180 0.490438 0.532074
O O10 0.126943 0.536881 0.864922
O O11 0.250259 0.557666 0.880208
O O12 0.116698 0.250000 0.348047
O O13 0.000945 0.070219 0.184883
O O14 0.119229 0.008788 0.184239
O O15 0.658710 0.250000 0.839259
O O16 0.887753 0.250000 0.944299
#
# Coordination Sequence:
#
# PCOD8073631 Si02
#       6
#     4   4   4   4   4   4
#     4   9  18  32  50  73  98 127 166 207 250 303
#     4   9  17  31  51  72  96 127 165 207 249 300
#     4  10  20  36  57  79 109 146 183 224 272 326
#     4  10  20  34  55  83 112 142 181 228 271 320
#     4   9  19  35  52  74 101 131 171 214 259 311
#     4   9  19  36  57  80 107 145 187 223 268 323
#
# _framework density 18.316292000000001
#
# number of rings (size 3 to 8) (size 9 to 14) (size 15 to 20)
#    0.000    2.667    0.000    2.500    0.000    5.333 
#    3.000    0.000    0.000    0.000    0.000    0.000 
#    0.000    0.000    0.000    0.000    0.000    0.000 
#
# Total GULP energy -297320.395688 kJ/mol
# GULP energy per Si atom -12388.349820 kJ/mol
# Density = 1.827460 g / cm^3
# Si number density = 18.316292 Si / 1000 Ang^3
#
#
#
# Elastic Constant Matrix: (Units=GPa)
#
#
# Indices 1 2 3 4 5 6 
#
# 1 74.9758 42.3155 57.0712 0.0000 -14.6244 0.0000
# 2 42.3155 122.2861 77.0946 0.0000 -14.2738 0.0000
# 3 57.0712 77.0946 107.3131 0.0000 -17.8458 0.0000
# 4 0.0000 0.0000 0.0000 40.3345 0.0000 -3.3168
# 5 -14.6244 -14.2738 -17.8458 0.0000 24.4878 0.0000
# 6 0.0000 0.0000 0.0000 -3.3168 0.0000 22.5042
#
#
#
# Elastic Compliance Matrix: (Units=1/GPa)
#
#
# Indices 1 2 3 4 5 6 
#
# 1 0.023049 -0.000334 -0.011107 0.000000 0.005476 0.000000
# 2 -0.000334 0.014974 -0.010425 0.000000 0.000931 0.000000
# 3 -0.011107 -0.010425 0.023442 0.000000 0.004374 0.000000
# 4 0.000000 0.000000 0.000000 0.025097 0.000000 0.003699
# 5 0.005476 0.000931 0.004374 0.000000 0.047837 0.000000
# 6 0.000000 0.000000 0.000000 0.003699 0.000000 0.044981
#
#
# Mechanical properties :
#
#
# Convention : Reuss Voigt Hill
#
# Bulk Modulus (GPa) = 56.39253 73.05973 64.72613
# Shear Modulus (GPa) = 21.83164 26.00490 23.91827
#
# Velocity S-wave (km/s) = 3.45617 3.77207 3.61757
# Velocity P-wave (km/s) = 6.83973 7.67762 7.27075
#
# Compressibility (1/GPa) = 0.01773284
#
# Stress axis : x y z
#
# Youngs Moduli (GPa) = 43.38559 66.78094 42.65766
#
# Poissons Ratio (x) = 0.02231 0.47381
# Poissons Ratio (y) = 0.01450 0.44471
# Poissons Ratio (z) = 0.48190 0.69620
#
# Static dielectric constant tensor:
#      x y z
#    x 2.383720 0.000000 -0.780300 
#    y 0.000000 4.047490 0.000000 
#    z -0.780300 0.000000 2.879380 
# 
# 
# High freq. dielectric constant tensor:
#      x y z
#    x 1.684510 0.000000 -0.000080 
#    y 0.000000 1.720530 0.000000 
#    z -0.000080 0.000000 1.710460 
# 
# From -- ./inp_files/27329.got.cif
#   From: 2010.06.25/outbox.cif.g09.slc.cpg/sg11_14_cif.got.tgz:27329.got - 2010.06.27 23:14:04.
