data_PCOD8073953
_publ_section_title
;
Structure prediction by ZEFSAII (Michael W. Deem and Ramdas Pophale) SiO2 
 PCOD8073953
Probable space group: P 21/M
;
_chemical_formula_sum "Si O2"
_cell_formula_units_Z 24
_cell_length_a 12.186424
_cell_length_b 8.668647
_cell_length_c 24.565150
_cell_angle_alpha 90.000000
_cell_angle_beta 151.150219
_cell_angle_gamma 90.000000
_cell_volume 1252.153927
_symmetry_space_group_name_H-M "P 21/M"
_symmetry_group_IT_number 11
_symmetry_cell_setting 'monoclinic'
loop_
_space_group_symop_operation_xyz
x,y,z
-x,1/2+y,-z
-x,-y,-z
x,1/2-y,z
loop_
_atom_site_type_symbol
_atom_site_label
_atom_site_fract_x
_atom_site_fract_y
_atom_site_fract_z
Si Si1 0.090952 0.568498 0.932307
Si Si2 0.980535 0.433225 0.328280
Si Si3 0.509049 0.067806 0.172668
Si Si4 0.349933 0.931036 0.214422
Si Si5 0.123067 0.431881 0.273248
Si Si6 0.437247 0.431035 0.580415
O O1 0.136355 0.750000 0.957269
O O2 0.886766 0.522844 0.884097
O O3 0.029969 0.516147 0.844502
O O4 0.314379 0.474979 0.045295
O O5 0.977225 0.250000 0.326315
O O6 0.745699 0.495032 0.251017
O O7 0.008230 0.495260 0.278543
O O8 0.189204 0.494739 0.455943
O O9 0.511850 0.250000 0.184094
O O10 0.476421 0.980206 0.214993
O O11 0.295459 0.750000 0.189916
O O12 0.513515 0.976697 0.335709
O O13 0.146029 0.250000 0.284336
O O14 0.376318 0.497607 0.378680
O O15 0.448468 0.250000 0.576685
#
# Coordination Sequence:
#
# PCOD8073953 Si02
#       6
#     4   4   4   4   4   4
#     4  10  20  35  55  78 103 132 170 214 256 300
#     4   9  19  35  53  76 107 139 168 203 254 308
#     4  11  22  35  52  74 104 141 174 207 252 304
#     4  10  20  35  55  78 103 132 170 214 256 300
#     4   9  18  34  56  79 103 133 169 210 254 301
#     4   9  18  34  56  79 103 133 169 210 254 301
#
# _framework density 19.166972999999999
#
# number of rings (size 3 to 8) (size 9 to 14) (size 15 to 20)
#    0.000    2.333    0.000    2.500    0.000    2.667 
#    0.000    3.333    0.000    0.000    0.000    0.000 
#    0.000    0.000    0.000    0.000    0.000    0.000 
#
# Total GULP energy -297643.683047 kJ/mol
# GULP energy per Si atom -12401.820127 kJ/mol
# Density = 1.912335 g / cm^3
# Si number density = 19.166973 Si / 1000 Ang^3
#
#
#
# Elastic Constant Matrix: (Units=GPa)
#
#
# Indices 1 2 3 4 5 6 
#
# 1 110.1662 6.5280 84.0278 0.0000 10.8776 0.0000
# 2 6.5280 23.4482 13.1714 0.0000 -1.5932 0.0000
# 3 84.0278 13.1714 134.2199 0.0000 7.0874 0.0000
# 4 0.0000 0.0000 0.0000 18.9965 0.0000 7.4104
# 5 10.8776 -1.5932 7.0874 0.0000 25.9462 0.0000
# 6 0.0000 0.0000 0.0000 7.4104 0.0000 19.9306
#
#
#
# Elastic Compliance Matrix: (Units=1/GPa)
#
#
# Indices 1 2 3 4 5 6 
#
# 1 0.017896 0.000931 -0.011061 0.000000 -0.004424 0.000000
# 2 0.000931 0.045605 -0.005261 0.000000 0.003847 0.000000
# 3 -0.011061 -0.005261 0.014878 0.000000 0.000250 0.000000
# 4 0.000000 0.000000 0.000000 0.061571 0.000000 -0.022893
# 5 -0.004424 0.003847 0.000250 0.000000 0.040564 0.000000
# 6 0.000000 0.000000 0.000000 -0.022893 0.000000 0.058686
#
#
# Mechanical properties :
#
#
# Convention : Reuss Voigt Hill
#
# Bulk Modulus (GPa) = 21.01043 52.80985 36.91014
# Shear Modulus (GPa) = 17.49179 23.91514 20.70347
#
# Velocity S-wave (km/s) = 3.02421 3.53615 3.29015
# Velocity P-wave (km/s) = 4.81456 6.65468 5.80796
#
# Compressibility (1/GPa) = 0.04759542
#
# Stress axis : x y z
#
# Youngs Moduli (GPa) = 55.87944 21.92752 67.21171
#
# Poissons Ratio (x) = -0.02041 0.74344
# Poissons Ratio (y) = -0.05200 0.35360
# Poissons Ratio (z) = 0.61809 0.11536
#
# Static dielectric constant tensor:
#      x y z
#    x 3.694840 0.000000 -0.054880 
#    y 0.000000 3.315070 0.000000 
#    z -0.054880 0.000000 3.756640 
# 
# 
# High freq. dielectric constant tensor:
#      x y z
#    x 1.747820 0.000000 -0.008680 
#    y 0.000000 1.731300 0.000000 
#    z -0.008680 0.000000 1.753730 
# 
# From -- ./inp_files/33789.got.cif
#   From: 2010.06.25/outbox.cif.g09.slc.cpg/sg11_17_cif.got.tgz:33789.got - 2010.06.27 23:14:04.
