data_PCOD8073423
_publ_section_title
;
Structure prediction by ZEFSAII (Michael W. Deem and Ramdas Pophale) SiO2 
 PCOD8073423
Probable space group: P 21/M
;
_chemical_formula_sum "Si O2"
_cell_formula_units_Z 24
_cell_length_a 14.066917
_cell_length_b 20.895760
_cell_length_c 12.144724
_cell_angle_alpha 90.000000
_cell_angle_beta 160.020414
_cell_angle_gamma 90.000000
_cell_volume 1219.750663
_symmetry_space_group_name_H-M "P 21/M"
_symmetry_group_IT_number 11
_symmetry_cell_setting 'monoclinic'
loop_
_space_group_symop_operation_xyz
x,y,z
-x,1/2+y,-z
-x,-y,-z
x,1/2-y,z
loop_
_atom_site_type_symbol
_atom_site_label
_atom_site_fract_x
_atom_site_fract_y
_atom_site_fract_z
Si Si1 0.155794 0.933745 0.643920
Si Si2 0.309530 0.675943 0.275401
Si Si3 0.238433 0.091481 0.613472
Si Si4 0.256237 0.178315 0.434536
Si Si5 0.128237 0.965512 0.376421
Si Si6 0.550313 0.946371 0.648148
O O1 0.149011 0.918403 0.505719
O O2 0.971203 0.884541 0.516817
O O3 0.475956 0.936911 0.027965
O O4 0.000000 0.000000 0.500000
O O5 0.325417 0.750000 0.338336
O O6 0.457407 0.671538 0.318373
O O7 0.453568 0.625592 0.513645
O O8 0.996048 0.650061 0.914153
O O9 0.303110 0.150089 0.605521
O O10 0.085508 0.037428 0.373820
O O11 0.163656 0.250000 0.356083
O O12 0.405890 0.965329 0.605396
O O13 0.878321 0.943608 0.026353
O O14 0.500000 0.000000 0.500000
#
# Coordination Sequence:
#
# PCOD8073423 Si02
#       6
#     4   4   4   4   4   4
#     4  10  20  34  53  77 105 140 171 206 265 329
#     4  10  21  37  54  76 108 144 177 209 262 326
#     4  11  19  34  56  79 108 135 171 217 268 316
#     4  10  20  35  56  80 105 136 174 217 265 315
#     4  11  21  34  52  78 108 136 172 215 261 309
#     4  12  22  34  54  80 107 135 176 224 262 297
#
# _framework density 19.676154
#
# number of rings (size 3 to 8) (size 9 to 14) (size 15 to 20)
#    0.000    1.333    0.000    9.500    0.000    0.000 
#    0.000    0.000    0.000    6.000    0.000    0.000 
#    0.000    0.000    0.000    0.000    0.000    0.000 
#
# Total GULP energy -297491.146284 kJ/mol
# GULP energy per Si atom -12395.464429 kJ/mol
# Density = 1.963137 g / cm^3
# Si number density = 19.676154 Si / 1000 Ang^3
#
#
#
# Elastic Constant Matrix: (Units=GPa)
#
#
# Indices 1 2 3 4 5 6 
#
# 1 113.6267 18.3220 1.1322 0.0000 -5.1310 0.0000
# 2 18.3220 48.6012 22.5058 0.0000 -12.4508 0.0000
# 3 1.1322 22.5058 88.0869 0.0000 -8.1646 0.0000
# 4 0.0000 0.0000 0.0000 18.9391 0.0000 -3.4568
# 5 -5.1310 -12.4508 -8.1646 0.0000 33.7651 0.0000
# 6 0.0000 0.0000 0.0000 -3.4568 0.0000 26.0625
#
#
#
# Elastic Compliance Matrix: (Units=1/GPa)
#
#
# Indices 1 2 3 4 5 6 
#
# 1 0.009433 -0.003920 0.000899 0.000000 0.000205 0.000000
# 2 -0.003920 0.026884 -0.006091 0.000000 0.007845 0.000000
# 3 0.000899 -0.006091 0.012993 0.000000 0.001032 0.000000
# 4 0.000000 0.000000 0.000000 0.054111 0.000000 0.007177
# 5 0.000205 0.007845 0.001032 0.000000 0.032790 0.000000
# 6 0.000000 0.000000 0.000000 0.007177 0.000000 0.039321
#
#
# Mechanical properties :
#
#
# Convention : Reuss Voigt Hill
#
# Bulk Modulus (GPa) = 32.16879 37.13722 34.65300
# Shear Modulus (GPa) = 24.49572 29.64365 27.06968
#
# Velocity S-wave (km/s) = 3.53220 3.88568 3.71315
# Velocity P-wave (km/s) = 5.74630 6.24872 6.00277
#
# Compressibility (1/GPa) = 0.03108603
#
# Stress axis : x y z
#
# Youngs Moduli (GPa) = 106.00908 37.19722 76.96561
#
# Poissons Ratio (x) = 0.14581 -0.06922
# Poissons Ratio (y) = 0.41556 0.46881
# Poissons Ratio (z) = -0.09534 0.22657
#
# Static dielectric constant tensor:
#      x y z
#    x 4.264590 0.000000 0.124930 
#    y 0.000000 3.428730 0.000000 
#    z 0.124930 0.000000 3.647520 
# 
# 
# High freq. dielectric constant tensor:
#      x y z
#    x 1.783560 0.000000 0.014720 
#    y 0.000000 1.728610 0.000000 
#    z 0.014720 0.000000 1.777530 
# 
# From -- ./inp_files/4806.got.cif
#   From: 2010.06.25/outbox.cif.g09.slc.cpg/sg11_3_cif.got.tgz:4806.got - 2010.06.27 23:14:04.
