data_PCOD8073035
_publ_section_title
;
Structure prediction by ZEFSAII (Michael W. Deem and Ramdas Pophale) SiO2 
 PCOD8073035
Probable space group: P 21/M
;
_chemical_formula_sum "Si O2"
_cell_formula_units_Z 32
_cell_length_a 22.508686
_cell_length_b 8.931975
_cell_length_c 14.272247
_cell_angle_alpha 90.000000
_cell_angle_beta 36.732835
_cell_angle_gamma 90.000000
_cell_volume 1716.139405
_symmetry_space_group_name_H-M "P 21/M"
_symmetry_group_IT_number 11
_symmetry_cell_setting 'monoclinic'
loop_
_space_group_symop_operation_xyz
x,y,z
-x,1/2+y,-z
-x,-y,-z
x,1/2-y,z
loop_
_atom_site_type_symbol
_atom_site_label
_atom_site_fract_x
_atom_site_fract_y
_atom_site_fract_z
Si Si1 0.137685 0.572846 0.152357
Si Si2 0.392664 0.572390 0.128985
Si Si3 0.470866 0.421173 0.629836
Si Si4 0.243510 0.573923 0.479684
Si Si5 0.261418 0.426252 0.848422
Si Si6 0.234663 0.426632 0.204952
Si Si7 0.088529 0.075627 0.555088
Si Si8 0.321375 0.574091 0.578780
O O1 0.150226 0.750000 0.145730
O O2 0.206950 0.490326 0.139318
O O3 0.024463 0.521597 0.311595
O O4 0.169699 0.516723 0.008713
O O5 0.401779 0.750000 0.106533
O O6 0.332264 0.525006 0.298308
O O7 0.336051 0.505066 0.110517
O O8 0.500000 0.500000 0.000000
O O9 0.500000 0.500000 0.500000
O O10 0.470509 0.250000 0.603300
O O11 0.356569 0.464515 0.797027
O O12 0.559561 0.455583 0.591517
O O13 0.231629 0.750000 0.493333
O O14 0.139394 0.504285 0.579175
O O15 0.266337 0.516220 0.555451
O O16 0.237456 0.250000 0.876257
O O17 0.280012 0.482101 0.719188
O O18 0.253154 0.250000 0.174611
O O19 0.145049 0.468062 0.388420
O O20 0.094393 0.250000 0.568155
O O21 0.302698 0.750000 0.620438
#
# Coordination Sequence:
#
# PCOD8073035 Si02
#       8
#     4   4   4   4   4   4   4   4
#     4  11  22  36  54  78 106 137 172 216 268 320
#     4  10  20  35  54  81 115 148 179 216 259 308
#     4   8  15  28  47  69  97 130 165 203 247 297
#     4   9  19  34  55  79 104 138 180 219 261 312
#     4  10  20  33  50  77 107 137 173 215 259 309
#     4  10  20  36  57  80 105 137 175 218 265 316
#     4   9  20  37  56  77 103 134 172 218 267 315
#     4   9  17  33  54  75 101 137 174 213 259 307
#
# _framework density 18.646504
#
# number of rings (size 3 to 8) (size 9 to 14) (size 15 to 20)
#    0.000    2.500    0.000    1.875    0.000    4.000 
#    0.000    3.125    0.000    0.000    0.000    0.000 
#    0.000    0.000    0.000    0.000    0.000    0.000 
#
# Total GULP energy -396616.491673 kJ/mol
# GULP energy per Si atom -12394.265365 kJ/mol
# Density = 1.860406 g / cm^3
# Si number density = 18.646504 Si / 1000 Ang^3
#
#
#
# Elastic Constant Matrix: (Units=GPa)
#
#
# Indices 1 2 3 4 5 6 
#
# 1 122.5467 39.5148 47.0825 0.0000 -5.8270 0.0000
# 2 39.5148 59.7344 36.9820 0.0000 -7.1923 0.0000
# 3 47.0825 36.9820 85.2082 0.0000 -11.6723 0.0000
# 4 0.0000 0.0000 0.0000 27.2912 0.0000 -1.7504
# 5 -5.8270 -7.1923 -11.6723 0.0000 24.3911 0.0000
# 6 0.0000 0.0000 0.0000 -1.7504 0.0000 32.9912
#
#
#
# Elastic Compliance Matrix: (Units=1/GPa)
#
#
# Indices 1 2 3 4 5 6 
#
# 1 0.011352 -0.004996 -0.004211 0.000000 -0.000776 0.000000
# 2 -0.004996 0.025195 -0.007834 0.000000 0.002487 0.000000
# 3 -0.004211 -0.007834 0.018202 0.000000 0.005394 0.000000
# 4 0.000000 0.000000 0.000000 0.036767 0.000000 0.001951
# 5 -0.000776 0.002487 0.005394 0.000000 0.044128 0.000000
# 6 0.000000 0.000000 0.000000 0.001951 0.000000 0.030415
#
#
# Mechanical properties :
#
#
# Convention : Reuss Voigt Hill
#
# Bulk Modulus (GPa) = 48.38480 57.18311 52.78395
# Shear Modulus (GPa) = 24.15127 26.52869 25.33998
#
# Velocity S-wave (km/s) = 3.60282 3.77598 3.69042
# Velocity P-wave (km/s) = 6.58117 7.05296 6.82115
#
# Compressibility (1/GPa) = 0.02066765
#
# Stress axis : x y z
#
# Youngs Moduli (GPa) = 88.09105 39.69012 54.94034
#
# Poissons Ratio (x) = 0.19829 0.23133
# Poissons Ratio (y) = 0.44011 0.43040
# Poissons Ratio (z) = 0.37091 0.31093
#
# Static dielectric constant tensor:
#      x y z
#    x 2.751070 0.000000 0.307680 
#    y 0.000000 3.382200 0.000000 
#    z 0.307680 0.000000 3.109240 
# 
# 
# High freq. dielectric constant tensor:
#      x y z
#    x 1.721670 0.000000 -0.010310 
#    y 0.000000 1.727340 0.000000 
#    z -0.010310 0.000000 1.715600 
# 
# From -- ./inp_files/55589.got.cif
#   From: 2010.06.25/outbox.cif.g09.slc.cpg/sg11_28_cif.got.tgz:55589.got - 2010.06.27 23:14:04.
