data_PCOD8073065
_publ_section_title
;
Structure prediction by ZEFSAII (Michael W. Deem and Ramdas Pophale) SiO2 
 PCOD8073065
Probable space group: P 21/M
;
_chemical_formula_sum "Si O2"
_cell_formula_units_Z 32
_cell_length_a 25.644910
_cell_length_b 9.140856
_cell_length_c 15.888106
_cell_angle_alpha 90.000000
_cell_angle_beta 151.236080
_cell_angle_gamma 90.000000
_cell_volume 1792.203735
_symmetry_space_group_name_H-M "P 21/M"
_symmetry_group_IT_number 11
_symmetry_cell_setting 'monoclinic'
loop_
_space_group_symop_operation_xyz
x,y,z
-x,1/2+y,-z
-x,-y,-z
x,1/2-y,z
loop_
_atom_site_type_symbol
_atom_site_label
_atom_site_fract_x
_atom_site_fract_y
_atom_site_fract_z
Si Si1 0.276945 0.576440 0.036548
Si Si2 0.539637 0.421447 0.139473
Si Si3 0.034589 0.415691 0.290667
Si Si4 0.796234 0.419217 0.888249
Si Si5 0.278883 0.079811 0.382653
Si Si6 0.946716 0.419352 0.347685
Si Si7 0.518087 0.079204 0.778036
Si Si8 0.220631 0.920062 0.463393
O O1 0.267625 0.750000 0.024911
O O2 0.174056 0.516255 0.838551
O O3 0.270429 0.524248 0.124292
O O4 0.387414 0.522067 0.149977
O O5 0.514680 0.250000 0.098249
O O6 0.473744 0.487918 0.124629
O O7 0.666725 0.454175 0.330450
O O8 0.500000 0.500000 0.000000
O O9 0.075139 0.250000 0.333202
O O10 0.124341 0.528310 0.386740
O O11 0.018442 0.445310 0.366386
O O12 0.923584 0.441868 0.083465
O O13 0.770276 0.250000 0.831823
O O14 0.759722 0.518482 0.760182
O O15 0.252130 0.250000 0.348973
O O16 0.406286 0.047866 0.572102
O O17 0.212779 0.003272 0.363780
O O18 0.940232 0.250000 0.361641
O O19 0.000000 0.500000 0.500000
O O20 0.531790 0.250000 0.819498
O O21 0.207687 0.750000 0.425797
#
# Coordination Sequence:
#
# PCOD8073065 Si02
#       8
#     4   4   4   4   4   4   4   4
#     4   8  16  33  54  73  98 134 169 200 242 297
#     4  10  21  36  53  75 102 132 167 206 250 298
#     4   9  19  35  53  74 101 133 168 207 251 295
#     4   9  18  34  54  74 100 135 170 203 244 298
#     4  10  20  33  51  76 104 132 164 207 254 295
#     4   9  18  33  52  74 101 132 165 202 246 295
#     4   9  18  34  54  75 101 133 168 205 247 296
#     4  10  21  36  54  75  99 131 170 208 248 298
#
# _framework density 17.855114
#
# number of rings (size 3 to 8) (size 9 to 14) (size 15 to 20)
#    0.000    2.750    0.000    2.625    0.000    5.000 
#    0.000    6.875    0.000    0.000    0.000    0.000 
#    0.000    0.000    0.000    0.000    0.000    0.000 
#
# Total GULP energy -396823.177938 kJ/mol
# GULP energy per Si atom -12400.724311 kJ/mol
# Density = 1.781447 g / cm^3
# Si number density = 17.855114 Si / 1000 Ang^3
#
#
#
# Elastic Constant Matrix: (Units=GPa)
#
#
# Indices 1 2 3 4 5 6 
#
# 1 123.6176 63.7268 71.5650 0.0000 -5.3289 0.0000
# 2 63.7268 84.1819 52.6483 0.0000 -10.5747 0.0000
# 3 71.5650 52.6483 85.8565 0.0000 -19.1618 0.0000
# 4 0.0000 0.0000 0.0000 31.8501 0.0000 -6.0158
# 5 -5.3289 -10.5747 -19.1618 0.0000 37.7025 0.0000
# 6 0.0000 0.0000 0.0000 -6.0158 0.0000 32.7777
#
#
#
# Elastic Compliance Matrix: (Units=1/GPa)
#
#
# Indices 1 2 3 4 5 6 
#
# 1 0.018773 -0.007048 -0.012605 0.000000 -0.005730 0.000000
# 2 -0.007048 0.021930 -0.007244 0.000000 0.001473 0.000000
# 3 -0.012605 -0.007244 0.029039 0.000000 0.010945 0.000000
# 4 0.000000 0.000000 0.000000 0.032525 0.000000 0.005969
# 5 -0.005730 0.001473 0.010945 0.000000 0.031690 0.000000
# 6 0.000000 0.000000 0.000000 0.005969 0.000000 0.031604
#
#
# Mechanical properties :
#
#
# Convention : Reuss Voigt Hill
#
# Bulk Modulus (GPa) = 62.70431 74.39291 68.54861
# Shear Modulus (GPa) = 22.25469 27.51381 24.88425
#
# Velocity S-wave (km/s) = 3.53428 3.92975 3.73725
# Velocity P-wave (km/s) = 7.20066 7.89594 7.55630
#
# Compressibility (1/GPa) = 0.01594787
#
# Stress axis : x y z
#
# Youngs Moduli (GPa) = 53.26764 45.59935 34.43590
#
# Poissons Ratio (x) = 0.32138 0.43407
# Poissons Ratio (y) = 0.37542 0.24947
# Poissons Ratio (z) = 0.67145 0.33034
#
# Static dielectric constant tensor:
#      x y z
#    x 3.434600 0.000000 0.072920 
#    y 0.000000 3.197910 0.000000 
#    z 0.072920 0.000000 3.283570 
# 
# 
# High freq. dielectric constant tensor:
#      x y z
#    x 1.698060 0.000000 -0.001840 
#    y 0.000000 1.681960 0.000000 
#    z -0.001840 0.000000 1.689690 
# 
# From -- ./inp_files/51782.got.cif
#   From: 2010.06.25/outbox.cif.g09.slc.cpg/sg11_26_cif.got.tgz:51782.got - 2010.06.27 23:14:04.
