data_PCOD8073357
_publ_section_title
;
Structure prediction by ZEFSAII (Michael W. Deem and Ramdas Pophale) SiO2 
 PCOD8073357
Probable space group: P 21/M
;
_chemical_formula_sum "Si O2"
_cell_formula_units_Z 28
_cell_length_a 20.224043
_cell_length_b 9.170934
_cell_length_c 22.902264
_cell_angle_alpha 90.000000
_cell_angle_beta 19.020624
_cell_angle_gamma 90.000000
_cell_volume 1384.380981
_symmetry_space_group_name_H-M "P 21/M"
_symmetry_group_IT_number 11
_symmetry_cell_setting 'monoclinic'
loop_
_space_group_symop_operation_xyz
x,y,z
-x,1/2+y,-z
-x,-y,-z
x,1/2-y,z
loop_
_atom_site_type_symbol
_atom_site_label
_atom_site_fract_x
_atom_site_fract_y
_atom_site_fract_z
Si Si1 0.332105 0.913824 0.861971
Si Si2 0.539144 0.080056 0.788037
Si Si3 0.556620 0.087349 0.510086
Si Si4 0.856500 0.912650 0.076794
Si Si5 0.394724 0.420056 0.035091
Si Si6 0.057603 0.580057 0.615217
Si Si7 0.750125 0.913824 0.443951
O O1 0.253658 0.750000 0.939181
O O2 0.534541 0.910831 0.655152
O O3 0.374709 0.991981 0.887731
O O4 0.157688 0.002009 0.972895
O O5 0.492748 0.250000 0.817033
O O6 0.768878 0.041173 0.577041
O O7 0.509269 0.034338 0.880014
O O8 0.632766 0.250000 0.429834
O O9 0.364476 0.099650 0.711841
O O10 0.500000 0.000000 0.500000
O O11 0.734064 0.002010 0.396519
O O12 0.944965 0.750000 0.992435
O O13 0.000000 0.000000 0.000000
O O14 0.417158 0.250000 0.027606
O O15 0.158579 0.465653 0.230707
O O16 0.500000 0.500000 0.000000
O O17 0.063414 0.750000 0.626808
O O18 0.087383 0.491979 0.650174
O O19 0.824862 0.750000 0.367977
#
# Coordination Sequence:
#
# PCOD8073357 Si02
#       7
#     4   4   4   4   4   4   4
#     4   9  17  31  53  78 103 135 177 223 269 320
#     4   9  18  35  57  79 106 142 182 222 269 325
#     4  10  20  34  52  75 105 141 181 225 274 327
#     4  10  20  34  52  75 105 141 181 225 274 327
#     4  10  22  38  56  82 114 144 178 222 272 326
#     4   9  18  35  57  79 106 142 182 222 269 325
#     4   9  17  31  53  78 103 135 177 223 269 320
#
# _framework density 20.225646000000001
#
# number of rings (size 3 to 8) (size 9 to 14) (size 15 to 20)
#    0.000    2.571    0.000    1.714    0.000    6.857 
#    2.571    0.000    0.000    0.000    0.000    0.000 
#    0.000    0.000    0.000    0.000    0.000    0.000 
#
# Total GULP energy -347201.636669 kJ/mol
# GULP energy per Si atom -12400.058452 kJ/mol
# Density = 2.017961 g / cm^3
# Si number density = 20.225646 Si / 1000 Ang^3
#
#
#
# Elastic Constant Matrix: (Units=GPa)
#
#
# Indices 1 2 3 4 5 6 
#
# 1 205.9876 105.6244 54.5241 0.0000 -19.4228 0.0000
# 2 105.6244 152.1568 35.5121 0.0000 -14.2768 0.0000
# 3 54.5241 35.5121 67.1295 0.0000 -8.8501 0.0000
# 4 0.0000 0.0000 0.0000 16.0970 0.0000 -6.2260
# 5 -19.4228 -14.2768 -8.8501 0.0000 30.1885 0.0000
# 6 0.0000 0.0000 0.0000 -6.2260 0.0000 46.6702
#
#
#
# Elastic Compliance Matrix: (Units=1/GPa)
#
#
# Indices 1 2 3 4 5 6 
#
# 1 0.008627 -0.004820 -0.004188 0.000000 0.002044 0.000000
# 2 -0.004820 0.010373 -0.001389 0.000000 0.001398 0.000000
# 3 -0.004188 -0.001389 0.019339 0.000000 0.002318 0.000000
# 4 0.000000 0.000000 0.000000 0.065503 0.000000 0.008738
# 5 0.002044 0.001398 0.002318 0.000000 0.035781 0.000000
# 6 0.000000 0.000000 0.000000 0.008738 0.000000 0.022593
#
#
# Mechanical properties :
#
#
# Convention : Reuss Voigt Hill
#
# Bulk Modulus (GPa) = 56.99306 90.73281 73.86294
# Shear Modulus (GPa) = 26.47504 33.89869 30.18686
#
# Velocity S-wave (km/s) = 3.62191 4.09837 3.86749
# Velocity P-wave (km/s) = 6.76245 8.20690 7.51944
#
# Compressibility (1/GPa) = 0.01754600
#
# Stress axis : x y z
#
# Youngs Moduli (GPa) = 115.91013 96.40286 51.71028
#
# Poissons Ratio (x) = 0.46463 0.21658
# Poissons Ratio (y) = 0.55865 0.07180
# Poissons Ratio (z) = 0.48546 0.13386
#
# Static dielectric constant tensor:
#      x y z
#    x 3.639660 0.000000 -0.032280 
#    y 0.000000 3.942190 0.000000 
#    z -0.032280 0.000000 3.481030 
# 
# 
# High freq. dielectric constant tensor:
#      x y z
#    x 1.787740 0.000000 -0.002540 
#    y 0.000000 1.796670 0.000000 
#    z -0.002540 0.000000 1.775240 
# 
# From -- ./inp_files/66670.got.cif
#   From: 2010.06.25/outbox.cif.g09.slc.cpg/sg11_34_cif.got.tgz:66670.got - 2010.06.27 23:14:04.
