data_PCOD8073967
_publ_section_title
;
Structure prediction by ZEFSAII (Michael W. Deem and Ramdas Pophale) SiO2 
 PCOD8073967
Probable space group: P 21/M
;
_chemical_formula_sum "Si O2"
_cell_formula_units_Z 28
_cell_length_a 9.577869
_cell_length_b 8.894512
_cell_length_c 26.767736
_cell_angle_alpha 90.000000
_cell_angle_beta 140.979150
_cell_angle_gamma 90.000000
_cell_volume 1435.719349
_symmetry_space_group_name_H-M "P 21/M"
_symmetry_group_IT_number 11
_symmetry_cell_setting 'monoclinic'
loop_
_space_group_symop_operation_xyz
x,y,z
-x,1/2+y,-z
-x,-y,-z
x,1/2-y,z
loop_
_atom_site_type_symbol
_atom_site_label
_atom_site_fract_x
_atom_site_fract_y
_atom_site_fract_z
Si Si1 0.809799 0.077320 0.415971
Si Si2 0.784724 0.077707 0.827849
Si Si3 0.879785 0.426856 0.012506
Si Si4 0.534347 0.425631 0.063160
Si Si5 0.705366 0.575696 0.283625
Si Si6 0.319101 0.079370 0.299158
Si Si7 0.097330 0.578651 0.757021
O O1 0.872200 0.250000 0.427391
O O2 0.579739 0.055815 0.382890
O O3 0.798841 0.011664 0.357265
O O4 0.000000 0.000000 0.500000
O O5 0.860347 0.250000 0.855795
O O6 0.558097 0.045865 0.795517
O O7 0.747932 0.044401 0.759819
O O8 0.978721 0.966441 0.899152
O O9 0.856080 0.250000 0.999319
O O10 0.639110 0.500358 0.947300
O O11 0.000000 0.500000 0.000000
O O12 0.489022 0.250000 0.044048
O O13 0.772927 0.457231 0.154923
O O14 0.500000 0.500000 0.000000
O O15 0.753241 0.750000 0.306135
O O16 0.828651 0.526449 0.267570
O O17 0.281040 0.250000 0.268331
O O18 0.165074 0.052858 0.305096
O O19 0.146062 0.750000 0.754516
#
# Coordination Sequence:
#
# PCOD8073967 Si02
#       7
#     4   4   4   4   4   4   4
#     4  10  20  37  62  88 116 146 179 221 269 326
#     4  10  20  35  55  79 106 139 184 233 279 334
#     4  12  24  37  53  75 106 144 189 240 289 337
#     4  11  23  38  57  82 113 151 193 239 290 343
#     4  10  21  36  57  85 114 145 183 227 278 333
#     4   9  19  36  58  83 110 143 180 221 271 327
#     4  10  21  37  56  80 111 146 186 229 277 332
#
# _framework density 19.502420000000001
#
# number of rings (size 3 to 8) (size 9 to 14) (size 15 to 20)
#    0.000    1.714    0.000    4.714    0.000    7.429 
#    0.000    0.714    0.000    0.000    0.000    0.000 
#    0.000    0.000    0.000    0.000    0.000    0.000 
#
# Total GULP energy -347210.334051 kJ/mol
# GULP energy per Si atom -12400.369073 kJ/mol
# Density = 1.945803 g / cm^3
# Si number density = 19.502420 Si / 1000 Ang^3
#
#
#
# Elastic Constant Matrix: (Units=GPa)
#
#
# Indices 1 2 3 4 5 6 
#
# 1 107.0803 42.6131 26.3696 0.0000 12.8412 0.0000
# 2 42.6131 119.8474 45.5182 0.0000 5.1411 0.0000
# 3 26.3696 45.5182 84.3913 0.0000 9.8238 0.0000
# 4 0.0000 0.0000 0.0000 35.2038 0.0000 -3.6342
# 5 12.8412 5.1411 9.8238 0.0000 24.4119 0.0000
# 6 0.0000 0.0000 0.0000 -3.6342 0.0000 35.1841
#
#
#
# Elastic Compliance Matrix: (Units=1/GPa)
#
#
# Indices 1 2 3 4 5 6 
#
# 1 0.011596 -0.003463 -0.001186 0.000000 -0.004893 0.000000
# 2 -0.003463 0.011528 -0.005314 0.000000 0.001532 0.000000
# 3 -0.001186 -0.005314 0.015615 0.000000 -0.004541 0.000000
# 4 0.000000 0.000000 0.000000 0.028712 0.000000 0.002966
# 5 -0.004893 0.001532 -0.004541 0.000000 0.045042 0.000000
# 6 0.000000 0.000000 0.000000 0.002966 0.000000 0.028728
#
#
# Mechanical properties :
#
#
# Convention : Reuss Voigt Hill
#
# Bulk Modulus (GPa) = 53.15526 60.03564 56.59545
# Shear Modulus (GPa) = 29.86549 32.08115 30.97332
#
# Velocity S-wave (km/s) = 3.91752 4.06024 3.98952
# Velocity P-wave (km/s) = 6.91213 7.26851 7.09256
#
# Compressibility (1/GPa) = 0.01881281
#
# Stress axis : x y z
#
# Youngs Moduli (GPa) = 86.23963 86.74763 64.04093
#
# Poissons Ratio (x) = 0.30037 0.07596
# Poissons Ratio (y) = 0.29861 0.34032
# Poissons Ratio (z) = 0.10228 0.46099
#
# Static dielectric constant tensor:
#      x y z
#    x 3.745250 0.000000 0.575760 
#    y 0.000000 3.247900 0.000000 
#    z 0.575760 0.000000 4.523190 
# 
# 
# High freq. dielectric constant tensor:
#      x y z
#    x 1.762920 0.000000 0.012870 
#    y 0.000000 1.770560 0.000000 
#    z 0.012870 0.000000 1.743880 
# 
# From -- ./inp_files/28344.got.cif
#   From: 2010.06.25/outbox.cif.g09.slc.cpg/sg11_15_cif.got.tgz:28344.got - 2010.06.27 23:14:04.
