data_PCOD8073790
_publ_section_title
;
Structure prediction by ZEFSAII (Michael W. Deem and Ramdas Pophale) SiO2 
 PCOD8073790
Probable space group: P 21/M
;
_chemical_formula_sum "Si O2"
_cell_formula_units_Z 28
_cell_length_a 11.567287
_cell_length_b 9.351683
_cell_length_c 14.956668
_cell_angle_alpha 90.000000
_cell_angle_beta 64.206004
_cell_angle_gamma 90.000000
_cell_volume 1456.714502
_symmetry_space_group_name_H-M "P 21/M"
_symmetry_group_IT_number 11
_symmetry_cell_setting 'monoclinic'
loop_
_space_group_symop_operation_xyz
x,y,z
-x,1/2+y,-z
-x,-y,-z
x,1/2-y,z
loop_
_atom_site_type_symbol
_atom_site_label
_atom_site_fract_x
_atom_site_fract_y
_atom_site_fract_z
Si Si1 0.873290 0.914541 0.021136
Si Si2 0.184038 0.584841 0.474843
Si Si3 0.022771 0.916588 0.356322
Si Si4 0.458875 0.084664 0.101051
Si Si5 0.168214 0.411843 0.167290
Si Si6 0.471353 0.585494 0.420826
Si Si7 0.388755 0.083813 0.804034
O O1 0.910600 0.750000 0.016207
O O2 0.760416 0.953747 0.128959
O O3 0.821729 0.953305 0.940140
O O4 0.000000 0.000000 0.000000
O O5 0.160041 0.750000 0.507384
O O6 0.130946 0.550936 0.394082
O O7 0.333320 0.543426 0.426418
O O8 0.111435 0.488498 0.571815
O O9 0.997791 0.750000 0.350963
O O10 0.068495 0.982087 0.247511
O O11 0.500782 0.250000 0.077205
O O12 0.306846 0.071060 0.165143
O O13 0.522252 0.016205 0.166405
O O14 0.500000 0.000000 0.000000
O O15 0.117812 0.250000 0.195980
O O16 0.500000 0.500000 0.500000
O O17 0.473372 0.750000 0.447588
O O18 0.579352 0.551971 0.310128
O O19 0.416661 0.250000 0.819004
#
# Coordination Sequence:
#
# PCOD8073790 Si02
#       7
#     4   4   4   4   4   4   4
#     4  10  22  40  58  79 113 152 191 234 281 336
#     4   9  19  37  56  81 116 150 182 232 296 342
#     4  10  20  34  58  87 112 146 190 234 280 341
#     4  11  21  35  59  89 120 152 188 234 288 348
#     4  10  21  37  55  82 119 153 182 229 290 338
#     4  10  22  39  61  84 114 153 195 244 293 343
#     4  10  21  41  62  84 117 153 191 244 297 341
#
# _framework density 19.221337999999999
#
# number of rings (size 3 to 8) (size 9 to 14) (size 15 to 20)
#    0.000    2.000    1.429    1.714    0.000    6.286 
#    0.000    2.857    0.000    0.000    0.000    0.000 
#    0.000    0.000    0.000    0.000    0.000    0.000 
#
# Total GULP energy -347297.847735 kJ/mol
# GULP energy per Si atom -12403.494562 kJ/mol
# Density = 1.917759 g / cm^3
# Si number density = 19.221338 Si / 1000 Ang^3
#
#
#
# Elastic Constant Matrix: (Units=GPa)
#
#
# Indices 1 2 3 4 5 6 
#
# 1 103.9780 49.4748 52.9155 0.0000 -10.1566 0.0000
# 2 49.4748 92.3193 68.0322 0.0000 -6.3711 0.0000
# 3 52.9155 68.0322 147.1193 0.0000 -15.3332 0.0000
# 4 0.0000 0.0000 0.0000 35.2463 0.0000 1.9795
# 5 -10.1566 -6.3711 -15.3332 0.0000 26.8094 0.0000
# 6 0.0000 0.0000 0.0000 1.9795 0.0000 36.1770
#
#
#
# Elastic Compliance Matrix: (Units=1/GPa)
#
#
# Indices 1 2 3 4 5 6 
#
# 1 0.013568 -0.005606 -0.002011 0.000000 0.002658 0.000000
# 2 -0.005606 0.018753 -0.006819 0.000000 -0.001567 0.000000
# 3 -0.002011 -0.006819 0.011086 0.000000 0.003958 0.000000
# 4 0.000000 0.000000 0.000000 0.028459 0.000000 -0.001557
# 5 0.002658 -0.001567 0.003958 0.000000 0.040199 0.000000
# 6 0.000000 0.000000 0.000000 -0.001557 0.000000 0.027727
#
#
# Mechanical properties :
#
#
# Convention : Reuss Voigt Hill
#
# Bulk Modulus (GPa) = 68.79505 76.02906 72.41206
# Shear Modulus (GPa) = 28.81700 31.17948 29.99824
#
# Velocity S-wave (km/s) = 3.87618 4.03194 3.95482
# Velocity P-wave (km/s) = 7.47674 7.83044 7.65563
#
# Compressibility (1/GPa) = 0.01453593
#
# Stress axis : x y z
#
# Youngs Moduli (GPa) = 73.70445 53.32419 90.20177
#
# Poissons Ratio (x) = 0.29893 0.18136
# Poissons Ratio (y) = 0.41318 0.61509
# Poissons Ratio (z) = 0.14819 0.36362
#
# Static dielectric constant tensor:
#      x y z
#    x 3.463770 0.000000 -0.086310 
#    y 0.000000 3.716260 0.000000 
#    z -0.086310 0.000000 3.583120 
# 
# 
# High freq. dielectric constant tensor:
#      x y z
#    x 1.739480 0.000000 -0.008020 
#    y 0.000000 1.748880 0.000000 
#    z -0.008020 0.000000 1.754610 
# 
# From -- ./inp_files/37666.got.cif
#   From: 2010.06.25/outbox.cif.g09.slc.cpg/sg11_19_cif.got.tgz:37666.got - 2010.06.27 23:14:04.
