data_PCOD8073583
_publ_section_title
;
Structure prediction by ZEFSAII (Michael W. Deem and Ramdas Pophale) SiO2 
 PCOD8073583
Probable space group: P 21/M
;
_chemical_formula_sum "Si O2"
_cell_formula_units_Z 24
_cell_length_a 11.717010
_cell_length_b 9.234731
_cell_length_c 12.403418
_cell_angle_alpha 90.000000
_cell_angle_beta 89.271407
_cell_angle_gamma 90.000000
_cell_volume 1341.983929
_symmetry_space_group_name_H-M "P 21/M"
_symmetry_group_IT_number 11
_symmetry_cell_setting 'monoclinic'
loop_
_space_group_symop_operation_xyz
x,y,z
-x,1/2+y,-z
-x,-y,-z
x,1/2-y,z
loop_
_atom_site_type_symbol
_atom_site_label
_atom_site_fract_x
_atom_site_fract_y
_atom_site_fract_z
Si Si1 0.873583 0.918995 0.883281
Si Si2 0.100678 0.083333 0.871647
Si Si3 0.494226 0.583196 0.389025
Si Si4 0.265146 0.582708 0.282519
Si Si5 0.254311 0.415591 0.671399
Si Si6 0.881190 0.081773 0.505659
O O1 0.877163 0.750000 0.858118
O O2 0.768794 0.989808 0.821044
O O3 0.854302 0.952850 0.009548
O O4 0.992328 0.986864 0.841447
O O5 0.061742 0.250000 0.863818
O O6 0.202030 0.046397 0.788232
O O7 0.500000 0.500000 0.500000
O O8 0.472258 0.750000 0.418424
O O9 0.388922 0.525527 0.319027
O O10 0.610182 0.560241 0.320474
O O11 0.270677 0.750000 0.248424
O O12 0.172722 0.557092 0.376860
O O13 0.225948 0.250000 0.638973
O O14 0.204769 0.520664 0.581945
O O15 0.901910 0.250000 0.481571
O O16 0.000000 0.000000 0.500000
#
# Coordination Sequence:
#
# PCOD8073583 Si02
#       6
#     4   4   4   4   4   4
#     4  10  20  34  55  80 105 138 178 217 258 311
#     4   9  19  36  55  78 108 138 171 216 268 313
#     4  10  20  36  56  77 103 140 179 215 261 314
#     4  10  21  36  52  74 107 141 172 213 264 313
#     4  10  20  35  56  78 103 137 175 216 264 315
#     4  11  22  34  50  76 109 138 170 215 264 314
#
# _framework density 17.883970000000001
#
# number of rings (size 3 to 8) (size 9 to 14) (size 15 to 20)
#    0.000    2.000    1.667    2.000    0.000    7.333 
#    0.000    0.833    0.000    0.000    0.000    0.000 
#    0.000    0.000    0.000    0.000    0.000    0.000 
#
# Total GULP energy -297693.836731 kJ/mol
# GULP energy per Si atom -12403.909864 kJ/mol
# Density = 1.784327 g / cm^3
# Si number density = 17.883970 Si / 1000 Ang^3
#
#
#
# Elastic Constant Matrix: (Units=GPa)
#
#
# Indices 1 2 3 4 5 6 
#
# 1 109.5352 48.2672 45.6153 0.0000 21.7719 0.0000
# 2 48.2672 80.0138 46.6046 0.0000 14.4823 0.0000
# 3 45.6153 46.6046 89.1938 0.0000 15.8061 0.0000
# 4 0.0000 0.0000 0.0000 30.2824 0.0000 6.9530
# 5 21.7719 14.4823 15.8061 0.0000 33.3525 0.0000
# 6 0.0000 0.0000 0.0000 6.9530 0.0000 28.2513
#
#
#
# Elastic Compliance Matrix: (Units=1/GPa)
#
#
# Indices 1 2 3 4 5 6 
#
# 1 0.013994 -0.005568 -0.003337 0.000000 -0.005135 0.000000
# 2 -0.005568 0.020600 -0.007614 0.000000 -0.001701 0.000000
# 3 -0.003337 -0.007614 0.017385 0.000000 -0.002754 0.000000
# 4 0.000000 0.000000 0.000000 0.035000 0.000000 -0.008614
# 5 -0.005135 -0.001701 -0.002754 0.000000 0.035379 0.000000
# 6 0.000000 0.000000 0.000000 -0.008614 0.000000 0.037517
#
#
# Mechanical properties :
#
#
# Convention : Reuss Voigt Hill
#
# Bulk Modulus (GPa) = 52.80143 62.19077 57.49610
# Shear Modulus (GPa) = 25.09706 27.59429 26.34567
#
# Velocity S-wave (km/s) = 3.75016 3.93232 3.84232
# Velocity P-wave (km/s) = 6.95271 7.44766 7.20443
#
# Compressibility (1/GPa) = 0.01893888
#
# Stress axis : x y z
#
# Youngs Moduli (GPa) = 71.46122 48.54416 57.52140
#
# Poissons Ratio (x) = 0.27031 0.19195
# Poissons Ratio (y) = 0.39791 0.43799
# Poissons Ratio (z) = 0.23847 0.36963
#
# Static dielectric constant tensor:
#      x y z
#    x 3.484530 0.000000 -0.005800 
#    y 0.000000 3.383200 0.000000 
#    z -0.005800 0.000000 3.310470 
# 
# 
# High freq. dielectric constant tensor:
#      x y z
#    x 1.694830 0.000000 0.002360 
#    y 0.000000 1.695640 0.000000 
#    z 0.002360 0.000000 1.688150 
# 
# From -- ./inp_files/33770.got.cif
#   From: 2010.06.25/outbox.cif.g09.slc.cpg/sg11_17_cif.got.tgz:33770.got - 2010.06.27 23:14:04.
