data_PCOD8073497
_publ_section_title
;
Structure prediction by ZEFSAII (Michael W. Deem and Ramdas Pophale) SiO2 
 PCOD8073497
Probable space group: P 21/M
;
_chemical_formula_sum "Si O2"
_cell_formula_units_Z 32
_cell_length_a 19.358078
_cell_length_b 9.067786
_cell_length_c 11.247472
_cell_angle_alpha 90.000000
_cell_angle_beta 55.889226
_cell_angle_gamma 90.000000
_cell_volume 1634.651198
_symmetry_space_group_name_H-M "P 21/M"
_symmetry_group_IT_number 11
_symmetry_cell_setting 'monoclinic'
loop_
_space_group_symop_operation_xyz
x,y,z
-x,1/2+y,-z
-x,-y,-z
x,1/2-y,z
loop_
_atom_site_type_symbol
_atom_site_label
_atom_site_fract_x
_atom_site_fract_y
_atom_site_fract_z
Si Si1 0.119158 0.079796 0.806294
Si Si2 0.657054 0.580345 0.111314
Si Si3 0.576108 0.421281 0.987209
Si Si4 0.033758 0.419919 0.139216
Si Si5 0.175293 0.422727 0.176472
Si Si6 0.746734 0.079466 0.691665
Si Si7 0.411811 0.077612 0.566900
Si Si8 0.274921 0.925329 0.556832
O O1 0.137811 0.250000 0.759288
O O2 0.202769 0.985491 0.711904
O O3 0.090130 0.057236 0.968773
O O4 0.048140 0.020925 0.785109
O O5 0.641865 0.750000 0.091815
O O6 0.645524 0.554244 0.261859
O O7 0.588595 0.484238 0.107534
O O8 0.749627 0.528605 0.983974
O O9 0.556709 0.250000 0.015337
O O10 0.656282 0.457387 0.830523
O O11 0.500000 0.500000 0.000000
O O12 0.005390 0.250000 0.176698
O O13 0.088262 0.470193 0.199961
O O14 0.177649 0.250000 0.193999
O O15 0.183066 0.497021 0.298287
O O16 0.768163 0.250000 0.680226
O O17 0.748731 0.026041 0.553934
O O18 0.425443 0.250000 0.525858
O O19 0.500000 0.000000 0.500000
O O20 0.363093 0.999781 0.505692
O O21 0.283978 0.750000 0.560387
#
# Coordination Sequence:
#
# PCOD8073497 Si02
#       8
#     4   4   4   4   4   4   4   4
#     4  10  20  35  57  87 117 149 187 228 277 331
#     4   9  19  36  55  77 108 141 176 224 277 327
#     4  10  20  34  54  79 105 137 181 230 279 328
#     4   9  18  34  57  86 119 147 181 229 281 333
#     4   9  17  33  58  83 107 141 183 227 277 328
#     4   9  21  38  54  76 108 145 184 229 279 330
#     4  11  24  40  58  82 112 146 186 231 281 337
#     4  11  23  40  59  79 112 153 188 227 282 337
#
# _framework density 19.576039999999999
#
# number of rings (size 3 to 8) (size 9 to 14) (size 15 to 20)
#    0.000    2.250    0.000    2.250    1.750    5.500 
#    0.000    3.125    0.000    0.000    0.000    0.000 
#    0.000    0.000    0.000    0.000    0.000    0.000 
#
# Total GULP energy -396884.275884 kJ/mol
# GULP energy per Si atom -12402.633621 kJ/mol
# Density = 1.953148 g / cm^3
# Si number density = 19.576040 Si / 1000 Ang^3
#
#
#
# Elastic Constant Matrix: (Units=GPa)
#
#
# Indices 1 2 3 4 5 6 
#
# 1 148.1521 59.4080 24.6241 0.0000 6.2107 0.0000
# 2 59.4080 86.1710 26.1057 0.0000 1.8411 0.0000
# 3 24.6241 26.1057 41.8728 0.0000 4.3811 0.0000
# 4 0.0000 0.0000 0.0000 29.1361 0.0000 0.6620
# 5 6.2107 1.8411 4.3811 0.0000 23.2310 0.0000
# 6 0.0000 0.0000 0.0000 0.6620 0.0000 40.2179
#
#
#
# Elastic Compliance Matrix: (Units=1/GPa)
#
#
# Indices 1 2 3 4 5 6 
#
# 1 0.009512 -0.006018 -0.001658 0.000000 -0.001753 0.000000
# 2 -0.006018 0.018122 -0.007934 0.000000 0.001669 0.000000
# 3 -0.001658 -0.007934 0.030289 0.000000 -0.004640 0.000000
# 4 0.000000 0.000000 0.000000 0.034335 0.000000 -0.000565
# 5 -0.001753 0.001669 -0.004640 0.000000 0.044257 0.000000
# 6 0.000000 0.000000 0.000000 -0.000565 0.000000 0.024874
#
#
# Mechanical properties :
#
#
# Convention : Reuss Voigt Hill
#
# Bulk Modulus (GPa) = 37.44958 55.16351 46.30654
# Shear Modulus (GPa) = 24.81276 29.58753 27.20014
#
# Velocity S-wave (km/s) = 3.56407 3.89191 3.73159
# Velocity P-wave (km/s) = 6.00904 6.95961 6.50172
#
# Compressibility (1/GPa) = 0.02670257
#
# Stress axis : x y z
#
# Youngs Moduli (GPa) = 105.12894 55.18278 33.01548
#
# Poissons Ratio (x) = 0.33209 0.05475
# Poissons Ratio (y) = 0.63266 0.26193
# Poissons Ratio (z) = 0.17435 0.43780
#
# Static dielectric constant tensor:
#      x y z
#    x 3.760300 0.000000 0.018050 
#    y 0.000000 3.611040 0.000000 
#    z 0.018050 0.000000 3.254520 
# 
# 
# High freq. dielectric constant tensor:
#      x y z
#    x 1.774240 0.000000 0.004040 
#    y 0.000000 1.763950 0.000000 
#    z 0.004040 0.000000 1.744510 
# 
# From -- ./inp_files/42752.got.cif
#   From: 2010.06.25/outbox.cif.g09.slc.cpg/sg11_22_cif.got.tgz:42752.got - 2010.06.27 23:14:04.
