data_PCOD8073418
_publ_section_title
;
Structure prediction by ZEFSAII (Michael W. Deem and Ramdas Pophale) SiO2 
 PCOD8073418
Probable space group: P 21/M
;
_chemical_formula_sum "Si O2"
_cell_formula_units_Z 32
_cell_length_a 21.393117
_cell_length_b 9.424711
_cell_length_c 14.309512
_cell_angle_alpha 90.000000
_cell_angle_beta 35.969592
_cell_angle_gamma 90.000000
_cell_volume 1694.603891
_symmetry_space_group_name_H-M "P 21/M"
_symmetry_group_IT_number 11
_symmetry_cell_setting 'monoclinic'
loop_
_space_group_symop_operation_xyz
x,y,z
-x,1/2+y,-z
-x,-y,-z
x,1/2-y,z
loop_
_atom_site_type_symbol
_atom_site_label
_atom_site_fract_x
_atom_site_fract_y
_atom_site_fract_z
Si Si1 0.735664 0.596357 0.867719
Si Si2 0.569980 0.081281 0.627461
Si Si3 0.958406 0.582193 0.268346
Si Si4 0.339942 0.417825 0.852117
Si Si5 0.220036 0.085854 0.661399
Si Si6 0.076055 0.081359 0.477404
Si Si7 0.846105 0.913864 0.053378
Si Si8 0.500231 0.096961 0.911239
O O1 0.788867 0.750000 0.823336
O O2 0.808764 0.526529 0.699162
O O3 0.724646 0.514176 0.980660
O O4 0.620612 0.618865 0.967073
O O5 0.584360 0.250000 0.600966
O O6 0.463174 0.028874 0.700492
O O7 0.561171 0.034460 0.747107
O O8 0.672516 0.004611 0.461960
O O9 0.975749 0.750000 0.239637
O O10 0.855478 0.536270 0.332181
O O11 0.938391 0.530620 0.398433
O O12 0.063871 0.508430 0.102362
O O13 0.347005 0.250000 0.861427
O O14 0.272034 0.456434 0.842398
O O15 0.252585 0.250000 0.611653
O O16 0.154061 0.059443 0.835967
O O17 0.057970 0.250000 0.495153
O O18 0.000000 0.000000 0.500000
O O19 0.869985 0.750000 0.000574
O O20 0.550229 0.250000 0.877091
O O21 0.500000 0.000000 0.000000
#
# Coordination Sequence:
#
# PCOD8073418 Si02
#       8
#     4   4   4   4   4   4   4   4
#     4   8  15  29  49  71  97 134 171 199 246 311
#     4   9  19  35  53  78 109 141 180 221 265 318
#     4  10  22  37  53  78 112 144 177 222 275 326
#     4   8  15  31  54  78 105 136 176 223 263 311
#     4  10  22  37  54  80 111 142 180 224 270 323
#     4  10  20  34  53  77 104 138 177 215 259 313
#     4  10  20  36  59  81 102 138 187 229 268 320
#     4   9  18  31  50  74 100 134 173 208 247 306
#
# _framework density 18.883468000000001
#
# number of rings (size 3 to 8) (size 9 to 14) (size 15 to 20)
#    0.000    2.750    0.000    2.625    1.750    3.500 
#    0.000    1.250    0.000    1.500    0.000    0.000 
#    0.000    0.000    0.000    0.000    0.000    0.000 
#
# Total GULP energy -396448.065832 kJ/mol
# GULP energy per Si atom -12389.002057 kJ/mol
# Density = 1.884049 g / cm^3
# Si number density = 18.883468 Si / 1000 Ang^3
#
#
#
# Elastic Constant Matrix: (Units=GPa)
#
#
# Indices 1 2 3 4 5 6 
#
# 1 116.1151 27.9618 44.7831 0.0000 9.9612 0.0000
# 2 27.9618 33.8560 28.7688 0.0000 0.0028 0.0000
# 3 44.7831 28.7688 111.6216 0.0000 -3.0991 0.0000
# 4 0.0000 0.0000 0.0000 28.9144 0.0000 -0.7293
# 5 9.9612 0.0028 -3.0991 0.0000 26.0047 0.0000
# 6 0.0000 0.0000 0.0000 -0.7293 0.0000 23.2420
#
#
#
# Elastic Compliance Matrix: (Units=1/GPa)
#
#
# Indices 1 2 3 4 5 6 
#
# 1 0.011973 -0.007285 -0.003063 0.000000 -0.004950 0.000000
# 2 -0.007285 0.042288 -0.007925 0.000000 0.001841 0.000000
# 3 -0.003063 -0.007925 0.012304 0.000000 0.002641 0.000000
# 4 0.000000 0.000000 0.000000 0.034612 0.000000 0.001086
# 5 -0.004950 0.001841 0.002641 0.000000 0.040665 0.000000
# 6 0.000000 0.000000 0.000000 0.001086 0.000000 0.043060
#
#
# Mechanical properties :
#
#
# Convention : Reuss Voigt Hill
#
# Bulk Modulus (GPa) = 33.31404 51.62445 42.46924
# Shear Modulus (GPa) = 21.60260 26.30413 23.95337
#
# Velocity S-wave (km/s) = 3.38597 3.73630 3.56544
# Velocity P-wave (km/s) = 5.74165 6.78315 6.28401
#
# Compressibility (1/GPa) = 0.03001738
#
# Stress axis : x y z
#
# Youngs Moduli (GPa) = 83.52439 23.64759 81.27575
#
# Poissons Ratio (x) = 0.17227 0.24898
# Poissons Ratio (y) = 0.60845 0.64413
# Poissons Ratio (z) = 0.25587 0.18741
#
# Static dielectric constant tensor:
#      x y z
#    x 3.331050 0.000000 0.081940 
#    y 0.000000 3.100110 0.000000 
#    z 0.081940 0.000000 3.769810 
# 
# 
# High freq. dielectric constant tensor:
#      x y z
#    x 1.739100 0.000000 0.004630 
#    y 0.000000 1.696740 0.000000 
#    z 0.004630 0.000000 1.742400 
# 
# From -- ./inp_files/54297.got.cif
#   From: 2010.06.25/outbox.cif.g09.slc.cpg/sg11_28_cif.got.tgz:54297.got - 2010.06.27 23:14:04.
