data_PCOD8073506
_publ_section_title
;
Structure prediction by ZEFSAII (Michael W. Deem and Ramdas Pophale) SiO2 
 PCOD8073506
Probable space group: P 21/M
;
_chemical_formula_sum "Si O2"
_cell_formula_units_Z 28
_cell_length_a 8.489696
_cell_length_b 11.145120
_cell_length_c 16.116812
_cell_angle_alpha 90.000000
_cell_angle_beta 115.560383
_cell_angle_gamma 90.000000
_cell_volume 1375.706126
_symmetry_space_group_name_H-M "P 21/M"
_symmetry_group_IT_number 11
_symmetry_cell_setting 'monoclinic'
loop_
_space_group_symop_operation_xyz
x,y,z
-x,1/2+y,-z
-x,-y,-z
x,1/2-y,z
loop_
_atom_site_type_symbol
_atom_site_label
_atom_site_fract_x
_atom_site_fract_y
_atom_site_fract_z
Si Si1 0.132966 0.385254 0.122721
Si Si2 0.786867 0.613750 0.675936
Si Si3 0.755361 0.039303 0.002830
Si Si4 0.929740 0.448959 0.569896
Si Si5 0.704878 0.884777 0.314295
Si Si6 0.380842 0.117600 0.887173
Si Si7 0.611531 0.116363 0.403575
O O1 0.205637 0.250000 0.134783
O O2 0.173093 0.439991 0.223144
O O3 0.237823 0.462641 0.079853
O O4 0.927879 0.381841 0.053858
O O5 0.851408 0.750000 0.690067
O O6 0.899659 0.551047 0.631148
O O7 0.583381 0.601784 0.606103
O O8 0.583428 0.120427 0.960102
O O9 0.742212 0.956990 0.080580
O O10 0.748627 0.379007 0.511387
O O11 0.000000 0.500000 0.500000
O O12 0.085360 0.366447 0.640065
O O13 0.629632 0.750000 0.321193
O O14 0.635346 0.929061 0.209966
O O15 0.649207 0.996551 0.359076
O O16 0.303970 0.250000 0.874889
O O17 0.625167 0.250000 0.362049
#
# Coordination Sequence:
#
# PCOD8073506 Si02
#       7
#     4   4   4   4   4   4   4
#     4  10  20  35  55  80 109 142 182 227 275 326
#     4  10  21  37  58  83 112 145 184 232 282 333
#     4  10  20  34  54  79 109 145 185 227 272 324
#     4  10  21  36  55  80 109 143 181 223 275 332
#     4  10  21  37  57  83 116 152 189 230 277 329
#     4  10  20  35  54  79 112 148 186 227 273 325
#     4  10  21  38  60  86 114 146 187 231 278 333
#
# _framework density 20.353185
#
# number of rings (size 3 to 8) (size 9 to 14) (size 15 to 20)
#    0.000    2.000    0.000    3.429    0.000    4.571 
#    0.000    5.000    0.000    6.857    0.000    0.000 
#    0.000    0.000    0.000    0.000    0.000    0.000 
#
# Total GULP energy -346947.290640 kJ/mol
# GULP energy per Si atom -12390.974666 kJ/mol
# Density = 2.030686 g / cm^3
# Si number density = 20.353185 Si / 1000 Ang^3
#
#
#
# Elastic Constant Matrix: (Units=GPa)
#
#
# Indices 1 2 3 4 5 6 
#
# 1 53.6344 24.7720 9.1784 0.0000 -6.1111 0.0000
# 2 24.7720 102.7574 24.6191 0.0000 -24.9755 0.0000
# 3 9.1784 24.6191 69.7321 0.0000 -2.7957 0.0000
# 4 0.0000 0.0000 0.0000 19.6374 0.0000 -3.9421
# 5 -6.1111 -24.9755 -2.7957 0.0000 33.5117 0.0000
# 6 0.0000 0.0000 0.0000 -3.9421 0.0000 -3.9753
#
#
#
# Elastic Compliance Matrix: (Units=1/GPa)
#
#
# Indices 1 2 3 4 5 6 
#
# 1 0.021055 -0.004770 -0.001080 0.000000 0.000195 0.000000
# 2 -0.004770 0.014095 -0.003976 0.000000 0.009303 0.000000
# 3 -0.001080 -0.003976 0.015812 0.000000 -0.001841 0.000000
# 4 0.000000 0.000000 0.000000 0.042469 0.000000 -0.042115
# 5 0.000195 0.009303 -0.001841 0.000000 0.036656 0.000000
# 6 0.000000 0.000000 0.000000 -0.042115 0.000000 -0.209789
#
#
# Mechanical properties :
#
#
# Convention : Reuss Voigt Hill
#
# Bulk Modulus (GPa) = 31.93590 38.14031 35.03810
# Shear Modulus (GPa) = -100.77555 21.00505 -39.88525
#
# Velocity S-wave (km/s) = -7.04421 3.21600 -4.43160
# Velocity P-wave (km/s) = 7.10185 5.70703 2.98882
#
# Compressibility (1/GPa) = 0.03131273
#
# Stress axis : x y z
#
# Youngs Moduli (GPa) = 47.49539 70.94614 63.24123
#
# Poissons Ratio (x) = 0.33840 0.06827
# Poissons Ratio (y) = 0.22654 0.25142
# Poissons Ratio (z) = 0.05127 0.28205
#
# Static dielectric constant tensor:
#      x y z
#    x 3.617910 0.000000 0.301900 
#    y 0.000000 3.595690 0.000000 
#    z 0.301900 0.000000 4.064420 
# 
# 
# High freq. dielectric constant tensor:
#      x y z
#    x 1.786110 0.000000 0.015670 
#    y 0.000000 1.791560 0.000000 
#    z 0.015670 0.000000 1.806250 
# 
# From -- ./inp_files/47269.got.cif
#   From: 2010.06.25/outbox.cif.g09.slc.cpg/sg11_24_cif.got.tgz:47269.got - 2010.06.27 23:14:04.
