data_PCOD8073744
_publ_section_title
;
Structure prediction by ZEFSAII (Michael W. Deem and Ramdas Pophale) SiO2 
 PCOD8073744
Probable space group: P 21/M
;
_chemical_formula_sum "Si O2"
_cell_formula_units_Z 32
_cell_length_a 14.243582
_cell_length_b 9.267819
_cell_length_c 23.764345
_cell_angle_alpha 90.000000
_cell_angle_beta 31.042941
_cell_angle_gamma 90.000000
_cell_volume 1617.719388
_symmetry_space_group_name_H-M "P 21/M"
_symmetry_group_IT_number 11
_symmetry_cell_setting 'monoclinic'
loop_
_space_group_symop_operation_xyz
x,y,z
-x,1/2+y,-z
-x,-y,-z
x,1/2-y,z
loop_
_atom_site_type_symbol
_atom_site_label
_atom_site_fract_x
_atom_site_fract_y
_atom_site_fract_z
Si Si1 0.658788 0.420560 0.453072
Si Si2 0.809270 0.922825 0.602180
Si Si3 0.070593 0.417048 0.234764
Si Si4 0.696187 0.917070 0.782474
Si Si5 0.852292 0.082608 0.005816
Si Si6 0.681826 0.419341 0.977653
Si Si7 0.761907 0.587976 0.151860
Si Si8 0.613621 0.085851 0.604379
O O1 0.500000 0.500000 0.500000
O O2 0.627455 0.250000 0.462544
O O3 0.654029 0.466662 0.520694
O O4 0.862711 0.466258 0.328104
O O5 0.830348 0.750000 0.589708
O O6 0.720886 0.977940 0.706577
O O7 0.693932 0.975738 0.608281
O O8 0.000000 0.000000 0.500000
O O9 0.092591 0.250000 0.208065
O O10 0.119754 0.442488 0.275637
O O11 0.223956 0.503439 0.122802
O O12 0.651026 0.750000 0.798639
O O13 0.520259 0.982718 0.905474
O O14 0.823308 0.250000 0.031038
O O15 0.805781 0.039894 0.966829
O O16 0.057886 0.028468 0.910067
O O17 0.717439 0.005113 0.119201
O O18 0.677779 0.250000 0.966402
O O19 0.794139 0.750000 0.114251
O O20 0.603268 0.579567 0.278734
O O21 0.686335 0.250000 0.577055
#
# Coordination Sequence:
#
# PCOD8073744 Si02
#       8
#     4   4   4   4   4   4   4   4
#     4  10  23  41  61  83 113 154 197 245 298 349
#     4  11  22  38  62  89 118 153 191 236 289 347
#     4  10  21  38  57  80 113 151 191 236 291 344
#     4   9  19  37  59  84 117 154 189 229 284 345
#     4   9  18  32  50  77 111 145 183 229 281 335
#     4  10  20  34  57  84 111 148 193 233 278 337
#     4   9  18  32  52  77 107 145 185 228 281 337
#     4  10  21  38  59  83 113 149 189 234 290 347
#
# _framework density 19.780933000000001
#
# number of rings (size 3 to 8) (size 9 to 14) (size 15 to 20)
#    0.000    2.250    0.000    2.250    1.750    5.000 
#    0.000    3.750    0.000    0.000    0.000    0.000 
#    0.000    0.000    0.000    0.000    0.000    0.000 
#
# Total GULP energy -396662.498718 kJ/mol
# GULP energy per Si atom -12395.703085 kJ/mol
# Density = 1.973591 g / cm^3
# Si number density = 19.780933 Si / 1000 Ang^3
#
#
#
# Elastic Constant Matrix: (Units=GPa)
#
#
# Indices 1 2 3 4 5 6 
#
# 1 114.4919 45.6368 57.3542 0.0000 -1.0207 0.0000
# 2 45.6368 45.3577 35.0882 0.0000 -0.4436 0.0000
# 3 57.3542 35.0882 127.1884 0.0000 1.7756 0.0000
# 4 0.0000 0.0000 0.0000 31.6205 0.0000 0.3428
# 5 -1.0207 -0.4436 1.7756 0.0000 31.4246 0.0000
# 6 0.0000 0.0000 0.0000 0.3428 0.0000 31.6262
#
#
#
# Elastic Compliance Matrix: (Units=1/GPa)
#
#
# Indices 1 2 3 4 5 6 
#
# 1 0.015704 -0.013109 -0.003472 0.000000 0.000521 0.000000
# 2 -0.013109 0.038994 -0.004852 0.000000 0.000399 0.000000
# 3 -0.003472 -0.004852 0.010778 0.000000 -0.000790 0.000000
# 4 0.000000 0.000000 0.000000 0.031629 0.000000 -0.000343
# 5 0.000521 0.000399 -0.000790 0.000000 0.031889 0.000000
# 6 0.000000 0.000000 0.000000 -0.000343 0.000000 0.031623
#
#
# Mechanical properties :
#
#
# Convention : Reuss Voigt Hill
#
# Bulk Modulus (GPa) = 44.22978 62.57737 53.40358
# Shear Modulus (GPa) = 23.69466 28.86486 26.27976
#
# Velocity S-wave (km/s) = 3.46476 3.82413 3.64887
# Velocity P-wave (km/s) = 6.19794 7.15559 6.69391
#
# Compressibility (1/GPa) = 0.02260920
#
# Stress axis : x y z
#
# Youngs Moduli (GPa) = 63.67993 25.64516 92.78539
#
# Poissons Ratio (x) = 0.33618 0.32216
# Poissons Ratio (y) = 0.83478 0.45016
# Poissons Ratio (z) = 0.22111 0.12442
#
# Static dielectric constant tensor:
#      x y z
#    x 3.821750 0.000000 -0.139280 
#    y 0.000000 3.460990 0.000000 
#    z -0.139280 0.000000 3.817120 
# 
# 
# High freq. dielectric constant tensor:
#      x y z
#    x 1.778130 0.000000 -0.005200 
#    y 0.000000 1.746850 0.000000 
#    z -0.005200 0.000000 1.782470 
# 
# From -- ./inp_files/69001.got.cif
#   From: 2010.06.25/outbox.cif.g09.slc.cpg/sg11_35_cif.got.tgz:69001.got - 2010.06.27 23:14:04.
