data_PCOD8073151
_publ_section_title
;
Structure prediction by ZEFSAII (Michael W. Deem and Ramdas Pophale) SiO2 
 PCOD8073151
Probable space group: P 21/M
;
_chemical_formula_sum "Si O2"
_cell_formula_units_Z 24
_cell_length_a 15.578960
_cell_length_b 8.850262
_cell_length_c 15.435016
_cell_angle_alpha 90.000000
_cell_angle_beta 37.992009
_cell_angle_gamma 90.000000
_cell_volume 1309.984371
_symmetry_space_group_name_H-M "P 21/M"
_symmetry_group_IT_number 11
_symmetry_cell_setting 'monoclinic'
loop_
_space_group_symop_operation_xyz
x,y,z
-x,1/2+y,-z
-x,-y,-z
x,1/2-y,z
loop_
_atom_site_type_symbol
_atom_site_label
_atom_site_fract_x
_atom_site_fract_y
_atom_site_fract_z
Si Si1 0.916168 0.426845 0.187437
Si Si2 0.141467 0.073100 0.419380
Si Si3 0.814651 0.072032 0.082932
Si Si4 0.576026 0.070890 0.858183
Si Si5 0.526226 0.074022 0.230978
Si Si6 0.232226 0.078587 0.539323
O O1 0.938961 0.250000 0.166276
O O2 0.837279 0.484336 0.163500
O O3 0.824599 0.467073 0.343071
O O4 0.068112 0.502571 0.073087
O O5 0.145196 0.250000 0.394483
O O6 0.153801 0.044698 0.511986
O O7 0.267846 0.993701 0.268946
O O8 0.000000 0.000000 0.500000
O O9 0.827029 0.250000 0.066468
O O10 0.663451 0.017648 0.171674
O O11 0.582134 0.250000 0.862123
O O12 0.489295 0.025582 0.842259
O O13 0.500000 0.000000 0.000000
O O14 0.533400 0.250000 0.197817
O O15 0.396560 0.047434 0.398236
O O16 0.204867 0.250000 0.590864
#
# Coordination Sequence:
#
# PCOD8073151 Si02
#       6
#     4   4   4   4   4   4
#     4  10  20  33  52  79 107 137 176 217 257 310
#     4  10  21  38  58  81 109 142 180 220 266 318
#     4   9  19  36  55  75 104 140 175 216 265 311
#     4  11  22  37  57  81 109 141 178 221 269 319
#     4   9  19  37  57  77 104 138 177 219 265 316
#     4   9  19  35  54  76 105 139 171 211 264 315
#
# _framework density 18.320830000000001
#
# number of rings (size 3 to 8) (size 9 to 14) (size 15 to 20)
#    0.000    2.333    0.000    3.500    0.000    6.667 
#    0.000    1.667    0.000    0.000    0.000    0.000 
#    0.000    0.000    0.000    0.000    0.000    0.000 
#
# Total GULP energy -297666.854935 kJ/mol
# GULP energy per Si atom -12402.785622 kJ/mol
# Density = 1.827913 g / cm^3
# Si number density = 18.320830 Si / 1000 Ang^3
#
#
#
# Elastic Constant Matrix: (Units=GPa)
#
#
# Indices 1 2 3 4 5 6 
#
# 1 121.3144 50.2530 79.3570 0.0000 -31.3276 0.0000
# 2 50.2530 83.4739 52.9340 0.0000 -5.7385 0.0000
# 3 79.3570 52.9340 132.8619 0.0000 -5.7473 0.0000
# 4 0.0000 0.0000 0.0000 36.2120 0.0000 1.7071
# 5 -31.3276 -5.7385 -5.7473 0.0000 32.1093 0.0000
# 6 0.0000 0.0000 0.0000 1.7071 0.0000 29.8659
#
#
#
# Elastic Compliance Matrix: (Units=1/GPa)
#
#
# Indices 1 2 3 4 5 6 
#
# 1 0.021949 -0.005528 -0.010102 0.000000 0.018619 0.000000
# 2 -0.005528 0.017518 -0.003805 0.000000 -0.002943 0.000000
# 3 -0.010102 -0.003805 0.014735 0.000000 -0.007899 0.000000
# 4 0.000000 0.000000 0.000000 0.027690 0.000000 -0.001583
# 5 0.018619 -0.002943 -0.007899 0.000000 0.047369 0.000000
# 6 0.000000 0.000000 0.000000 -0.001583 0.000000 0.033573
#
#
# Mechanical properties :
#
#
# Convention : Reuss Voigt Hill
#
# Bulk Modulus (GPa) = 65.22295 78.08202 71.65248
# Shear Modulus (GPa) = 24.17611 29.97785 27.07698
#
# Velocity S-wave (km/s) = 3.63657 4.04947 3.84856
# Velocity P-wave (km/s) = 7.30141 8.03593 7.67746
#
# Compressibility (1/GPa) = 0.01533203
#
# Stress axis : x y z
#
# Youngs Moduli (GPa) = 45.55991 57.08334 67.86568
#
# Poissons Ratio (x) = 0.31553 0.68560
# Poissons Ratio (y) = 0.25184 0.25825
# Poissons Ratio (z) = 0.46026 0.21722
#
# Static dielectric constant tensor:
#      x y z
#    x 3.549430 0.000000 -0.104800 
#    y 0.000000 3.405690 0.000000 
#    z -0.104800 0.000000 3.371480 
# 
# 
# High freq. dielectric constant tensor:
#      x y z
#    x 1.710370 0.000000 -0.005750 
#    y 0.000000 1.713790 0.000000 
#    z -0.005750 0.000000 1.714740 
# 
# From -- ./inp_files/20622.got.cif
#   From: 2010.06.25/outbox.cif.g09.slc.cpg/sg11_11_cif.got.tgz:20622.got - 2010.06.27 23:14:04.
