data_PCOD8073198
_publ_section_title
;
Structure prediction by ZEFSAII (Michael W. Deem and Ramdas Pophale) SiO2 
 PCOD8073198
Probable space group: P 21/M
;
_chemical_formula_sum "Si O2"
_cell_formula_units_Z 32
_cell_length_a 12.718565
_cell_length_b 9.137078
_cell_length_c 29.192379
_cell_angle_alpha 90.000000
_cell_angle_beta 29.386534
_cell_angle_gamma 90.000000
_cell_volume 1664.677433
_symmetry_space_group_name_H-M "P 21/M"
_symmetry_group_IT_number 11
_symmetry_cell_setting 'monoclinic'
loop_
_space_group_symop_operation_xyz
x,y,z
-x,1/2+y,-z
-x,-y,-z
x,1/2-y,z
loop_
_atom_site_type_symbol
_atom_site_label
_atom_site_fract_x
_atom_site_fract_y
_atom_site_fract_z
Si Si1 0.928836 0.919854 0.397359
Si Si2 0.787225 0.418005 0.206811
Si Si3 0.563619 0.084383 0.911145
Si Si4 0.608317 0.419376 0.788814
Si Si5 0.206414 0.924040 0.899996
Si Si6 0.499084 0.919389 0.604602
Si Si7 0.818802 0.419803 0.902017
Si Si8 0.685880 0.920405 0.402726
O O1 0.932975 0.750000 0.406732
O O2 0.735737 0.986532 0.502299
O O3 0.893519 0.944790 0.356027
O O4 0.167827 0.978254 0.318769
O O5 0.858715 0.250000 0.179194
O O6 0.769809 0.475347 0.161633
O O7 0.557670 0.437695 0.319989
O O8 0.960179 0.504537 0.170099
O O9 0.484178 0.250000 0.950577
O O10 0.644213 0.064996 0.829281
O O11 0.758358 0.047314 0.871981
O O12 0.365502 0.977286 0.994408
O O13 0.559274 0.250000 0.794516
O O14 0.417478 0.522822 0.845667
O O15 0.184306 0.750000 0.913332
O O16 0.000000 0.000000 0.000000
O O17 0.492578 0.750000 0.591927
O O18 0.309045 0.003273 0.648978
O O19 0.848194 0.250000 0.900422
O O20 0.637602 0.750000 0.414009
O O21 0.500000 0.000000 0.500000
#
# Coordination Sequence:
#
# PCOD8073198 Si02
#       8
#     4   4   4   4   4   4   4   4
#     4   8  16  31  53  78 108 145 183 217 261 320
#     4  10  22  38  56  77 109 147 182 223 282 337
#     4   9  19  34  52  76 110 144 172 213 276 335
#     4  10  20  36  58  81 107 143 183 223 272 327
#     4  11  24  42  61  82 107 140 183 234 284 333
#     4   9  18  34  53  77 109 148 188 224 268 327
#     4  10  20  33  53  80 109 139 177 223 270 329
#     4   9  16  28  49  76 110 149 186 224 265 315
#
# _framework density 19.222943000000001
#
# number of rings (size 3 to 8) (size 9 to 14) (size 15 to 20)
#    0.000    2.500    0.000    2.625    1.750    5.500 
#    0.000    3.750    0.000    0.000    0.000    0.000 
#    0.000    0.000    0.000    0.000    0.000    0.000 
#
# Total GULP energy -396528.036202 kJ/mol
# GULP energy per Si atom -12391.501131 kJ/mol
# Density = 1.917919 g / cm^3
# Si number density = 19.222943 Si / 1000 Ang^3
#
#
#
# Elastic Constant Matrix: (Units=GPa)
#
#
# Indices 1 2 3 4 5 6 
#
# 1 86.6506 37.0244 69.1767 0.0000 1.2351 0.0000
# 2 37.0244 61.9625 38.1573 0.0000 -2.1189 0.0000
# 3 69.1767 38.1573 121.6124 0.0000 -4.3269 0.0000
# 4 0.0000 0.0000 0.0000 22.3448 0.0000 -3.4122
# 5 1.2351 -2.1189 -4.3269 0.0000 32.4189 0.0000
# 6 0.0000 0.0000 0.0000 -3.4122 0.0000 27.1705
#
#
#
# Elastic Compliance Matrix: (Units=1/GPa)
#
#
# Indices 1 2 3 4 5 6 
#
# 1 0.023738 -0.007318 -0.011309 0.000000 -0.002892 0.000000
# 2 -0.007318 0.022267 -0.002775 0.000000 0.001364 0.000000
# 3 -0.011309 -0.002775 0.015610 0.000000 0.002333 0.000000
# 4 0.000000 0.000000 0.000000 0.045628 0.000000 0.005730
# 5 -0.002892 0.001364 0.002333 0.000000 0.031357 0.000000
# 6 0.000000 0.000000 0.000000 0.005730 0.000000 0.037524
#
#
# Mechanical properties :
#
#
# Convention : Reuss Voigt Hill
#
# Bulk Modulus (GPa) = 53.16650 62.10469 57.63559
# Shear Modulus (GPa) = 22.20256 24.77797 23.49027
#
# Velocity S-wave (km/s) = 3.40222 3.59413 3.49949
# Velocity P-wave (km/s) = 6.56897 7.04283 6.81002
#
# Compressibility (1/GPa) = 0.01880884
#
# Stress axis : x y z
#
# Youngs Moduli (GPa) = 42.12743 44.90873 64.06291
#
# Poissons Ratio (x) = 0.32866 0.72451
# Poissons Ratio (y) = 0.30830 0.17779
# Poissons Ratio (z) = 0.47643 0.12463
#
# Static dielectric constant tensor:
#      x y z
#    x 3.777530 0.000000 0.056270 
#    y 0.000000 3.614490 0.000000 
#    z 0.056270 0.000000 3.694390 
# 
# 
# High freq. dielectric constant tensor:
#      x y z
#    x 1.733070 0.000000 0.004330 
#    y 0.000000 1.734280 0.000000 
#    z 0.004330 0.000000 1.753500 
# 
# From -- ./inp_files/73125.got.cif
#   From: 2010.06.25/outbox.cif.g09.slc.cpg/sg11_37_cif.got.tgz:73125.got - 2010.06.27 23:14:04.
