data_PCOD8073872
_publ_section_title
;
Structure prediction by ZEFSAII (Michael W. Deem and Ramdas Pophale) SiO2 
 PCOD8073872
Probable space group: P 21/M
;
_chemical_formula_sum "Si O2"
_cell_formula_units_Z 28
_cell_length_a 7.768043
_cell_length_b 8.927453
_cell_length_c 20.414874
_cell_angle_alpha 90.000000
_cell_angle_beta 100.735033
_cell_angle_gamma 90.000000
_cell_volume 1390.970929
_symmetry_space_group_name_H-M "P 21/M"
_symmetry_group_IT_number 11
_symmetry_cell_setting 'monoclinic'
loop_
_space_group_symop_operation_xyz
x,y,z
-x,1/2+y,-z
-x,-y,-z
x,1/2-y,z
loop_
_atom_site_type_symbol
_atom_site_label
_atom_site_fract_x
_atom_site_fract_y
_atom_site_fract_z
Si Si1 0.656567 0.413156 0.205655
Si Si2 0.938176 0.917767 0.802013
Si Si3 0.533057 0.072953 0.571581
Si Si4 0.725909 0.574226 0.335775
Si Si5 0.113612 0.573325 0.332475
Si Si6 0.381910 0.926420 0.936987
Si Si7 0.023398 0.073806 0.931749
O O1 0.610699 0.250000 0.231663
O O2 0.855776 0.414731 0.195701
O O3 0.626345 0.531850 0.261204
O O4 0.539204 0.442086 0.131617
O O5 0.862291 0.750000 0.802711
O O6 0.894697 0.005041 0.866821
O O7 0.845002 0.999734 0.734681
O O8 0.516928 0.250000 0.563934
O O9 0.385132 0.009276 0.611133
O O10 0.728376 0.027557 0.608418
O O11 0.500000 0.000000 0.500000
O O12 0.724939 0.750000 0.340736
O O13 0.927757 0.514662 0.349791
O O14 0.103915 0.750000 0.320572
O O15 0.342422 0.750000 0.949674
O O16 0.216500 0.033809 0.923592
O O17 0.500000 0.000000 0.000000
O O18 0.991426 0.250000 0.934323
O O19 0.000000 0.000000 0.000000
#
# Coordination Sequence:
#
# PCOD8073872 Si02
#       7
#     4   4   4   4   4   4   4
#     4   8  16  31  52  76 103 135 177 224 268 321
#     4   9  17  32  54  79 105 137 180 227 273 329
#     4  10  22  38  55  81 114 143 179 226 273 332
#     4   9  18  34  56  79 104 140 182 222 272 330
#     4   9  18  35  57  79 107 143 182 224 275 330
#     4  10  20  35  53  77 109 146 187 233 285 341
#     4  11  21  35  54  77 108 146 187 234 286 340
#
# _framework density 20.129823999999999
#
# number of rings (size 3 to 8) (size 9 to 14) (size 15 to 20)
#    0.000    2.571    0.000    3.000    0.000    5.714 
#    2.571    0.000    0.000    0.000    0.000    0.000 
#    0.000    0.000    0.000    0.000    0.000    0.000 
#
# Total GULP energy -346934.777686 kJ/mol
# GULP energy per Si atom -12390.527774 kJ/mol
# Density = 2.008401 g / cm^3
# Si number density = 20.129824 Si / 1000 Ang^3
#
#
#
# Elastic Constant Matrix: (Units=GPa)
#
#
# Indices 1 2 3 4 5 6 
#
# 1 70.9505 28.8369 61.8604 0.0000 1.0812 0.0000
# 2 28.8369 73.3612 56.5854 0.0000 -0.0224 0.0000
# 3 61.8604 56.5854 192.3509 0.0000 3.4014 0.0000
# 4 0.0000 0.0000 0.0000 42.5783 0.0000 0.7582
# 5 1.0812 -0.0224 3.4014 0.0000 31.4665 0.0000
# 6 0.0000 0.0000 0.0000 0.7582 0.0000 16.1692
#
#
#
# Elastic Compliance Matrix: (Units=1/GPa)
#
#
# Indices 1 2 3 4 5 6 
#
# 1 0.020383 -0.003826 -0.005428 0.000000 -0.000116 0.000000
# 2 -0.003826 0.018360 -0.004181 0.000000 0.000597 0.000000
# 3 -0.005428 -0.004181 0.008187 0.000000 -0.000701 0.000000
# 4 0.000000 0.000000 0.000000 0.023506 0.000000 -0.001102
# 5 -0.000116 0.000597 -0.000701 0.000000 0.031860 0.000000
# 6 0.000000 0.000000 0.000000 -0.001102 0.000000 0.061898
#
#
# Mechanical properties :
#
#
# Convention : Reuss Voigt Hill
#
# Bulk Modulus (GPa) = 49.84850 70.13643 59.99247
# Shear Modulus (GPa) = 25.28429 30.66813 27.97621
#
# Velocity S-wave (km/s) = 3.54794 3.90746 3.73203
# Velocity P-wave (km/s) = 6.44989 7.43474 6.95976
#
# Compressibility (1/GPa) = 0.02006079
#
# Stress axis : x y z
#
# Youngs Moduli (GPa) = 49.05929 54.46501 122.14603
#
# Poissons Ratio (x) = 0.20837 0.66299
# Poissons Ratio (y) = 0.18769 0.51074
# Poissons Ratio (z) = 0.26629 0.22774
#
# Static dielectric constant tensor:
#      x y z
#    x 3.243850 0.000000 -0.200000 
#    y 0.000000 3.697000 0.000000 
#    z -0.200000 0.000000 4.287460 
# 
# 
# High freq. dielectric constant tensor:
#      x y z
#    x 1.760750 0.000000 0.001060 
#    y 0.000000 1.780750 0.000000 
#    z 0.001060 0.000000 1.796230 
# 
# From -- ./inp_files/29102.got.cif
#   From: 2010.06.25/outbox.cif.g09.slc.cpg/sg11_15_cif.got.tgz:29102.got - 2010.06.27 23:14:04.
