data_PCOD8073482
_publ_section_title
;
Structure prediction by ZEFSAII (Michael W. Deem and Ramdas Pophale) SiO2 
 PCOD8073482
Probable space group: P 21/M
;
_chemical_formula_sum "Si O2"
_cell_formula_units_Z 24
_cell_length_a 9.036633
_cell_length_b 18.896380
_cell_length_c 12.041786
_cell_angle_alpha 90.000000
_cell_angle_beta 142.862509
_cell_angle_gamma 90.000000
_cell_volume 1241.420010
_symmetry_space_group_name_H-M "P 21/M"
_symmetry_group_IT_number 11
_symmetry_cell_setting 'monoclinic'
loop_
_space_group_symop_operation_xyz
x,y,z
-x,1/2+y,-z
-x,-y,-z
x,1/2-y,z
loop_
_atom_site_type_symbol
_atom_site_label
_atom_site_fract_x
_atom_site_fract_y
_atom_site_fract_z
Si Si1 0.430844 0.828943 0.313549
Si Si2 0.944891 0.450092 0.626418
Si Si3 0.420157 0.669540 0.555958
Si Si4 0.099130 0.978188 0.938717
Si Si5 0.639158 0.551998 0.292325
Si Si6 0.958417 0.828963 0.905045
O O1 0.532631 0.750000 0.361215
O O2 0.481088 0.856593 0.467394
O O3 0.574460 0.873031 0.307534
O O4 0.136477 0.832344 0.118216
O O5 0.790411 0.378487 0.518556
O O6 0.799406 0.511410 0.478053
O O7 0.977368 0.471513 0.774158
O O8 0.209071 0.436810 0.729647
O O9 0.322954 0.750000 0.498438
O O10 0.676292 0.661851 0.776447
O O11 0.033357 0.895552 0.871458
O O12 0.391470 0.989755 0.113001
O O13 0.000000 0.000000 0.000000
O O14 0.985738 0.750000 0.863723
#
# Coordination Sequence:
#
# PCOD8073482 Si02
#       6
#     4   4   4   4   4   4
#     4   9  18  34  55  78 103 135 178 220 259 309
#     4  11  22  36  52  77 112 141 175 216 264 323
#     4  10  20  34  54  78 104 136 174 218 263 310
#     4  11  21  35  58  81 103 138 182 225 267 308
#     4  10  22  36  53  78 109 145 174 213 267 319
#     4   9  18  32  51  76 103 130 168 217 262 305
#
# _framework density 19.332699999999999
#
# number of rings (size 3 to 8) (size 9 to 14) (size 15 to 20)
#    0.000    2.000    0.000    4.500    0.000    2.667 
#    0.000    0.000    0.000    1.000    0.000   14.000 
#    0.000    0.000    0.000    0.000    0.000    0.000 
#
# Total GULP energy -297489.780794 kJ/mol
# GULP energy per Si atom -12395.407533 kJ/mol
# Density = 1.928870 g / cm^3
# Si number density = 19.332700 Si / 1000 Ang^3
#
#
#
# Elastic Constant Matrix: (Units=GPa)
#
#
# Indices 1 2 3 4 5 6 
#
# 1 108.8328 49.3113 52.2951 0.0000 12.4173 0.0000
# 2 49.3113 80.5572 31.6353 0.0000 6.3892 0.0000
# 3 52.2951 31.6353 88.3184 0.0000 15.0256 0.0000
# 4 0.0000 0.0000 0.0000 26.1857 0.0000 8.3715
# 5 12.4173 6.3892 15.0256 0.0000 33.0212 0.0000
# 6 0.0000 0.0000 0.0000 8.3715 0.0000 22.3896
#
#
#
# Elastic Compliance Matrix: (Units=1/GPa)
#
#
# Indices 1 2 3 4 5 6 
#
# 1 0.015613 -0.006874 -0.006514 0.000000 -0.001577 0.000000
# 2 -0.006874 0.017479 -0.002228 0.000000 0.000217 0.000000
# 3 -0.006514 -0.002228 0.016787 0.000000 -0.004758 0.000000
# 4 0.000000 0.000000 0.000000 0.043373 0.000000 -0.016217
# 5 -0.001577 0.000217 -0.004758 0.000000 0.033000 0.000000
# 6 0.000000 0.000000 0.000000 -0.016217 0.000000 0.050727
#
#
# Mechanical properties :
#
#
# Convention : Reuss Voigt Hill
#
# Bulk Modulus (GPa) = 53.62581 60.46574 57.04577
# Shear Modulus (GPa) = 23.31800 25.95042 24.63421
#
# Velocity S-wave (km/s) = 3.47672 3.66773 3.57350
# Velocity P-wave (km/s) = 6.62687 7.02001 6.82627
#
# Compressibility (1/GPa) = 0.01864774
#
# Stress axis : x y z
#
# Youngs Moduli (GPa) = 64.04923 57.21207 59.56892
#
# Poissons Ratio (x) = 0.39327 0.38805
# Poissons Ratio (y) = 0.44027 0.13269
# Poissons Ratio (z) = 0.41723 0.12744
#
# Static dielectric constant tensor:
#      x y z
#    x 3.244080 0.000000 0.159030 
#    y 0.000000 3.778490 0.000000 
#    z 0.159030 0.000000 3.749410 
# 
# 
# High freq. dielectric constant tensor:
#      x y z
#    x 1.711690 0.000000 0.014980 
#    y 0.000000 1.764150 0.000000 
#    z 0.014980 0.000000 1.770070 
# 
# From -- ./inp_files/19073.got.cif
#   From: 2010.06.25/outbox.cif.g09.slc.cpg/sg11_10_cif.got.tgz:19073.got - 2010.06.27 23:14:04.
