data_PCOD8073608
_publ_section_title
;
Structure prediction by ZEFSAII (Michael W. Deem and Ramdas Pophale) SiO2 
 PCOD8073608
Probable space group: P 21/M
;
_chemical_formula_sum "Si O2"
_cell_formula_units_Z 28
_cell_length_a 13.827768
_cell_length_b 12.673894
_cell_length_c 9.376267
_cell_angle_alpha 90.000000
_cell_angle_beta 62.293085
_cell_angle_gamma 90.000000
_cell_volume 1454.792286
_symmetry_space_group_name_H-M "P 21/M"
_symmetry_group_IT_number 11
_symmetry_cell_setting 'monoclinic'
loop_
_space_group_symop_operation_xyz
x,y,z
-x,1/2+y,-z
-x,-y,-z
x,1/2-y,z
loop_
_atom_site_type_symbol
_atom_site_label
_atom_site_fract_x
_atom_site_fract_y
_atom_site_fract_z
Si Si1 0.667342 0.008610 0.932340
Si Si2 0.054580 0.029893 0.611422
Si Si3 0.822190 0.127983 0.279879
Si Si4 0.867124 0.128224 0.928208
Si Si5 0.486098 0.869861 0.160918
Si Si6 0.607092 0.025345 0.514207
Si Si7 0.270898 0.371801 0.377285
O O1 0.760762 0.064718 0.956341
O O2 0.588993 0.097731 0.920767
O O3 0.719943 0.934233 0.776653
O O4 0.596741 0.938419 0.089820
O O5 0.148556 0.115742 0.519979
O O6 0.971702 0.081678 0.778365
O O7 0.105190 0.924234 0.645739
O O8 0.000000 0.000000 0.500000
O O9 0.807418 0.250000 0.330698
O O10 0.703907 0.071765 0.350283
O O11 0.882927 0.115376 0.086947
O O12 0.852207 0.250000 0.895372
O O13 0.520950 0.750000 0.117963
O O14 0.419354 0.885098 0.351706
O O15 0.500000 0.000000 0.500000
O O16 0.643364 0.917544 0.567290
O O17 0.298724 0.250000 0.333036
#
# Coordination Sequence:
#
# PCOD8073608 Si02
#       7
#     4   4   4   4   4   4   4
#     4  10  20  36  55  84 118 151 194 245 294 351
#     4  11  22  41  61  88 119 156 201 250 296 354
#     4  10  23  40  61  89 122 157 199 247 299 358
#     4  11  22  39  62  87 118 158 198 241 300 357
#     4  10  20  34  55  81 114 153 196 243 293 347
#     4  10  21  38  58  84 118 156 200 247 291 354
#     4  10  21  37  57  85 118 153 197 247 299 352
#
# _framework density 19.246734
#
# number of rings (size 3 to 8) (size 9 to 14) (size 15 to 20)
#    0.000    1.714    1.429    3.000    0.000    2.286 
#    0.000    3.571    0.000    3.429    0.000    0.000 
#    0.000    0.000    0.000    0.000    0.000    0.000 
#
# Total GULP energy -347295.623270 kJ/mol
# GULP energy per Si atom -12403.415117 kJ/mol
# Density = 1.920293 g / cm^3
# Si number density = 19.246734 Si / 1000 Ang^3
#
#
#
# Elastic Constant Matrix: (Units=GPa)
#
#
# Indices 1 2 3 4 5 6 
#
# 1 122.1560 51.1828 34.0513 0.0000 1.4522 0.0000
# 2 51.1828 131.7770 34.5163 0.0000 4.4187 0.0000
# 3 34.0513 34.5163 96.2854 0.0000 -10.5080 0.0000
# 4 0.0000 0.0000 0.0000 21.1595 0.0000 1.8354
# 5 1.4522 4.4187 -10.5080 0.0000 32.2982 0.0000
# 6 0.0000 0.0000 0.0000 1.8354 0.0000 17.8588
#
#
#
# Elastic Compliance Matrix: (Units=1/GPa)
#
#
# Indices 1 2 3 4 5 6 
#
# 1 0.010289 -0.003301 -0.002547 0.000000 -0.000840 0.000000
# 2 -0.003301 0.009588 -0.002485 0.000000 -0.001972 0.000000
# 3 -0.002547 -0.002485 0.012677 0.000000 0.004579 0.000000
# 4 0.000000 0.000000 0.000000 0.047685 0.000000 -0.004901
# 5 -0.000840 -0.001972 0.004579 0.000000 0.032759 0.000000
# 6 0.000000 0.000000 0.000000 -0.004901 0.000000 0.056498
#
#
# Mechanical properties :
#
#
# Convention : Reuss Voigt Hill
#
# Bulk Modulus (GPa) = 62.93981 65.52436 64.23208
# Shear Modulus (GPa) = 26.11538 29.62785 27.87161
#
# Velocity S-wave (km/s) = 3.68757 3.92774 3.80955
# Velocity P-wave (km/s) = 7.13467 7.39512 7.26606
#
# Compressibility (1/GPa) = 0.01588820
#
# Stress axis : x y z
#
# Youngs Moduli (GPa) = 97.18738 104.30049 78.88306
#
# Poissons Ratio (x) = 0.34431 0.20092
# Poissons Ratio (y) = 0.32083 0.19600
# Poissons Ratio (z) = 0.24755 0.25916
#
# Static dielectric constant tensor:
#      x y z
#    x 3.462690 0.000000 -0.127770 
#    y 0.000000 3.433010 0.000000 
#    z -0.127770 0.000000 3.712190 
# 
# 
# High freq. dielectric constant tensor:
#      x y z
#    x 1.746180 0.000000 -0.010470 
#    y 0.000000 1.749660 0.000000 
#    z -0.010470 0.000000 1.764340 
# 
# From -- ./inp_files/21410.got.cif
#   From: 2010.06.25/outbox.cif.g09.slc.cpg/sg11_11_cif.got.tgz:21410.got - 2010.06.27 23:14:04.
