data_PCOD8073993
_publ_section_title
;
Structure prediction by ZEFSAII (Michael W. Deem and Ramdas Pophale) SiO2 
 PCOD8073993
Probable space group: P 21/M
;
_chemical_formula_sum "Si O2"
_cell_formula_units_Z 28
_cell_length_a 23.724248
_cell_length_b 9.000745
_cell_length_c 13.690036
_cell_angle_alpha 90.000000
_cell_angle_beta 29.955686
_cell_angle_gamma 90.000000
_cell_volume 1459.698634
_symmetry_space_group_name_H-M "P 21/M"
_symmetry_group_IT_number 11
_symmetry_cell_setting 'monoclinic'
loop_
_space_group_symop_operation_xyz
x,y,z
-x,1/2+y,-z
-x,-y,-z
x,1/2-y,z
loop_
_atom_site_type_symbol
_atom_site_label
_atom_site_fract_x
_atom_site_fract_y
_atom_site_fract_z
Si Si1 0.480611 0.573383 0.925390
Si Si2 0.955923 0.425994 0.354126
Si Si3 0.909081 0.424097 0.204411
Si Si4 0.341213 0.923761 0.480123
Si Si5 0.387159 0.923483 0.634562
Si Si6 0.185668 0.926358 0.074785
Si Si7 0.759694 0.426099 0.790773
O O1 0.482406 0.750000 0.933897
O O2 0.576614 0.523104 0.707243
O O3 0.500000 0.500000 0.000000
O O4 0.361178 0.514714 0.063604
O O5 0.969023 0.250000 0.342683
O O6 0.926068 0.476788 0.289776
O O7 0.856289 0.485886 0.573369
O O8 0.070376 0.501275 0.214715
O O9 0.926021 0.250000 0.168293
O O10 0.785242 0.471923 0.356045
O O11 0.000000 0.500000 0.000000
O O12 0.361754 0.750000 0.427012
O O13 0.362430 0.964192 0.560318
O O14 0.403298 0.750000 0.626080
O O15 0.500000 0.000000 0.500000
O O16 0.283230 0.981635 0.855468
O O17 0.171615 0.750000 0.093115
O O18 0.216332 0.985435 0.136520
O O19 0.758607 0.250000 0.792014
#
# Coordination Sequence:
#
# PCOD8073993 Si02
#       7
#     4   4   4   4   4   4   4
#     4  11  22  38  60  84 111 145 184 228 275 329
#     4  10  20  35  55  80 108 141 177 220 273 324
#     4  10  21  37  57  79 109 146 185 229 277 327
#     4  10  21  38  57  80 112 149 185 227 277 330
#     4  10  21  36  56  81 111 145 183 227 275 324
#     4  10  20  36  57  81 108 142 181 221 266 320
#     4   9  19  36  57  79 108 144 180 218 268 326
#
# _framework density 19.182041999999999
#
# number of rings (size 3 to 8) (size 9 to 14) (size 15 to 20)
#    0.000    2.000    0.000    3.429    0.000    6.857 
#    0.000    4.286    0.000    0.000    0.000    0.000 
#    0.000    0.000    0.000    0.000    0.000    0.000 
#
# Total GULP energy -347307.623970 kJ/mol
# GULP energy per Si atom -12403.843713 kJ/mol
# Density = 1.913838 g / cm^3
# Si number density = 19.182042 Si / 1000 Ang^3
#
#
#
# Elastic Constant Matrix: (Units=GPa)
#
#
# Indices 1 2 3 4 5 6 
#
# 1 200.9758 50.7468 109.5207 0.0000 -6.8177 0.0000
# 2 50.7468 38.9747 51.2931 0.0000 -0.7038 0.0000
# 3 109.5207 51.2931 197.0205 0.0000 -0.3373 0.0000
# 4 0.0000 0.0000 0.0000 36.0054 0.0000 -3.5375
# 5 -6.8177 -0.7038 -0.3373 0.0000 45.0118 0.0000
# 6 0.0000 0.0000 0.0000 -3.5375 0.0000 31.5434
#
#
#
# Elastic Compliance Matrix: (Units=1/GPa)
#
#
# Indices 1 2 3 4 5 6 
#
# 1 0.008335 -0.007206 -0.002755 0.000000 0.001129 0.000000
# 2 -0.007206 0.045274 -0.007782 0.000000 -0.000442 0.000000
# 3 -0.002755 -0.007782 0.008632 0.000000 -0.000474 0.000000
# 4 0.000000 0.000000 0.000000 0.028083 0.000000 0.003149
# 5 0.001129 -0.000442 -0.000474 0.000000 0.022377 0.000000
# 6 0.000000 0.000000 0.000000 0.003149 0.000000 0.032056
#
#
# Mechanical properties :
#
#
# Convention : Reuss Voigt Hill
#
# Bulk Modulus (GPa) = 37.37653 95.56579 66.47116
# Shear Modulus (GPa) = 26.43251 37.53948 31.98599
#
# Velocity S-wave (km/s) = 3.71614 4.42861 4.08793
# Velocity P-wave (km/s) = 6.15958 8.72231 7.55047
#
# Compressibility (1/GPa) = 0.02675476
#
# Stress axis : x y z
#
# Youngs Moduli (GPa) = 119.97470 22.08797 115.84277
#
# Poissons Ratio (x) = 0.15917 0.31919
# Poissons Ratio (y) = 0.86454 0.90145
# Poissons Ratio (z) = 0.33057 0.17188
#
# Static dielectric constant tensor:
#      x y z
#    x 3.773820 0.000000 0.046630 
#    y 0.000000 3.261800 0.000000 
#    z 0.046630 0.000000 3.700370 
# 
# 
# High freq. dielectric constant tensor:
#      x y z
#    x 1.768620 0.000000 0.001470 
#    y 0.000000 1.723080 0.000000 
#    z 0.001470 0.000000 1.765990 
# 
# From -- ./inp_files/43188.got.cif
#   From: 2010.06.25/outbox.cif.g09.slc.cpg/sg11_22_cif.got.tgz:43188.got - 2010.06.27 23:14:04.
