data_PCOD8073804
_publ_section_title
;
Structure prediction by ZEFSAII (Michael W. Deem and Ramdas Pophale) SiO2 
 PCOD8073804
Probable space group: P 21/M
;
_chemical_formula_sum "Si O2"
_cell_formula_units_Z 24
_cell_length_a 10.210168
_cell_length_b 18.729552
_cell_length_c 11.593689
_cell_angle_alpha 90.000000
_cell_angle_beta 151.759804
_cell_angle_gamma 90.000000
_cell_volume 1049.054721
_symmetry_space_group_name_H-M "P 21/M"
_symmetry_group_IT_number 11
_symmetry_cell_setting 'monoclinic'
loop_
_space_group_symop_operation_xyz
x,y,z
-x,1/2+y,-z
-x,-y,-z
x,1/2-y,z
loop_
_atom_site_type_symbol
_atom_site_label
_atom_site_fract_x
_atom_site_fract_y
_atom_site_fract_z
Si Si1 0.234140 0.081362 0.340232
Si Si2 0.986430 0.829068 0.014953
Si Si3 0.575119 0.328338 0.285855
Si Si4 0.265618 0.335070 0.578002
Si Si5 0.372723 0.667092 0.927787
Si Si6 0.745331 0.429534 0.593550
O O1 0.394506 0.126076 0.564954
O O2 0.425534 0.057443 0.380787
O O3 0.104685 0.007205 0.291330
O O4 0.004477 0.133685 0.104836
O O5 0.119593 0.750000 0.104872
O O6 0.150727 0.875933 0.230710
O O7 0.678220 0.820618 0.824311
O O8 0.728122 0.250000 0.399388
O O9 0.485466 0.349791 0.086387
O O10 0.774334 0.390290 0.491864
O O11 0.288607 0.250000 0.585570
O O12 0.943736 0.361623 0.325560
O O13 0.431531 0.365290 0.819001
O O14 0.360412 0.750000 0.943645
#
# Coordination Sequence:
#
# PCOD8073804 Si02
#       6
#     4   4   4   4   4   4
#     4  10  22  38  54  82 119 151 193 239 294 357
#     4  10  20  34  59  86 109 145 192 245 292 346
#     4   9  19  36  57  85 112 144 195 245 288 344
#     4  10  21  38  60  87 116 156 198 243 294 351
#     4   9  20  37  60  86 117 153 198 248 295 342
#     4  10  21  37  58  81 114 156 189 238 301 349
#
# _framework density 22.877737
#
# number of rings (size 3 to 8) (size 9 to 14) (size 15 to 20)
#    0.000    2.333    0.000    1.500    4.667    2.000 
#    0.000    1.667    0.000    0.000    0.000    0.000 
#    0.000    0.000    0.000    0.000    0.000    0.000 
#
# Total GULP energy -297322.421623 kJ/mol
# GULP energy per Si atom -12388.434234 kJ/mol
# Density = 2.282567 g / cm^3
# Si number density = 22.877737 Si / 1000 Ang^3
#
#
#
# Elastic Constant Matrix: (Units=GPa)
#
#
# Indices 1 2 3 4 5 6 
#
# 1 103.9221 69.3599 72.8274 0.0000 -62.7162 0.0000
# 2 69.3599 185.4542 83.4137 0.0000 -57.2669 0.0000
# 3 72.8274 83.4137 169.0583 0.0000 -64.1373 0.0000
# 4 0.0000 0.0000 0.0000 8.7447 0.0000 10.4508
# 5 -62.7162 -57.2669 -64.1373 0.0000 62.0186 0.0000
# 6 0.0000 0.0000 0.0000 10.4508 0.0000 0.7889
#
#
#
# Elastic Compliance Matrix: (Units=1/GPa)
#
#
# Indices 1 2 3 4 5 6 
#
# 1 0.025536 -0.001927 -0.001527 0.000000 0.022465 0.000000
# 2 -0.001927 0.008027 -0.001741 0.000000 0.003663 0.000000
# 3 -0.001527 -0.001741 0.010263 0.000000 0.007462 0.000000
# 4 0.000000 0.000000 0.000000 -0.007710 0.000000 0.102138
# 5 0.022465 0.003663 0.007462 0.000000 0.049941 0.000000
# 6 0.000000 0.000000 0.000000 0.102138 0.000000 -0.085464
#
#
# Mechanical properties :
#
#
# Convention : Reuss Voigt Hill
#
# Bulk Modulus (GPa) = 29.90706 101.07071 65.48888
# Shear Modulus (GPa) = 225.96401 29.83267 127.89834
#
# Velocity S-wave (km/s) = 9.94910 3.61502 7.48509
# Velocity P-wave (km/s) = 12.04494 7.85487 10.16808
#
# Compressibility (1/GPa) = 0.03343692
#
# Stress axis : x y z
#
# Youngs Moduli (GPa) = 39.16000 124.58108 97.44108
#
# Poissons Ratio (x) = 0.24002 0.14881
# Poissons Ratio (y) = 0.07545 0.16962
# Poissons Ratio (z) = 0.05980 0.21686
#
# Static dielectric constant tensor:
#      x y z
#    x 4.164170 0.000000 -0.183750 
#    y 0.000000 4.405350 0.000000 
#    z -0.183750 0.000000 4.147090 
# 
# 
# High freq. dielectric constant tensor:
#      x y z
#    x 1.883490 0.000000 -0.025250 
#    y 0.000000 1.889870 0.000000 
#    z -0.025250 0.000000 1.896730 
# 
# From -- ./inp_files/4636.got.cif
#   From: 2010.06.25/outbox.cif.g09.slc.cpg/sg11_3_cif.got.tgz:4636.got - 2010.06.27 23:14:04.
