data_PCOD8073584
_publ_section_title
;
Structure prediction by ZEFSAII (Michael W. Deem and Ramdas Pophale) SiO2 
 PCOD8073584
Probable space group: P 21/M
;
_chemical_formula_sum "Si O2"
_cell_formula_units_Z 32
_cell_length_a 8.772793
_cell_length_b 14.157729
_cell_length_c 24.040223
_cell_angle_alpha 90.000000
_cell_angle_beta 32.683762
_cell_angle_gamma 90.000000
_cell_volume 1612.371763
_symmetry_space_group_name_H-M "P 21/M"
_symmetry_group_IT_number 11
_symmetry_cell_setting 'monoclinic'
loop_
_space_group_symop_operation_xyz
x,y,z
-x,1/2+y,-z
-x,-y,-z
x,1/2-y,z
loop_
_atom_site_type_symbol
_atom_site_label
_atom_site_fract_x
_atom_site_fract_y
_atom_site_fract_z
Si Si1 0.744391 0.859477 0.570286
Si Si2 0.766414 0.855124 0.260339
Si Si3 0.757107 0.462207 0.320902
Si Si4 0.947358 0.857327 0.867616
Si Si5 0.732794 0.357923 0.660797
Si Si6 0.496853 0.357851 0.239771
Si Si7 0.230257 0.508634 0.249567
Si Si8 0.617892 0.358094 0.898522
O O1 0.669937 0.750000 0.594281
O O2 0.530034 0.902650 0.590116
O O3 0.680622 0.897940 0.652134
O O4 0.064723 0.881200 0.454278
O O5 0.681690 0.750000 0.306967
O O6 0.592324 0.877646 0.257150
O O7 0.103785 0.862734 0.147691
O O8 0.672982 0.928685 0.336087
O O9 0.969503 0.426753 0.207485
O O10 0.931410 0.459769 0.324870
O O11 0.938208 0.750000 0.847615
O O12 0.171859 0.864813 0.848778
O O13 0.644478 0.889520 0.983341
O O14 0.776231 0.250000 0.665864
O O15 0.827787 0.420939 0.682446
O O16 0.410284 0.250000 0.252133
O O17 0.436217 0.424024 0.205375
O O18 0.362101 0.568985 0.158735
O O19 0.576501 0.250000 0.889133
#
# Coordination Sequence:
#
# PCOD8073584 Si02
#       8
#     4   4   4   4   4   4   4   4
#     4   9  19  37  59  78 101 138 180 217 255 308
#     4   9  19  34  52  74 102 139 180 214 247 302
#     4  10  20  34  55  80 106 136 175 217 261 313
#     4   9  18  36  60  78 100 140 182 217 256 308
#     4  10  20  36  57  79 104 137 176 217 262 311
#     4   9  19  35  53  78 108 138 177 220 260 306
#     4  11  22  32  51  80 113 142 166 213 269 314
#     4   9  19  37  57  78 106 139 176 218 262 308
#
# _framework density 19.846540000000001
#
# number of rings (size 3 to 8) (size 9 to 14) (size 15 to 20)
#    0.000    2.500    0.000    3.000    0.000    6.500 
#    0.000    2.500    0.000   11.250    0.000    0.000 
#    0.000    0.000    0.000    0.000    0.000    0.000 
#
# Total GULP energy -396661.696517 kJ/mol
# GULP energy per Si atom -12395.678016 kJ/mol
# Density = 1.980137 g / cm^3
# Si number density = 19.846540 Si / 1000 Ang^3
#
#
#
# Elastic Constant Matrix: (Units=GPa)
#
#
# Indices 1 2 3 4 5 6 
#
# 1 122.7070 51.4939 39.5161 0.0000 -13.2165 0.0000
# 2 51.4939 72.2846 35.0913 0.0000 -4.5419 0.0000
# 3 39.5161 35.0913 83.4621 0.0000 -12.3834 0.0000
# 4 0.0000 0.0000 0.0000 21.1130 0.0000 -3.8831
# 5 -13.2165 -4.5419 -12.3834 0.0000 18.5925 0.0000
# 6 0.0000 0.0000 0.0000 -3.8831 0.0000 34.7459
#
#
#
# Elastic Compliance Matrix: (Units=1/GPa)
#
#
# Indices 1 2 3 4 5 6 
#
# 1 0.012617 -0.007717 -0.001862 0.000000 0.005843 0.000000
# 2 -0.007717 0.022110 -0.006275 0.000000 -0.004264 0.000000
# 3 -0.001862 -0.006275 0.016731 0.000000 0.008287 0.000000
# 4 0.000000 0.000000 0.000000 0.048358 0.000000 0.005404
# 5 0.005843 -0.004264 0.008287 0.000000 0.062417 0.000000
# 6 0.000000 0.000000 0.000000 0.005404 0.000000 0.029384
#
#
# Mechanical properties :
#
#
# Convention : Reuss Voigt Hill
#
# Bulk Modulus (GPa) = 50.63341 58.96182 54.79761
# Shear Modulus (GPa) = 21.74780 25.04711 23.39745
#
# Velocity S-wave (km/s) = 3.31388 3.55637 3.43726
# Velocity P-wave (km/s) = 6.34115 6.82913 6.58966
#
# Compressibility (1/GPa) = 0.01974981
#
# Stress axis : x y z
#
# Youngs Moduli (GPa) = 79.25857 45.22855 59.76943
#
# Poissons Ratio (x) = 0.34902 0.11130
# Poissons Ratio (y) = 0.61163 0.37505
# Poissons Ratio (z) = 0.14759 0.28381
#
# Static dielectric constant tensor:
#      x y z
#    x 3.582150 0.000000 -0.252150 
#    y 0.000000 3.878490 0.000000 
#    z -0.252150 0.000000 3.409110 
# 
# 
# High freq. dielectric constant tensor:
#      x y z
#    x 1.760330 0.000000 -0.027410 
#    y 0.000000 1.797070 0.000000 
#    z -0.027410 0.000000 1.745730 
# 
# From -- ./inp_files/68136.got.cif
#   From: 2010.06.25/outbox.cif.g09.slc.cpg/sg11_35_cif.got.tgz:68136.got - 2010.06.27 23:14:04.
