data_PCOD8073536
_publ_section_title
;
Structure prediction by ZEFSAII (Michael W. Deem and Ramdas Pophale) SiO2 
 PCOD8073536
Probable space group: P 21/M
;
_chemical_formula_sum "Si O2"
_cell_formula_units_Z 32
_cell_length_a 29.706898
_cell_length_b 8.889008
_cell_length_c 11.821508
_cell_angle_alpha 90.000000
_cell_angle_beta 29.674039
_cell_angle_gamma 90.000000
_cell_volume 1545.417188
_symmetry_space_group_name_H-M "P 21/M"
_symmetry_group_IT_number 11
_symmetry_cell_setting 'monoclinic'
loop_
_space_group_symop_operation_xyz
x,y,z
-x,1/2+y,-z
-x,-y,-z
x,1/2-y,z
loop_
_atom_site_type_symbol
_atom_site_label
_atom_site_fract_x
_atom_site_fract_y
_atom_site_fract_z
Si Si1 0.400685 0.427095 0.716307
Si Si2 0.130294 0.918637 0.430616
Si Si3 0.194596 0.426757 0.837045
Si Si4 0.228061 0.570082 0.994233
Si Si5 0.604419 0.585408 0.650112
Si Si6 0.978652 0.928578 0.925190
Si Si7 0.320900 0.918291 0.099665
Si Si8 0.436319 0.086469 0.002322
O O1 0.500000 0.500000 0.500000
O O2 0.407840 0.250000 0.677575
O O3 0.330013 0.498937 0.778721
O O4 0.359304 0.460154 0.928867
O O5 0.099718 0.750000 0.468205
O O6 0.046299 0.996249 0.680019
O O7 0.164691 0.991098 0.236760
O O8 0.212407 0.923041 0.341208
O O9 0.187744 0.250000 0.878358
O O10 0.177978 0.517762 0.989400
O O11 0.293003 0.475870 0.575045
O O12 0.122029 0.471651 0.898827
O O13 0.237794 0.750000 0.979808
O O14 0.600623 0.750000 0.599254
O O15 0.534456 0.472379 0.741563
O O16 0.566820 0.602189 0.857681
O O17 0.991590 0.750000 0.909476
O O18 0.000000 0.000000 0.000000
O O19 0.354140 0.750000 0.995229
O O20 0.358017 0.968271 0.140157
O O21 0.420739 0.250000 0.980463
#
# Coordination Sequence:
#
# PCOD8073536 Si02
#       8
#     4   4   4   4   4   4   4   4
#     4  11  22  37  57  84 118 156 198 243 292 349
#     4   8  18  38  60  84 117 155 194 243 298 352
#     4  10  22  39  60  87 121 158 196 250 309 357
#     4  10  21  39  61  86 119 157 202 248 296 355
#     4   9  20  37  53  75 113 154 194 241 295 352
#     4  10  22  41  64  91 121 155 197 246 305 366
#     4  10  20  35  56  82 114 155 194 239 295 350
#     4  10  20  34  54  80 110 150 200 246 291 350
#
# _framework density 20.706382000000001
#
# number of rings (size 3 to 8) (size 9 to 14) (size 15 to 20)
#    0.000    2.250    0.000    3.000    3.500    2.000 
#    0.000    3.125    0.000    0.000    0.000    0.000 
#    0.000    0.000    0.000    0.000    0.000    0.000 
#
# Total GULP energy -396552.311083 kJ/mol
# GULP energy per Si atom -12392.259721 kJ/mol
# Density = 2.065925 g / cm^3
# Si number density = 20.706382 Si / 1000 Ang^3
#
#
#
# Elastic Constant Matrix: (Units=GPa)
#
#
# Indices 1 2 3 4 5 6 
#
# 1 105.3902 43.0062 33.5981 0.0000 -9.9366 0.0000
# 2 43.0062 87.2050 32.7913 0.0000 -5.6835 0.0000
# 3 33.5981 32.7913 115.0854 0.0000 -9.0436 0.0000
# 4 0.0000 0.0000 0.0000 18.2582 0.0000 1.1333
# 5 -9.9366 -5.6835 -9.0436 0.0000 20.2500 0.0000
# 6 0.0000 0.0000 0.0000 1.1333 0.0000 34.7541
#
#
#
# Elastic Compliance Matrix: (Units=1/GPa)
#
#
# Indices 1 2 3 4 5 6 
#
# 1 0.012595 -0.005254 -0.001876 0.000000 0.003868 0.000000
# 2 -0.005254 0.015117 -0.002739 0.000000 0.000442 0.000000
# 3 -0.001876 -0.002739 0.010244 0.000000 0.002886 0.000000
# 4 0.000000 0.000000 0.000000 0.054881 0.000000 -0.001790
# 5 0.003868 0.000442 0.002886 0.000000 0.052693 0.000000
# 6 0.000000 0.000000 0.000000 -0.001790 0.000000 0.028832
#
#
# Mechanical properties :
#
#
# Convention : Reuss Voigt Hill
#
# Bulk Modulus (GPa) = 54.88889 58.49687 56.69288
# Shear Modulus (GPa) = 24.97838 27.87145 26.42491
#
# Velocity S-wave (km/s) = 3.47697 3.67281 3.57623
# Velocity P-wave (km/s) = 6.53336 6.80427 6.67019
#
# Compressibility (1/GPa) = 0.01821862
#
# Stress axis : x y z
#
# Youngs Moduli (GPa) = 79.39464 66.15109 97.61795
#
# Poissons Ratio (x) = 0.34756 0.18314
# Poissons Ratio (y) = 0.41714 0.26735
# Poissons Ratio (z) = 0.14895 0.18117
#
# Static dielectric constant tensor:
#      x y z
#    x 3.753060 0.000000 -0.134690 
#    y 0.000000 3.831230 0.000000 
#    z -0.134690 0.000000 3.824040 
# 
# 
# High freq. dielectric constant tensor:
#      x y z
#    x 1.808690 0.000000 -0.005740 
#    y 0.000000 1.796070 0.000000 
#    z -0.005740 0.000000 1.807140 
# 
# From -- ./inp_files/45207.got.cif
#   From: 2010.06.25/outbox.cif.g09.slc.cpg/sg11_23_cif.got.tgz:45207.got - 2010.06.27 23:14:04.
