data_PCOD8073464
_publ_section_title
;
Structure prediction by ZEFSAII (Michael W. Deem and Ramdas Pophale) SiO2 
 PCOD8073464
Probable space group: P 21/M
;
_chemical_formula_sum "Si O2"
_cell_formula_units_Z 32
_cell_length_a 15.728163
_cell_length_b 9.048688
_cell_length_c 22.818955
_cell_angle_alpha 90.000000
_cell_angle_beta 30.327932
_cell_angle_gamma 90.000000
_cell_volume 1639.858711
_symmetry_space_group_name_H-M "P 21/M"
_symmetry_group_IT_number 11
_symmetry_cell_setting 'monoclinic'
loop_
_space_group_symop_operation_xyz
x,y,z
-x,1/2+y,-z
-x,-y,-z
x,1/2-y,z
loop_
_atom_site_type_symbol
_atom_site_label
_atom_site_fract_x
_atom_site_fract_y
_atom_site_fract_z
Si Si1 0.647218 0.918106 0.185497
Si Si2 0.482949 0.421048 0.448225
Si Si3 0.331182 0.579350 0.168629
Si Si4 0.330349 0.578302 0.035310
Si Si5 0.002646 0.074500 0.561820
Si Si6 0.847597 0.579878 0.955549
Si Si7 0.825903 0.417694 0.175111
Si Si8 0.308131 0.573435 0.447295
O O1 0.663733 0.750000 0.195500
O O2 0.459332 0.972412 0.313016
O O3 0.793418 0.001875 0.133357
O O4 0.684268 0.939497 0.094736
O O5 0.500000 0.500000 0.500000
O O6 0.427091 0.250000 0.488609
O O7 0.665163 0.433455 0.311669
O O8 0.346866 0.506450 0.488563
O O9 0.380866 0.750000 0.144683
O O10 0.287288 0.538548 0.127810
O O11 0.175845 0.538964 0.302323
O O12 0.492784 0.487061 0.092098
O O13 0.337458 0.750000 0.019375
O O14 0.179581 0.509681 0.087587
O O15 0.033666 0.250000 0.537919
O O16 0.000000 0.000000 0.500000
O O17 0.142740 0.001875 0.519692
O O18 0.876539 0.750000 0.921570
O O19 0.013614 0.512829 0.887424
O O20 0.868309 0.250000 0.133957
O O21 0.283623 0.750000 0.466318
#
# Coordination Sequence:
#
# PCOD8073464 Si02
#       8
#     4   4   4   4   4   4   4   4
#     4   9  19  34  54  77 109 148 182 220 277 334
#     4  10  20  36  57  82 112 150 192 238 287 341
#     4   9  21  42  61  79 113 149 182 231 290 341
#     4  10  21  37  59  86 109 143 190 232 279 338
#     4  11  24  41  62  88 118 154 194 242 295 348
#     4  10  20  34  53  80 112 146 180 223 280 334
#     4   9  19  34  52  77 109 143 184 228 274 326
#     4  10  21  38  57  83 115 151 192 236 288 347
#
# _framework density 19.513876
#
# number of rings (size 3 to 8) (size 9 to 14) (size 15 to 20)
#    0.000    2.250    0.000    1.875    1.750    4.500 
#    0.000    2.500    0.000    0.000    0.000    0.000 
#    0.000    0.000    0.000    0.000    0.000    0.000 
#
# Total GULP energy -396825.683307 kJ/mol
# GULP energy per Si atom -12400.802603 kJ/mol
# Density = 1.946946 g / cm^3
# Si number density = 19.513876 Si / 1000 Ang^3
#
#
#
# Elastic Constant Matrix: (Units=GPa)
#
#
# Indices 1 2 3 4 5 6 
#
# 1 115.3796 54.6962 34.6123 0.0000 -2.0653 0.0000
# 2 54.6962 83.5954 36.1288 0.0000 -2.3596 0.0000
# 3 34.6123 36.1288 65.3197 0.0000 -0.3473 0.0000
# 4 0.0000 0.0000 0.0000 25.7133 0.0000 -3.5557
# 5 -2.0653 -2.3596 -0.3473 0.0000 24.1738 0.0000
# 6 0.0000 0.0000 0.0000 -3.5557 0.0000 42.0921
#
#
#
# Elastic Compliance Matrix: (Units=1/GPa)
#
#
# Indices 1 2 3 4 5 6 
#
# 1 0.012962 -0.007232 -0.002866 0.000000 0.000360 0.000000
# 2 -0.007232 0.019803 -0.007115 0.000000 0.001213 0.000000
# 3 -0.002866 -0.007115 0.020760 0.000000 -0.000641 0.000000
# 4 0.000000 0.000000 0.000000 0.039350 0.000000 0.003324
# 5 0.000360 0.001213 -0.000641 0.000000 0.041507 0.000000
# 6 0.000000 0.000000 0.000000 0.003324 0.000000 0.024038
#
#
# Mechanical properties :
#
#
# Convention : Reuss Voigt Hill
#
# Bulk Modulus (GPa) = 52.35886 57.24103 54.79994
# Shear Modulus (GPa) = 25.09882 27.65300 26.37591
#
# Velocity S-wave (km/s) = 3.59026 3.76851 3.68047
# Velocity P-wave (km/s) = 6.63901 6.95218 6.79740
#
# Compressibility (1/GPa) = 0.01909897
#
# Stress axis : x y z
#
# Youngs Moduli (GPa) = 77.15086 50.49669 48.16953
#
# Poissons Ratio (x) = 0.36518 0.13807
# Poissons Ratio (y) = 0.55794 0.34272
# Poissons Ratio (z) = 0.22114 0.35928
#
# Static dielectric constant tensor:
#      x y z
#    x 3.591470 0.000000 -0.027970 
#    y 0.000000 3.644330 0.000000 
#    z -0.027970 0.000000 3.620250 
# 
# 
# High freq. dielectric constant tensor:
#      x y z
#    x 1.766580 0.000000 -0.002090 
#    y 0.000000 1.761980 0.000000 
#    z -0.002090 0.000000 1.757810 
# 
# From -- ./inp_files/68963.got.cif
#   From: 2010.06.25/outbox.cif.g09.slc.cpg/sg11_35_cif.got.tgz:68963.got - 2010.06.27 23:14:04.
