data_PCOD8073590
_publ_section_title
;
Structure prediction by ZEFSAII (Michael W. Deem and Ramdas Pophale) SiO2 
 PCOD8073590
Probable space group: P 21/M
;
_chemical_formula_sum "Si O2"
_cell_formula_units_Z 28
_cell_length_a 20.363892
_cell_length_b 10.114157
_cell_length_c 14.603523
_cell_angle_alpha 90.000000
_cell_angle_beta 29.906191
_cell_angle_gamma 90.000000
_cell_volume 1499.630258
_symmetry_space_group_name_H-M "P 21/M"
_symmetry_group_IT_number 11
_symmetry_cell_setting 'monoclinic'
loop_
_space_group_symop_operation_xyz
x,y,z
-x,1/2+y,-z
-x,-y,-z
x,1/2-y,z
loop_
_atom_site_type_symbol
_atom_site_label
_atom_site_fract_x
_atom_site_fract_y
_atom_site_fract_z
Si Si1 0.703917 0.454897 0.318251
Si Si2 0.586365 0.889810 0.312385
Si Si3 0.399449 0.599648 0.012690
Si Si4 0.836185 0.094313 0.342969
Si Si5 0.930976 0.104754 0.911294
Si Si6 0.285033 0.599949 0.963946
Si Si7 0.369015 0.599245 0.255017
O O1 0.567998 0.373826 0.478624
O O2 0.670623 0.590614 0.304375
O O3 0.748256 0.471380 0.369556
O O4 0.820404 0.381506 0.123363
O O5 0.633755 0.750000 0.213008
O O6 0.608170 0.006230 0.213446
O O7 0.454031 0.750000 0.942249
O O8 0.518364 0.500160 0.848223
O O9 0.288202 0.576284 0.069598
O O10 0.334592 0.572037 0.190073
O O11 0.863188 0.250000 0.291093
O O12 0.762258 0.073536 0.528353
O O13 0.971492 0.013988 0.183239
O O14 0.000640 0.250000 0.821561
O O15 0.861082 0.070811 0.898421
O O16 0.325999 0.750000 0.890695
O O17 0.418544 0.750000 0.210057
#
# Coordination Sequence:
#
# PCOD8073590 Si02
#       7
#     4   4   4   4   4   4   4
#     4  10  21  34  51  74 104 135 166 209 261 302
#     4  10  20  34  55  81 105 131 169 212 254 308
#     4   9  17  33  57  81 106 135 165 202 256 316
#     4  11  22  36  53  73 102 139 176 213 253 297
#     4  10  21  36  51  69  98 136 178 217 252 298
#     4   9  19  35  54  77 106 137 167 208 261 306
#     4   9  19  34  53  80 109 134 165 209 257 304
#
# _framework density 18.671268999999999
#
# number of rings (size 3 to 8) (size 9 to 14) (size 15 to 20)
#    0.000    2.286    0.000    2.571    0.000    9.143 
#    0.000    0.714    0.000    0.000    0.000    0.000 
#    0.000    0.000    0.000    0.000    0.000    0.000 
#
# Total GULP energy -346963.537620 kJ/mol
# GULP energy per Si atom -12391.554915 kJ/mol
# Density = 1.862877 g / cm^3
# Si number density = 18.671269 Si / 1000 Ang^3
#
#
#
# Elastic Constant Matrix: (Units=GPa)
#
#
# Indices 1 2 3 4 5 6 
#
# 1 137.5038 59.5004 53.1623 0.0000 3.3875 0.0000
# 2 59.5004 96.5163 40.5557 0.0000 -5.2014 0.0000
# 3 53.1623 40.5557 72.1347 0.0000 -2.3835 0.0000
# 4 0.0000 0.0000 0.0000 9.0948 0.0000 6.5927
# 5 3.3875 -5.2014 -2.3835 0.0000 22.8137 0.0000
# 6 0.0000 0.0000 0.0000 6.5927 0.0000 8.5659
#
#
#
# Elastic Compliance Matrix: (Units=1/GPa)
#
#
# Indices 1 2 3 4 5 6 
#
# 1 0.011843 -0.004942 -0.006066 0.000000 -0.003519 0.000000
# 2 -0.004942 0.015749 -0.005087 0.000000 0.003793 0.000000
# 3 -0.006066 -0.005087 0.021259 0.000000 0.001962 0.000000
# 4 0.000000 0.000000 0.000000 0.248708 0.000000 -0.191416
# 5 -0.003519 0.003793 0.001962 0.000000 0.045426 0.000000
# 6 0.000000 0.000000 0.000000 -0.191416 0.000000 0.264064
#
#
# Mechanical properties :
#
#
# Convention : Reuss Voigt Hill
#
# Bulk Modulus (GPa) = 60.02123 68.06575 64.04349
# Shear Modulus (GPa) = 7.75445 18.29065 13.02255
#
# Velocity S-wave (km/s) = 2.04014 3.13328 2.64382
# Velocity P-wave (km/s) = 6.14538 7.04442 6.61020
#
# Compressibility (1/GPa) = 0.01666077
#
# Stress axis : x y z
#
# Youngs Moduli (GPa) = 84.43955 63.49418 47.03978
#
# Poissons Ratio (x) = 0.31376 0.28534
# Poissons Ratio (y) = 0.41727 0.23931
# Poissons Ratio (z) = 0.51221 0.32303
#
# Static dielectric constant tensor:
#      x y z
#    x 3.669120 0.000000 0.125960 
#    y 0.000000 3.489570 0.000000 
#    z 0.125960 0.000000 3.125060 
# 
# 
# High freq. dielectric constant tensor:
#      x y z
#    x 1.732870 0.000000 0.009980 
#    y 0.000000 1.731260 0.000000 
#    z 0.009980 0.000000 1.691380 
# 
# From -- ./inp_files/54492.got.cif
#   From: 2010.06.25/outbox.cif.g09.slc.cpg/sg11_28_cif.got.tgz:54492.got - 2010.06.27 23:14:04.
