data_PCOD8073577
_publ_section_title
;
Structure prediction by ZEFSAII (Michael W. Deem and Ramdas Pophale) SiO2 
 PCOD8073577
Probable space group: P 21/M
;
_chemical_formula_sum "Si O2"
_cell_formula_units_Z 32
_cell_length_a 20.122386
_cell_length_b 8.957545
_cell_length_c 25.261111
_cell_angle_alpha 90.000000
_cell_angle_beta 20.406162
_cell_angle_gamma 90.000000
_cell_volume 1587.592541
_symmetry_space_group_name_H-M "P 21/M"
_symmetry_group_IT_number 11
_symmetry_cell_setting 'monoclinic'
loop_
_space_group_symop_operation_xyz
x,y,z
-x,1/2+y,-z
-x,-y,-z
x,1/2-y,z
loop_
_atom_site_type_symbol
_atom_site_label
_atom_site_fract_x
_atom_site_fract_y
_atom_site_fract_z
Si Si1 0.190287 0.919265 0.510655
Si Si2 0.844714 0.416843 0.082579
Si Si3 0.220126 0.577845 0.667895
Si Si4 0.593604 0.085588 0.366835
Si Si5 0.172275 0.926485 0.401981
Si Si6 0.443715 0.923851 0.892033
Si Si7 0.029215 0.924606 0.231528
Si Si8 0.612029 0.921090 0.174521
O O1 0.119739 0.750000 0.570373
O O2 0.155325 0.972789 0.476325
O O3 0.415795 0.931908 0.354328
O O4 0.073476 0.017840 0.639086
O O5 0.909136 0.250000 0.016467
O O6 0.661593 0.403310 0.256404
O O7 0.792420 0.522348 0.072752
O O8 0.000000 0.500000 0.000000
O O9 0.179833 0.750000 0.686467
O O10 0.233226 0.541017 0.721427
O O11 0.427384 0.535374 0.490693
O O12 0.054242 0.490819 0.760912
O O13 0.517610 0.250000 0.441594
O O14 0.167745 0.750000 0.398612
O O15 0.370123 0.984623 0.228159
O O16 0.000000 0.000000 0.500000
O O17 0.494030 0.750000 0.857503
O O18 0.396963 0.967999 0.867442
O O19 0.255231 0.961605 0.067451
O O20 0.993972 0.750000 0.254528
O O21 0.646580 0.750000 0.130318
#
# Coordination Sequence:
#
# PCOD8073577 Si02
#       8
#     4   4   4   4   4   4   4   4
#     4   9  20  38  61  89 117 150 191 231 277 336
#     4  11  23  36  51  74 104 141 188 240 293 347
#     4  10  20  34  55  77 102 141 183 231 287 344
#     4   9  20  37  52  72 100 136 185 235 288 346
#     4  10  21  40  67  96 123 156 193 231 277 335
#     4  10  22  39  59  88 121 155 195 238 285 340
#     4  11  23  36  55  85 118 151 190 237 287 337
#     4  10  21  38  58  81 110 148 195 244 294 350
#
# _framework density 20.156303999999999
#
# number of rings (size 3 to 8) (size 9 to 14) (size 15 to 20)
#    0.000    2.000    0.000    3.750    1.750    8.500 
#    0.000    0.625    0.000    0.000    0.000    0.000 
#    0.000    0.000    0.000    0.000    0.000    0.000 
#
# Total GULP energy -396674.668513 kJ/mol
# GULP energy per Si atom -12396.083391 kJ/mol
# Density = 2.011043 g / cm^3
# Si number density = 20.156304 Si / 1000 Ang^3
#
#
#
# Elastic Constant Matrix: (Units=GPa)
#
#
# Indices 1 2 3 4 5 6 
#
# 1 59.0589 24.1525 19.6066 0.0000 -28.2322 0.0000
# 2 24.1525 92.7719 38.0691 0.0000 -13.4094 0.0000
# 3 19.6066 38.0691 75.9778 0.0000 -19.2138 0.0000
# 4 0.0000 0.0000 0.0000 32.9734 0.0000 -4.1936
# 5 -28.2322 -13.4094 -19.2138 0.0000 35.1619 0.0000
# 6 0.0000 0.0000 0.0000 -4.1936 0.0000 34.2541
#
#
#
# Elastic Compliance Matrix: (Units=1/GPa)
#
#
# Indices 1 2 3 4 5 6 
#
# 1 0.029119 -0.004543 0.000274 0.000000 0.021798 0.000000
# 2 -0.004543 0.014365 -0.006454 0.000000 -0.001696 0.000000
# 3 0.000274 -0.006454 0.018285 0.000000 0.007750 0.000000
# 4 0.000000 0.000000 0.000000 0.030807 0.000000 0.003772
# 5 0.021798 -0.001696 0.007750 0.000000 0.049530 0.000000
# 6 0.000000 0.000000 0.000000 0.003772 0.000000 0.029655
#
#
# Mechanical properties :
#
#
# Convention : Reuss Voigt Hill
#
# Bulk Modulus (GPa) = 24.79964 43.49610 34.14787
# Shear Modulus (GPa) = 24.19569 30.20993 27.20281
#
# Velocity S-wave (km/s) = 3.46844 3.87561 3.67767
# Velocity P-wave (km/s) = 5.32640 6.45394 5.91709
#
# Compressibility (1/GPa) = 0.04032317
#
# Stress axis : x y z
#
# Youngs Moduli (GPa) = 34.34186 69.61268 54.68990
#
# Poissons Ratio (x) = 0.31623 -0.01499
# Poissons Ratio (y) = 0.15601 0.35299
# Poissons Ratio (z) = -0.00941 0.44931
#
# Static dielectric constant tensor:
#      x y z
#    x 3.644750 0.000000 -0.024050 
#    y 0.000000 3.815620 0.000000 
#    z -0.024050 0.000000 3.783610 
# 
# 
# High freq. dielectric constant tensor:
#      x y z
#    x 1.769490 0.000000 -0.004040 
#    y 0.000000 1.798690 0.000000 
#    z -0.004040 0.000000 1.784750 
# 
# From -- ./inp_files/72023.got.cif
#   From: 2010.06.25/outbox.cif.g09.slc.cpg/sg11_37_cif.got.tgz:72023.got - 2010.06.27 23:14:04.
