data_PCOD8073189
_publ_section_title
;
Structure prediction by ZEFSAII (Michael W. Deem and Ramdas Pophale) SiO2 
 PCOD8073189
Probable space group: P 21/M
;
_chemical_formula_sum "Si O2"
_cell_formula_units_Z 32
_cell_length_a 14.529671
_cell_length_b 17.292373
_cell_length_c 12.020083
_cell_angle_alpha 90.000000
_cell_angle_beta 34.179623
_cell_angle_gamma 90.000000
_cell_volume 1696.645946
_symmetry_space_group_name_H-M "P 21/M"
_symmetry_group_IT_number 11
_symmetry_cell_setting 'monoclinic'
loop_
_space_group_symop_operation_xyz
x,y,z
-x,1/2+y,-z
-x,-y,-z
x,1/2-y,z
loop_
_atom_site_type_symbol
_atom_site_label
_atom_site_fract_x
_atom_site_fract_y
_atom_site_fract_z
Si Si1 0.821733 0.338684 0.178269
Si Si2 0.183127 0.526846 0.446910
Si Si3 0.324168 0.840854 0.447100
Si Si4 0.377026 0.064491 0.821857
Si Si5 0.622975 0.564492 0.575910
Si Si6 0.324167 0.840854 0.904559
Si Si7 0.183123 0.526847 0.186837
Si Si8 0.873288 0.927862 0.126713
O O1 0.777029 0.250000 0.222972
O O2 0.742349 0.374195 0.368702
O O3 0.742348 0.374196 0.146607
O O4 0.016240 0.351265 0.983760
O O5 0.223562 0.612334 0.454007
O O6 0.301935 0.463925 0.382964
O O7 0.218352 0.528325 0.281646
O O8 0.000002 0.499999 0.657713
O O9 0.292851 0.750000 0.459414
O O10 0.519517 0.858071 0.252543
O O11 0.235905 0.077544 0.873567
O O12 0.499999 0.999999 0.650629
O O13 0.301925 0.036076 0.013170
O O14 0.519517 0.641931 0.708422
O O15 0.764106 0.577544 0.345374
O O16 0.292846 0.750000 0.954884
O O17 0.223561 0.887665 0.098866
O O18 0.000000 0.000000 0.000000
#
# Coordination Sequence:
#
# PCOD8073189 Si02
#       8
#     4   4   4   4   4   4   4   4
#     4  10  21  35  51  75 108 141 171 211 264 314
#     4  10  21  38  58  79 105 139 179 223 270 319
#     4  10  21  37  56  79 109 143 179 220 268 322
#     4  10  20  33  53  79 107 140 175 218 265 315
#     4  10  20  33  53  79 107 140 175 218 265 315
#     4  10  21  37  56  79 109 143 179 220 268 322
#     4  10  21  38  58  79 105 139 179 223 270 319
#     4  12  20  31  54  81 108 141 181 219 257 312
#
# _framework density 18.860742999999999
#
# number of rings (size 3 to 8) (size 9 to 14) (size 15 to 20)
#    0.000    1.750    0.000    6.375    0.000    6.000 
#    0.000    1.250    0.000    1.500    0.000    0.000 
#    0.000    0.000    0.000    0.000    0.000    0.000 
#
# Total GULP energy -396713.180152 kJ/mol
# GULP energy per Si atom -12397.286880 kJ/mol
# Density = 1.881781 g / cm^3
# Si number density = 18.860743 Si / 1000 Ang^3
#
#
#
# Elastic Constant Matrix: (Units=GPa)
#
#
# Indices 1 2 3 4 5 6 
#
# 1 132.9857 53.8151 70.0873 0.0000 -0.7780 0.0000
# 2 53.8151 78.5560 53.6229 0.0000 0.2215 0.0000
# 3 70.0873 53.6229 133.6798 0.0000 -0.0631 0.0000
# 4 0.0000 0.0000 0.0000 26.1364 0.0000 -5.5100
# 5 -0.7780 0.2215 -0.0631 0.0000 30.9240 0.0000
# 6 0.0000 0.0000 0.0000 -5.5100 0.0000 21.5111
#
#
#
# Elastic Compliance Matrix: (Units=1/GPa)
#
#
# Indices 1 2 3 4 5 6 
#
# 1 0.011815 -0.005325 -0.004059 0.000000 0.000327 0.000000
# 2 -0.005325 0.019930 -0.005203 0.000000 -0.000287 0.000000
# 3 -0.004059 -0.005203 0.011696 0.000000 -0.000041 0.000000
# 4 0.000000 0.000000 0.000000 0.040445 0.000000 0.010360
# 5 0.000327 -0.000287 -0.000041 0.000000 0.032348 0.000000
# 6 0.000000 0.000000 0.000000 0.010360 0.000000 0.049141
#
#
# Mechanical properties :
#
#
# Convention : Reuss Voigt Hill
#
# Bulk Modulus (GPa) = 70.08569 77.80801 73.94685
# Shear Modulus (GPa) = 25.08752 26.89406 25.99079
#
# Velocity S-wave (km/s) = 3.65107 3.78024 3.71622
# Velocity P-wave (km/s) = 7.41714 7.77156 7.59642
#
# Compressibility (1/GPa) = 0.01426825
#
# Stress axis : x y z
#
# Youngs Moduli (GPa) = 84.63666 50.17636 85.50290
#
# Poissons Ratio (x) = 0.26716 0.34703
# Poissons Ratio (y) = 0.45065 0.44486
# Poissons Ratio (z) = 0.34351 0.26106
#
# Static dielectric constant tensor:
#      x y z
#    x 3.605940 0.000000 -0.152550 
#    y 0.000000 3.323990 0.000000 
#    z -0.152550 0.000000 3.733910 
# 
# 
# High freq. dielectric constant tensor:
#      x y z
#    x 1.738760 0.000000 -0.006480 
#    y 0.000000 1.719590 0.000000 
#    z -0.006480 0.000000 1.744200 
# 
# From -- ./inp_files/39960.got.cif
#   From: 2010.06.25/outbox.cif.g09.slc.cpg/sg11_20_cif.got.tgz:39960.got - 2010.06.27 23:14:04.
