data_PCOD8073567
_publ_section_title
;
Structure prediction by ZEFSAII (Michael W. Deem and Ramdas Pophale) SiO2 
 PCOD8073567
Probable space group: P 21/M
;
_chemical_formula_sum "Si O2"
_cell_formula_units_Z 32
_cell_length_a 14.123762
_cell_length_b 8.983164
_cell_length_c 23.321647
_cell_angle_alpha 90.000000
_cell_angle_beta 148.019921
_cell_angle_gamma 90.000000
_cell_volume 1567.136777
_symmetry_space_group_name_H-M "P 21/M"
_symmetry_group_IT_number 11
_symmetry_cell_setting 'monoclinic'
loop_
_space_group_symop_operation_xyz
x,y,z
-x,1/2+y,-z
-x,-y,-z
x,1/2-y,z
loop_
_atom_site_type_symbol
_atom_site_label
_atom_site_fract_x
_atom_site_fract_y
_atom_site_fract_z
Si Si1 0.689205 0.573948 0.106138
Si Si2 0.205666 0.074250 0.715595
Si Si3 0.158540 0.574201 0.045412
Si Si4 0.441343 0.425125 0.734118
Si Si5 0.277810 0.584029 0.343489
Si Si6 0.095937 0.420791 0.896255
Si Si7 0.329131 0.082235 0.482710
Si Si8 0.181164 0.576334 0.510950
O O1 0.663653 0.750000 0.096411
O O2 0.771857 0.510408 0.208309
O O3 0.817198 0.528411 0.119307
O O4 0.500000 0.500000 0.000000
O O5 0.191282 0.250000 0.713632
O O6 0.373927 0.025068 0.762857
O O7 0.024008 0.018045 0.590870
O O8 0.132344 0.750000 0.035440
O O9 0.161081 0.525557 0.980656
O O10 0.352949 0.525732 0.170025
O O11 0.000000 0.500000 0.000000
O O12 0.423705 0.250000 0.718630
O O13 0.310722 0.493559 0.620598
O O14 0.262138 0.750000 0.363127
O O15 0.457839 0.571717 0.399087
O O16 0.274724 0.458184 0.390220
O O17 0.116596 0.557426 0.216903
O O18 0.146059 0.250000 0.936179
O O19 0.262507 0.250000 0.461892
O O20 0.240868 0.960042 0.477445
O O21 0.196828 0.750000 0.531313
#
# Coordination Sequence:
#
# PCOD8073567 Si02
#       8
#     4   4   4   4   4   4   4   4
#     4  10  20  36  60  88 120 157 197 242 297 356
#     4   9  19  38  62  87 119 159 198 239 295 354
#     4  11  25  43  64  88 118 156 201 252 302 359
#     4  10  22  41  62  84 116 157 201 250 300 353
#     4   9  19  36  57  80 111 151 193 239 290 344
#     4  10  21  38  61  87 117 154 197 243 294 354
#     4  10  20  34  54  83 117 152 193 238 289 350
#     4  11  22  36  59  87 118 155 198 245 296 356
#
# _framework density 20.419405000000001
#
# number of rings (size 3 to 8) (size 9 to 14) (size 15 to 20)
#    0.000    2.000    0.000    3.000    1.750    5.500 
#    0.000    3.750    0.000    0.000    0.000    0.000 
#    0.000    0.000    0.000    0.000    0.000    0.000 
#
# Total GULP energy -396762.820919 kJ/mol
# GULP energy per Si atom -12398.838154 kJ/mol
# Density = 2.037293 g / cm^3
# Si number density = 20.419405 Si / 1000 Ang^3
#
#
#
# Elastic Constant Matrix: (Units=GPa)
#
#
# Indices 1 2 3 4 5 6 
#
# 1 99.8758 31.0536 47.2920 0.0000 12.5423 0.0000
# 2 31.0536 37.6889 36.6062 0.0000 10.3825 0.0000
# 3 47.2920 36.6062 135.4852 0.0000 15.4859 0.0000
# 4 0.0000 0.0000 0.0000 32.1860 0.0000 -2.8072
# 5 12.5423 10.3825 15.4859 0.0000 29.8670 0.0000
# 6 0.0000 0.0000 0.0000 -2.8072 0.0000 33.2173
#
#
#
# Elastic Compliance Matrix: (Units=1/GPa)
#
#
# Indices 1 2 3 4 5 6 
#
# 1 0.014084 -0.008900 -0.002327 0.000000 -0.001614 0.000000
# 2 -0.008900 0.043458 -0.007798 0.000000 -0.007327 0.000000
# 3 -0.002327 -0.007798 0.010501 0.000000 -0.001757 0.000000
# 4 0.000000 0.000000 0.000000 0.031300 0.000000 0.002645
# 5 -0.001614 -0.007327 -0.001757 0.000000 0.037617 0.000000
# 6 0.000000 0.000000 0.000000 0.002645 0.000000 0.030328
#
#
# Mechanical properties :
#
#
# Convention : Reuss Voigt Hill
#
# Bulk Modulus (GPa) = 33.34022 55.88371 44.61197
# Shear Modulus (GPa) = 23.21953 29.59393 26.40673
#
# Velocity S-wave (km/s) = 3.37579 3.81110 3.60003
# Velocity P-wave (km/s) = 5.61763 6.84057 6.25904
#
# Compressibility (1/GPa) = 0.02999380
#
# Stress axis : x y z
#
# Youngs Moduli (GPa) = 71.00183 23.01068 95.23056
#
# Poissons Ratio (x) = 0.20479 0.22161
# Poissons Ratio (y) = 0.63189 0.74259
# Poissons Ratio (z) = 0.16523 0.17943
#
# Static dielectric constant tensor:
#      x y z
#    x 3.889490 0.000000 0.200330 
#    y 0.000000 3.545750 0.000000 
#    z 0.200330 0.000000 3.887670 
# 
# 
# High freq. dielectric constant tensor:
#      x y z
#    x 1.803330 0.000000 0.007630 
#    y 0.000000 1.780220 0.000000 
#    z 0.007630 0.000000 1.808630 
# 
# From -- ./inp_files/69165.got.cif
#   From: 2010.06.25/outbox.cif.g09.slc.cpg/sg11_35_cif.got.tgz:69165.got - 2010.06.27 23:14:04.
