data_PCOD8073337
_publ_section_title
;
Structure prediction by ZEFSAII (Michael W. Deem and Ramdas Pophale) SiO2 
 PCOD8073337
Probable space group: P 21/M
;
_chemical_formula_sum "Si O2"
_cell_formula_units_Z 32
_cell_length_a 22.972726
_cell_length_b 9.140459
_cell_length_c 28.348691
_cell_angle_alpha 90.000000
_cell_angle_beta 16.777365
_cell_angle_gamma 90.000000
_cell_volume 1718.266395
_symmetry_space_group_name_H-M "P 21/M"
_symmetry_group_IT_number 11
_symmetry_cell_setting 'monoclinic'
loop_
_space_group_symop_operation_xyz
x,y,z
-x,1/2+y,-z
-x,-y,-z
x,1/2-y,z
loop_
_atom_site_type_symbol
_atom_site_label
_atom_site_fract_x
_atom_site_fract_y
_atom_site_fract_z
Si Si1 0.048718 0.419776 0.069130
Si Si2 0.163096 0.420012 0.084901
Si Si3 0.061895 0.083910 0.563891
Si Si4 0.160179 0.420373 0.843195
Si Si5 0.870008 0.423478 0.395086
Si Si6 0.567191 0.578609 0.792031
Si Si7 0.817734 0.419571 0.666190
Si Si8 0.430862 0.419940 0.715058
O O1 0.024130 0.250000 0.075165
O O2 0.045922 0.446416 0.126963
O O3 0.856712 0.505859 0.195487
O O4 0.257162 0.482641 0.884610
O O5 0.222771 0.250000 0.044276
O O6 0.017853 0.475938 0.238979
O O7 0.362220 0.517174 0.929801
O O8 0.081848 0.250000 0.566265
O O9 0.257358 0.041835 0.381371
O O10 0.856685 0.064937 0.692171
O O11 0.042906 0.978815 0.623119
O O12 0.108877 0.250000 0.878814
O O13 0.375353 0.444298 0.702588
O O14 0.000000 0.500000 0.000000
O O15 0.861520 0.250000 0.402758
O O16 0.647712 0.492455 0.557977
O O17 0.549022 0.750000 0.816075
O O18 0.613648 0.497810 0.806140
O O19 0.814855 0.250000 0.653508
O O20 0.000000 0.500000 0.500000
O O21 0.450170 0.250000 0.711451
#
# Coordination Sequence:
#
# PCOD8073337 Si02
#       8
#     4   4   4   4   4   4   4   4
#     4   9  17  31  50  72  99 130 165 206 252 300
#     4  10  21  35  51  73 102 136 172 210 253 302
#     4   9  19  34  52  77 104 129 161 205 253 298
#     4   9  16  28  48  73  99 126 161 206 253 299
#     4  10  20  34  52  73  99 135 175 209 247 300
#     4  10  20  34  54  79 104 132 169 211 255 303
#     4   9  17  31  52  78 106 132 164 208 256 304
#     4   8  15  29  49  71  95 126 162 201 246 294
#
# _framework density 18.623422000000001
#
# number of rings (size 3 to 8) (size 9 to 14) (size 15 to 20)
#    0.000    2.750    0.000    3.375    0.000    5.000 
#    0.000    5.625    0.000    0.000    0.000    0.000 
#    0.000    0.000    0.000    0.000    0.000    0.000 
#
# Total GULP energy -396608.629368 kJ/mol
# GULP energy per Si atom -12394.019668 kJ/mol
# Density = 1.858103 g / cm^3
# Si number density = 18.623422 Si / 1000 Ang^3
#
#
#
# Elastic Constant Matrix: (Units=GPa)
#
#
# Indices 1 2 3 4 5 6 
#
# 1 126.4589 47.2782 33.1624 0.0000 -2.6904 0.0000
# 2 47.2782 69.3618 17.2538 0.0000 -2.9930 0.0000
# 3 33.1624 17.2538 28.4083 0.0000 7.9826 0.0000
# 4 0.0000 0.0000 0.0000 18.4664 0.0000 -5.2868
# 5 -2.6904 -2.9930 7.9826 0.0000 19.8916 0.0000
# 6 0.0000 0.0000 0.0000 -5.2868 0.0000 36.8582
#
#
#
# Elastic Compliance Matrix: (Units=1/GPa)
#
#
# Indices 1 2 3 4 5 6 
#
# 1 0.014085 -0.005543 -0.015077 0.000000 0.007122 0.000000
# 2 -0.005543 0.020232 -0.007283 0.000000 0.005217 0.000000
# 3 -0.015077 -0.007283 0.065491 0.000000 -0.029417 0.000000
# 4 0.000000 0.000000 0.000000 0.056471 0.000000 0.008100
# 5 0.007122 0.005217 -0.029417 0.000000 0.063826 0.000000
# 6 0.000000 0.000000 0.000000 0.008100 0.000000 0.028293
#
#
# Mechanical properties :
#
#
# Convention : Reuss Voigt Hill
#
# Bulk Modulus (GPa) = 22.72659 46.62419 34.67539
# Shear Modulus (GPa) = 15.68021 23.47888 19.57955
#
# Velocity S-wave (km/s) = 2.90481 3.55451 3.24595
# Velocity P-wave (km/s) = 4.84564 6.47577 5.71909
#
# Compressibility (1/GPa) = 0.04400132
#
# Stress axis : x y z
#
# Youngs Moduli (GPa) = 70.99570 49.42579 15.26929
#
# Poissons Ratio (x) = 0.27397 0.23022
# Poissons Ratio (y) = 0.39354 0.11121
# Poissons Ratio (z) = 1.07041 0.35999
#
# Static dielectric constant tensor:
#      x y z
#    x 4.483560 0.000000 -0.685210 
#    y 0.000000 3.418780 0.000000 
#    z -0.685210 0.000000 3.522500 
# 
# 
# High freq. dielectric constant tensor:
#      x y z
#    x 1.735530 0.000000 -0.021870 
#    y 0.000000 1.711900 0.000000 
#    z -0.021870 0.000000 1.686460 
# 
# From -- ./inp_files/72099.got.cif
#   From: 2010.06.25/outbox.cif.g09.slc.cpg/sg11_37_cif.got.tgz:72099.got - 2010.06.27 23:14:04.
