data_PCOD8073021
_publ_section_title
;
Structure prediction by ZEFSAII (Michael W. Deem and Ramdas Pophale) SiO2 
 PCOD8073021
Probable space group: P 21/M
;
_chemical_formula_sum "Si O2"
_cell_formula_units_Z 32
_cell_length_a 12.585016
_cell_length_b 8.926455
_cell_length_c 32.817473
_cell_angle_alpha 90.000000
_cell_angle_beta 26.286566
_cell_angle_gamma 90.000000
_cell_volume 1632.696069
_symmetry_space_group_name_H-M "P 21/M"
_symmetry_group_IT_number 11
_symmetry_cell_setting 'monoclinic'
loop_
_space_group_symop_operation_xyz
x,y,z
-x,1/2+y,-z
-x,-y,-z
x,1/2-y,z
loop_
_atom_site_type_symbol
_atom_site_label
_atom_site_fract_x
_atom_site_fract_y
_atom_site_fract_z
Si Si1 0.138185 0.574652 0.126449
Si Si2 0.589222 0.086462 0.232934
Si Si3 0.636833 0.084268 0.805470
Si Si4 0.877371 0.915567 0.656301
Si Si5 0.480802 0.425452 0.071042
Si Si6 0.173042 0.086003 0.911651
Si Si7 0.582107 0.925457 0.314012
Si Si8 0.871781 0.928428 0.504335
O O1 0.165489 0.750000 0.126491
O O2 0.255981 0.482352 0.122304
O O3 0.859784 0.525973 0.221789
O O4 0.270637 0.535387 0.038132
O O5 0.662777 0.250000 0.225601
O O6 0.389061 0.110548 0.268048
O O7 0.817543 0.007548 0.133465
O O8 0.490185 0.974043 0.301064
O O9 0.730055 0.250000 0.786103
O O10 0.431599 0.103198 0.842671
O O11 0.856155 0.993513 0.708377
O O12 0.525535 0.002236 0.882827
O O13 0.999453 0.750000 0.618633
O O14 0.015367 0.021037 0.577151
O O15 0.453566 0.250000 0.087151
O O16 0.066640 0.250000 0.937981
O O17 0.000000 0.000000 0.000000
O O18 0.545172 0.750000 0.333497
O O19 0.405393 0.016309 0.404644
O O20 0.884705 0.750000 0.504490
O O21 0.000000 0.000000 0.500000
#
# Coordination Sequence:
#
# PCOD8073021 Si02
#       8
#     4   4   4   4   4   4   4   4
#     4   9  21  39  58  84 114 147 187 234 284 335
#     4  10  20  33  50  74 107 145 186 227 272 324
#     4  10  21  36  55  80 109 146 186 229 279 336
#     4  10  20  36  56  80 110 146 188 232 273 328
#     4  10  20  37  61  86 111 146 188 235 285 336
#     4  10  21  34  48  71 105 145 186 227 273 326
#     4  11  22  36  56  82 113 150 188 232 282 334
#     4  12  23  36  56  82 114 153 192 233 281 335
#
# _framework density 19.599482999999999
#
# number of rings (size 3 to 8) (size 9 to 14) (size 15 to 20)
#    0.000    1.750    1.250    3.375    1.750    4.000 
#    0.000    0.000    0.000    0.750    0.000    0.000 
#    0.000    0.000    0.000    0.000    0.000    0.000 
#
# Total GULP energy -396623.714538 kJ/mol
# GULP energy per Si atom -12394.491079 kJ/mol
# Density = 1.955487 g / cm^3
# Si number density = 19.599483 Si / 1000 Ang^3
#
#
#
# Elastic Constant Matrix: (Units=GPa)
#
#
# Indices 1 2 3 4 5 6 
#
# 1 33.9441 23.0987 18.5692 0.0000 2.6947 0.0000
# 2 23.0987 142.0437 60.9227 0.0000 2.6473 0.0000
# 3 18.5692 60.9227 123.7521 0.0000 9.3240 0.0000
# 4 0.0000 0.0000 0.0000 36.8293 0.0000 6.8535
# 5 2.6947 2.6473 9.3240 0.0000 25.7182 0.0000
# 6 0.0000 0.0000 0.0000 6.8535 0.0000 27.2012
#
#
#
# Elastic Compliance Matrix: (Units=1/GPa)
#
#
# Indices 1 2 3 4 5 6 
#
# 1 0.034101 -0.004284 -0.002850 0.000000 -0.002099 0.000000
# 2 -0.004284 0.009475 -0.004094 0.000000 0.000958 0.000000
# 3 -0.002850 -0.004094 0.010763 0.000000 -0.003182 0.000000
# 4 0.000000 0.000000 0.000000 0.028488 0.000000 -0.007178
# 5 -0.002099 0.000958 -0.003182 0.000000 0.040158 0.000000
# 6 0.000000 0.000000 0.000000 -0.007178 0.000000 0.038572
#
#
# Mechanical properties :
#
#
# Convention : Reuss Voigt Hill
#
# Bulk Modulus (GPa) = 31.36355 56.10233 43.73294
# Shear Modulus (GPa) = 25.68851 31.09303 28.39077
#
# Velocity S-wave (km/s) = 3.62425 3.98731 3.81011
# Velocity P-wave (km/s) = 5.79228 7.06291 6.45892
#
# Compressibility (1/GPa) = 0.03188414
#
# Stress axis : x y z
#
# Youngs Moduli (GPa) = 29.32462 105.54447 92.90791
#
# Poissons Ratio (x) = 0.45215 0.26476
# Poissons Ratio (y) = 0.12563 0.38034
# Poissons Ratio (z) = 0.08357 0.43207
#
# Static dielectric constant tensor:
#      x y z
#    x 5.823240 0.000000 0.951310 
#    y 0.000000 3.814380 0.000000 
#    z 0.951310 0.000000 3.889360 
# 
# 
# High freq. dielectric constant tensor:
#      x y z
#    x 1.717000 0.000000 0.019130 
#    y 0.000000 1.784780 0.000000 
#    z 0.019130 0.000000 1.768470 
# 
# From -- ./inp_files/65195.got.cif
#   From: 2010.06.25/outbox.cif.g09.slc.cpg/sg11_33_cif.got.tgz:65195.got - 2010.06.27 23:14:04.
