data_PCOD8073792
_publ_section_title
;
Structure prediction by ZEFSAII (Michael W. Deem and Ramdas Pophale) SiO2 
 PCOD8073792
Probable space group: P 21/M
;
_chemical_formula_sum "Si O2"
_cell_formula_units_Z 28
_cell_length_a 9.159934
_cell_length_b 13.786218
_cell_length_c 12.583648
_cell_angle_alpha 90.000000
_cell_angle_beta 129.565276
_cell_angle_gamma 90.000000
_cell_volume 1225.016000
_symmetry_space_group_name_H-M "P 21/M"
_symmetry_group_IT_number 11
_symmetry_cell_setting 'monoclinic'
loop_
_space_group_symop_operation_xyz
x,y,z
-x,1/2+y,-z
-x,-y,-z
x,1/2-y,z
loop_
_atom_site_type_symbol
_atom_site_label
_atom_site_fract_x
_atom_site_fract_y
_atom_site_fract_z
Si Si1 0.204648 0.457307 0.103635
Si Si2 0.316972 0.856830 0.236270
Si Si3 0.348779 0.861172 0.922275
Si Si4 0.727958 0.858907 0.451886
Si Si5 0.325979 0.450036 0.795133
Si Si6 0.083346 0.360481 0.849668
Si Si7 0.081863 0.362159 0.251276
O O1 0.344177 0.552156 0.165510
O O2 0.217953 0.403268 0.222527
O O3 0.227960 0.385045 0.014663
O O4 0.000000 0.500000 0.000000
O O5 0.282874 0.750000 0.164707
O O6 0.509933 0.852805 0.392872
O O7 0.137211 0.881114 0.226922
O O8 0.361882 0.750000 0.886917
O O9 0.139988 0.881391 0.875511
O O10 0.381213 0.936380 0.838720
O O11 0.506045 0.879051 0.085723
O O12 0.795933 0.750000 0.451334
O O13 0.734607 0.928883 0.353156
O O14 0.857357 0.904498 0.604944
O O15 0.137600 0.428677 0.777247
O O16 0.117639 0.250000 0.834321
O O17 0.129501 0.250000 0.278424
#
# Coordination Sequence:
#
# PCOD8073792 Si02
#       7
#     4   4   4   4   4   4   4
#     4  10  20  34  58  87 118 153 200 248 303 360
#     4   9  20  36  58  84 116 160 204 246 295 359
#     4  10  22  38  61  89 120 160 204 253 306 360
#     4  10  22  40  63  91 121 162 209 248 296 365
#     4  11  23  38  63  92 123 158 203 254 307 365
#     4  10  20  35  57  90 125 156 197 255 312 361
#     4  10  22  41  64  91 123 159 205 256 300 357
#
# _framework density 22.856846000000001
#
# number of rings (size 3 to 8) (size 9 to 14) (size 15 to 20)
#    0.000    2.000    0.000    3.429    8.000    1.714 
#    0.000    0.000    3.143    0.857    0.000    0.000 
#    0.000    0.000    0.000    0.000    0.000    0.000 
#
# Total GULP energy -346955.864812 kJ/mol
# GULP energy per Si atom -12391.280886 kJ/mol
# Density = 2.280482 g / cm^3
# Si number density = 22.856846 Si / 1000 Ang^3
#
#
#
# Elastic Constant Matrix: (Units=GPa)
#
#
# Indices 1 2 3 4 5 6 
#
# 1 58.2782 25.3077 26.8234 0.0000 -10.6430 0.0000
# 2 25.3077 102.2903 26.5113 0.0000 -3.1302 0.0000
# 3 26.8234 26.5113 95.8198 0.0000 -22.1590 0.0000
# 4 0.0000 0.0000 0.0000 27.2667 0.0000 -1.8071
# 5 -10.6430 -3.1302 -22.1590 0.0000 32.3021 0.0000
# 6 0.0000 0.0000 0.0000 -1.8071 0.0000 28.9065
#
#
#
# Elastic Compliance Matrix: (Units=1/GPa)
#
#
# Indices 1 2 3 4 5 6 
#
# 1 0.021517 -0.004179 -0.003948 0.000000 0.003976 0.000000
# 2 -0.004179 0.011380 -0.002427 0.000000 -0.001939 0.000000
# 3 -0.003948 -0.002427 0.014093 0.000000 0.008132 0.000000
# 4 0.000000 0.000000 0.000000 0.036827 0.000000 0.002302
# 5 0.003976 -0.001939 0.008132 0.000000 0.037659 0.000000
# 6 0.000000 0.000000 0.000000 0.002302 0.000000 0.034738
#
#
# Mechanical properties :
#
#
# Convention : Reuss Voigt Hill
#
# Bulk Modulus (GPa) = 38.63525 45.96368 42.29947
# Shear Modulus (GPa) = 26.88913 29.54480 28.21696
#
# Velocity S-wave (km/s) = 3.43361 3.59918 3.51737
# Velocity P-wave (km/s) = 5.71484 6.11761 5.91965
#
# Compressibility (1/GPa) = 0.02588310
#
# Stress axis : x y z
#
# Youngs Moduli (GPa) = 46.47520 87.87585 70.95470
#
# Poissons Ratio (x) = 0.36721 0.28010
# Poissons Ratio (y) = 0.19421 0.17222
# Poissons Ratio (z) = 0.18347 0.21329
#
# Static dielectric constant tensor:
#      x y z
#    x 4.493760 0.000000 -0.078240 
#    y 0.000000 5.321620 0.000000 
#    z -0.078240 0.000000 4.531480 
# 
# 
# High freq. dielectric constant tensor:
#      x y z
#    x 1.897060 0.000000 0.009790 
#    y 0.000000 1.918250 0.000000 
#    z 0.009790 0.000000 1.869810 
# 
# From -- ./inp_files/31969.got.cif
#   From: 2010.06.25/outbox.cif.g09.slc.cpg/sg11_16_cif.got.tgz:31969.got - 2010.06.27 23:14:04.
