data_PCOD8073355
_publ_section_title
;
Structure prediction by ZEFSAII (Michael W. Deem and Ramdas Pophale) SiO2 
 PCOD8073355
Probable space group: P 21/M
;
_chemical_formula_sum "Si O2"
_cell_formula_units_Z 32
_cell_length_a 15.758832
_cell_length_b 8.824921
_cell_length_c 25.356308
_cell_angle_alpha 90.000000
_cell_angle_beta 150.030499
_cell_angle_gamma 90.000000
_cell_volume 1761.530697
_symmetry_space_group_name_H-M "P 21/M"
_symmetry_group_IT_number 11
_symmetry_cell_setting 'monoclinic'
loop_
_space_group_symop_operation_xyz
x,y,z
-x,1/2+y,-z
-x,-y,-z
x,1/2-y,z
loop_
_atom_site_type_symbol
_atom_site_label
_atom_site_fract_x
_atom_site_fract_y
_atom_site_fract_z
Si Si1 0.647976 0.070535 0.545410
Si Si2 0.611239 0.075675 0.205440
Si Si3 0.976128 0.571612 0.229669
Si Si4 0.150940 0.072855 0.049465
Si Si5 0.472549 0.923026 0.719275
Si Si6 0.077780 0.071980 0.682372
Si Si7 0.273588 0.072391 0.521096
Si Si8 0.236510 0.069386 0.981526
O O1 0.628515 0.250000 0.533435
O O2 0.827387 0.020639 0.667926
O O3 0.500000 0.000000 0.500000
O O4 0.637817 0.009746 0.480522
O O5 0.649861 0.250000 0.211716
O O6 0.605602 0.054133 0.265007
O O7 0.755921 0.968503 0.260540
O O8 0.433767 0.021307 0.084009
O O9 0.963750 0.750000 0.216990
O O10 0.897947 0.520959 0.243659
O O11 0.867228 0.497672 0.123502
O O12 0.119029 0.250000 0.030109
O O13 0.328381 0.036286 0.173553
O O14 0.154712 0.007230 0.991795
O O15 0.000000 0.000000 0.000000
O O16 0.444256 0.750000 0.685484
O O17 0.382005 0.038102 0.631310
O O18 0.040651 0.250000 0.658811
O O19 0.916805 0.986152 0.571226
O O20 0.270917 0.250000 0.508794
O O21 0.228902 0.250000 0.978530
#
# Coordination Sequence:
#
# PCOD8073355 Si02
#       8
#     4   4   4   4   4   4   4   4
#     4  10  20  35  54  78 109 141 173 212 257 305
#     4   9  18  33  54  76 100 133 170 208 251 305
#     4   8  16  31  51  74 101 134 169 205 249 301
#     4   9  18  32  52  76 103 135 168 207 254 304
#     4   9  19  36  53  73 104 138 171 211 261 309
#     4  10  20  34  52  75 105 136 165 208 261 308
#     4  11  22  36  55  77 100 133 177 219 260 306
#     4   8  15  31  52  73  99 132 169 205 246 300
#
# _framework density 18.16602
#
# number of rings (size 3 to 8) (size 9 to 14) (size 15 to 20)
#    0.000    2.750    0.000    4.125    0.000    3.000 
#    0.000    3.125    0.000    7.500    0.000    0.000 
#    0.000    0.000    0.000    0.000    0.000    0.000 
#
# Total GULP energy -396757.359971 kJ/mol
# GULP energy per Si atom -12398.667499 kJ/mol
# Density = 1.812467 g / cm^3
# Si number density = 18.166020 Si / 1000 Ang^3
#
#
#
# Elastic Constant Matrix: (Units=GPa)
#
#
# Indices 1 2 3 4 5 6 
#
# 1 116.0238 37.8339 73.3946 0.0000 19.1832 0.0000
# 2 37.8339 63.7752 40.5104 0.0000 1.3174 0.0000
# 3 73.3946 40.5104 123.3824 0.0000 -6.4680 0.0000
# 4 0.0000 0.0000 0.0000 22.9191 0.0000 6.1501
# 5 19.1832 1.3174 -6.4680 0.0000 30.6390 0.0000
# 6 0.0000 0.0000 0.0000 6.1501 0.0000 32.0740
#
#
#
# Elastic Compliance Matrix: (Units=1/GPa)
#
#
# Indices 1 2 3 4 5 6 
#
# 1 0.019088 -0.004238 -0.010698 0.000000 -0.014027 0.000000
# 2 -0.004238 0.020908 -0.004299 0.000000 0.000847 0.000000
# 3 -0.010698 -0.004299 0.016423 0.000000 0.010350 0.000000
# 4 0.000000 0.000000 0.000000 0.045999 0.000000 -0.008820
# 5 -0.014027 0.000847 0.010350 0.000000 0.043569 0.000000
# 6 0.000000 0.000000 0.000000 -0.008820 0.000000 0.032869
#
#
# Mechanical properties :
#
#
# Convention : Reuss Voigt Hill
#
# Bulk Modulus (GPa) = 55.71920 67.40659 61.56289
# Shear Modulus (GPa) = 22.39058 27.22257 24.80657
#
# Velocity S-wave (km/s) = 3.51458 3.87530 3.69934
# Velocity P-wave (km/s) = 6.87084 7.56375 7.22561
#
# Compressibility (1/GPa) = 0.01794713
#
# Stress axis : x y z
#
# Youngs Moduli (GPa) = 52.39002 47.82933 60.89085
#
# Poissons Ratio (x) = 0.20271 0.65142
# Poissons Ratio (y) = 0.22204 0.26178
# Poissons Ratio (z) = 0.56048 0.20562
#
# Static dielectric constant tensor:
#      x y z
#    x 1.195550 0.000000 0.276320 
#    y 0.000000 3.104710 0.000000 
#    z 0.276320 0.000000 3.505240 
# 
# 
# High freq. dielectric constant tensor:
#      x y z
#    x 1.706830 0.000000 -0.000010 
#    y 0.000000 1.682020 0.000000 
#    z -0.000010 0.000000 1.709230 
# 
# From -- ./inp_files/51777.got.cif
#   From: 2010.06.25/outbox.cif.g09.slc.cpg/sg11_26_cif.got.tgz:51777.got - 2010.06.27 23:14:04.
