data_PCOD8073919
_publ_section_title
;
Structure prediction by ZEFSAII (Michael W. Deem and Ramdas Pophale) SiO2 
 PCOD8073919
Probable space group: P 21/M
;
_chemical_formula_sum "Si O2"
_cell_formula_units_Z 32
_cell_length_a 8.098651
_cell_length_b 14.753946
_cell_length_c 20.234008
_cell_angle_alpha 90.000000
_cell_angle_beta 44.746878
_cell_angle_gamma 90.000000
_cell_volume 1702.004329
_symmetry_space_group_name_H-M "P 21/M"
_symmetry_group_IT_number 11
_symmetry_cell_setting 'monoclinic'
loop_
_space_group_symop_operation_xyz
x,y,z
-x,1/2+y,-z
-x,-y,-z
x,1/2-y,z
loop_
_atom_site_type_symbol
_atom_site_label
_atom_site_fract_x
_atom_site_fract_y
_atom_site_fract_z
Si Si1 0.746800 0.848576 0.828933
Si Si2 0.510077 0.855894 0.350272
Si Si3 0.279151 0.646935 0.676945
Si Si4 0.380858 0.142828 0.533511
Si Si5 0.707623 0.940360 0.966857
Si Si6 0.507477 0.473402 0.841544
Si Si7 0.849528 0.143559 0.659230
Si Si8 0.786877 0.500770 0.199048
O O1 0.643794 0.750000 0.836853
O O2 0.739703 0.851658 0.911631
O O3 0.012487 0.856014 0.727294
O O4 0.607605 0.932730 0.840381
O O5 0.565447 0.750000 0.331104
O O6 0.518637 0.890694 0.423893
O O7 0.263114 0.877435 0.381832
O O8 0.722936 0.904934 0.252427
O O9 0.352884 0.750000 0.674566
O O10 0.441654 0.606231 0.572522
O O11 0.311688 0.583975 0.731240
O O12 0.383485 0.250000 0.532469
O O13 0.118196 0.109121 0.589136
O O14 0.937878 0.001471 0.892075
O O15 0.643957 0.917311 0.060886
O O16 0.500000 0.000000 0.000000
O O17 0.708471 0.408323 0.756437
O O18 0.330517 0.507507 0.837704
O O19 0.831787 0.250000 0.679294
#
# Coordination Sequence:
#
# PCOD8073919 Si02
#       8
#     4   4   4   4   4   4   4   4
#     4   9  19  36  54  76 107 140 180 221 258 316
#     4   9  19  35  53  78 110 139 176 225 271 319
#     4   9  19  36  54  76 105 142 183 217 261 317
#     4   9  18  34  56  77 104 146 184 221 271 317
#     4   9  19  34  55  75 103 136 175 215 261 317
#     4  10  20  35  54  81 107 139 174 220 272 318
#     4   9  19  35  54  80 111 138 178 227 271 323
#     4  10  20  35  54  79 107 140 172 220 270 319
#
# _framework density 18.801362000000001
#
# number of rings (size 3 to 8) (size 9 to 14) (size 15 to 20)
#    0.000    2.750    0.000    0.375    5.250    1.500 
#    2.250    3.750    0.000    4.500    0.000    0.000 
#    0.000    0.000    0.000    0.000    0.000    0.000 
#
# Total GULP energy -396518.934311 kJ/mol
# GULP energy per Si atom -12391.216697 kJ/mol
# Density = 1.875857 g / cm^3
# Si number density = 18.801362 Si / 1000 Ang^3
#
#
#
# Elastic Constant Matrix: (Units=GPa)
#
#
# Indices 1 2 3 4 5 6 
#
# 1 116.4216 36.4235 76.6111 0.0000 8.3045 0.0000
# 2 36.4235 63.0677 37.9970 0.0000 -3.6739 0.0000
# 3 76.6111 37.9970 157.2608 0.0000 0.5445 0.0000
# 4 0.0000 0.0000 0.0000 18.2377 0.0000 0.1102
# 5 8.3045 -3.6739 0.5445 0.0000 23.8297 0.0000
# 6 0.0000 0.0000 0.0000 0.1102 0.0000 22.0982
#
#
#
# Elastic Compliance Matrix: (Units=1/GPa)
#
#
# Indices 1 2 3 4 5 6 
#
# 1 0.014395 -0.005186 -0.005740 0.000000 -0.005685 0.000000
# 2 -0.005186 0.020638 -0.002477 0.000000 0.005046 0.000000
# 3 -0.005740 -0.002477 0.009749 0.000000 0.001396 0.000000
# 4 0.000000 0.000000 0.000000 0.054833 0.000000 -0.000273
# 5 -0.005685 0.005046 0.001396 0.000000 0.044692 0.000000
# 6 0.000000 0.000000 0.000000 -0.000273 0.000000 0.045254
#
#
# Mechanical properties :
#
#
# Convention : Reuss Voigt Hill
#
# Bulk Modulus (GPa) = 55.63499 70.97925 63.30712
# Shear Modulus (GPa) = 22.48625 25.21433 23.85029
#
# Velocity S-wave (km/s) = 3.46206 3.66606 3.56552
# Velocity P-wave (km/s) = 6.75547 7.46687 7.12006
#
# Compressibility (1/GPa) = 0.01797430
#
# Stress axis : x y z
#
# Youngs Moduli (GPa) = 69.47066 48.45482 102.57768
#
# Poissons Ratio (x) = 0.25131 0.58876
# Poissons Ratio (y) = 0.36031 0.25412
# Poissons Ratio (z) = 0.39874 0.12004
#
# Static dielectric constant tensor:
#      x y z
#    x 3.649460 0.000000 0.159100 
#    y 0.000000 3.429260 0.000000 
#    z 0.159100 0.000000 4.042140 
# 
# 
# High freq. dielectric constant tensor:
#      x y z
#    x 1.729420 0.000000 0.002550 
#    y 0.000000 1.720650 0.000000 
#    z 0.002550 0.000000 1.735340 
# 
# From -- ./inp_files/21851.got.cif
#   From: 2010.06.25/outbox.cif.g09.slc.cpg/sg11_11_cif.got.tgz:21851.got - 2010.06.27 23:14:04.
