data_PCOD8073915
_publ_section_title
;
Structure prediction by ZEFSAII (Michael W. Deem and Ramdas Pophale) SiO2 
 PCOD8073915
Probable space group: P 21/M
;
_chemical_formula_sum "Si O2"
_cell_formula_units_Z 24
_cell_length_a 20.664152
_cell_length_b 11.821025
_cell_length_c 14.206526
_cell_angle_alpha 90.000000
_cell_angle_beta 21.722298
_cell_angle_gamma 90.000000
_cell_volume 1284.367968
_symmetry_space_group_name_H-M "P 21/M"
_symmetry_group_IT_number 11
_symmetry_cell_setting 'monoclinic'
loop_
_space_group_symop_operation_xyz
x,y,z
-x,1/2+y,-z
-x,-y,-z
x,1/2-y,z
loop_
_atom_site_type_symbol
_atom_site_label
_atom_site_fract_x
_atom_site_fract_y
_atom_site_fract_z
Si Si1 0.353945 0.628829 0.124466
Si Si2 0.506312 0.377705 0.748202
Si Si3 0.416466 0.881668 0.572488
Si Si4 0.174946 0.979383 0.206161
Si Si5 0.707291 0.525268 0.625193
Si Si6 0.927146 0.122438 0.851899
O O1 0.302589 0.750000 0.234745
O O2 0.279987 0.618873 0.118424
O O3 0.266145 0.537905 0.311369
O O4 0.564238 0.621885 0.836983
O O5 0.518217 0.250000 0.766154
O O6 0.571949 0.394684 0.554097
O O7 0.638488 0.445133 0.635915
O O8 0.303306 0.412381 0.033181
O O9 0.487389 0.750000 0.504655
O O10 0.500000 0.000000 0.500000
O O11 0.214791 0.885915 0.874165
O O12 0.136778 0.948636 0.150783
O O13 0.000000 0.000000 0.500000
O O14 0.893588 0.576309 0.345398
O O15 0.956778 0.250000 0.777420
#
# Coordination Sequence:
#
# PCOD8073915 Si02
#       6
#     4   4   4   4   4   4
#     4  10  20  35  54  78 116 158 192 232 285 349
#     4  10  22  40  62  84 118 157 195 244 298 355
#     4  10  21  41  65  89 118 156 200 249 303 355
#     4  11  21  37  56  88 117 150 197 240 292 353
#     4  10  21  37  54  83 118 151 196 234 290 354
#     4  11  22  38  61  87 119 153 195 250 297 349
#
# _framework density 18.686233000000001
#
# number of rings (size 3 to 8) (size 9 to 14) (size 15 to 20)
#    0.000    1.667    3.333    1.500    0.000    2.000 
#    0.000    2.500    0.000    0.000    0.000    0.000 
#    0.000    0.000    0.000    0.000    0.000    0.000 
#
# Total GULP energy -297340.113663 kJ/mol
# GULP energy per Si atom -12389.171403 kJ/mol
# Density = 1.864370 g / cm^3
# Si number density = 18.686233 Si / 1000 Ang^3
#
#
#
# Elastic Constant Matrix: (Units=GPa)
#
#
# Indices 1 2 3 4 5 6 
#
# 1 74.2594 20.3282 30.4473 0.0000 3.2768 0.0000
# 2 20.3282 98.5372 27.4585 0.0000 -5.5388 0.0000
# 3 30.4473 27.4585 117.6490 0.0000 3.4460 0.0000
# 4 0.0000 0.0000 0.0000 8.6908 0.0000 -22.8058
# 5 3.2768 -5.5388 3.4460 0.0000 29.3385 0.0000
# 6 0.0000 0.0000 0.0000 -22.8058 0.0000 -28.8472
#
#
#
# Elastic Compliance Matrix: (Units=1/GPa)
#
#
# Indices 1 2 3 4 5 6 
#
# 1 0.015599 -0.002362 -0.003434 0.000000 -0.001785 0.000000
# 2 -0.002362 0.011377 -0.002122 0.000000 0.002661 0.000000
# 3 -0.003434 -0.002122 0.009918 0.000000 -0.001182 0.000000
# 4 0.000000 0.000000 0.000000 0.037424 0.000000 -0.029587
# 5 -0.001785 0.002661 -0.001182 0.000000 0.034925 0.000000
# 6 0.000000 0.000000 0.000000 -0.029587 0.000000 -0.011275
#
#
# Mechanical properties :
#
#
# Convention : Reuss Voigt Hill
#
# Bulk Modulus (GPa) = 47.48380 49.65706 48.57043
# Shear Modulus (GPa) = 41.38259 15.98384 28.68322
#
# Velocity S-wave (km/s) = 4.71106 2.92786 3.92215
# Velocity P-wave (km/s) = 7.42014 6.16941 6.82349
#
# Compressibility (1/GPa) = 0.02105982
#
# Stress axis : x y z
#
# Youngs Moduli (GPa) = 64.10508 87.90023 100.82331
#
# Poissons Ratio (x) = 0.20759 0.34619
# Poissons Ratio (y) = 0.15140 0.21394
# Poissons Ratio (z) = 0.22011 0.18652
#
# Static dielectric constant tensor:
#      x y z
#    x 3.448800 0.000000 0.026680 
#    y 0.000000 3.786630 0.000000 
#    z 0.026680 0.000000 3.484610 
# 
# 
# High freq. dielectric constant tensor:
#      x y z
#    x 1.725340 0.000000 0.003530 
#    y 0.000000 1.732940 0.000000 
#    z 0.003530 0.000000 1.726810 
# 
# From -- ./inp_files/16902.got.cif
#   From: 2010.06.25/outbox.cif.g09.slc.cpg/sg11_9_cif.got.tgz:16902.got - 2010.06.27 23:14:04.
