data_PCOD8073761
_publ_section_title
;
Structure prediction by ZEFSAII (Michael W. Deem and Ramdas Pophale) SiO2 
 PCOD8073761
Probable space group: P 21/M
;
_chemical_formula_sum "Si O2"
_cell_formula_units_Z 24
_cell_length_a 4.905817
_cell_length_b 11.093476
_cell_length_c 20.472624
_cell_angle_alpha 90.000000
_cell_angle_beta 75.331465
_cell_angle_gamma 90.000000
_cell_volume 1077.858401
_symmetry_space_group_name_H-M "P 21/M"
_symmetry_group_IT_number 11
_symmetry_cell_setting 'monoclinic'
loop_
_space_group_symop_operation_xyz
x,y,z
-x,1/2+y,-z
-x,-y,-z
x,1/2-y,z
loop_
_atom_site_type_symbol
_atom_site_label
_atom_site_fract_x
_atom_site_fract_y
_atom_site_fract_z
Si Si1 0.357774 0.387778 0.323863
Si Si2 0.806334 0.510641 0.909714
Si Si3 0.659717 0.493291 0.422420
Si Si4 0.252791 0.380113 0.954542
Si Si5 0.725100 0.750000 0.450005
Si Si6 0.878160 0.250000 0.455259
Si Si7 0.967895 0.385181 0.235960
O O1 0.287219 0.250000 0.353410
O O2 0.424327 0.474132 0.380954
O O3 0.107020 0.442529 0.293619
O O4 0.632775 0.385761 0.261118
O O5 0.479298 0.479752 0.919360
O O6 0.941995 0.544708 0.833328
O O7 0.973202 0.396116 0.928279
O O8 0.828547 0.613999 0.963612
O O9 0.500000 0.500000 0.500000
O O10 0.809301 0.625976 0.405571
O O11 0.874208 0.375503 0.411195
O O12 0.380117 0.250000 0.931875
O O13 0.389072 0.750000 0.480644
O O14 0.851640 0.750000 0.515000
O O15 0.089707 0.250000 0.223664
#
# Coordination Sequence:
#
# PCOD8073761 Si02
#       7
#     4   4   4   4   2   2   4
#     4  10  21  37  58  85 111 151 188 238 288 346
#     4  10  20  35  57  86 115 152 186 241 284 329
#     4  10  21  39  60  87 115 146 189 241 294 345
#     4  10  20  34  57  86 118 150 194 231 284 337
#     4  10  22  34  56  82 112 144 174 226 288 346
#     4  10  20  36  56  84 110 140 180 224 288 340
#     4  10  21  37  60  85 115 146 191 237 285 331
#
# _framework density 22.266376000000001
#
# number of rings (size 3 to 8) (size 9 to 14) (size 15 to 20)
#    0.000    2.000    0.833    2.500    0.000    5.333 
#    0.000    5.000   11.000    0.000    0.000    0.000 
#    0.000    0.000    0.000    0.000    0.000    0.000 
#
# Total GULP energy -297540.627045 kJ/mol
# GULP energy per Si atom -12397.526127 kJ/mol
# Density = 2.221570 g / cm^3
# Si number density = 22.266376 Si / 1000 Ang^3
#
#
#
# Elastic Constant Matrix: (Units=GPa)
#
#
# Indices 1 2 3 4 5 6 
#
# 1 49.4891 12.0336 -10.0500 0.0000 18.6938 0.0000
# 2 12.0336 144.1892 25.2451 0.0000 7.8393 0.0000
# 3 -10.0500 25.2451 78.4883 0.0000 4.7216 0.0000
# 4 0.0000 0.0000 0.0000 2.2565 0.0000 -10.2792
# 5 18.6938 7.8393 4.7216 0.0000 27.2093 0.0000
# 6 0.0000 0.0000 0.0000 -10.2792 0.0000 19.5460
#
#
#
# Elastic Compliance Matrix: (Units=1/GPa)
#
#
# Indices 1 2 3 4 5 6 
#
# 1 0.029838 -0.002380 0.005839 0.000000 -0.020827 0.000000
# 2 -0.002380 0.007620 -0.002751 0.000000 -0.000083 0.000000
# 3 0.005839 -0.002751 0.014720 0.000000 -0.005774 0.000000
# 4 0.000000 0.000000 0.000000 -0.317529 0.000000 -0.166988
# 5 -0.020827 -0.000083 -0.005774 0.000000 0.052087 0.000000
# 6 0.000000 0.000000 0.000000 -0.166988 0.000000 -0.036657
#
#
# Mechanical properties :
#
#
# Convention : Reuss Voigt Hill
#
# Bulk Modulus (GPa) = 18.65838 36.29157 27.47498
# Shear Modulus (GPa) = -21.41593 26.13153 2.35780
#
# Velocity S-wave (km/s) = -3.10466 3.42948 1.03015
# Velocity P-wave (km/s) = 2.11047 5.65827 3.71227
#
# Compressibility (1/GPa) = 0.05359522
#
# Stress axis : x y z
#
# Youngs Moduli (GPa) = 33.51402 131.23212 67.93248
#
# Poissons Ratio (x) = 0.31236 -0.39667
# Poissons Ratio (y) = 0.07977 0.18686
# Poissons Ratio (z) = -0.19569 0.36098
#
# Static dielectric constant tensor:
#      x y z
#    x 4.199910 0.000000 0.133800 
#    y 0.000000 4.743820 0.000000 
#    z 0.133800 0.000000 3.820420 
# 
# 
# High freq. dielectric constant tensor:
#      x y z
#    x 1.895690 0.000000 0.003640 
#    y 0.000000 1.855960 0.000000 
#    z 0.003640 0.000000 1.866590 
# 
# From -- ./inp_files/7738.got.cif
#   From: 2010.06.25/outbox.cif.g09.slc.cpg/sg11_4_cif.got.tgz:7738.got - 2010.06.27 23:14:04.
