data_PCOD8073375
_publ_section_title
;
Structure prediction by ZEFSAII (Michael W. Deem and Ramdas Pophale) SiO2 
 PCOD8073375
Probable space group: P 21/M
;
_chemical_formula_sum "Si O2"
_cell_formula_units_Z 28
_cell_length_a 12.447616
_cell_length_b 8.889226
_cell_length_c 14.964525
_cell_angle_alpha 90.000000
_cell_angle_beta 105.362480
_cell_angle_gamma 90.000000
_cell_volume 1596.655843
_symmetry_space_group_name_H-M "P 21/M"
_symmetry_group_IT_number 11
_symmetry_cell_setting 'monoclinic'
loop_
_space_group_symop_operation_xyz
x,y,z
-x,1/2+y,-z
-x,-y,-z
x,1/2-y,z
loop_
_atom_site_type_symbol
_atom_site_label
_atom_site_fract_x
_atom_site_fract_y
_atom_site_fract_z
Si Si1 0.309517 0.425969 0.285751
Si Si2 0.518795 0.572517 0.408147
Si Si3 0.145793 0.074492 0.100721
Si Si4 0.856968 0.422844 0.617194
Si Si5 0.888713 0.924928 0.292777
Si Si6 0.744478 0.423083 0.406794
Si Si7 0.076014 0.074892 0.896098
O O1 0.335643 0.250000 0.301794
O O2 0.422706 0.519105 0.319648
O O3 0.260271 0.465745 0.176756
O O4 0.221499 0.470329 0.342252
O O5 0.500000 0.500000 0.500000
O O6 0.513356 0.750000 0.418181
O O7 0.636132 0.525153 0.393461
O O8 0.123135 0.250000 0.100756
O O9 0.149606 0.020093 0.997691
O O10 0.044704 0.999783 0.131280
O O11 0.837071 0.250000 0.642029
O O12 0.827875 0.447866 0.507377
O O13 0.984455 0.470292 0.658244
O O14 0.868114 0.750000 0.310854
O O15 0.861746 0.961932 0.182873
O O16 0.806639 0.028091 0.330893
O O17 0.707414 0.250000 0.390710
O O18 0.051714 0.250000 0.897223
#
# Coordination Sequence:
#
# PCOD8073375 Si02
#       7
#     4   4   4   4   4   4   4
#     4  11  21  33  54  81 111 143 177 222 269 315
#     4  12  24  39  58  79 105 139 181 224 267 316
#     4   9  18  31  50  80 110 139 177 220 269 316
#     4  10  20  34  52  77 109 146 180 215 261 319
#     4  10  20  34  53  78 110 148 183 217 264 318
#     4  11  23  37  54  77 108 145 183 222 266 316
#     4   9  17  31  52  77 109 144 177 218 266 318
#
# _framework density 17.536653999999999
#
# number of rings (size 3 to 8) (size 9 to 14) (size 15 to 20)
#    0.000    1.714    2.857    2.571    0.000    2.286 
#    0.000    0.000    0.000    0.857    0.000    0.000 
#    0.000    0.000    0.000    0.000    0.000    0.000 
#
# Total GULP energy -347227.770053 kJ/mol
# GULP energy per Si atom -12400.991788 kJ/mol
# Density = 1.749674 g / cm^3
# Si number density = 17.536654 Si / 1000 Ang^3
#
#
#
# Elastic Constant Matrix: (Units=GPa)
#
#
# Indices 1 2 3 4 5 6 
#
# 1 81.8349 34.1007 47.5082 0.0000 5.7016 0.0000
# 2 34.1007 77.1791 43.5665 0.0000 7.5749 0.0000
# 3 47.5082 43.5665 116.0316 0.0000 4.8657 0.0000
# 4 0.0000 0.0000 0.0000 21.3792 0.0000 0.2370
# 5 5.7016 7.5749 4.8657 0.0000 21.0282 0.0000
# 6 0.0000 0.0000 0.0000 0.2370 0.0000 31.4721
#
#
#
# Elastic Compliance Matrix: (Units=1/GPa)
#
#
# Indices 1 2 3 4 5 6 
#
# 1 0.017300 -0.004451 -0.005335 0.000000 -0.001853 0.000000
# 2 -0.004451 0.018027 -0.004771 0.000000 -0.004183 0.000000
# 3 -0.005335 -0.004771 0.012583 0.000000 0.000253 0.000000
# 4 0.000000 0.000000 0.000000 0.046778 0.000000 -0.000352
# 5 -0.001853 -0.004183 0.000253 0.000000 0.049506 0.000000
# 6 0.000000 0.000000 0.000000 -0.000352 0.000000 0.031777
#
#
# Mechanical properties :
#
#
# Convention : Reuss Voigt Hill
#
# Bulk Modulus (GPa) = 53.19684 58.37738 55.78711
# Shear Modulus (GPa) = 23.65738 24.76725 24.21232
#
# Velocity S-wave (km/s) = 3.67689 3.76215 3.71977
# Velocity P-wave (km/s) = 6.95892 7.22722 7.09434
#
# Compressibility (1/GPa) = 0.01879811
#
# Stress axis : x y z
#
# Youngs Moduli (GPa) = 57.80196 55.47218 79.47046
#
# Poissons Ratio (x) = 0.24689 0.42395
# Poissons Ratio (y) = 0.25726 0.37915
# Poissons Ratio (z) = 0.30835 0.26465
#
# Static dielectric constant tensor:
#      x y z
#    x 3.136010 0.000000 0.133730 
#    y 0.000000 3.469810 0.000000 
#    z 0.133730 0.000000 3.727620 
# 
# 
# High freq. dielectric constant tensor:
#      x y z
#    x 1.653240 0.000000 0.005390 
#    y 0.000000 1.683320 0.000000 
#    z 0.005390 0.000000 1.687340 
# 
# From -- ./inp_files/37455.got.cif
#   From: 2010.06.25/outbox.cif.g09.slc.cpg/sg11_19_cif.got.tgz:37455.got - 2010.06.27 23:14:04.
