data_PCOD8073103
_publ_section_title
;
Structure prediction by ZEFSAII (Michael W. Deem and Ramdas Pophale) SiO2 
 PCOD8073103
Probable space group: P 21/M
;
_chemical_formula_sum "Si O2"
_cell_formula_units_Z 32
_cell_length_a 11.428335
_cell_length_b 8.777499
_cell_length_c 27.489709
_cell_angle_alpha 90.000000
_cell_angle_beta 143.489722
_cell_angle_gamma 90.000000
_cell_volume 1640.653068
_symmetry_space_group_name_H-M "P 21/M"
_symmetry_group_IT_number 11
_symmetry_cell_setting 'monoclinic'
loop_
_space_group_symop_operation_xyz
x,y,z
-x,1/2+y,-z
-x,-y,-z
x,1/2-y,z
loop_
_atom_site_type_symbol
_atom_site_label
_atom_site_fract_x
_atom_site_fract_y
_atom_site_fract_z
Si Si1 0.545073 0.425947 0.165496
Si Si2 0.060261 0.425991 0.451496
Si Si3 0.985854 0.071574 0.321294
Si Si4 0.287155 0.070233 0.225997
Si Si5 0.825987 0.429743 0.909949
Si Si6 0.621750 0.423807 0.082173
Si Si7 0.694049 0.574781 0.376944
Si Si8 0.056170 0.431276 0.241015
O O1 0.517137 0.250000 0.172374
O O2 0.386204 0.528579 0.139451
O O3 0.512043 0.444246 0.096839
O O4 0.762006 0.490019 0.251767
O O5 0.992686 0.250000 0.434388
O O6 0.108934 0.465492 0.411312
O O7 0.254062 0.456182 0.548744
O O8 0.884979 0.535082 0.409381
O O9 0.958432 0.250000 0.303406
O O10 0.099663 0.008760 0.311077
O O11 0.259988 0.250000 0.211857
O O12 0.207928 0.005965 0.251475
O O13 0.163299 0.992151 0.141559
O O14 0.516724 0.030109 0.300032
O O15 0.853649 0.250000 0.918495
O O16 0.000000 0.500000 0.000000
O O17 0.642306 0.250000 0.074705
O O18 0.839873 0.494517 0.156183
O O19 0.500000 0.500000 0.000000
O O20 0.636882 0.750000 0.349102
O O21 0.063471 0.250000 0.242105
#
# Coordination Sequence:
#
# PCOD8073103 Si02
#       8
#     4   4   4   4   4   4   4   4
#     4   9  18  34  55  80 108 136 175 222 273 328
#     4   9  17  31  56  84 110 143 185 230 276 326
#     4   8  14  30  56  81 105 136 177 226 272 318
#     4  11  22  38  58  78 108 148 186 221 269 329
#     4  12  26  41  57  79 108 141 180 225 275 329
#     4   9  18  32  52  78 104 133 174 225 274 320
#     4  10  20  33  51  82 117 147 182 226 276 327
#     4   8  17  33  53  77 103 137 181 223 267 323
#
# _framework density 19.504428999999998
#
# number of rings (size 3 to 8) (size 9 to 14) (size 15 to 20)
#    0.000    2.500    0.000    4.125    1.750    2.000 
#    0.000    1.250    0.000    3.750    0.000    0.000 
#    0.000    0.000    0.000    0.000    0.000    0.000 
#
# Total GULP energy -396635.112591 kJ/mol
# GULP energy per Si atom -12394.847268 kJ/mol
# Density = 1.946004 g / cm^3
# Si number density = 19.504429 Si / 1000 Ang^3
#
#
#
# Elastic Constant Matrix: (Units=GPa)
#
#
# Indices 1 2 3 4 5 6 
#
# 1 95.3579 31.4371 37.8978 0.0000 -17.3847 0.0000
# 2 31.4371 68.4802 28.3934 0.0000 -9.1497 0.0000
# 3 37.8978 28.3934 88.9109 0.0000 -27.1930 0.0000
# 4 0.0000 0.0000 0.0000 25.1176 0.0000 -4.0665
# 5 -17.3847 -9.1497 -27.1930 0.0000 35.1530 0.0000
# 6 0.0000 0.0000 0.0000 -4.0665 0.0000 20.4220
#
#
#
# Elastic Compliance Matrix: (Units=1/GPa)
#
#
# Indices 1 2 3 4 5 6 
#
# 1 0.013942 -0.004514 -0.003604 0.000000 0.002932 0.000000
# 2 -0.004514 0.018295 -0.004119 0.000000 -0.000657 0.000000
# 3 -0.003604 -0.004119 0.017325 0.000000 0.010547 0.000000
# 4 0.000000 0.000000 0.000000 0.041139 0.000000 0.008192
# 5 0.002932 -0.000657 0.010547 0.000000 0.037885 0.000000
# 6 0.000000 0.000000 0.000000 0.008192 0.000000 0.050598
#
#
# Mechanical properties :
#
#
# Convention : Reuss Voigt Hill
#
# Bulk Modulus (GPa) = 39.86262 49.80063 44.83163
# Shear Modulus (GPa) = 23.58250 26.47325 25.02788
#
# Velocity S-wave (km/s) = 3.48096 3.68814 3.58605
# Velocity P-wave (km/s) = 6.05295 6.61249 6.33890
#
# Compressibility (1/GPa) = 0.02508616
#
# Stress axis : x y z
#
# Youngs Moduli (GPa) = 71.72578 54.65907 57.72048
#
# Poissons Ratio (x) = 0.24674 0.20805
# Poissons Ratio (y) = 0.32378 0.23777
# Poissons Ratio (z) = 0.25853 0.22516
#
# Static dielectric constant tensor:
#      x y z
#    x 3.850300 0.000000 -0.302880 
#    y 0.000000 3.294110 0.000000 
#    z -0.302880 0.000000 3.489830 
# 
# 
# High freq. dielectric constant tensor:
#      x y z
#    x 1.763240 0.000000 -0.022410 
#    y 0.000000 1.730930 0.000000 
#    z -0.022410 0.000000 1.755020 
# 
# From -- ./inp_files/73196.got.cif
#   From: 2010.06.25/outbox.cif.g09.slc.cpg/sg11_37_cif.got.tgz:73196.got - 2010.06.27 23:14:04.
