data_PCOD8073531
_publ_section_title
;
Structure prediction by ZEFSAII (Michael W. Deem and Ramdas Pophale) SiO2 
 PCOD8073531
Probable space group: P 21/M
;
_chemical_formula_sum "Si O2"
_cell_formula_units_Z 32
_cell_length_a 15.162039
_cell_length_b 9.331674
_cell_length_c 22.281310
_cell_angle_alpha 90.000000
_cell_angle_beta 147.610347
_cell_angle_gamma 90.000000
_cell_volume 1688.724124
_symmetry_space_group_name_H-M "P 21/M"
_symmetry_group_IT_number 11
_symmetry_cell_setting 'monoclinic'
loop_
_space_group_symop_operation_xyz
x,y,z
-x,1/2+y,-z
-x,-y,-z
x,1/2-y,z
loop_
_atom_site_type_symbol
_atom_site_label
_atom_site_fract_x
_atom_site_fract_y
_atom_site_fract_z
Si Si1 0.355230 0.915597 0.762059
Si Si2 0.014677 0.086047 0.138248
Si Si3 0.071189 0.419197 0.305538
Si Si4 0.196008 0.589908 0.548111
Si Si5 0.877054 0.582078 0.292759
Si Si6 0.658387 0.414947 0.883943
Si Si7 0.728972 0.416215 0.788557
Si Si8 0.624302 0.915361 0.442803
O O1 0.384097 0.750000 0.796648
O O2 0.215853 0.928813 0.630584
O O3 0.290434 0.004284 0.782330
O O4 0.525208 0.982056 0.837182
O O5 0.068217 0.250000 0.162124
O O6 0.057793 0.030109 0.229453
O O7 0.115390 0.999909 0.146699
O O8 0.822054 0.065377 0.017086
O O9 0.035207 0.250000 0.292455
O O10 0.256260 0.460628 0.433848
O O11 0.937623 0.508261 0.266356
O O12 0.241416 0.750000 0.553765
O O13 0.325986 0.488618 0.590571
O O14 0.010463 0.554783 0.421762
O O15 0.843494 0.750000 0.262129
O O16 0.597174 0.250000 0.850223
O O17 0.693730 0.464437 0.836348
O O18 0.775081 0.250000 0.813109
O O19 0.567483 0.450942 0.654653
O O20 0.645283 0.750000 0.440675
#
# Coordination Sequence:
#
# PCOD8073531 Si02
#       8
#     4   4   4   4   4   4   4   4
#     4  11  21  33  53  82 111 141 177 219 267 318
#     4  10  22  38  57  78 104 143 184 224 267 314
#     4   9  19  37  56  77 108 143 182 222 262 311
#     4   9  18  31  49  78 112 142 174 212 261 318
#     4  10  20  34  54  80 110 144 178 215 263 319
#     4  10  21  38  56  78 109 142 179 222 269 316
#     4  10  20  34  55  82 109 138 176 221 271 323
#     4   9  17  31  53  79 109 143 173 213 268 317
#
# _framework density 18.949217000000001
#
# number of rings (size 3 to 8) (size 9 to 14) (size 15 to 20)
#    0.000    2.250    1.250    1.500    0.000    3.500 
#    0.000    0.625    0.000    0.000    0.000    0.000 
#    0.000    0.000    0.000    0.000    0.000    0.000 
#
# Total GULP energy -396791.684819 kJ/mol
# GULP energy per Si atom -12399.740151 kJ/mol
# Density = 1.890609 g / cm^3
# Si number density = 18.949217 Si / 1000 Ang^3
#
#
#
# Elastic Constant Matrix: (Units=GPa)
#
#
# Indices 1 2 3 4 5 6 
#
# 1 64.2317 37.6952 28.6328 0.0000 10.6131 0.0000
# 2 37.6952 70.1297 23.0710 0.0000 12.2260 0.0000
# 3 28.6328 23.0710 57.3793 0.0000 -2.6192 0.0000
# 4 0.0000 0.0000 0.0000 23.6650 0.0000 6.7348
# 5 10.6131 12.2260 -2.6192 0.0000 26.1610 0.0000
# 6 0.0000 0.0000 0.0000 6.7348 0.0000 32.0346
#
#
#
# Elastic Compliance Matrix: (Units=1/GPa)
#
#
# Indices 1 2 3 4 5 6 
#
# 1 0.027017 -0.010043 -0.009774 0.000000 -0.007245 0.000000
# 2 -0.010043 0.022224 -0.004232 0.000000 -0.006735 0.000000
# 3 -0.009774 -0.004232 0.024390 0.000000 0.008385 0.000000
# 4 0.000000 0.000000 0.000000 0.044946 0.000000 -0.009449
# 5 -0.007245 -0.006735 0.008385 0.000000 0.045151 0.000000
# 6 0.000000 0.000000 0.000000 -0.009449 0.000000 0.033203
#
#
# Mechanical properties :
#
#
# Convention : Reuss Voigt Hill
#
# Bulk Modulus (GPa) = 39.16613 41.17097 40.16855
# Shear Modulus (GPa) = 19.72085 23.19489 21.45787
#
# Velocity S-wave (km/s) = 3.22952 3.50245 3.36875
# Velocity P-wave (km/s) = 5.88390 6.17498 6.03119
#
# Compressibility (1/GPa) = 0.02553227
#
# Stress axis : x y z
#
# Youngs Moduli (GPa) = 37.01385 44.99670 41.00119
#
# Poissons Ratio (x) = 0.45191 0.40076
# Poissons Ratio (y) = 0.37174 0.17350
# Poissons Ratio (z) = 0.36178 0.19041
#
# Static dielectric constant tensor:
#      x y z
#    x 3.249420 0.000000 -0.045520 
#    y 0.000000 3.320380 0.000000 
#    z -0.045520 0.000000 3.526820 
# 
# 
# High freq. dielectric constant tensor:
#      x y z
#    x 1.723170 0.000000 0.004140 
#    y 0.000000 1.736850 0.000000 
#    z 0.004140 0.000000 1.732070 
# 
# From -- ./inp_files/51676.got.cif
#   From: 2010.06.25/outbox.cif.g09.slc.cpg/sg11_26_cif.got.tgz:51676.got - 2010.06.27 23:14:04.
