data_PCOD8073699
_publ_section_title
;
Structure prediction by ZEFSAII (Michael W. Deem and Ramdas Pophale) SiO2 
 PCOD8073699
Probable space group: P 21/M
;
_chemical_formula_sum "Si O2"
_cell_formula_units_Z 32
_cell_length_a 11.779790
_cell_length_b 13.995296
_cell_length_c 15.250497
_cell_angle_alpha 90.000000
_cell_angle_beta 41.383874
_cell_angle_gamma 90.000000
_cell_volume 1662.154016
_symmetry_space_group_name_H-M "P 21/M"
_symmetry_group_IT_number 11
_symmetry_cell_setting 'monoclinic'
loop_
_space_group_symop_operation_xyz
x,y,z
-x,1/2+y,-z
-x,-y,-z
x,1/2-y,z
loop_
_atom_site_type_symbol
_atom_site_label
_atom_site_fract_x
_atom_site_fract_y
_atom_site_fract_z
Si Si1 0.187815 0.641368 0.156049
Si Si2 0.637441 0.860830 0.734485
Si Si3 0.371458 0.972911 0.779695
Si Si4 0.176229 0.861933 0.739618
Si Si5 0.580906 0.639503 0.959577
Si Si6 0.820691 0.963178 0.952176
Si Si7 0.630986 0.478821 0.499581
Si Si8 0.853664 0.858936 0.448192
O O1 0.174765 0.750000 0.127038
O O2 0.133555 0.569363 0.109549
O O3 0.056522 0.627160 0.313946
O O4 0.377601 0.620091 0.081190
O O5 0.597575 0.750000 0.764152
O O6 0.464534 0.903317 0.793941
O O7 0.660980 0.897634 0.820506
O O8 0.806303 0.883002 0.577377
O O9 0.278205 0.913169 0.758276
O O10 0.517670 0.042483 0.652433
O O11 0.232907 0.033591 0.914408
O O12 0.192536 0.750000 0.743363
O O13 0.252134 0.890112 0.599522
O O14 0.979122 0.892121 0.854053
O O15 0.624151 0.750000 0.950678
O O16 0.662655 0.577664 0.988608
O O17 0.500000 0.500000 0.500000
O O18 0.747235 0.572839 0.445643
O O19 0.796913 0.750000 0.460105
#
# Coordination Sequence:
#
# PCOD8073699 Si02
#       8
#     4   4   4   4   4   4   4   4
#     4  10  20  34  56  84 115 150 193 240 289 336
#     4   9  17  32  56  84 112 145 191 238 282 337
#     4  10  21  36  60  84 114 146 200 239 287 332
#     4  11  23  40  60  83 117 159 193 236 290 348
#     4  10  21  37  57  84 115 154 194 233 291 353
#     4  12  22  38  59  86 122 154 191 238 289 349
#     4   9  19  36  56  83 112 148 194 238 288 342
#     4   9  17  33  56  84 115 147 191 247 288 330
#
# _framework density 19.252126000000001
#
# number of rings (size 3 to 8) (size 9 to 14) (size 15 to 20)
#    0.000    2.000    2.500    1.500    0.000    3.500 
#    0.000    3.125    0.000    2.250    0.000    0.000 
#    0.000    0.000    0.000    0.000    0.000    0.000 
#
# Total GULP energy -396654.442887 kJ/mol
# GULP energy per Si atom -12395.451340 kJ/mol
# Density = 1.920831 g / cm^3
# Si number density = 19.252126 Si / 1000 Ang^3
#
#
#
# Elastic Constant Matrix: (Units=GPa)
#
#
# Indices 1 2 3 4 5 6 
#
# 1 60.3629 40.1733 43.5257 0.0000 4.0222 0.0000
# 2 40.1733 68.9943 48.7844 0.0000 2.1044 0.0000
# 3 43.5257 48.7844 160.3009 0.0000 -6.7671 0.0000
# 4 0.0000 0.0000 0.0000 15.9417 0.0000 -1.5805
# 5 4.0222 2.1044 -6.7671 0.0000 18.2647 0.0000
# 6 0.0000 0.0000 0.0000 -1.5805 0.0000 27.8006
#
#
#
# Elastic Compliance Matrix: (Units=1/GPa)
#
#
# Indices 1 2 3 4 5 6 
#
# 1 0.029120 -0.014000 -0.003910 0.000000 -0.006248 0.000000
# 2 -0.014000 0.025534 -0.004026 0.000000 -0.001351 0.000000
# 3 -0.003910 -0.004026 0.008717 0.000000 0.004555 0.000000
# 4 0.000000 0.000000 0.000000 0.063084 0.000000 0.003586
# 5 -0.006248 -0.001351 0.004555 0.000000 0.057969 0.000000
# 6 0.000000 0.000000 0.000000 0.003586 0.000000 0.036174
#
#
# Mechanical properties :
#
#
# Convention : Reuss Voigt Hill
#
# Bulk Modulus (GPa) = 51.28670 61.62498 56.45584
# Shear Modulus (GPa) = 18.45210 22.87971 20.66590
#
# Velocity S-wave (km/s) = 3.09923 3.45109 3.27989
# Velocity P-wave (km/s) = 6.28525 6.92524 6.61299
#
# Compressibility (1/GPa) = 0.01949823
#
# Stress axis : x y z
#
# Youngs Moduli (GPa) = 34.34097 39.16325 114.71230
#
# Poissons Ratio (x) = 0.54830 0.44849
# Poissons Ratio (y) = 0.48079 0.46187
# Poissons Ratio (z) = 0.13426 0.15768
#
# Static dielectric constant tensor:
#      x y z
#    x 3.281540 0.000000 0.062690 
#    y 0.000000 3.554590 0.000000 
#    z 0.062690 0.000000 4.149920 
# 
# 
# High freq. dielectric constant tensor:
#      x y z
#    x 1.727460 0.000000 -0.004550 
#    y 0.000000 1.738110 0.000000 
#    z -0.004550 0.000000 1.772450 
# 
# From -- ./inp_files/50386.got.cif
#   From: 2010.06.25/outbox.cif.g09.slc.cpg/sg11_26_cif.got.tgz:50386.got - 2010.06.27 23:14:04.
