data_PCOD8073594
_publ_section_title
;
Structure prediction by ZEFSAII (Michael W. Deem and Ramdas Pophale) SiO2 
 PCOD8073594
Probable space group: P 21/M
;
_chemical_formula_sum "Si O2"
_cell_formula_units_Z 32
_cell_length_a 11.185819
_cell_length_b 9.336527
_cell_length_c 19.194985
_cell_angle_alpha 90.000000
_cell_angle_beta 56.721679
_cell_angle_gamma 90.000000
_cell_volume 1675.926662
_symmetry_space_group_name_H-M "P 21/M"
_symmetry_group_IT_number 11
_symmetry_cell_setting 'monoclinic'
loop_
_space_group_symop_operation_xyz
x,y,z
-x,1/2+y,-z
-x,-y,-z
x,1/2-y,z
loop_
_atom_site_type_symbol
_atom_site_label
_atom_site_fract_x
_atom_site_fract_y
_atom_site_fract_z
Si Si1 0.141780 0.080319 0.928094
Si Si2 0.656822 0.591829 0.889877
Si Si3 0.793068 0.582154 0.252185
Si Si4 0.035224 0.912765 0.385300
Si Si5 0.959139 0.581800 0.751168
Si Si6 0.509593 0.584568 0.424549
Si Si7 0.413282 0.409181 0.927108
Si Si8 0.798034 0.410904 0.531331
O O1 0.115989 0.250000 0.945023
O O2 0.185018 0.038595 0.835477
O O3 0.274205 0.026301 0.933329
O O4 0.000000 0.000000 0.000000
O O5 0.649966 0.750000 0.859728
O O6 0.820972 0.541254 0.841193
O O7 0.557859 0.499456 0.869005
O O8 0.605515 0.590988 0.984765
O O9 0.819782 0.750000 0.252922
O O10 0.638913 0.536532 0.332291
O O11 0.904999 0.496897 0.262091
O O12 0.012682 0.750000 0.365916
O O13 0.162604 0.920192 0.400216
O O14 0.080962 0.020830 0.311011
O O15 0.884447 0.967907 0.462996
O O16 0.991620 0.750000 0.737815
O O17 0.500000 0.500000 0.500000
O O18 0.526463 0.750000 0.439528
O O19 0.368573 0.555605 0.424256
O O20 0.440072 0.250000 0.889085
O O21 0.834331 0.250000 0.491694
#
# Coordination Sequence:
#
# PCOD8073594 Si02
#       8
#     4   4   4   4   4   4   4   4
#     4  10  21  37  58  83 113 149 185 226 275 326
#     4   9  19  34  52  76 105 137 173 217 266 319
#     4  10  22  38  56  81 110 142 186 232 272 326
#     4  10  20  34  55  81 107 138 177 221 268 322
#     4  11  22  36  54  77 108 141 176 221 272 323
#     4  10  21  37  56  79 109 145 184 226 273 324
#     4   9  18  34  55  78 104 136 176 219 268 323
#     4   9  19  36  56  78 106 140 177 219 270 322
#
# _framework density 19.093914000000002
#
# number of rings (size 3 to 8) (size 9 to 14) (size 15 to 20)
#    0.000    2.250    0.000    2.250    0.000    7.500 
#    0.000    5.000    0.000    0.000    0.000    0.000 
#    0.000    0.000    0.000    0.000    0.000    0.000 
#
# Total GULP energy -396684.010383 kJ/mol
# GULP energy per Si atom -12396.375324 kJ/mol
# Density = 1.905045 g / cm^3
# Si number density = 19.093914 Si / 1000 Ang^3
#
#
#
# Elastic Constant Matrix: (Units=GPa)
#
#
# Indices 1 2 3 4 5 6 
#
# 1 132.7877 55.4627 47.9317 0.0000 -23.0831 0.0000
# 2 55.4627 54.5933 38.5186 0.0000 -10.6863 0.0000
# 3 47.9317 38.5186 92.1757 0.0000 -15.3849 0.0000
# 4 0.0000 0.0000 0.0000 28.9417 0.0000 -3.7081
# 5 -23.0831 -10.6863 -15.3849 0.0000 28.6820 0.0000
# 6 0.0000 0.0000 0.0000 -3.7081 0.0000 28.6405
#
#
#
# Elastic Compliance Matrix: (Units=1/GPa)
#
#
# Indices 1 2 3 4 5 6 
#
# 1 0.014207 -0.012392 -0.001177 0.000000 0.006185 0.000000
# 2 -0.012392 0.037262 -0.009308 0.000000 -0.001083 0.000000
# 3 -0.001177 -0.009308 0.016050 0.000000 0.004194 0.000000
# 4 0.000000 0.000000 0.000000 0.035135 0.000000 0.004549
# 5 0.006185 -0.001083 0.004194 0.000000 0.041689 0.000000
# 6 0.000000 0.000000 0.000000 0.004549 0.000000 0.035505
#
#
# Mechanical properties :
#
#
# Convention : Reuss Voigt Hill
#
# Bulk Modulus (GPa) = 45.94376 62.59808 54.27092
# Shear Modulus (GPa) = 21.47245 26.42909 23.95077
#
# Velocity S-wave (km/s) = 3.35710 3.72447 3.54555
# Velocity P-wave (km/s) = 6.25628 7.16596 6.72652
#
# Compressibility (1/GPa) = 0.02176574
#
# Stress axis : x y z
#
# Youngs Moduli (GPa) = 70.38970 26.83708 62.30339
#
# Poissons Ratio (x) = 0.33256 0.07332
# Poissons Ratio (y) = 0.87226 0.57992
# Poissons Ratio (z) = 0.08283 0.24980
#
# Static dielectric constant tensor:
#      x y z
#    x 3.598760 0.000000 -0.061890 
#    y 0.000000 3.726440 0.000000 
#    z -0.061890 0.000000 3.529720 
# 
# 
# High freq. dielectric constant tensor:
#      x y z
#    x 1.753250 0.000000 -0.005840 
#    y 0.000000 1.740980 0.000000 
#    z -0.005840 0.000000 1.736640 
# 
# From -- ./inp_files/64372.got.cif
#   From: 2010.06.25/outbox.cif.g09.slc.cpg/sg11_33_cif.got.tgz:64372.got - 2010.06.27 23:14:04.
