data_PCOD8073732
_publ_section_title
;
Structure prediction by ZEFSAII (Michael W. Deem and Ramdas Pophale) SiO2 
 PCOD8073732
Probable space group: P 21/M
;
_chemical_formula_sum "Si O2"
_cell_formula_units_Z 32
_cell_length_a 21.597069
_cell_length_b 8.737258
_cell_length_c 28.007560
_cell_angle_alpha 90.000000
_cell_angle_beta 18.913095
_cell_angle_gamma 90.000000
_cell_volume 1713.047301
_symmetry_space_group_name_H-M "P 21/M"
_symmetry_group_IT_number 11
_symmetry_cell_setting 'monoclinic'
loop_
_space_group_symop_operation_xyz
x,y,z
-x,1/2+y,-z
-x,-y,-z
x,1/2-y,z
loop_
_atom_site_type_symbol
_atom_site_label
_atom_site_fract_x
_atom_site_fract_y
_atom_site_fract_z
Si Si1 0.375992 0.428355 0.451778
Si Si2 0.322664 0.926723 0.849936
Si Si3 0.307521 0.430758 0.160252
Si Si4 0.390161 0.576296 0.295808
Si Si5 0.804392 0.427233 0.659350
Si Si6 0.562454 0.931283 0.404462
Si Si7 0.956519 0.069715 0.082868
Si Si8 0.085642 0.572472 0.596460
O O1 0.369737 0.250000 0.468345
O O2 0.548127 0.468389 0.290131
O O3 0.408651 0.521000 0.476569
O O4 0.174493 0.477194 0.575450
O O5 0.263363 0.750000 0.893041
O O6 0.439242 0.964559 0.812884
O O7 0.133750 0.030334 0.987867
O O8 0.323065 0.250000 0.150533
O O9 0.277646 0.489029 0.235185
O O10 0.131975 0.480369 0.253984
O O11 0.500000 0.500000 0.000000
O O12 0.453332 0.750000 0.260410
O O13 0.352024 0.550518 0.268000
O O14 0.198384 0.537824 0.465217
O O15 0.839465 0.250000 0.645157
O O16 0.000000 0.500000 0.500000
O O17 0.571447 0.750000 0.401406
O O18 0.500000 0.000000 0.500000
O O19 0.768601 0.996373 0.241565
O O20 0.926340 0.250000 0.100273
O O21 0.000000 0.000000 0.000000
O O22 0.097400 0.750000 0.601682
#
# Coordination Sequence:
#
# PCOD8073732 Si02
#       8
#     4   4   4   4   4   4   4   4
#     4  10  20  35  58  88 119 151 197 245 291 349
#     4  10  20  34  56  88 121 153 195 246 296 346
#     4  11  23  40  59  86 120 158 200 246 296 355
#     4   9  18  34  55  83 117 152 193 243 298 352
#     4  11  21  36  59  87 118 153 194 243 294 349
#     4  12  25  42  63  88 122 160 198 244 295 352
#     4  12  23  38  61  89 120 155 196 242 292 347
#     4   9  18  35  57  82 115 152 195 242 294 352
#
# _framework density 18.680160000000001
#
# number of rings (size 3 to 8) (size 9 to 14) (size 15 to 20)
#    0.000    1.500    2.500    3.750    0.000    3.000 
#    0.000    1.250    0.000    4.500    0.000    0.000 
#    0.000    0.000    0.000    0.000    0.000    0.000 
#
# Total GULP energy -396919.028918 kJ/mol
# GULP energy per Si atom -12403.719654 kJ/mol
# Density = 1.863764 g / cm^3
# Si number density = 18.680160 Si / 1000 Ang^3
#
#
#
# Elastic Constant Matrix: (Units=GPa)
#
#
# Indices 1 2 3 4 5 6 
#
# 1 124.1490 64.3643 72.0953 0.0000 -6.7228 0.0000
# 2 64.3643 122.7867 58.2122 0.0000 -5.4212 0.0000
# 3 72.0953 58.2122 125.6710 0.0000 -4.7414 0.0000
# 4 0.0000 0.0000 0.0000 33.0749 0.0000 -2.5303
# 5 -6.7228 -5.4212 -4.7414 0.0000 30.2947 0.0000
# 6 0.0000 0.0000 0.0000 -2.5303 0.0000 36.7501
#
#
#
# Elastic Compliance Matrix: (Units=1/GPa)
#
#
# Indices 1 2 3 4 5 6 
#
# 1 0.013795 -0.004413 -0.005819 0.000000 0.001361 0.000000
# 2 -0.004413 0.011885 -0.002948 0.000000 0.000686 0.000000
# 3 -0.005819 -0.002948 0.012667 0.000000 0.000164 0.000000
# 4 0.000000 0.000000 0.000000 0.030394 0.000000 0.002093
# 5 0.001361 0.000686 0.000164 0.000000 0.033459 0.000000
# 6 0.000000 0.000000 0.000000 0.002093 0.000000 0.027355
#
#
# Mechanical properties :
#
#
# Convention : Reuss Voigt Hill
#
# Bulk Modulus (GPa) = 83.41156 84.66115 84.03635
# Shear Modulus (GPa) = 31.26723 31.88629 31.57676
#
# Velocity S-wave (km/s) = 4.09567 4.13602 4.11590
# Velocity P-wave (km/s) = 8.19240 8.26007 8.22630
#
# Compressibility (1/GPa) = 0.01198875
#
# Stress axis : x y z
#
# Youngs Moduli (GPa) = 72.48815 84.13785 78.94445
#
# Poissons Ratio (x) = 0.37128 0.45936
# Poissons Ratio (y) = 0.31987 0.23273
# Poissons Ratio (z) = 0.42179 0.24804
#
# Static dielectric constant tensor:
#      x y z
#    x 3.199050 0.000000 -0.463060 
#    y 0.000000 3.575260 0.000000 
#    z -0.463060 0.000000 2.763250 
# 
# 
# High freq. dielectric constant tensor:
#      x y z
#    x 1.731460 0.000000 -0.018410 
#    y 0.000000 1.737940 0.000000 
#    z -0.018410 0.000000 1.707550 
# 
# From -- ./inp_files/72011.got.cif
#   From: 2010.06.25/outbox.cif.g09.slc.cpg/sg11_37_cif.got.tgz:72011.got - 2010.06.27 23:14:04.
