data_PCOD8073453
_publ_section_title
;
Structure prediction by ZEFSAII (Michael W. Deem and Ramdas Pophale) SiO2 
 PCOD8073453
Probable space group: P 21/M
;
_chemical_formula_sum "Si O2"
_cell_formula_units_Z 24
_cell_length_a 6.948182
_cell_length_b 8.950289
_cell_length_c 21.172785
_cell_angle_alpha 90.000000
_cell_angle_beta 88.195928
_cell_angle_gamma 90.000000
_cell_volume 1316.045516
_symmetry_space_group_name_H-M "P 21/M"
_symmetry_group_IT_number 11
_symmetry_cell_setting 'monoclinic'
loop_
_space_group_symop_operation_xyz
x,y,z
-x,1/2+y,-z
-x,-y,-z
x,1/2-y,z
loop_
_atom_site_type_symbol
_atom_site_label
_atom_site_fract_x
_atom_site_fract_y
_atom_site_fract_z
Si Si1 0.984434 0.576585 0.933149
Si Si2 0.680377 0.420337 0.166924
Si Si3 0.978618 0.923770 0.595208
Si Si4 0.995682 0.576334 0.739614
Si Si5 0.280434 0.925955 0.163818
Si Si6 0.701944 0.075541 0.508107
O O1 0.935519 0.750000 0.942027
O O2 0.185479 0.553274 0.895148
O O3 0.810053 0.503173 0.896591
O O4 0.000000 0.500000 0.000000
O O5 0.604627 0.250000 0.169678
O O6 0.504339 0.533569 0.165455
O O7 0.801858 0.457728 0.228620
O O8 0.929018 0.750000 0.589094
O O9 0.167078 0.966289 0.553347
O O10 0.017814 0.969865 0.666728
O O11 0.796383 0.014905 0.571437
O O12 0.941453 0.750000 0.748985
O O13 0.824342 0.480546 0.771562
O O14 0.256921 0.750000 0.157323
O O15 0.671192 0.250000 0.515626
O O16 0.500000 0.000000 0.500000
#
# Coordination Sequence:
#
# PCOD8073453 Si02
#       6
#     4   4   4   4   4   4
#     4  10  21  38  59  81 107 140 178 220 263 310
#     4   9  19  36  56  78 105 140 179 217 260 312
#     4   9  19  36  56  77 103 139 180 220 264 314
#     4   9  19  37  58  77 102 139 181 222 263 312
#     4  11  22  35  54  81 111 141 174 217 267 315
#     4  10  20  34  53  79 109 140 176 218 264 315
#
# _framework density 18.236452
#
# number of rings (size 3 to 8) (size 9 to 14) (size 15 to 20)
#    0.000    2.333    0.000    3.500    0.000    6.667 
#    0.000    3.333    0.000    0.000    0.000    0.000 
#    0.000    0.000    0.000    0.000    0.000    0.000 
#
# Total GULP energy -297689.424680 kJ/mol
# GULP energy per Si atom -12403.726028 kJ/mol
# Density = 1.819495 g / cm^3
# Si number density = 18.236452 Si / 1000 Ang^3
#
#
#
# Elastic Constant Matrix: (Units=GPa)
#
#
# Indices 1 2 3 4 5 6 
#
# 1 128.2111 68.3496 61.2678 0.0000 12.8385 0.0000
# 2 68.3496 110.4836 62.6544 0.0000 7.2610 0.0000
# 3 61.2678 62.6544 157.5709 0.0000 14.0518 0.0000
# 4 0.0000 0.0000 0.0000 31.7471 0.0000 2.3942
# 5 12.8385 7.2610 14.0518 0.0000 14.6840 0.0000
# 6 0.0000 0.0000 0.0000 2.3942 0.0000 33.7212
#
#
#
# Elastic Compliance Matrix: (Units=1/GPa)
#
#
# Indices 1 2 3 4 5 6 
#
# 1 0.012721 -0.006418 -0.001843 0.000000 -0.006185 0.000000
# 2 -0.006418 0.014953 -0.003598 0.000000 0.001661 0.000000
# 3 -0.001843 -0.003598 0.008955 0.000000 -0.005180 0.000000
# 4 0.000000 0.000000 0.000000 0.031669 0.000000 -0.002248
# 5 -0.006185 0.001661 -0.005180 0.000000 0.077645 0.000000
# 6 0.000000 0.000000 0.000000 -0.002248 0.000000 0.029815
#
#
# Mechanical properties :
#
#
# Convention : Reuss Voigt Hill
#
# Bulk Modulus (GPa) = 77.45161 86.75656 82.10409
# Shear Modulus (GPa) = 24.53628 29.63004 27.08316
#
# Velocity S-wave (km/s) = 3.67202 4.03522 3.85789
# Velocity P-wave (km/s) = 7.78083 8.32989 8.06004
#
# Compressibility (1/GPa) = 0.01291129
#
# Stress axis : x y z
#
# Youngs Moduli (GPa) = 78.60898 66.87535 111.66357
#
# Poissons Ratio (x) = 0.42923 0.20575
# Poissons Ratio (y) = 0.50454 0.40179
# Poissons Ratio (z) = 0.14485 0.24063
#
# Static dielectric constant tensor:
#      x y z
#    x 3.321850 0.000000 0.070510 
#    y 0.000000 3.452870 0.000000 
#    z 0.070510 0.000000 3.537460 
# 
# 
# High freq. dielectric constant tensor:
#      x y z
#    x 1.706290 0.000000 0.004870 
#    y 0.000000 1.710300 0.000000 
#    z 0.004870 0.000000 1.711250 
# 
# From -- ./inp_files/67517.got.cif
#   From: 2010.06.25/outbox.cif.g09.slc.cpg/sg11_34_cif.got.tgz:67517.got - 2010.06.27 23:14:04.
