data_PCOD8073252
_publ_section_title
;
Structure prediction by ZEFSAII (Michael W. Deem and Ramdas Pophale) SiO2 
 PCOD8073252
Probable space group: P 21/M
;
_chemical_formula_sum "Si O2"
_cell_formula_units_Z 24
_cell_length_a 6.840468
_cell_length_b 21.037761
_cell_length_c 8.982369
_cell_angle_alpha 90.000000
_cell_angle_beta 96.283566
_cell_angle_gamma 90.000000
_cell_volume 1284.870281
_symmetry_space_group_name_H-M "P 21/M"
_symmetry_group_IT_number 11
_symmetry_cell_setting 'monoclinic'
loop_
_space_group_symop_operation_xyz
x,y,z
-x,1/2+y,-z
-x,-y,-z
x,1/2-y,z
loop_
_atom_site_type_symbol
_atom_site_label
_atom_site_fract_x
_atom_site_fract_y
_atom_site_fract_z
Si Si1 0.970018 0.424284 0.472840
Si Si2 0.264259 0.323095 0.634267
Si Si3 0.032596 0.179289 0.899365
Si Si4 0.320637 0.876513 0.313631
Si Si5 0.318879 0.517875 0.085246
Si Si6 0.983773 0.578722 0.860562
O O1 0.150575 0.379064 0.537602
O O2 0.935412 0.408837 0.297336
O O3 0.000000 0.500000 0.500000
O O4 0.774149 0.404174 0.543941
O O5 0.207927 0.250000 0.580141
O O6 0.496128 0.332444 0.627258
O O7 0.218188 0.331462 0.805855
O O8 0.015740 0.250000 0.955168
O O9 0.837342 0.163446 0.791142
O O10 0.064132 0.142397 0.054719
O O11 0.395654 0.933237 0.214849
O O12 0.221569 0.459484 0.166500
O O13 0.500000 0.500000 0.000000
O O14 0.151717 0.542395 0.962288
#
# Coordination Sequence:
#
# PCOD8073252 Si02
#       6
#     4   4   4   4   4   4
#     4  11  23  38  57  87 123 157 191 235 293 352
#     4  10  22  39  60  84 114 153 197 239 288 348
#     4   9  19  37  59  80 107 148 193 240 286 340
#     4  10  20  36  59  83 112 149 192 235 285 345
#     4  10  20  33  56  81 111 143 185 239 286 329
#     4  10  21  36  53  83 115 144 189 234 285 345
#
# _framework density 18.678929
#
# number of rings (size 3 to 8) (size 9 to 14) (size 15 to 20)
#    0.000    2.000    1.667    1.500    4.667    3.333 
#    0.000    0.000    0.000    0.000    0.000    0.000 
#    0.000    0.000    0.000    0.000    0.000    0.000 
#
# Total GULP energy -297497.424598 kJ/mol
# GULP energy per Si atom -12395.726025 kJ/mol
# Density = 1.863641 g / cm^3
# Si number density = 18.678929 Si / 1000 Ang^3
#
#
#
# Elastic Constant Matrix: (Units=GPa)
#
#
# Indices 1 2 3 4 5 6 
#
# 1 79.7819 42.9111 18.8354 0.0000 -23.7232 0.0000
# 2 42.9111 127.6637 48.0251 0.0000 -3.0305 0.0000
# 3 18.8354 48.0251 113.9847 0.0000 -20.9295 0.0000
# 4 0.0000 0.0000 0.0000 20.8009 0.0000 -4.3731
# 5 -23.7232 -3.0305 -20.9295 0.0000 26.1061 0.0000
# 6 0.0000 0.0000 0.0000 -4.3731 0.0000 26.8399
#
#
#
# Elastic Compliance Matrix: (Units=1/GPa)
#
#
# Indices 1 2 3 4 5 6 
#
# 1 0.023291 -0.008849 0.004195 0.000000 0.023501 0.000000
# 2 -0.008849 0.012803 -0.006022 0.000000 -0.011383 0.000000
# 3 0.004195 -0.006022 0.013120 0.000000 0.013631 0.000000
# 4 0.000000 0.000000 0.000000 0.049780 0.000000 0.008111
# 5 0.023501 -0.011383 0.013631 0.000000 0.069268 0.000000
# 6 0.000000 0.000000 0.000000 0.008111 0.000000 0.038579
#
#
# Mechanical properties :
#
#
# Convention : Reuss Voigt Hill
#
# Bulk Modulus (GPa) = 35.89145 60.10815 47.99980
# Shear Modulus (GPa) = 21.05425 28.85995 24.95710
#
# Velocity S-wave (km/s) = 3.36097 3.93498 3.65925
# Velocity P-wave (km/s) = 5.85817 7.27289 6.60353
#
# Compressibility (1/GPa) = 0.02786179
#
# Stress axis : x y z
#
# Youngs Moduli (GPa) = 42.93422 78.10898 76.21876
#
# Poissons Ratio (x) = 0.69119 -0.31972
# Poissons Ratio (y) = 0.37992 0.45899
# Poissons Ratio (z) = -0.18010 0.47037
#
# Static dielectric constant tensor:
#      x y z
#    x 3.627600 0.000000 -0.245590 
#    y 0.000000 3.663420 0.000000 
#    z -0.245590 0.000000 3.361150 
# 
# 
# High freq. dielectric constant tensor:
#      x y z
#    x 1.723250 0.000000 -0.018280 
#    y 0.000000 1.733810 0.000000 
#    z -0.018280 0.000000 1.717950 
# 
# From -- ./inp_files/5429.got.cif
#   From: 2010.06.25/outbox.cif.g09.slc.cpg/sg11_3_cif.got.tgz:5429.got - 2010.06.27 23:14:04.
