data_PCOD8073875
_publ_section_title
;
Structure prediction by ZEFSAII (Michael W. Deem and Ramdas Pophale) SiO2 
 PCOD8073875
Probable space group: P 21/M
;
_chemical_formula_sum "Si O2"
_cell_formula_units_Z 24
_cell_length_a 11.893854
_cell_length_b 8.610889
_cell_length_c 23.423965
_cell_angle_alpha 90.000000
_cell_angle_beta 146.168518
_cell_angle_gamma 90.000000
_cell_volume 1335.650682
_symmetry_space_group_name_H-M "P 21/M"
_symmetry_group_IT_number 11
_symmetry_cell_setting 'monoclinic'
loop_
_space_group_symop_operation_xyz
x,y,z
-x,1/2+y,-z
-x,-y,-z
x,1/2-y,z
loop_
_atom_site_type_symbol
_atom_site_label
_atom_site_fract_x
_atom_site_fract_y
_atom_site_fract_z
Si Si1 0.193592 0.932223 0.111726
Si Si2 0.678842 0.066803 0.710938
Si Si3 0.996227 0.069071 0.370913
Si Si4 0.284873 0.433229 0.390239
Si Si5 0.723860 0.069206 0.421402
Si Si6 0.369788 0.431791 0.736571
O O1 0.183426 0.750000 0.102137
O O2 0.195664 0.980676 0.179508
O O3 0.397575 0.991782 0.166281
O O4 0.000000 0.000000 0.000000
O O5 0.637660 0.250000 0.692070
O O6 0.791360 0.010062 0.701235
O O7 0.466361 0.977893 0.620069
O O8 0.023902 0.250000 0.395158
O O9 0.109572 0.021527 0.360840
O O10 0.758012 0.022386 0.268336
O O11 0.079552 0.970039 0.459026
O O12 0.500000 0.500000 0.500000
O O13 0.305524 0.250000 0.392031
O O14 0.718769 0.250000 0.403195
O O15 0.726115 0.966893 0.365504
O O16 0.360399 0.250000 0.745154
#
# Coordination Sequence:
#
# PCOD8073875 Si02
#       6
#     4   4   4   4   4   4
#     4   9  20  37  59  83 105 132 168 221 276 322
#     4  10  20  35  53  78 110 140 179 223 263 313
#     4  11  22  34  49  73 107 144 180 218 258 309
#     4  11  22  34  52  76 108 148 186 220 258 307
#     4  11  20  31  50  74 104 143 180 215 262 312
#     4  10  21  36  52  75 106 137 174 218 268 319
#
# _framework density 17.968771
#
# number of rings (size 3 to 8) (size 9 to 14) (size 15 to 20)
#    0.000    1.667    1.667    5.000    0.000    6.000 
#    0.000    0.000    0.000    1.000    0.000    0.000 
#    0.000    0.000    0.000    0.000    0.000    0.000 
#
# Total GULP energy -297576.762608 kJ/mol
# GULP energy per Si atom -12399.031775 kJ/mol
# Density = 1.792787 g / cm^3
# Si number density = 17.968771 Si / 1000 Ang^3
#
#
#
# Elastic Constant Matrix: (Units=GPa)
#
#
# Indices 1 2 3 4 5 6 
#
# 1 135.4291 30.6566 65.6994 0.0000 16.3396 0.0000
# 2 30.6566 54.9191 28.2804 0.0000 5.1836 0.0000
# 3 65.6994 28.2804 105.9940 0.0000 6.9103 0.0000
# 4 0.0000 0.0000 0.0000 28.3069 0.0000 0.8177
# 5 16.3396 5.1836 6.9103 0.0000 17.6152 0.0000
# 6 0.0000 0.0000 0.0000 0.8177 0.0000 32.4447
#
#
#
# Elastic Compliance Matrix: (Units=1/GPa)
#
#
# Indices 1 2 3 4 5 6 
#
# 1 0.011940 -0.002755 -0.006154 0.000000 -0.007851 0.000000
# 2 -0.002755 0.022038 -0.004019 0.000000 -0.002353 0.000000
# 3 -0.006154 -0.004019 0.014236 0.000000 0.001306 0.000000
# 4 0.000000 0.000000 0.000000 0.035353 0.000000 -0.000891
# 5 -0.007851 -0.002353 0.001306 0.000000 0.064231 0.000000
# 6 0.000000 0.000000 0.000000 -0.000891 0.000000 0.030844
#
#
# Mechanical properties :
#
#
# Convention : Reuss Voigt Hill
#
# Bulk Modulus (GPa) = 44.72618 60.62388 52.67503
# Shear Modulus (GPa) = 23.59024 27.12041 25.35533
#
# Velocity S-wave (km/s) = 3.62725 3.88920 3.76051
# Velocity P-wave (km/s) = 6.51826 7.34707 6.94504
#
# Compressibility (1/GPa) = 0.02235827
#
# Stress axis : x y z
#
# Youngs Moduli (GPa) = 83.74987 45.37589 70.24352
#
# Poissons Ratio (x) = 0.12502 0.43229
# Poissons Ratio (y) = 0.23075 0.28230
# Poissons Ratio (z) = 0.51541 0.18236
#
# Static dielectric constant tensor:
#      x y z
#    x 3.630790 0.000000 0.066500 
#    y 0.000000 3.418390 0.000000 
#    z 0.066500 0.000000 2.527720 
# 
# 
# High freq. dielectric constant tensor:
#      x y z
#    x 1.703970 0.000000 0.010960 
#    y 0.000000 1.705400 0.000000 
#    z 0.010960 0.000000 1.657100 
# 
# From -- ./inp_files/36988.got.cif
#   From: 2010.06.25/outbox.cif.g09.slc.cpg/sg11_19_cif.got.tgz:36988.got - 2010.06.27 23:14:04.
