data_PCOD8073999
_publ_section_title
;
Structure prediction by ZEFSAII (Michael W. Deem and Ramdas Pophale) SiO2 
 PCOD8073999
Probable space group: P 21/M
;
_chemical_formula_sum "Si O2"
_cell_formula_units_Z 32
_cell_length_a 22.094007
_cell_length_b 8.933661
_cell_length_c 27.990444
_cell_angle_alpha 90.000000
_cell_angle_beta 161.445269
_cell_angle_gamma 90.000000
_cell_volume 1758.037327
_symmetry_space_group_name_H-M "P 21/M"
_symmetry_group_IT_number 11
_symmetry_cell_setting 'monoclinic'
loop_
_space_group_symop_operation_xyz
x,y,z
-x,1/2+y,-z
-x,-y,-z
x,1/2-y,z
loop_
_atom_site_type_symbol
_atom_site_label
_atom_site_fract_x
_atom_site_fract_y
_atom_site_fract_z
Si Si1 0.279173 0.576860 0.078991
Si Si2 0.295361 0.426625 0.850545
Si Si3 0.298905 0.575751 0.344088
Si Si4 0.007790 0.423342 0.805564
Si Si5 0.985379 0.424554 0.289676
Si Si6 0.021414 0.424558 0.066539
Si Si7 0.714043 0.923043 0.406232
Si Si8 0.989417 0.074593 0.543220
O O1 0.259424 0.750000 0.049448
O O2 0.496136 0.529797 0.250365
O O3 0.196285 0.478558 0.973878
O O4 0.168464 0.543827 0.045133
O O5 0.316930 0.250000 0.872069
O O6 0.192959 0.489452 0.820991
O O7 0.173701 0.470221 0.712539
O O8 0.500000 0.500000 0.000000
O O9 0.500000 0.500000 0.500000
O O10 0.322972 0.750000 0.351144
O O11 0.201606 0.498777 0.226247
O O12 0.176895 0.547453 0.300366
O O13 0.033593 0.250000 0.812137
O O14 0.976541 0.517242 0.734601
O O15 0.935354 0.250000 0.251046
O O16 0.176143 0.457405 0.462459
O O17 0.061109 0.250000 0.089992
O O18 0.000000 0.500000 0.000000
O O19 0.734300 0.750000 0.407054
O O20 0.799044 0.019641 0.426819
O O21 0.976078 0.250000 0.526027
O O22 0.000000 0.000000 0.500000
#
# Coordination Sequence:
#
# PCOD8073999 Si02
#       8
#     4   4   4   4   4   4   4   4
#     4   9  19  36  56  78 106 140 177 217 262 314
#     4  10  21  37  56  79 107 139 177 220 264 313
#     4  10  21  37  56  79 108 142 181 225 272 323
#     4  10  21  36  54  79 109 140 176 219 265 314
#     4  10  20  35  56  80 107 141 177 216 264 315
#     4  10  20  35  55  80 110 144 181 222 269 320
#     4   9  19  36  56  78 104 135 174 217 259 307
#     4  10  21  36  55  79 106 137 172 212 259 310
#
# _framework density 18.202117000000001
#
# number of rings (size 3 to 8) (size 9 to 14) (size 15 to 20)
#    0.000    2.250    0.000    2.250    0.000    6.500 
#    0.000    2.500    0.000    0.000    0.000    0.000 
#    0.000    0.000    0.000    0.000    0.000    0.000 
#
# Total GULP energy -396929.231914 kJ/mol
# GULP energy per Si atom -12404.038497 kJ/mol
# Density = 1.816069 g / cm^3
# Si number density = 18.202117 Si / 1000 Ang^3
#
#
#
# Elastic Constant Matrix: (Units=GPa)
#
#
# Indices 1 2 3 4 5 6 
#
# 1 124.9705 65.3292 71.7289 0.0000 -16.0289 0.0000
# 2 65.3292 100.8221 65.6155 0.0000 -3.5047 0.0000
# 3 71.7289 65.6155 148.9203 0.0000 12.5742 0.0000
# 4 0.0000 0.0000 0.0000 32.1404 0.0000 -1.4747
# 5 -16.0289 -3.5047 12.5742 0.0000 22.9373 0.0000
# 6 0.0000 0.0000 0.0000 -1.4747 0.0000 38.6166
#
#
#
# Elastic Compliance Matrix: (Units=1/GPa)
#
#
# Indices 1 2 3 4 5 6 
#
# 1 0.016877 -0.006088 -0.006672 0.000000 0.014521 0.000000
# 2 -0.006088 0.016865 -0.004568 0.000000 0.000827 0.000000
# 3 -0.006672 -0.004568 0.012996 0.000000 -0.012485 0.000000
# 4 0.000000 0.000000 0.000000 0.031168 0.000000 0.001190
# 5 0.014521 0.000827 -0.012485 0.000000 0.060715 0.000000
# 6 0.000000 0.000000 0.000000 0.001190 0.000000 0.025941
#
#
# Mechanical properties :
#
#
# Convention : Reuss Voigt Hill
#
# Bulk Modulus (GPa) = 82.78239 86.67335 84.72787
# Shear Modulus (GPa) = 24.60055 30.20817 27.40436
#
# Velocity S-wave (km/s) = 3.68029 4.07823 3.88436
# Velocity P-wave (km/s) = 7.97732 8.36042 8.17111
#
# Compressibility (1/GPa) = 0.01207986
#
# Stress axis : x y z
#
# Youngs Moduli (GPa) = 59.25235 59.29336 76.94771
#
# Poissons Ratio (x) = 0.36100 0.51343
# Poissons Ratio (y) = 0.36075 0.35151
# Poissons Ratio (z) = 0.39536 0.27086
#
# Static dielectric constant tensor:
#      x y z
#    x 3.399910 0.000000 0.023560 
#    y 0.000000 3.542020 0.000000 
#    z 0.023560 0.000000 3.395560 
# 
# 
# High freq. dielectric constant tensor:
#      x y z
#    x 1.706860 0.000000 -0.000910 
#    y 0.000000 1.719200 0.000000 
#    z -0.000910 0.000000 1.708640 
# 
# From -- ./inp_files/67201.got.cif
#   From: 2010.06.25/outbox.cif.g09.slc.cpg/sg11_34_cif.got.tgz:67201.got - 2010.06.27 23:14:04.
