data_PCOD8073607
_publ_section_title
;
Structure prediction by ZEFSAII (Michael W. Deem and Ramdas Pophale) SiO2 
 PCOD8073607
Probable space group: P 21/M
;
_chemical_formula_sum "Si O2"
_cell_formula_units_Z 32
_cell_length_a 14.060623
_cell_length_b 8.968099
_cell_length_c 23.225622
_cell_angle_alpha 90.000000
_cell_angle_beta 32.051693
_cell_angle_gamma 90.000000
_cell_volume 1554.205506
_symmetry_space_group_name_H-M "P 21/M"
_symmetry_group_IT_number 11
_symmetry_cell_setting 'monoclinic'
loop_
_space_group_symop_operation_xyz
x,y,z
-x,1/2+y,-z
-x,-y,-z
x,1/2-y,z
loop_
_atom_site_type_symbol
_atom_site_label
_atom_site_fract_x
_atom_site_fract_y
_atom_site_fract_z
Si Si1 0.662243 0.424784 0.450367
Si Si2 0.807373 0.927682 0.606003
Si Si3 0.056243 0.424083 0.236279
Si Si4 0.699184 0.922313 0.787476
Si Si5 0.839120 0.917191 0.021192
Si Si6 0.648668 0.579212 0.000600
Si Si7 0.762560 0.419905 0.173306
Si Si8 0.582510 0.076701 0.621406
O O1 0.500000 0.500000 0.500000
O O2 0.644464 0.250000 0.448104
O O3 0.661672 0.459358 0.518482
O O4 0.855217 0.488572 0.329780
O O5 0.827094 0.750000 0.595101
O O6 0.725485 0.983528 0.709127
O O7 0.679428 0.979924 0.620396
O O8 0.000000 0.000000 0.500000
O O9 0.045523 0.250000 0.227920
O O10 0.117996 0.451085 0.270579
O O11 0.202050 0.495850 0.117773
O O12 0.650009 0.750000 0.810067
O O13 0.541680 0.998627 0.905084
O O14 0.820941 0.750000 0.056735
O O15 0.044487 0.942414 0.895806
O O16 0.711611 0.938114 0.033214
O O17 0.778805 0.039811 0.097798
O O18 0.618902 0.750000 0.997749
O O19 0.694843 0.250000 0.213211
O O20 0.625088 0.529691 0.275067
O O21 0.601827 0.250000 0.627425
#
# Coordination Sequence:
#
# PCOD8073607 Si02
#       8
#     4   4   4   4   4   4   4   4
#     4  10  23  42  64  87 116 155 199 249 303 360
#     4  11  23  39  62  90 120 158 200 245 301 358
#     4   9  19  38  61  82 113 155 194 237 295 357
#     4  10  21  38  59  86 120 156 194 238 291 350
#     4   9  19  34  52  79 113 150 193 241 294 353
#     4  10  20  34  57  85 112 151 197 238 291 350
#     4  10  20  34  55  81 111 151 195 242 294 351
#     4  11  23  39  59  86 119 154 194 241 297 359
#
# _framework density 20.589296999999998
#
# number of rings (size 3 to 8) (size 9 to 14) (size 15 to 20)
#    0.000    2.000    0.000    3.000    1.750    7.000 
#    0.000    1.250    0.000    0.000    0.000    0.000 
#    0.000    0.000    0.000    0.000    0.000    0.000 
#
# Total GULP energy -396769.938114 kJ/mol
# GULP energy per Si atom -12399.060566 kJ/mol
# Density = 2.054243 g / cm^3
# Si number density = 20.589297 Si / 1000 Ang^3
#
#
#
# Elastic Constant Matrix: (Units=GPa)
#
#
# Indices 1 2 3 4 5 6 
#
# 1 70.7478 25.7322 43.8033 0.0000 -12.0858 0.0000
# 2 25.7322 48.8900 39.1599 0.0000 -0.7860 0.0000
# 3 43.8033 39.1599 149.4386 0.0000 -12.4516 0.0000
# 4 0.0000 0.0000 0.0000 32.3876 0.0000 -3.9585
# 5 -12.0858 -0.7860 -12.4516 0.0000 29.5804 0.0000
# 6 0.0000 0.0000 0.0000 -3.9585 0.0000 28.1654
#
#
#
# Elastic Compliance Matrix: (Units=1/GPa)
#
#
# Indices 1 2 3 4 5 6 
#
# 1 0.020174 -0.007870 -0.003297 0.000000 0.006645 0.000000
# 2 -0.007870 0.029103 -0.005724 0.000000 -0.004852 0.000000
# 3 -0.003297 -0.005724 0.009362 0.000000 0.002441 0.000000
# 4 0.000000 0.000000 0.000000 0.031416 0.000000 0.004415
# 5 0.006645 -0.004852 0.002441 0.000000 0.037420 0.000000
# 6 0.000000 0.000000 0.000000 0.004415 0.000000 0.036125
#
#
# Mechanical properties :
#
#
# Convention : Reuss Voigt Hill
#
# Bulk Modulus (GPa) = 40.23163 54.05192 47.14177
# Shear Modulus (GPa) = 24.31114 28.71875 26.51495
#
# Velocity S-wave (km/s) = 3.43996 3.73881 3.59249
# Velocity P-wave (km/s) = 5.94645 6.70430 6.33671
#
# Compressibility (1/GPa) = 0.02485606
#
# Stress axis : x y z
#
# Youngs Moduli (GPa) = 49.56871 34.36078 106.82040
#
# Poissons Ratio (x) = 0.27043 0.35222
# Poissons Ratio (y) = 0.39012 0.61140
# Poissons Ratio (z) = 0.16344 0.19667
#
# Static dielectric constant tensor:
#      x y z
#    x 3.766860 0.000000 -0.097810 
#    y 0.000000 3.569670 0.000000 
#    z -0.097810 0.000000 4.010840 
# 
# 
# High freq. dielectric constant tensor:
#      x y z
#    x 1.811200 0.000000 -0.006570 
#    y 0.000000 1.782950 0.000000 
#    z -0.006570 0.000000 1.818460 
# 
# From -- ./inp_files/55632.got.cif
#   From: 2010.06.25/outbox.cif.g09.slc.cpg/sg11_28_cif.got.tgz:55632.got - 2010.06.27 23:14:04.
