data_PCOD8073443
_publ_section_title
;
Structure prediction by ZEFSAII (Michael W. Deem and Ramdas Pophale) SiO2 
 PCOD8073443
Probable space group: P 21/M
;
_chemical_formula_sum "Si O2"
_cell_formula_units_Z 32
_cell_length_a 15.905498
_cell_length_b 8.815602
_cell_length_c 25.531781
_cell_angle_alpha 90.000000
_cell_angle_beta 150.571328
_cell_angle_gamma 90.000000
_cell_volume 1758.985189
_symmetry_space_group_name_H-M "P 21/M"
_symmetry_group_IT_number 11
_symmetry_cell_setting 'monoclinic'
loop_
_space_group_symop_operation_xyz
x,y,z
-x,1/2+y,-z
-x,-y,-z
x,1/2-y,z
loop_
_atom_site_type_symbol
_atom_site_label
_atom_site_fract_x
_atom_site_fract_y
_atom_site_fract_z
Si Si1 0.351933 0.070616 0.454133
Si Si2 0.585864 0.928588 0.191631
Si Si3 0.997331 0.572923 0.239178
Si Si4 0.142008 0.925995 0.041332
Si Si5 0.473171 0.076850 0.722247
Si Si6 0.089591 0.073305 0.692919
Si Si7 0.288335 0.928646 0.527815
Si Si8 0.229980 0.071251 0.982206
O O1 0.368059 0.250000 0.462432
O O2 0.500000 0.000000 0.500000
O O3 0.171175 0.022010 0.331439
O O4 0.375566 0.011767 0.526190
O O5 0.561454 0.750000 0.169009
O O6 0.604996 0.963329 0.263568
O O7 0.751435 0.999739 0.252266
O O8 0.420589 0.009370 0.077997
O O9 0.046238 0.750000 0.263163
O O10 0.894339 0.536892 0.236736
O O11 0.878066 0.521987 0.126939
O O12 0.102399 0.750000 0.012475
O O13 0.136078 0.001589 0.981328
O O14 0.324364 0.952152 0.167642
O O15 0.000000 0.000000 0.000000
O O16 0.431688 0.250000 0.684376
O O17 0.389895 0.964598 0.635513
O O18 0.099473 0.250000 0.686871
O O19 0.907501 0.012306 0.572653
O O20 0.291633 0.750000 0.518278
O O21 0.237217 0.250000 0.993000
#
# Coordination Sequence:
#
# PCOD8073443 Si02
#       8
#     4   4   4   4   4   4   4   4
#     4  11  22  37  57  79 105 136 172 214 258 308
#     4   9  18  34  54  75 105 142 177 216 260 307
#     4   9  19  36  55  77 108 141 173 213 260 307
#     4  10  21  37  56  77 104 137 173 216 262 311
#     4   9  19  34  51  75 106 138 173 215 262 306
#     4   8  16  33  54  75 103 140 176 212 259 308
#     4  10  20  35  55  78 105 138 175 214 259 311
#     4  10  20  34  53  78 108 139 173 216 261 307
#
# _framework density 18.192307
#
# number of rings (size 3 to 8) (size 9 to 14) (size 15 to 20)
#    0.000    2.500    0.000    3.750    0.000    5.500 
#    0.000    4.375    0.000    0.000    0.000    0.000 
#    0.000    0.000    0.000    0.000    0.000    0.000 
#
# Total GULP energy -396827.339760 kJ/mol
# GULP energy per Si atom -12400.854367 kJ/mol
# Density = 1.815090 g / cm^3
# Si number density = 18.192307 Si / 1000 Ang^3
#
#
#
# Elastic Constant Matrix: (Units=GPa)
#
#
# Indices 1 2 3 4 5 6 
#
# 1 154.2653 53.6236 82.7707 0.0000 17.7405 0.0000
# 2 53.6236 86.3666 51.7523 0.0000 -1.1118 0.0000
# 3 82.7707 51.7523 112.6806 0.0000 -13.6065 0.0000
# 4 0.0000 0.0000 0.0000 32.6619 0.0000 -1.5440
# 5 17.7405 -1.1118 -13.6065 0.0000 32.0855 0.0000
# 6 0.0000 0.0000 0.0000 -1.5440 0.0000 26.6858
#
#
#
# Elastic Compliance Matrix: (Units=1/GPa)
#
#
# Indices 1 2 3 4 5 6 
#
# 1 0.015092 -0.002672 -0.011465 0.000000 -0.013299 0.000000
# 2 -0.002672 0.016672 -0.005741 0.000000 -0.000380 0.000000
# 3 -0.011465 -0.005741 0.021790 0.000000 0.015380 0.000000
# 4 0.000000 0.000000 0.000000 0.030701 0.000000 0.001776
# 5 -0.013299 -0.000380 0.015380 0.000000 0.045029 0.000000
# 6 0.000000 0.000000 0.000000 0.001776 0.000000 0.037576
#
#
# Mechanical properties :
#
#
# Convention : Reuss Voigt Hill
#
# Bulk Modulus (GPa) = 72.46305 81.06732 76.76518
# Shear Modulus (GPa) = 23.67280 29.29772 26.48526
#
# Velocity S-wave (km/s) = 3.61120 4.01739 3.81970
# Velocity P-wave (km/s) = 7.57006 8.13494 7.85758
#
# Compressibility (1/GPa) = 0.01380014
#
# Stress axis : x y z
#
# Youngs Moduli (GPa) = 66.26207 59.97955 45.89295
#
# Poissons Ratio (x) = 0.16024 0.52614
# Poissons Ratio (y) = 0.17703 0.26346
# Poissons Ratio (z) = 0.75966 0.34433
#
# Static dielectric constant tensor:
#      x y z
#    x 3.550730 0.000000 0.086990 
#    y 0.000000 3.283000 0.000000 
#    z 0.086990 0.000000 3.401960 
# 
# 
# High freq. dielectric constant tensor:
#      x y z
#    x 1.712430 0.000000 0.001370 
#    y 0.000000 1.699010 0.000000 
#    z 0.001370 0.000000 1.705230 
# 
# From -- ./inp_files/68985.got.cif
#   From: 2010.06.25/outbox.cif.g09.slc.cpg/sg11_35_cif.got.tgz:68985.got - 2010.06.27 23:14:04.
