data_PCOD8073627
_publ_section_title
;
Structure prediction by ZEFSAII (Michael W. Deem and Ramdas Pophale) SiO2 
 PCOD8073627
Probable space group: P 21/M
;
_chemical_formula_sum "Si O2"
_cell_formula_units_Z 32
_cell_length_a 20.751917
_cell_length_b 9.015137
_cell_length_c 26.194869
_cell_angle_alpha 90.000000
_cell_angle_beta 21.150935
_cell_angle_gamma 90.000000
_cell_volume 1768.254056
_symmetry_space_group_name_H-M "P 21/M"
_symmetry_group_IT_number 11
_symmetry_cell_setting 'monoclinic'
loop_
_space_group_symop_operation_xyz
x,y,z
-x,1/2+y,-z
-x,-y,-z
x,1/2-y,z
loop_
_atom_site_type_symbol
_atom_site_label
_atom_site_fract_x
_atom_site_fract_y
_atom_site_fract_z
Si Si1 0.441391 0.576134 0.594948
Si Si2 0.342647 0.074408 0.975842
Si Si3 0.077714 0.424972 0.893074
Si Si4 0.799674 0.581350 0.384097
Si Si5 0.000743 0.076907 0.422315
Si Si6 0.047002 0.075506 0.273604
Si Si7 0.906611 0.079350 0.914079
Si Si8 0.721735 0.576657 0.695141
O O1 0.500000 0.500000 0.500000
O O2 0.409048 0.750000 0.609034
O O3 0.267158 0.498233 0.744173
O O4 0.592897 0.550382 0.525756
O O5 0.364050 0.250000 0.959181
O O6 0.533861 0.001739 0.841520
O O7 0.218592 0.018702 0.114694
O O8 0.254184 0.021980 0.988011
O O9 0.102651 0.250000 0.882133
O O10 0.942570 0.458794 0.946448
O O11 0.000000 0.500000 0.000000
O O12 0.832343 0.750000 0.376159
O O13 0.863921 0.482655 0.383969
O O14 0.911098 0.543289 0.250758
O O15 0.951606 0.250000 0.458960
O O16 0.058103 0.020713 0.323793
O O17 0.166366 0.042069 0.336644
O O18 0.825274 0.988385 0.569728
O O19 0.040655 0.250000 0.275782
O O20 0.849937 0.250000 0.948980
O O21 0.692120 0.750000 0.708246
#
# Coordination Sequence:
#
# PCOD8073627 Si02
#       8
#     4   4   4   4   4   4   4   4
#     4  11  21  36  59  85 111 146 188 232 278 331
#     4  10  20  34  55  83 110 139 179 222 267 323
#     4  11  23  40  58  82 113 147 186 233 283 334
#     4   9  18  34  55  81 110 141 178 221 270 324
#     4   9  19  37  57  78 109 143 179 224 269 315
#     4   9  19  35  55  81 110 140 176 224 272 314
#     4   9  18  36  57  77 108 145 180 222 271 324
#     4  10  20  35  56  80 107 145 184 218 265 323
#
# _framework density 18.096948000000001
#
# number of rings (size 3 to 8) (size 9 to 14) (size 15 to 20)
#    0.000    2.250    1.250    1.500    0.000    4.000 
#    2.250    0.000    0.000    0.000    0.000    0.000 
#    0.000    0.000    0.000    0.000    0.000    0.000 
#
# Total GULP energy -396851.715439 kJ/mol
# GULP energy per Si atom -12401.616107 kJ/mol
# Density = 1.805576 g / cm^3
# Si number density = 18.096948 Si / 1000 Ang^3
#
#
#
# Elastic Constant Matrix: (Units=GPa)
#
#
# Indices 1 2 3 4 5 6 
#
# 1 126.2652 57.9847 74.0554 0.0000 10.5450 0.0000
# 2 57.9847 81.0327 62.6163 0.0000 1.4752 0.0000
# 3 74.0554 62.6163 125.8608 0.0000 1.9416 0.0000
# 4 0.0000 0.0000 0.0000 35.1232 0.0000 -3.2467
# 5 10.5450 1.4752 1.9416 0.0000 23.9868 0.0000
# 6 0.0000 0.0000 0.0000 -3.2467 0.0000 31.8708
#
#
#
# Elastic Compliance Matrix: (Units=1/GPa)
#
#
# Indices 1 2 3 4 5 6 
#
# 1 0.014244 -0.005981 -0.005321 0.000000 -0.005463 0.000000
# 2 -0.005981 0.022564 -0.007735 0.000000 0.001868 0.000000
# 3 -0.005321 -0.007735 0.014899 0.000000 0.001609 0.000000
# 4 0.000000 0.000000 0.000000 0.028742 0.000000 0.002928
# 5 -0.005463 0.001868 0.001609 0.000000 0.043846 0.000000
# 6 0.000000 0.000000 0.000000 0.002928 0.000000 0.031675
#
#
# Mechanical properties :
#
#
# Convention : Reuss Voigt Hill
#
# Bulk Modulus (GPa) = 73.35421 80.27462 76.81441
# Shear Modulus (GPa) = 25.17770 27.42965 26.30368
#
# Velocity S-wave (km/s) = 3.73402 3.89743 3.81660
# Velocity P-wave (km/s) = 7.69497 8.04411 7.87147
#
# Compressibility (1/GPa) = 0.01363248
#
# Stress axis : x y z
#
# Youngs Moduli (GPa) = 70.20706 44.31856 67.11676
#
# Poissons Ratio (x) = 0.26508 0.35711
# Poissons Ratio (y) = 0.41993 0.51915
# Poissons Ratio (z) = 0.37356 0.34281
#
# Static dielectric constant tensor:
#      x y z
#    x 3.478330 0.000000 0.014740 
#    y 0.000000 3.416620 0.000000 
#    z 0.014740 0.000000 3.272480 
# 
# 
# High freq. dielectric constant tensor:
#      x y z
#    x 1.702140 0.000000 -0.005280 
#    y 0.000000 1.707400 0.000000 
#    z -0.005280 0.000000 1.695990 
# 
# From -- ./inp_files/71980.got.cif
#   From: 2010.06.25/outbox.cif.g09.slc.cpg/sg11_36_cif.got.tgz:71980.got - 2010.06.27 23:14:04.
