data_PCOD8073159
_publ_section_title
;
Structure prediction by ZEFSAII (Michael W. Deem and Ramdas Pophale) SiO2 
 PCOD8073159
Probable space group: P 21/M
;
_chemical_formula_sum "Si O2"
_cell_formula_units_Z 24
_cell_length_a 9.400372
_cell_length_b 17.465915
_cell_length_c 12.177703
_cell_angle_alpha 90.000000
_cell_angle_beta 38.532982
_cell_angle_gamma 90.000000
_cell_volume 1245.562240
_symmetry_space_group_name_H-M "P 21/M"
_symmetry_group_IT_number 11
_symmetry_cell_setting 'monoclinic'
loop_
_space_group_symop_operation_xyz
x,y,z
-x,1/2+y,-z
-x,-y,-z
x,1/2-y,z
loop_
_atom_site_type_symbol
_atom_site_label
_atom_site_fract_x
_atom_site_fract_y
_atom_site_fract_z
Si Si1 0.403714 0.659988 0.020064
Si Si2 0.271439 0.585851 0.320809
Si Si3 0.249594 0.093485 0.352461
Si Si4 0.438554 0.661480 0.661143
Si Si5 0.541155 0.660272 0.352776
Si Si6 0.051162 0.839722 0.054820
O O1 0.389301 0.750000 0.049022
O O2 0.405443 0.618350 0.135349
O O3 0.189494 0.628993 0.077109
O O4 0.636632 0.641770 0.814425
O O5 0.277257 0.495153 0.308611
O O6 0.398001 0.612527 0.353248
O O7 0.014157 0.617714 0.480025
O O8 0.364601 0.111995 0.400033
O O9 0.496419 0.750000 0.650767
O O10 0.428547 0.644543 0.538668
O O11 0.190997 0.639885 0.860058
O O12 0.537525 0.750000 0.324262
O O13 0.798070 0.625562 0.199227
O O14 0.024347 0.750000 0.086963
#
# Coordination Sequence:
#
# PCOD8073159 Si02
#       6
#     4   4   4   4   4   4
#     4  10  20  37  61  81 102 141 190 231 267 318
#     4  11  23  36  53  82 118 147 175 222 280 328
#     4  10  22  39  56  78 112 151 186 219 264 328
#     4   9  18  35  57  77 102 141 187 225 259 315
#     4  10  20  33  52  80 110 138 175 225 274 318
#     4   8  16  32  53  76 100 132 177 224 266 311
#
# _framework density 19.268405999999999
#
# number of rings (size 3 to 8) (size 9 to 14) (size 15 to 20)
#    0.000    2.333    0.000    3.500    0.000    6.000 
#    0.000    5.000    0.000    0.000    0.000    0.000 
#    0.000    0.000    0.000    0.000    0.000    0.000 
#
# Total GULP energy -297638.994140 kJ/mol
# GULP energy per Si atom -12401.624756 kJ/mol
# Density = 1.922455 g / cm^3
# Si number density = 19.268406 Si / 1000 Ang^3
#
#
#
# Elastic Constant Matrix: (Units=GPa)
#
#
# Indices 1 2 3 4 5 6 
#
# 1 84.2986 19.1549 41.9654 0.0000 15.7908 0.0000
# 2 19.1549 33.0531 13.9985 0.0000 -0.0190 0.0000
# 3 41.9654 13.9985 85.4226 0.0000 12.0938 0.0000
# 4 0.0000 0.0000 0.0000 28.5691 0.0000 0.5940
# 5 15.7908 -0.0190 12.0938 0.0000 25.3270 0.0000
# 6 0.0000 0.0000 0.0000 0.5940 0.0000 26.1001
#
#
#
# Elastic Compliance Matrix: (Units=1/GPa)
#
#
# Indices 1 2 3 4 5 6 
#
# 1 0.018534 -0.007945 -0.006614 0.000000 -0.008404 0.000000
# 2 -0.007945 0.036097 -0.002914 0.000000 0.006372 0.000000
# 3 -0.006614 -0.002914 0.015926 0.000000 -0.003484 0.000000
# 4 0.000000 0.000000 0.000000 0.035019 0.000000 -0.000797
# 5 -0.008404 0.006372 -0.003484 0.000000 0.046391 0.000000
# 6 0.000000 0.000000 0.000000 -0.000797 0.000000 0.038332
#
#
# Mechanical properties :
#
#
# Convention : Reuss Voigt Hill
#
# Bulk Modulus (GPa) = 28.08077 39.22353 33.65215
# Shear Modulus (GPa) = 21.08668 24.50961 22.79814
#
# Velocity S-wave (km/s) = 3.31171 3.57039 3.44348
# Velocity P-wave (km/s) = 5.40632 6.11535 5.77174
#
# Compressibility (1/GPa) = 0.03561156
#
# Stress axis : x y z
#
# Youngs Moduli (GPa) = 53.95347 27.70352 62.78894
#
# Poissons Ratio (x) = 0.22010 0.41527
# Poissons Ratio (y) = 0.42866 0.18299
# Poissons Ratio (z) = 0.35683 0.08074
#
# Static dielectric constant tensor:
#      x y z
#    x 3.516790 0.000000 -0.096730 
#    y 0.000000 3.303580 0.000000 
#    z -0.096730 0.000000 3.768440 
# 
# 
# High freq. dielectric constant tensor:
#      x y z
#    x 1.746930 0.000000 0.002790 
#    y 0.000000 1.729670 0.000000 
#    z 0.002790 0.000000 1.763640 
# 
# From -- ./inp_files/32597.got.cif
#   From: 2010.06.25/outbox.cif.g09.slc.cpg/sg11_17_cif.got.tgz:32597.got - 2010.06.27 23:14:04.
