data_PCOD8073994
_publ_section_title
;
Structure prediction by ZEFSAII (Michael W. Deem and Ramdas Pophale) SiO2 
 PCOD8073994
Probable space group: P 21/M
;
_chemical_formula_sum "Si O2"
_cell_formula_units_Z 28
_cell_length_a 13.702865
_cell_length_b 9.001603
_cell_length_c 13.695703
_cell_angle_alpha 90.000000
_cell_angle_beta 120.282434
_cell_angle_gamma 90.000000
_cell_volume 1458.824835
_symmetry_space_group_name_H-M "P 21/M"
_symmetry_group_IT_number 11
_symmetry_cell_setting 'monoclinic'
loop_
_space_group_symop_operation_xyz
x,y,z
-x,1/2+y,-z
-x,-y,-z
x,1/2-y,z
loop_
_atom_site_type_symbol
_atom_site_label
_atom_site_fract_x
_atom_site_fract_y
_atom_site_fract_z
Si Si1 0.091909 0.426218 0.614587
Si Si2 0.798045 0.423435 0.750920
Si Si3 0.949591 0.922899 0.186349
Si Si4 0.384604 0.073586 0.474254
Si Si5 0.231085 0.575425 0.040765
Si Si6 0.665228 0.573949 0.333363
Si Si7 0.525279 0.426419 0.910334
O O1 0.081480 0.250000 0.599391
O O2 0.071025 0.479613 0.714406
O O3 0.214602 0.485630 0.644075
O O4 0.000000 0.500000 0.500000
O O5 0.768137 0.250000 0.721823
O O6 0.714955 0.523382 0.646319
O O7 0.923465 0.460895 0.779516
O O8 0.784428 0.473674 0.855548
O O9 0.923275 0.750000 0.164545
O O10 0.866574 0.004614 0.071897
O O11 0.397504 0.250000 0.477504
O O12 0.356263 0.015494 0.568467
O O13 0.500000 0.000000 0.500000
O O14 0.219718 0.750000 0.024454
O O15 0.352630 0.519964 0.064966
O O16 0.664756 0.750000 0.331797
O O17 0.566644 0.513728 0.213323
O O18 0.518985 0.250000 0.918057
O O19 0.500000 0.500000 0.000000
#
# Coordination Sequence:
#
# PCOD8073994 Si02
#       7
#     4   4   4   4   4   4   4
#     4  10  20  35  55  80 108 141 178 220 267 318
#     4  10  21  38  57  81 112 144 179 223 270 319
#     4  10  21  36  57  83 111 142 180 226 270 313
#     4  11  22  37  58  82 108 144 184 224 270 322
#     4  10  21  36  56  80 110 146 180 218 272 330
#     4   9  19  36  56  76 106 145 178 210 264 327
#     4  10  20  36  56  78 105 140 179 221 266 317
#
# _framework density 19.193532000000001
#
# number of rings (size 3 to 8) (size 9 to 14) (size 15 to 20)
#    0.000    2.000    0.000    3.429    0.000    5.714 
#    0.000    4.286    0.000    0.000    0.000    0.000 
#    0.000    0.000    0.000    0.000    0.000    0.000 
#
# Total GULP energy -347310.700547 kJ/mol
# GULP energy per Si atom -12403.953591 kJ/mol
# Density = 1.914985 g / cm^3
# Si number density = 19.193532 Si / 1000 Ang^3
#
#
#
# Elastic Constant Matrix: (Units=GPa)
#
#
# Indices 1 2 3 4 5 6 
#
# 1 165.6938 37.9642 92.0309 0.0000 -21.5590 0.0000
# 2 37.9642 36.6776 47.7372 0.0000 -1.5645 0.0000
# 3 92.0309 47.7372 187.9318 0.0000 -9.8549 0.0000
# 4 0.0000 0.0000 0.0000 36.9851 0.0000 4.2170
# 5 -21.5590 -1.5645 -9.8549 0.0000 40.1895 0.0000
# 6 0.0000 0.0000 0.0000 4.2170 0.0000 28.7412
#
#
#
# Elastic Compliance Matrix: (Units=1/GPa)
#
#
# Indices 1 2 3 4 5 6 
#
# 1 0.009577 -0.005850 -0.002985 0.000000 0.004178 0.000000
# 2 -0.005850 0.044340 -0.008583 0.000000 -0.003517 0.000000
# 3 -0.002985 -0.008583 0.008977 0.000000 0.000266 0.000000
# 4 0.000000 0.000000 0.000000 0.027498 0.000000 -0.004035
# 5 0.004178 -0.003517 0.000266 0.000000 0.027052 0.000000
# 6 0.000000 0.000000 0.000000 -0.004035 0.000000 0.035385
#
#
# Mechanical properties :
#
#
# Convention : Reuss Voigt Hill
#
# Bulk Modulus (GPa) = 35.63883 82.86309 59.25096
# Shear Modulus (GPa) = 25.37852 35.35455 30.36653
#
# Velocity S-wave (km/s) = 3.64021 4.29651 3.98191
# Velocity P-wave (km/s) = 6.02301 8.23890 7.21651
#
# Compressibility (1/GPa) = 0.02805929
#
# Stress axis : x y z
#
# Youngs Moduli (GPa) = 104.41641 22.55283 111.39737
#
# Poissons Ratio (x) = 0.13193 0.33251
# Poissons Ratio (y) = 0.61082 0.95610
# Poissons Ratio (z) = 0.31167 0.19357
#
# Static dielectric constant tensor:
#      x y z
#    x 3.766680 0.000000 0.075940 
#    y 0.000000 3.408970 0.000000 
#    z 0.075940 0.000000 3.865390 
# 
# 
# High freq. dielectric constant tensor:
#      x y z
#    x 1.770090 0.000000 -0.001800 
#    y 0.000000 1.723550 0.000000 
#    z -0.001800 0.000000 1.765050 
# 
# From -- ./inp_files/38478.got.cif
#   From: 2010.06.25/outbox.cif.g09.slc.cpg/sg11_20_cif.got.tgz:38478.got - 2010.06.27 23:14:04.
