data_PCOD8073641
_publ_section_title
;
Structure prediction by ZEFSAII (Michael W. Deem and Ramdas Pophale) SiO2 
 PCOD8073641
Probable space group: P 21/M
;
_chemical_formula_sum "Si O2"
_cell_formula_units_Z 32
_cell_length_a 28.981520
_cell_length_b 9.279756
_cell_length_c 12.633100
_cell_angle_alpha 90.000000
_cell_angle_beta 152.249173
_cell_angle_gamma 90.000000
_cell_volume 1581.998546
_symmetry_space_group_name_H-M "P 21/M"
_symmetry_group_IT_number 11
_symmetry_cell_setting 'monoclinic'
loop_
_space_group_symop_operation_xyz
x,y,z
-x,1/2+y,-z
-x,-y,-z
x,1/2-y,z
loop_
_atom_site_type_symbol
_atom_site_label
_atom_site_fract_x
_atom_site_fract_y
_atom_site_fract_z
Si Si1 0.506792 0.092632 0.617104
Si Si2 0.026879 0.083488 0.389601
Si Si3 0.147608 0.583237 0.801028
Si Si4 0.717949 0.908964 0.789881
Si Si5 0.726929 0.914661 0.410199
Si Si6 0.450860 0.415612 0.105698
Si Si7 0.948453 0.584492 0.799682
Si Si8 0.324829 0.918156 0.492372
O O1 0.554339 0.250000 0.690767
O O2 0.398084 0.113256 0.440969
O O3 0.500000 0.000000 0.500000
O O4 0.571372 0.010403 0.835865
O O5 0.062067 0.250000 0.465701
O O6 0.013892 0.034131 0.240629
O O7 0.925421 0.061708 0.247476
O O8 0.108026 0.983512 0.611423
O O9 0.172267 0.750000 0.831149
O O10 0.245638 0.495278 0.032404
O O11 0.769010 0.750000 0.886446
O O12 0.738256 0.003431 0.727031
O O13 0.716700 0.750000 0.430060
O O14 0.830151 0.938180 0.559403
O O15 0.722684 0.025372 0.497002
O O16 0.635664 0.954997 0.150178
O O17 0.446990 0.250000 0.133343
O O18 0.557584 0.451611 0.270868
O O19 0.976834 0.750000 0.875344
O O20 0.000000 0.500000 0.000000
O O21 0.303382 0.750000 0.437333
#
# Coordination Sequence:
#
# PCOD8073641 Si02
#       8
#     4   4   4   4   4   4   4   4
#     4  10  21  36  55  80 112 148 184 225 277 334
#     4   9  20  39  58  80 114 150 187 235 293 347
#     4  10  20  35  59  88 113 144 189 240 288 339
#     4  10  21  36  55  81 113 149 187 228 280 339
#     4  10  21  37  57  82 110 148 189 229 285 343
#     4   9  19  36  56  80 113 148 187 231 277 335
#     4  10  23  41  59  82 114 152 193 237 285 344
#     4  10  20  34  55  83 114 148 188 237 281 330
#
# _framework density 20.227577
#
# number of rings (size 3 to 8) (size 9 to 14) (size 15 to 20)
#    0.000    2.250    0.000    1.875    1.750    5.000 
#    0.000    2.500    0.000    0.000    0.000    0.000 
#    0.000    0.000    0.000    0.000    0.000    0.000 
#
# Total GULP energy -396771.059017 kJ/mol
# GULP energy per Si atom -12399.095594 kJ/mol
# Density = 2.018154 g / cm^3
# Si number density = 20.227577 Si / 1000 Ang^3
#
#
#
# Elastic Constant Matrix: (Units=GPa)
#
#
# Indices 1 2 3 4 5 6 
#
# 1 79.9282 37.9489 17.3474 0.0000 -31.5375 0.0000
# 2 37.9489 120.9100 43.5262 0.0000 -27.4676 0.0000
# 3 17.3474 43.5262 88.5971 0.0000 -24.2251 0.0000
# 4 0.0000 0.0000 0.0000 36.3402 0.0000 -8.8042
# 5 -31.5375 -27.4676 -24.2251 0.0000 32.6338 0.0000
# 6 0.0000 0.0000 0.0000 -8.8042 0.0000 32.8072
#
#
#
# Elastic Compliance Matrix: (Units=1/GPa)
#
#
# Indices 1 2 3 4 5 6 
#
# 1 0.021303 -0.003162 0.002865 0.000000 0.020053 0.000000
# 2 -0.003162 0.011555 -0.004057 0.000000 0.003658 0.000000
# 3 0.002865 -0.004057 0.015737 0.000000 0.011036 0.000000
# 4 0.000000 0.000000 0.000000 0.029431 0.000000 0.007898
# 5 0.020053 0.003658 0.011036 0.000000 0.061293 0.000000
# 6 0.000000 0.000000 0.000000 0.007898 0.000000 0.032601
#
#
# Mechanical properties :
#
#
# Convention : Reuss Voigt Hill
#
# Bulk Modulus (GPa) = 25.07128 54.12002 39.59565
# Shear Modulus (GPa) = 25.78340 33.06376 29.42358
#
# Velocity S-wave (km/s) = 3.57412 4.04739 3.81809
# Velocity P-wave (km/s) = 5.42715 6.97535 6.24938
#
# Compressibility (1/GPa) = 0.03988628
#
# Stress axis : x y z
#
# Youngs Moduli (GPa) = 46.94182 86.54561 63.54487
#
# Poissons Ratio (x) = 0.27368 -0.18208
# Poissons Ratio (y) = 0.14844 0.25782
# Poissons Ratio (z) = -0.13451 0.35114
#
# Static dielectric constant tensor:
#      x y z
#    x 3.677640 0.000000 -0.042680 
#    y 0.000000 4.001450 0.000000 
#    z -0.042680 0.000000 3.673000 
# 
# 
# High freq. dielectric constant tensor:
#      x y z
#    x 1.777820 0.000000 -0.009910 
#    y 0.000000 1.797580 0.000000 
#    z -0.009910 0.000000 1.789950 
# 
# From -- ./inp_files/45288.got.cif
#   From: 2010.06.25/outbox.cif.g09.slc.cpg/sg11_23_cif.got.tgz:45288.got - 2010.06.27 23:14:04.
