data_PCOD8073155
_publ_section_title
;
Structure prediction by ZEFSAII (Michael W. Deem and Ramdas Pophale) SiO2 
 PCOD8073155
Probable space group: P 21/M
;
_chemical_formula_sum "Si O2"
_cell_formula_units_Z 28
_cell_length_a 26.367844
_cell_length_b 8.635109
_cell_length_c 9.693869
_cell_angle_alpha 90.000000
_cell_angle_beta 138.763519
_cell_angle_gamma 90.000000
_cell_volume 1454.909468
_symmetry_space_group_name_H-M "P 21/M"
_symmetry_group_IT_number 11
_symmetry_cell_setting 'monoclinic'
loop_
_space_group_symop_operation_xyz
x,y,z
-x,1/2+y,-z
-x,-y,-z
x,1/2-y,z
loop_
_atom_site_type_symbol
_atom_site_label
_atom_site_fract_x
_atom_site_fract_y
_atom_site_fract_z
Si Si1 0.720783 0.072007 0.110369
Si Si2 0.406057 0.932409 0.942198
Si Si3 0.577880 0.930227 0.309302
Si Si4 0.131226 0.933221 0.922193
Si Si5 0.306520 0.575414 0.257689
Si Si6 0.007276 0.433589 0.862021
Si Si7 0.117498 0.432061 0.598472
O O1 0.743599 0.250000 0.190641
O O2 0.796163 0.967094 0.273603
O O3 0.658583 0.999856 0.088115
O O4 0.682211 0.062695 0.882104
O O5 0.403386 0.750000 0.949588
O O6 0.491186 0.993703 0.157973
O O7 0.384785 0.983757 0.744711
O O8 0.575120 0.750000 0.270495
O O9 0.630909 0.961962 0.548922
O O10 0.118427 0.750000 0.895677
O O11 0.087467 0.010508 0.960105
O O12 0.099704 0.996972 0.712259
O O13 0.220655 0.976781 0.123684
O O14 0.321871 0.750000 0.340436
O O15 0.005496 0.250000 0.865730
O O16 0.938133 0.493677 0.627175
O O17 0.000000 0.500000 0.000000
O O18 0.103016 0.250000 0.575447
#
# Coordination Sequence:
#
# PCOD8073155 Si02
#       7
#     4   4   4   4   4   4   4
#     4   9  19  37  58  80 107 142 185 228 273 326
#     4   9  19  36  55  75 105 145 184 224 273 326
#     4  10  20  33  52  79 109 142 182 225 270 325
#     4  10  21  40  62  84 112 149 188 225 272 329
#     4   9  19  35  56  80 108 142 178 220 272 325
#     4  12  25  41  60  85 115 147 185 229 276 326
#     4  11  22  38  60  86 114 146 184 227 277 330
#
# _framework density 19.245183999999998
#
# number of rings (size 3 to 8) (size 9 to 14) (size 15 to 20)
#    0.000    2.000    0.000    4.714    0.000    5.714 
#    0.000    1.429    0.000    0.000    0.000    0.000 
#    0.000    0.000    0.000    0.000    0.000    0.000 
#
# Total GULP energy -347268.017707 kJ/mol
# GULP energy per Si atom -12402.429204 kJ/mol
# Density = 1.920138 g / cm^3
# Si number density = 19.245184 Si / 1000 Ang^3
#
#
#
# Elastic Constant Matrix: (Units=GPa)
#
#
# Indices 1 2 3 4 5 6 
#
# 1 129.4455 25.0522 0.8969 0.0000 -6.6613 0.0000
# 2 25.0522 81.5990 14.8533 0.0000 -2.0527 0.0000
# 3 0.8969 14.8533 47.9511 0.0000 -0.1676 0.0000
# 4 0.0000 0.0000 0.0000 35.0479 0.0000 -1.3713
# 5 -6.6613 -2.0527 -0.1676 0.0000 18.3826 0.0000
# 6 0.0000 0.0000 0.0000 -1.3713 0.0000 30.2623
#
#
#
# Elastic Compliance Matrix: (Units=1/GPa)
#
#
# Indices 1 2 3 4 5 6 
#
# 1 0.008369 -0.002621 0.000665 0.000000 0.002746 0.000000
# 2 -0.002621 0.013845 -0.004238 0.000000 0.000557 0.000000
# 3 0.000665 -0.004238 0.022155 0.000000 -0.000030 0.000000
# 4 0.000000 0.000000 0.000000 0.028583 0.000000 0.001295
# 5 0.002746 0.000557 -0.000030 0.000000 0.055456 0.000000
# 6 0.000000 0.000000 0.000000 0.001295 0.000000 0.033103
#
#
# Mechanical properties :
#
#
# Convention : Reuss Voigt Hill
#
# Bulk Modulus (GPa) = 31.26850 37.84447 34.55649
# Shear Modulus (GPa) = 27.09142 31.28479 29.18810
#
# Velocity S-wave (km/s) = 3.75600 4.03624 3.89864
# Velocity P-wave (km/s) = 5.92392 6.43651 6.18553
#
# Compressibility (1/GPa) = 0.03198106
#
# Stress axis : x y z
#
# Youngs Moduli (GPa) = 119.48407 72.22665 45.13716
#
# Poissons Ratio (x) = 0.18934 -0.03002
# Poissons Ratio (y) = 0.31323 0.19128
# Poissons Ratio (z) = -0.07947 0.30608
#
# Static dielectric constant tensor:
#      x y z
#    x 3.745180 0.000000 0.086710 
#    y 0.000000 3.498070 0.000000 
#    z 0.086710 0.000000 3.434170 
# 
# 
# High freq. dielectric constant tensor:
#      x y z
#    x 1.756510 0.000000 0.004260 
#    y 0.000000 1.749280 0.000000 
#    z 0.004260 0.000000 1.747070 
# 
# From -- ./inp_files/28404.got.cif
#   From: 2010.06.25/outbox.cif.g09.slc.cpg/sg11_15_cif.got.tgz:28404.got - 2010.06.27 23:14:04.
