data_PCOD8073310
_publ_section_title
;
Structure prediction by ZEFSAII (Michael W. Deem and Ramdas Pophale) SiO2 
 PCOD8073310
Probable space group: P 21/M
;
_chemical_formula_sum "Si O2"
_cell_formula_units_Z 32
_cell_length_a 12.180812
_cell_length_b 9.120399
_cell_length_c 15.874407
_cell_angle_alpha 90.000000
_cell_angle_beta 100.888898
_cell_angle_gamma 90.000000
_cell_volume 1731.797124
_symmetry_space_group_name_H-M "P 21/M"
_symmetry_group_IT_number 11
_symmetry_cell_setting 'monoclinic'
loop_
_space_group_symop_operation_xyz
x,y,z
-x,1/2+y,-z
-x,-y,-z
x,1/2-y,z
loop_
_atom_site_type_symbol
_atom_site_label
_atom_site_fract_x
_atom_site_fract_y
_atom_site_fract_z
Si Si1 0.068755 0.077640 0.389335
Si Si2 0.855623 0.921555 0.416570
Si Si3 0.818751 0.081518 0.746744
Si Si4 0.412422 0.920381 0.208741
Si Si5 0.401707 0.079163 0.034112
Si Si6 0.658460 0.576817 0.274762
Si Si7 0.222644 0.420358 0.871922
Si Si8 0.005234 0.577901 0.089972
O O1 0.052767 0.250000 0.378287
O O2 0.134813 0.034859 0.484352
O O3 0.141186 0.020688 0.322561
O O4 0.947017 0.004218 0.372999
O O5 0.876761 0.750000 0.405609
O O6 0.732333 0.969387 0.366516
O O7 0.844496 0.250000 0.726991
O O8 0.686353 0.054532 0.738465
O O9 0.881378 0.040527 0.843119
O O10 0.419536 0.750000 0.183123
O O11 0.530029 0.976742 0.265680
O O12 0.384128 0.014464 0.123315
O O13 0.430235 0.250000 0.044047
O O14 0.288278 0.048669 0.967357
O O15 0.500000 0.000000 0.000000
O O16 0.656293 0.750000 0.265407
O O17 0.714712 0.505633 0.198928
O O18 0.215790 0.250000 0.850397
O O19 0.097265 0.481028 0.866860
O O20 0.992874 0.750000 0.070669
O O21 0.000000 0.500000 0.000000
#
# Coordination Sequence:
#
# PCOD8073310 Si02
#       8
#     4   4   4   4   4   4   4   4
#     4  10  20  34  55  83 109 135 171 216 264 314
#     4   9  18  34  58  82 105 135 171 215 266 318
#     4  10  21  36  55  77 106 144 179 211 256 317
#     4  10  20  35  54  76 102 137 181 220 258 309
#     4  11  20  32  50  73 102 137 176 218 262 308
#     4   9  16  31  54  76 100 131 172 216 259 312
#     4   9  17  29  49  72  95 130 171 208 251 307
#     4  10  20  34  51  73 101 134 173 213 257 305
#
# _framework density 18.477914999999999
#
# number of rings (size 3 to 8) (size 9 to 14) (size 15 to 20)
#    0.000    2.250    1.250    2.250    0.000    3.500 
#    0.000    1.875    0.000    0.000    0.000    0.000 
#    0.000    0.000    0.000    0.000    0.000    0.000 
#
# Total GULP energy -396746.439114 kJ/mol
# GULP energy per Si atom -12398.326222 kJ/mol
# Density = 1.843586 g / cm^3
# Si number density = 18.477915 Si / 1000 Ang^3
#
#
#
# Elastic Constant Matrix: (Units=GPa)
#
#
# Indices 1 2 3 4 5 6 
#
# 1 141.2763 30.2201 55.0002 0.0000 6.4489 0.0000
# 2 30.2201 49.6757 34.4707 0.0000 1.5998 0.0000
# 3 55.0002 34.4707 95.3641 0.0000 0.1290 0.0000
# 4 0.0000 0.0000 0.0000 29.6677 0.0000 -4.1561
# 5 6.4489 1.5998 0.1290 0.0000 22.9527 0.0000
# 6 0.0000 0.0000 0.0000 -4.1561 0.0000 20.3190
#
#
#
# Elastic Compliance Matrix: (Units=1/GPa)
#
#
# Indices 1 2 3 4 5 6 
#
# 1 0.009511 -0.002539 -0.004564 0.000000 -0.002470 0.000000
# 2 -0.002539 0.027624 -0.008519 0.000000 -0.001164 0.000000
# 3 -0.004564 -0.008519 0.016195 0.000000 0.001785 0.000000
# 4 0.000000 0.000000 0.000000 0.034701 0.000000 0.007098
# 5 -0.002470 -0.001164 0.001785 0.000000 0.044333 0.000000
# 6 0.000000 0.000000 0.000000 0.007098 0.000000 0.050667
#
#
# Mechanical properties :
#
#
# Convention : Reuss Voigt Hill
#
# Bulk Modulus (GPa) = 45.27839 58.41090 51.84465
# Shear Modulus (GPa) = 22.55921 25.69621 24.12771
#
# Velocity S-wave (km/s) = 3.49789 3.73318 3.61745
# Velocity P-wave (km/s) = 6.39304 7.08957 6.75029
#
# Compressibility (1/GPa) = 0.02208559
#
# Stress axis : x y z
#
# Youngs Moduli (GPa) = 105.13983 36.19987 61.74583
#
# Poissons Ratio (x) = 0.09193 0.28182
# Poissons Ratio (y) = 0.26699 0.52602
# Poissons Ratio (z) = 0.47988 0.30839
#
# Static dielectric constant tensor:
#      x y z
#    x 3.711350 0.000000 0.090980 
#    y 0.000000 3.519070 0.000000 
#    z 0.090980 0.000000 3.443830 
# 
# 
# High freq. dielectric constant tensor:
#      x y z
#    x 1.727170 0.000000 0.006130 
#    y 0.000000 1.689500 0.000000 
#    z 0.006130 0.000000 1.710930 
# 
# From -- ./inp_files/49410.got.cif
#   From: 2010.06.25/outbox.cif.g09.slc.cpg/sg11_25_cif.got.tgz:49410.got - 2010.06.27 23:14:04.
