data_PCOD8073133
_publ_section_title
;
Structure prediction by ZEFSAII (Michael W. Deem and Ramdas Pophale) SiO2 
 PCOD8073133
Probable space group: P 21/M
;
_chemical_formula_sum "Si O2"
_cell_formula_units_Z 32
_cell_length_a 15.822040
_cell_length_b 8.991227
_cell_length_c 25.719775
_cell_angle_alpha 90.000000
_cell_angle_beta 28.940769
_cell_angle_gamma 90.000000
_cell_volume 1770.552851
_symmetry_space_group_name_H-M "P 21/M"
_symmetry_group_IT_number 11
_symmetry_cell_setting 'monoclinic'
loop_
_space_group_symop_operation_xyz
x,y,z
-x,1/2+y,-z
-x,-y,-z
x,1/2-y,z
loop_
_atom_site_type_symbol
_atom_site_label
_atom_site_fract_x
_atom_site_fract_y
_atom_site_fract_z
Si Si1 0.590965 0.575590 0.902521
Si Si2 0.834771 0.425145 0.152166
Si Si3 0.223814 0.422814 0.918980
Si Si4 0.729730 0.924047 0.417626
Si Si5 0.663806 0.074966 0.349590
Si Si6 0.540588 0.425463 0.822597
Si Si7 0.012705 0.080909 0.332239
Si Si8 0.111559 0.075657 0.395411
O O1 0.547527 0.750000 0.923934
O O2 0.513597 0.498678 0.893121
O O3 0.798234 0.548579 0.794343
O O4 0.500000 0.500000 0.000000
O O5 0.811539 0.250000 0.162027
O O6 0.733225 0.493019 0.157676
O O7 0.749042 0.487894 0.250995
O O8 0.037200 0.474058 0.042273
O O9 0.222963 0.250000 0.906139
O O10 0.367270 0.463630 0.884133
O O11 0.743919 0.750000 0.401301
O O12 0.539563 0.970474 0.541343
O O13 0.764749 0.001804 0.343592
O O14 0.872830 0.972157 0.382345
O O15 0.690193 0.250000 0.340426
O O16 0.572341 0.250000 0.811495
O O17 0.700510 0.498281 0.705716
O O18 0.956374 0.250000 0.351483
O O19 0.016255 0.049228 0.391809
O O20 0.135957 0.250000 0.393423
O O21 0.000000 0.000000 0.500000
#
# Coordination Sequence:
#
# PCOD8073133 Si02
#       8
#     4   4   4   4   4   4   4   4
#     4  10  21  37  56  79 106 138 177 219 266 317
#     4   9  18  34  54  74 100 136 174 211 254 306
#     4   9  19  34  52  76 104 134 170 213 260 306
#     4  10  20  33  52  78 103 132 173 215 255 303
#     4   9  19  35  52  73 104 138 170 209 258 307
#     4  10  20  35  54  78 109 142 177 218 263 313
#     4   9  20  37  54  74 104 139 171 209 261 315
#     4  10  21  37  56  79 106 139 178 218 265 316
#
# _framework density 18.073450999999999
#
# number of rings (size 3 to 8) (size 9 to 14) (size 15 to 20)
#    0.000    2.500    0.000    2.250    0.000    7.000 
#    0.000    5.000    0.000    0.000    0.000    0.000 
#    0.000    0.000    0.000    0.000    0.000    0.000 
#
# Total GULP energy -396886.232101 kJ/mol
# GULP energy per Si atom -12402.694753 kJ/mol
# Density = 1.803232 g / cm^3
# Si number density = 18.073451 Si / 1000 Ang^3
#
#
#
# Elastic Constant Matrix: (Units=GPa)
#
#
# Indices 1 2 3 4 5 6 
#
# 1 120.4730 59.8213 74.7007 0.0000 4.0634 0.0000
# 2 59.8213 79.5438 52.7147 0.0000 5.1390 0.0000
# 3 74.7007 52.7147 119.3117 0.0000 27.9375 0.0000
# 4 0.0000 0.0000 0.0000 30.5322 0.0000 1.9518
# 5 4.0634 5.1390 27.9375 0.0000 32.6243 0.0000
# 6 0.0000 0.0000 0.0000 1.9518 0.0000 37.7276
#
#
#
# Elastic Compliance Matrix: (Units=1/GPa)
#
#
# Indices 1 2 3 4 5 6 
#
# 1 0.017559 -0.007478 -0.009323 0.000000 0.006975 0.000000
# 2 -0.007478 0.021613 -0.005364 0.000000 0.002120 0.000000
# 3 -0.009323 -0.005364 0.020162 0.000000 -0.015259 0.000000
# 4 0.000000 0.000000 0.000000 0.032861 0.000000 -0.001700
# 5 0.006975 0.002120 -0.015259 0.000000 0.042516 0.000000
# 6 0.000000 0.000000 0.000000 -0.001700 0.000000 0.026594
#
#
# Mechanical properties :
#
#
# Convention : Reuss Voigt Hill
#
# Bulk Modulus (GPa) = 66.64692 77.08909 71.86800
# Shear Modulus (GPa) = 23.73766 28.98295 26.36031
#
# Velocity S-wave (km/s) = 3.62802 4.00887 3.82319
# Velocity P-wave (km/s) = 7.38279 8.01086 7.70323
#
# Compressibility (1/GPa) = 0.01500444
#
# Stress axis : x y z
#
# Youngs Moduli (GPa) = 56.94960 46.26857 49.59934
#
# Poissons Ratio (x) = 0.34598 0.46243
# Poissons Ratio (y) = 0.42584 0.26604
# Poissons Ratio (z) = 0.53096 0.24818
#
# Static dielectric constant tensor:
#      x y z
#    x 3.332370 0.000000 0.060870 
#    y 0.000000 3.360420 0.000000 
#    z 0.060870 0.000000 3.434470 
# 
# 
# High freq. dielectric constant tensor:
#      x y z
#    x 1.702940 0.000000 0.004830 
#    y 0.000000 1.705950 0.000000 
#    z 0.004830 0.000000 1.700660 
# 
# From -- ./inp_files/69059.got.cif
#   From: 2010.06.25/outbox.cif.g09.slc.cpg/sg11_35_cif.got.tgz:69059.got - 2010.06.27 23:14:04.
