data_PCOD8073383
_publ_section_title
;
Structure prediction by ZEFSAII (Michael W. Deem and Ramdas Pophale) SiO2 
 PCOD8073383
Probable space group: P 21/M
;
_chemical_formula_sum "Si O2"
_cell_formula_units_Z 24
_cell_length_a 11.738997
_cell_length_b 8.813667
_cell_length_c 22.984112
_cell_angle_alpha 90.000000
_cell_angle_beta 145.900588
_cell_angle_gamma 90.000000
_cell_volume 1333.190091
_symmetry_space_group_name_H-M "P 21/M"
_symmetry_group_IT_number 11
_symmetry_cell_setting 'monoclinic'
loop_
_space_group_symop_operation_xyz
x,y,z
-x,1/2+y,-z
-x,-y,-z
x,1/2-y,z
loop_
_atom_site_type_symbol
_atom_site_label
_atom_site_fract_x
_atom_site_fract_y
_atom_site_fract_z
Si Si1 0.975792 0.423911 0.351017
Si Si2 0.311073 0.425636 0.286876
Si Si3 0.702522 0.580057 0.419400
Si Si4 0.200199 0.070993 0.110965
Si Si5 0.283105 0.928794 0.392450
Si Si6 0.388039 0.425316 0.749004
O O1 0.956427 0.250000 0.322842
O O2 0.751870 0.496322 0.261207
O O3 0.079925 0.438075 0.458398
O O4 0.106312 0.514183 0.359464
O O5 0.279504 0.250000 0.287900
O O6 0.551163 0.459096 0.384246
O O7 0.206220 0.472449 0.181770
O O8 0.216504 0.523751 0.299091
O O9 0.615059 0.750000 0.393521
O O10 0.724046 0.550825 0.360050
O O11 0.201766 0.250000 0.102758
O O12 0.392153 0.002940 0.158146
O O13 0.000000 0.000000 0.000000
O O14 0.303684 0.750000 0.406235
O O15 0.500000 0.000000 0.500000
O O16 0.415995 0.250000 0.776812
#
# Coordination Sequence:
#
# PCOD8073383 Si02
#       6
#     4   4   4   4   4   4
#     4  11  21  33  50  75 109 149 186 221 265 318
#     4  10  20  34  54  80 109 142 183 226 268 318
#     4   9  18  31  49  73 106 146 182 219 264 315
#     4  10  21  38  61  86 109 138 177 226 280 328
#     4  12  23  35  52  76 109 150 190 225 264 315
#     4  10  20  34  52  78 109 142 181 224 272 324
#
# _framework density 18.001933999999999
#
# number of rings (size 3 to 8) (size 9 to 14) (size 15 to 20)
#    0.000    1.667    1.667    4.000    0.000    3.333 
#    0.000    0.000    0.000    1.000    0.000    0.000 
#    0.000    0.000    0.000    0.000    0.000    0.000 
#
# Total GULP energy -297638.380316 kJ/mol
# GULP energy per Si atom -12401.599180 kJ/mol
# Density = 1.796096 g / cm^3
# Si number density = 18.001934 Si / 1000 Ang^3
#
#
#
# Elastic Constant Matrix: (Units=GPa)
#
#
# Indices 1 2 3 4 5 6 
#
# 1 123.1048 69.1371 55.8697 0.0000 18.8697 0.0000
# 2 69.1371 131.3368 53.9418 0.0000 11.3373 0.0000
# 3 55.8697 53.9418 94.4790 0.0000 14.1004 0.0000
# 4 0.0000 0.0000 0.0000 27.5846 0.0000 4.2536
# 5 18.8697 11.3373 14.1004 0.0000 19.4250 0.0000
# 6 0.0000 0.0000 0.0000 4.2536 0.0000 35.2549
#
#
#
# Elastic Compliance Matrix: (Units=1/GPa)
#
#
# Indices 1 2 3 4 5 6 
#
# 1 0.014038 -0.004951 -0.004341 0.000000 -0.007596 0.000000
# 2 -0.004951 0.011755 -0.003900 0.000000 0.000780 0.000000
# 3 -0.004341 -0.003900 0.016159 0.000000 -0.005237 0.000000
# 4 0.000000 0.000000 0.000000 0.036939 0.000000 -0.004457
# 5 -0.007596 0.000780 -0.005237 0.000000 0.062205 0.000000
# 6 0.000000 0.000000 0.000000 -0.004457 0.000000 0.028903
#
#
# Mechanical properties :
#
#
# Convention : Reuss Voigt Hill
#
# Bulk Modulus (GPa) = 64.23169 78.53533 71.38351
# Shear Modulus (GPa) = 24.80487 27.78437 26.29462
#
# Velocity S-wave (km/s) = 3.71603 3.93289 3.82600
# Velocity P-wave (km/s) = 7.36001 8.02149 7.69786
#
# Compressibility (1/GPa) = 0.01556864
#
# Stress axis : x y z
#
# Youngs Moduli (GPa) = 71.23361 85.07168 61.88322
#
# Poissons Ratio (x) = 0.42122 0.26863
# Poissons Ratio (y) = 0.35270 0.24133
# Poissons Ratio (z) = 0.30922 0.33176
#
# Static dielectric constant tensor:
#      x y z
#    x 3.351240 0.000000 -0.088410 
#    y 0.000000 3.499700 0.000000 
#    z -0.088410 0.000000 3.079690 
# 
# 
# High freq. dielectric constant tensor:
#      x y z
#    x 1.695990 0.000000 0.003260 
#    y 0.000000 1.714920 0.000000 
#    z 0.003260 0.000000 1.661830 
# 
# From -- ./inp_files/42252.got.cif
#   From: 2010.06.25/outbox.cif.g09.slc.cpg/sg11_22_cif.got.tgz:42252.got - 2010.06.27 23:14:04.
