data_PCOD8073861
_publ_section_title
;
Structure prediction by ZEFSAII (Michael W. Deem and Ramdas Pophale) SiO2 
 PCOD8073861
Probable space group: P 21/M
;
_chemical_formula_sum "Si O2"
_cell_formula_units_Z 32
_cell_length_a 27.291144
_cell_length_b 9.169633
_cell_length_c 20.211903
_cell_angle_alpha 90.000000
_cell_angle_beta 160.746677
_cell_angle_gamma 90.000000
_cell_volume 1667.860200
_symmetry_space_group_name_H-M "P 21/M"
_symmetry_group_IT_number 11
_symmetry_cell_setting 'monoclinic'
loop_
_space_group_symop_operation_xyz
x,y,z
-x,1/2+y,-z
-x,-y,-z
x,1/2-y,z
loop_
_atom_site_type_symbol
_atom_site_label
_atom_site_fract_x
_atom_site_fract_y
_atom_site_fract_z
Si Si1 0.917255 0.073918 0.832752
Si Si2 0.912695 0.588912 0.074611
Si Si3 0.463447 0.419765 0.052797
Si Si4 0.626388 0.576937 0.482242
Si Si5 0.371461 0.422466 0.083613
Si Si6 0.728550 0.421170 0.298558
Si Si7 0.061164 0.423176 0.747412
Si Si8 0.621952 0.592513 0.623721
O O1 0.926442 0.250000 0.851923
O O2 0.752526 0.016751 0.607070
O O3 0.994351 0.012346 0.864557
O O4 0.000000 0.000000 0.000000
O O5 0.980739 0.750000 0.172312
O O6 0.747632 0.599304 0.838133
O O7 0.913270 0.508652 0.146478
O O8 0.430613 0.250000 0.001904
O O9 0.433843 0.466479 0.090827
O O10 0.631927 0.456974 0.242253
O O11 0.344796 0.504455 0.857847
O O12 0.637179 0.750000 0.481320
O O13 0.466304 0.514579 0.257385
O O14 0.667543 0.534152 0.610160
O O15 0.391303 0.250000 0.122004
O O16 0.197488 0.469430 0.872353
O O17 0.728097 0.250000 0.285135
O O18 0.898307 0.480423 0.517831
O O19 0.060639 0.250000 0.750288
O O20 0.500000 0.500000 0.500000
O O21 0.551692 0.750000 0.521110
#
# Coordination Sequence:
#
# PCOD8073861 Si02
#       8
#     4   4   4   4   4   4   4   4
#     4  11  21  36  58  81 108 145 190 237 286 335
#     4   9  18  33  53  76 107 142 179 227 276 322
#     4   9  19  35  56  83 113 143 183 229 273 331
#     4  11  23  38  54  80 115 146 184 234 285 335
#     4  10  21  37  58  84 110 145 190 230 274 335
#     4   9  18  34  57  82 110 146 183 223 276 332
#     4   9  18  33  56  83 110 142 187 230 271 332
#     4  10  20  35  53  75 104 143 186 228 275 328
#
# _framework density 19.186259
#
# number of rings (size 3 to 8) (size 9 to 14) (size 15 to 20)
#    0.000    2.250    1.250    1.500    1.750    3.000 
#    0.000    0.625    0.000    1.500    0.000    0.000 
#    0.000    0.000    0.000    0.000    0.000    0.000 
#
# Total GULP energy -396436.230160 kJ/mol
# GULP energy per Si atom -12388.632192 kJ/mol
# Density = 1.914259 g / cm^3
# Si number density = 19.186259 Si / 1000 Ang^3
#
#
#
# Elastic Constant Matrix: (Units=GPa)
#
#
# Indices 1 2 3 4 5 6 
#
# 1 86.2073 26.3791 36.7756 0.0000 8.0228 0.0000
# 2 26.3791 44.9172 32.8182 0.0000 4.4732 0.0000
# 3 36.7756 32.8182 119.5093 0.0000 13.3251 0.0000
# 4 0.0000 0.0000 0.0000 30.3775 0.0000 -2.2185
# 5 8.0228 4.4732 13.3251 0.0000 34.9160 0.0000
# 6 0.0000 0.0000 0.0000 -2.2185 0.0000 21.8112
#
#
#
# Elastic Compliance Matrix: (Units=1/GPa)
#
#
# Indices 1 2 3 4 5 6 
#
# 1 0.014896 -0.006718 -0.002562 0.000000 -0.001584 0.000000
# 2 -0.006718 0.030897 -0.006421 0.000000 0.000036 0.000000
# 3 -0.002562 -0.006421 0.011240 0.000000 -0.002878 0.000000
# 4 0.000000 0.000000 0.000000 0.033165 0.000000 0.003373
# 5 -0.001584 0.000036 -0.002878 0.000000 0.030098 0.000000
# 6 0.000000 0.000000 0.000000 0.003373 0.000000 0.046191
#
#
# Mechanical properties :
#
#
# Convention : Reuss Voigt Hill
#
# Bulk Modulus (GPa) = 39.01748 49.17552 44.09650
# Shear Modulus (GPa) = 24.22074 27.73168 25.97621
#
# Velocity S-wave (km/s) = 3.55688 3.80596 3.68353
# Velocity P-wave (km/s) = 6.10318 6.70820 6.41283
#
# Compressibility (1/GPa) = 0.02562954
#
# Stress axis : x y z
#
# Youngs Moduli (GPa) = 67.13090 32.36588 88.96601
#
# Poissons Ratio (x) = 0.21745 0.22796
# Poissons Ratio (y) = 0.45101 0.57126
# Poissons Ratio (z) = 0.17201 0.20782
#
# Static dielectric constant tensor:
#      x y z
#    x 3.703450 0.000000 0.188880 
#    y 0.000000 3.247240 0.000000 
#    z 0.188880 0.000000 3.544290 
# 
# 
# High freq. dielectric constant tensor:
#      x y z
#    x 1.755530 0.000000 0.009560 
#    y 0.000000 1.715580 0.000000 
#    z 0.009560 0.000000 1.751000 
# 
# From -- ./inp_files/67207.got.cif
#   From: 2010.06.25/outbox.cif.g09.slc.cpg/sg11_34_cif.got.tgz:67207.got - 2010.06.27 23:14:04.
