data_PCOD8073009
_publ_section_title
;
Structure prediction by ZEFSAII (Michael W. Deem and Ramdas Pophale) SiO2 
 PCOD8073009
Probable space group: P 21/M
;
_chemical_formula_sum "Si O2"
_cell_formula_units_Z 32
_cell_length_a 9.127586
_cell_length_b 9.302400
_cell_length_c 21.952368
_cell_angle_alpha 90.000000
_cell_angle_beta 110.900998
_cell_angle_gamma 90.000000
_cell_volume 1741.291068
_symmetry_space_group_name_H-M "P 21/M"
_symmetry_group_IT_number 11
_symmetry_cell_setting 'monoclinic'
loop_
_space_group_symop_operation_xyz
x,y,z
-x,1/2+y,-z
-x,-y,-z
x,1/2-y,z
loop_
_atom_site_type_symbol
_atom_site_label
_atom_site_fract_x
_atom_site_fract_y
_atom_site_fract_z
Si Si1 0.440919 0.585189 0.584485
Si Si2 0.500117 0.082833 0.181837
Si Si3 0.700090 0.086421 0.555595
Si Si4 0.773931 0.915387 0.948145
Si Si5 0.565616 0.083042 0.707269
Si Si6 0.897056 0.411513 0.692749
Si Si7 0.150210 0.580785 0.800160
Si Si8 0.086717 0.918304 0.925893
O O1 0.463785 0.750000 0.608132
O O2 0.288855 0.568306 0.516670
O O3 0.586387 0.535225 0.564974
O O4 0.431911 0.489070 0.644182
O O5 0.490861 0.250000 0.198944
O O6 0.392062 0.051348 0.107382
O O7 0.674369 0.034324 0.190405
O O8 0.436928 0.988467 0.227474
O O9 0.637816 0.250000 0.561154
O O10 0.866471 0.067943 0.615319
O O11 0.789983 0.750000 0.969370
O O12 0.911443 0.957575 0.921217
O O13 0.786164 0.007824 0.011292
O O14 0.526127 0.250000 0.707510
O O15 0.735933 0.053577 0.704189
O O16 0.951791 0.250000 0.715624
O O17 0.033914 0.517081 0.732866
O O18 0.128816 0.750000 0.795142
O O19 0.107955 0.521066 0.860863
O O20 0.121355 0.750000 0.932979
#
# Coordination Sequence:
#
# PCOD8073009 Si02
#       8
#     4   4   4   4   4   4   4   4
#     4   9  15  25  45  71  99 130 162 202 252 299
#     4  10  21  36  52  72 100 133 169 207 247 293
#     4   8  15  27  43  69 102 130 161 204 251 297
#     4   9  18  33  53  75  99 128 162 200 242 291
#     4  10  20  33  50  74 102 131 167 209 251 298
#     4   9  18  32  50  73 101 131 164 204 248 295
#     4  10  21  35  51  73 101 133 169 207 245 291
#     4   9  18  33  52  74 100 128 160 200 244 290
#
# _framework density 18.37717
#
# number of rings (size 3 to 8) (size 9 to 14) (size 15 to 20)
#    0.000    2.750    0.000    2.250    0.000    6.000 
#    0.000    2.500    0.000    0.750    0.000    0.000 
#    0.000    0.000    0.000    0.000    0.000    0.000 
#
# Total GULP energy -396651.888540 kJ/mol
# GULP energy per Si atom -12395.371517 kJ/mol
# Density = 1.833534 g / cm^3
# Si number density = 18.377170 Si / 1000 Ang^3
#
#
#
# Elastic Constant Matrix: (Units=GPa)
#
#
# Indices 1 2 3 4 5 6 
#
# 1 60.9439 25.9597 37.3506 0.0000 21.5369 0.0000
# 2 25.9597 57.4764 39.0350 0.0000 12.8617 0.0000
# 3 37.3506 39.0350 97.2691 0.0000 33.3645 0.0000
# 4 0.0000 0.0000 0.0000 35.3929 0.0000 5.2952
# 5 21.5369 12.8617 33.3645 0.0000 18.6963 0.0000
# 6 0.0000 0.0000 0.0000 5.2952 0.0000 19.5004
#
#
#
# Elastic Compliance Matrix: (Units=1/GPa)
#
#
# Indices 1 2 3 4 5 6 
#
# 1 0.030414 -0.008450 0.004475 0.000000 -0.037208 0.000000
# 2 -0.008450 0.026287 -0.011448 0.000000 0.012080 0.000000
# 3 0.004475 -0.011448 0.031514 0.000000 -0.053517 0.000000
# 4 0.000000 0.000000 0.000000 0.029451 0.000000 -0.007997
# 5 -0.037208 0.012080 -0.053517 0.000000 0.183543 0.000000
# 6 0.000000 0.000000 0.000000 -0.007997 0.000000 0.053453
#
#
# Mechanical properties :
#
#
# Convention : Reuss Voigt Hill
#
# Bulk Modulus (GPa) = 17.43093 46.70891 32.06992
# Shear Modulus (GPa) = 12.35700 22.27419 17.31559
#
# Velocity S-wave (km/s) = 2.59590 3.48524 3.07291
# Velocity P-wave (km/s) = 4.30007 6.45506 5.48445
#
# Compressibility (1/GPa) = 0.05736928
#
# Stress axis : x y z
#
# Youngs Moduli (GPa) = 32.87934 38.04225 31.73230
#
# Poissons Ratio (x) = 0.32145 -0.14201
# Poissons Ratio (y) = 0.27783 0.36327
# Poissons Ratio (z) = -0.14714 0.43550
#
# Static dielectric constant tensor:
#      x y z
#    x 3.038970 0.000000 0.143240 
#    y 0.000000 3.372700 0.000000 
#    z 0.143240 0.000000 3.709110 
# 
# 
# High freq. dielectric constant tensor:
#      x y z
#    x 1.665970 0.000000 0.015640 
#    y 0.000000 1.713430 0.000000 
#    z 0.015640 0.000000 1.730870 
# 
# From -- ./inp_files/63275.got.cif
#   From: 2010.06.25/outbox.cif.g09.slc.cpg/sg11_32_cif.got.tgz:63275.got - 2010.06.27 23:14:04.
