data_PCOD8073620
_publ_section_title
;
Structure prediction by ZEFSAII (Michael W. Deem and Ramdas Pophale) SiO2 
 PCOD8073620
Probable space group: P 21/M
;
_chemical_formula_sum "Si O2"
_cell_formula_units_Z 32
_cell_length_a 14.876598
_cell_length_b 9.273002
_cell_length_c 22.315034
_cell_angle_alpha 90.000000
_cell_angle_beta 147.412038
_cell_angle_gamma 90.000000
_cell_volume 1657.993642
_symmetry_space_group_name_H-M "P 21/M"
_symmetry_group_IT_number 11
_symmetry_cell_setting 'monoclinic'
loop_
_space_group_symop_operation_xyz
x,y,z
-x,1/2+y,-z
-x,-y,-z
x,1/2-y,z
loop_
_atom_site_type_symbol
_atom_site_label
_atom_site_fract_x
_atom_site_fract_y
_atom_site_fract_z
Si Si1 0.885983 0.919605 0.794295
Si Si2 0.985478 0.418724 0.362829
Si Si3 0.594124 0.918172 0.000571
Si Si4 0.883813 0.411952 0.976432
Si Si5 0.360013 0.584697 0.257234
Si Si6 0.352602 0.917924 0.761239
Si Si7 0.975211 0.920295 0.234674
Si Si8 0.688151 0.916634 0.383183
O O1 0.856160 0.750000 0.765887
O O2 0.732764 0.979072 0.748611
O O3 0.892731 0.005009 0.735884
O O4 0.067979 0.951800 0.927983
O O5 0.990049 0.250000 0.347573
O O6 0.810929 0.464070 0.293817
O O7 0.014110 0.516305 0.321254
O O8 0.129050 0.458276 0.490943
O O9 0.567157 0.750000 0.997938
O O10 0.514611 0.960957 0.891685
O O11 0.787850 0.960568 0.109384
O O12 0.500000 0.000000 0.000000
O O13 0.942515 0.250000 0.000032
O O14 0.698239 0.436484 0.845991
O O15 0.000000 0.500000 0.000000
O O16 0.326884 0.750000 0.259124
O O17 0.556713 0.549444 0.363374
O O18 0.349042 0.750000 0.744949
O O19 0.358638 0.996365 0.701824
O O20 0.005825 0.750000 0.252063
O O21 0.678123 0.750000 0.359827
#
# Coordination Sequence:
#
# PCOD8073620 Si02
#       8
#     4   4   4   4   4   4   4   4
#     4  10  20  34  55  82 111 148 189 229 280 341
#     4  10  21  40  60  81 113 151 192 237 282 332
#     4  10  21  37  57  85 117 150 187 231 283 337
#     4   8  15  28  47  71 101 137 172 212 265 321
#     4   9  18  35  54  78 113 146 184 234 280 329
#     4  10  21  37  58  84 117 151 184 230 285 338
#     4  11  23  37  57  85 115 151 192 233 282 338
#     4  10  22  37  59  87 113 148 192 236 282 334
#
# _framework density 19.300436000000001
#
# number of rings (size 3 to 8) (size 9 to 14) (size 15 to 20)
#    0.000    2.250    1.250    1.125    1.750    3.000 
#    0.000    0.625    0.000    0.000    0.000    0.000 
#    0.000    0.000    0.000    0.000    0.000    0.000 
#
# Total GULP energy -396584.277313 kJ/mol
# GULP energy per Si atom -12393.258666 kJ/mol
# Density = 1.925651 g / cm^3
# Si number density = 19.300436 Si / 1000 Ang^3
#
#
#
# Elastic Constant Matrix: (Units=GPa)
#
#
# Indices 1 2 3 4 5 6 
#
# 1 101.5585 49.3316 23.9550 0.0000 -14.8199 0.0000
# 2 49.3316 66.4083 20.6411 0.0000 -10.3606 0.0000
# 3 23.9550 20.6411 57.0484 0.0000 -9.9439 0.0000
# 4 0.0000 0.0000 0.0000 22.3256 0.0000 -5.9675
# 5 -14.8199 -10.3606 -9.9439 0.0000 21.9271 0.0000
# 6 0.0000 0.0000 0.0000 -5.9675 0.0000 36.5451
#
#
#
# Elastic Compliance Matrix: (Units=1/GPa)
#
#
# Indices 1 2 3 4 5 6 
#
# 1 0.016233 -0.010626 -0.002100 0.000000 0.004998 0.000000
# 2 -0.010626 0.024600 -0.003979 0.000000 0.002637 0.000000
# 3 -0.002100 -0.003979 0.020930 0.000000 0.006192 0.000000
# 4 0.000000 0.000000 0.000000 0.046836 0.000000 0.007648
# 5 0.004998 0.002637 0.006192 0.000000 0.053038 0.000000
# 6 0.000000 0.000000 0.000000 0.007648 0.000000 0.028612
#
#
# Mechanical properties :
#
#
# Convention : Reuss Voigt Hill
#
# Bulk Modulus (GPa) = 35.27109 45.87452 40.57280
# Shear Modulus (GPa) = 21.44901 24.89871 23.17386
#
# Velocity S-wave (km/s) = 3.33727 3.59564 3.46886
# Velocity P-wave (km/s) = 5.75884 6.40768 6.09191
#
# Compressibility (1/GPa) = 0.02835183
#
# Stress axis : x y z
#
# Youngs Moduli (GPa) = 61.60342 40.65003 47.77832
#
# Poissons Ratio (x) = 0.43195 0.10036
# Poissons Ratio (y) = 0.65460 0.19012
# Poissons Ratio (z) = 0.12939 0.16175
#
# Static dielectric constant tensor:
#      x y z
#    x 3.310420 0.000000 -0.231870 
#    y 0.000000 3.495760 0.000000 
#    z -0.231870 0.000000 -8.065740 
# 
# 
# High freq. dielectric constant tensor:
#      x y z
#    x 1.742210 0.000000 -0.000880 
#    y 0.000000 1.750920 0.000000 
#    z -0.000880 0.000000 1.749940 
# 
# From -- ./inp_files/69099.got.cif
#   From: 2010.06.25/outbox.cif.g09.slc.cpg/sg11_35_cif.got.tgz:69099.got - 2010.06.27 23:14:04.
