data_PCOD8073394
_publ_section_title
;
Structure prediction by ZEFSAII (Michael W. Deem and Ramdas Pophale) SiO2 
 PCOD8073394
Probable space group: P 21/M
;
_chemical_formula_sum "Si O2"
_cell_formula_units_Z 28
_cell_length_a 16.011480
_cell_length_b 8.523250
_cell_length_c 12.519216
_cell_angle_alpha 90.000000
_cell_angle_beta 56.481982
_cell_angle_gamma 90.000000
_cell_volume 1424.393554
_symmetry_space_group_name_H-M "P 21/M"
_symmetry_group_IT_number 11
_symmetry_cell_setting 'monoclinic'
loop_
_space_group_symop_operation_xyz
x,y,z
-x,1/2+y,-z
-x,-y,-z
x,1/2-y,z
loop_
_atom_site_type_symbol
_atom_site_label
_atom_site_fract_x
_atom_site_fract_y
_atom_site_fract_z
Si Si1 0.234651 0.935450 0.024404
Si Si2 0.702507 0.931162 0.466538
Si Si3 0.708477 0.066248 0.245090
Si Si4 0.075143 0.934827 0.304823
Si Si5 0.545655 0.436013 0.074806
Si Si6 0.133935 0.568498 0.500525
Si Si7 0.498680 0.067649 0.675913
O O1 0.230809 0.750000 0.032448
O O2 0.143278 0.001578 0.159847
O O3 0.229815 0.990637 0.903940
O O4 0.339099 0.991818 0.001650
O O5 0.673879 0.750000 0.492240
O O6 0.752003 0.973872 0.316825
O O7 0.777975 0.968643 0.509012
O O8 0.601806 0.033247 0.542632
O O9 0.723357 0.250000 0.252879
O O10 0.590829 0.032014 0.312405
O O11 0.053776 0.750000 0.310633
O O12 0.130550 0.972761 0.377311
O O13 0.971039 0.025990 0.370181
O O14 0.534750 0.250000 0.091384
O O15 0.484584 0.516319 0.213644
O O16 0.500000 0.500000 0.000000
O O17 0.157319 0.750000 0.503412
O O18 0.472033 0.250000 0.685217
#
# Coordination Sequence:
#
# PCOD8073394 Si02
#       7
#     4   4   4   4   4   4   4
#     4   8  17  34  58  81 107 146 185 226 279 334
#     4  12  24  38  57  82 113 148 192 236 281 335
#     4  10  20  38  59  83 114 147 189 234 281 338
#     4   9  18  37  61  83 111 146 182 226 283 340
#     4  10  20  34  52  81 116 151 191 235 278 331
#     4  10  21  36  57  86 115 144 183 231 282 337
#     4  11  22  37  56  80 113 153 191 231 283 335
#
# _framework density 19.657489000000002
#
# number of rings (size 3 to 8) (size 9 to 14) (size 15 to 20)
#    0.000    2.000    0.000    5.143    2.000    0.571 
#    0.000    5.000    0.000    0.000    0.000    0.000 
#    0.000    0.000    0.000    0.000    0.000    0.000 
#
# Total GULP energy -347240.873471 kJ/mol
# GULP energy per Si atom -12401.459767 kJ/mol
# Density = 1.961275 g / cm^3
# Si number density = 19.657489 Si / 1000 Ang^3
#
#
#
# Elastic Constant Matrix: (Units=GPa)
#
#
# Indices 1 2 3 4 5 6 
#
# 1 50.4789 11.7314 26.6498 0.0000 7.5419 0.0000
# 2 11.7314 61.8437 17.8323 0.0000 2.5136 0.0000
# 3 26.6498 17.8323 119.9306 0.0000 -4.4804 0.0000
# 4 0.0000 0.0000 0.0000 28.9390 0.0000 2.3002
# 5 7.5419 2.5136 -4.4804 0.0000 25.2918 0.0000
# 6 0.0000 0.0000 0.0000 2.3002 0.0000 31.5828
#
#
#
# Elastic Compliance Matrix: (Units=1/GPa)
#
#
# Indices 1 2 3 4 5 6 
#
# 1 0.024453 -0.002782 -0.005317 0.000000 -0.007957 0.000000
# 2 -0.002782 0.017326 -0.002005 0.000000 -0.001247 0.000000
# 3 -0.005317 -0.002005 0.009950 0.000000 0.003548 0.000000
# 4 0.000000 0.000000 0.000000 0.034757 0.000000 -0.002531
# 5 -0.007957 -0.001247 0.003548 0.000000 0.042664 0.000000
# 6 0.000000 0.000000 0.000000 -0.002531 0.000000 0.031847
#
#
# Mechanical properties :
#
#
# Convention : Reuss Voigt Hill
#
# Bulk Modulus (GPa) = 31.72423 38.29780 35.01101
# Shear Modulus (GPa) = 26.08080 28.89870 27.48975
#
# Velocity S-wave (km/s) = 3.64643 3.83836 3.74362
# Velocity P-wave (km/s) = 5.82255 6.25850 6.04446
#
# Compressibility (1/GPa) = 0.03152165
#
# Stress axis : x y z
#
# Youngs Moduli (GPa) = 40.89500 57.71587 100.49940
#
# Poissons Ratio (x) = 0.16056 0.53439
# Poissons Ratio (y) = 0.11377 0.20147
# Poissons Ratio (z) = 0.21745 0.11570
#
# Static dielectric constant tensor:
#      x y z
#    x 3.390060 0.000000 0.137070 
#    y 0.000000 3.460400 0.000000 
#    z 0.137070 0.000000 3.969100 
# 
# 
# High freq. dielectric constant tensor:
#      x y z
#    x 1.749290 0.000000 0.012570 
#    y 0.000000 1.760430 0.000000 
#    z 0.012570 0.000000 1.775780 
# 
# From -- ./inp_files/37646.got.cif
#   From: 2010.06.25/outbox.cif.g09.slc.cpg/sg11_19_cif.got.tgz:37646.got - 2010.06.27 23:14:04.
