data_PCOD8073228
_publ_section_title
;
Structure prediction by ZEFSAII (Michael W. Deem and Ramdas Pophale) SiO2 
 PCOD8073228
Probable space group: P 21/M
;
_chemical_formula_sum "Si O2"
_cell_formula_units_Z 28
_cell_length_a 12.487576
_cell_length_b 8.856647
_cell_length_c 14.871916
_cell_angle_alpha 90.000000
_cell_angle_beta 73.990973
_cell_angle_gamma 90.000000
_cell_volume 1581.016544
_symmetry_space_group_name_H-M "P 21/M"
_symmetry_group_IT_number 11
_symmetry_cell_setting 'monoclinic'
loop_
_space_group_symop_operation_xyz
x,y,z
-x,1/2+y,-z
-x,-y,-z
x,1/2-y,z
loop_
_atom_site_type_symbol
_atom_site_label
_atom_site_fract_x
_atom_site_fract_y
_atom_site_fract_z
Si Si1 0.249074 0.926301 0.087558
Si Si2 0.361682 0.427732 0.894520
Si Si3 0.427722 0.425434 0.394188
Si Si4 0.975975 0.575865 0.910890
Si Si5 0.653836 0.574720 0.394577
Si Si6 0.787478 0.076291 0.220840
Si Si7 0.605727 0.425218 0.775732
O O1 0.236908 0.750000 0.070881
O O2 0.300027 0.960052 0.173166
O O3 0.128067 0.000244 0.113720
O O4 0.331429 0.993402 0.994564
O O5 0.352160 0.250000 0.910133
O O6 0.276581 0.477571 0.837500
O O7 0.486216 0.477982 0.840829
O O8 0.460213 0.250000 0.382218
O O9 0.539669 0.522756 0.374490
O O10 0.348831 0.457692 0.498200
O O11 0.363105 0.477844 0.319846
O O12 0.948917 0.750000 0.935292
O O13 0.080811 0.554878 0.820953
O O14 0.000000 0.500000 0.000000
O O15 0.670196 0.750000 0.369202
O O16 0.755783 0.481858 0.327792
O O17 0.752494 0.250000 0.216830
O O18 0.603112 0.250000 0.750116
#
# Coordination Sequence:
#
# PCOD8073228 Si02
#       7
#     4   4   4   4   4   4   4
#     4  11  23  38  55  78 110 147 187 225 268 323
#     4  11  21  34  54  80 111 148 183 219 268 322
#     4  10  20  33  54  81 110 144 180 220 267 323
#     4  11  23  38  57  79 106 142 185 230 273 317
#     4  10  20  34  53  81 112 142 178 221 272 325
#     4  11  22  35  55  82 110 142 181 226 272 320
#     4  10  22  37  54  79 112 148 182 222 270 323
#
# _framework density 17.710125999999999
#
# number of rings (size 3 to 8) (size 9 to 14) (size 15 to 20)
#    0.000    1.429    2.857    3.000    0.000    5.143 
#    0.000    0.000    0.000    0.857    0.000    0.000 
#    0.000    0.000    0.000    0.000    0.000    0.000 
#
# Total GULP energy -347331.712552 kJ/mol
# GULP energy per Si atom -12404.704020 kJ/mol
# Density = 1.766982 g / cm^3
# Si number density = 17.710126 Si / 1000 Ang^3
#
#
#
# Elastic Constant Matrix: (Units=GPa)
#
#
# Indices 1 2 3 4 5 6 
#
# 1 89.9376 46.8849 47.6586 0.0000 8.9556 0.0000
# 2 46.8849 91.9186 57.9307 0.0000 2.1298 0.0000
# 3 47.6586 57.9307 125.4296 0.0000 2.0551 0.0000
# 4 0.0000 0.0000 0.0000 33.5735 0.0000 0.0641
# 5 8.9556 2.1298 2.0551 0.0000 20.8658 0.0000
# 6 0.0000 0.0000 0.0000 0.0641 0.0000 27.9967
#
#
#
# Elastic Compliance Matrix: (Units=1/GPa)
#
#
# Indices 1 2 3 4 5 6 
#
# 1 0.016816 -0.006306 -0.003375 0.000000 -0.006241 0.000000
# 2 -0.006306 0.017726 -0.005815 0.000000 0.001470 0.000000
# 3 -0.003375 -0.005815 0.011927 0.000000 0.000867 0.000000
# 4 0.000000 0.000000 0.000000 0.029785 0.000000 -0.000068
# 5 -0.006241 0.001470 0.000867 0.000000 0.050369 0.000000
# 6 0.000000 0.000000 0.000000 -0.000068 0.000000 0.035719
#
#
# Mechanical properties :
#
#
# Convention : Reuss Voigt Hill
#
# Bulk Modulus (GPa) = 64.61074 68.02602 66.31838
# Shear Modulus (GPa) = 25.18989 26.80798 25.99894
#
# Velocity S-wave (km/s) = 3.77549 3.89486 3.83564
# Velocity P-wave (km/s) = 7.45435 7.66295 7.55937
#
# Compressibility (1/GPa) = 0.01547730
#
# Stress axis : x y z
#
# Youngs Moduli (GPa) = 59.46775 56.41275 83.84683
#
# Poissons Ratio (x) = 0.35572 0.28297
# Poissons Ratio (y) = 0.37499 0.48759
# Poissons Ratio (z) = 0.20069 0.32806
#
# Static dielectric constant tensor:
#      x y z
#    x 3.152250 0.000000 -0.086340 
#    y 0.000000 3.452560 0.000000 
#    z -0.086340 0.000000 3.492950 
# 
# 
# High freq. dielectric constant tensor:
#      x y z
#    x 1.661190 0.000000 -0.002900 
#    y 0.000000 1.703010 0.000000 
#    z -0.002900 0.000000 1.690040 
# 
# From -- ./inp_files/48924.got.cif
#   From: 2010.06.25/outbox.cif.g09.slc.cpg/sg11_25_cif.got.tgz:48924.got - 2010.06.27 23:14:04.
