data_PCOD8073739
_publ_section_title
;
Structure prediction by ZEFSAII (Michael W. Deem and Ramdas Pophale) SiO2 
 PCOD8073739
Probable space group: P 21/M
;
_chemical_formula_sum "Si O2"
_cell_formula_units_Z 32
_cell_length_a 29.012626
_cell_length_b 9.491071
_cell_length_c 5.362968
_cell_angle_alpha 90.000000
_cell_angle_beta 89.416807
_cell_angle_gamma 90.000000
_cell_volume 1476.675160
_symmetry_space_group_name_H-M "P 21/M"
_symmetry_group_IT_number 11
_symmetry_cell_setting 'monoclinic'
loop_
_space_group_symop_operation_xyz
x,y,z
-x,1/2+y,-z
-x,-y,-z
x,1/2-y,z
loop_
_atom_site_type_symbol
_atom_site_label
_atom_site_fract_x
_atom_site_fract_y
_atom_site_fract_z
Si Si1 0.814752 0.903031 0.764383
Si Si2 0.768611 0.096784 0.440826
Si Si3 0.675223 0.094988 0.711876
Si Si4 0.453555 0.413444 0.007629
Si Si5 0.398003 0.414042 0.512433
Si Si6 0.047521 0.081310 0.480060
Si Si7 0.902930 0.913322 0.027390
Si Si8 0.722832 0.595750 0.044138
O O1 0.832821 0.750000 0.656654
O O2 0.848128 0.946628 0.992711
O O3 0.761309 0.880610 0.832032
O O4 0.814624 0.027664 0.559684
O O5 0.781996 0.250000 0.325414
O O6 0.728016 0.121868 0.640401
O O7 0.749550 0.988319 0.247729
O O8 0.653147 0.250000 0.772360
O O9 0.647285 0.013281 0.495876
O O10 0.677688 0.990848 0.952287
O O11 0.466586 0.250000 0.001507
O O12 0.424663 0.454408 0.762997
O O13 0.500000 0.500000 0.000000
O O14 0.427035 0.452404 0.263142
O O15 0.383726 0.250000 0.511593
O O16 0.040028 0.250000 0.486628
O O17 0.078460 0.024560 0.712482
O O18 0.071308 0.029890 0.221902
O O19 0.000000 0.000000 0.500000
O O20 0.912570 0.750000 0.044820
O O21 0.705230 0.750000 0.137549
#
# Coordination Sequence:
#
# PCOD8073739 Si02
#       8
#     4   4   4   4   4   4   4   4
#     4   9  19  35  55  81 106 143 194 237 280 336
#     4  10  21  36  54  79 116 153 188 235 290 343
#     4  10  22  38  55  81 115 153 196 241 290 344
#     4  10  22  40  62  88 119 152 192 241 296 351
#     4  10  22  39  60  89 120 153 196 245 290 346
#     4  10  20  36  57  82 111 146 182 231 286 341
#     4   9  19  34  58  84 110 143 188 236 280 334
#     4  10  20  34  57  82 110 149 193 238 284 340
#
# _framework density 21.670304999999999
#
# number of rings (size 3 to 8) (size 9 to 14) (size 15 to 20)
#    0.000    2.250    0.000    1.875    3.500    3.000 
#    0.000    1.250    0.000    0.000    0.000    0.000 
#    0.000    0.000    0.000    0.000    0.000    0.000 
#
# Total GULP energy -396455.711347 kJ/mol
# GULP energy per Si atom -12389.240980 kJ/mol
# Density = 2.162098 g / cm^3
# Si number density = 21.670305 Si / 1000 Ang^3
#
#
#
# Elastic Constant Matrix: (Units=GPa)
#
#
# Indices 1 2 3 4 5 6 
#
# 1 77.5338 27.2471 22.1094 0.0000 29.3382 0.0000
# 2 27.2471 132.6578 33.1660 0.0000 32.2820 0.0000
# 3 22.1094 33.1660 115.9295 0.0000 29.1537 0.0000
# 4 0.0000 0.0000 0.0000 19.8735 0.0000 5.3603
# 5 29.3382 32.2820 29.1537 0.0000 40.7301 0.0000
# 6 0.0000 0.0000 0.0000 5.3603 0.0000 25.0820
#
#
#
# Elastic Compliance Matrix: (Units=1/GPa)
#
#
# Indices 1 2 3 4 5 6 
#
# 1 0.017779 -0.000650 -0.000139 0.000000 -0.012192 0.000000
# 2 -0.000650 0.009457 -0.000993 0.000000 -0.006316 0.000000
# 3 -0.000139 -0.000993 0.010626 0.000000 -0.006719 0.000000
# 4 0.000000 0.000000 0.000000 0.053396 0.000000 -0.011411
# 5 -0.012192 -0.006316 -0.006719 0.000000 0.043149 0.000000
# 6 0.000000 0.000000 0.000000 -0.011411 0.000000 0.042308
#
#
# Mechanical properties :
#
#
# Convention : Reuss Voigt Hill
#
# Bulk Modulus (GPa) = 29.15617 54.57400 41.86509
# Shear Modulus (GPa) = 26.08078 33.37704 29.72891
#
# Velocity S-wave (km/s) = 3.47295 3.92882 3.70790
# Velocity P-wave (km/s) = 5.43742 6.76899 6.13941
#
# Compressibility (1/GPa) = 0.03429805
#
# Stress axis : x y z
#
# Youngs Moduli (GPa) = 56.24651 105.74062 94.10726
#
# Poissons Ratio (x) = 0.06875 0.01306
# Poissons Ratio (y) = 0.03657 0.09346
# Poissons Ratio (z) = 0.00780 0.10502
#
# Static dielectric constant tensor:
#      x y z
#    x 3.932490 0.000000 0.050780 
#    y 0.000000 4.318500 0.000000 
#    z 0.050780 0.000000 4.157930 
# 
# 
# High freq. dielectric constant tensor:
#      x y z
#    x 1.837860 0.000000 0.017680 
#    y 0.000000 1.844140 0.000000 
#    z 0.017680 0.000000 1.850920 
# 
# From -- ./inp_files/9671.got.cif
#   From: 2010.06.25/outbox.cif.g09.slc.cpg/sg11_5_cif.got.tgz:9671.got - 2010.06.27 23:14:04.
