data_PCOD8073352
_publ_section_title
;
Structure prediction by ZEFSAII (Michael W. Deem and Ramdas Pophale) SiO2 
 PCOD8073352
Probable space group: P 21/M
;
_chemical_formula_sum "Si O2"
_cell_formula_units_Z 32
_cell_length_a 28.063594
_cell_length_b 9.233837
_cell_length_c 22.358130
_cell_angle_alpha 90.000000
_cell_angle_beta 18.118072
_cell_angle_gamma 90.000000
_cell_volume 1801.723540
_symmetry_space_group_name_H-M "P 21/M"
_symmetry_group_IT_number 11
_symmetry_cell_setting 'monoclinic'
loop_
_space_group_symop_operation_xyz
x,y,z
-x,1/2+y,-z
-x,-y,-z
x,1/2-y,z
loop_
_atom_site_type_symbol
_atom_site_label
_atom_site_fract_x
_atom_site_fract_y
_atom_site_fract_z
Si Si1 0.460004 0.582965 0.460061
Si Si2 0.651495 0.417285 0.536686
Si Si3 0.770314 0.080666 0.789616
Si Si4 0.072178 0.081318 0.499919
Si Si5 0.538034 0.581359 0.781199
Si Si6 0.867469 0.919033 0.437522
Si Si7 0.017170 0.580136 0.810746
Si Si8 0.726874 0.418308 0.199527
O O1 0.513550 0.750000 0.396189
O O2 0.386002 0.535733 0.485859
O O3 0.606649 0.482388 0.295537
O O4 0.332496 0.556371 0.662578
O O5 0.616954 0.250000 0.589101
O O6 0.543299 0.504617 0.710780
O O7 0.828562 0.453458 0.336973
O O8 0.764296 0.250000 0.783058
O O9 0.901537 0.042822 0.681367
O O10 0.801888 0.001267 0.689590
O O11 0.609030 0.023090 0.007363
O O12 0.108299 0.250000 0.450620
O O13 0.088172 0.030385 0.549064
O O14 0.520254 0.750000 0.789280
O O15 0.688612 0.546089 0.640373
O O16 0.902538 0.750000 0.385194
O O17 0.972705 0.011555 0.267359
O O18 0.983839 0.750000 0.844474
O O19 0.884715 0.503993 0.006336
O O20 0.752244 0.250000 0.154754
#
# Coordination Sequence:
#
# PCOD8073352 Si02
#       8
#     4   4   4   4   4   4   4   4
#     4   9  19  36  54  74 102 133 167 208 251 295
#     4   9  19  35  53  74 101 132 166 206 250 296
#     4   9  18  32  48  68  95 124 156 196 241 289
#     4   9  18  32  49  69  94 124 158 197 240 288
#     4   9  18  32  49  70  97 128 161 199 242 289
#     4   9  18  33  50  69  96 128 162 200 242 289
#     4  10  20  34  52  75 103 133 166 205 249 297
#     4  10  20  34  53  76 102 133 168 206 249 297
#
# _framework density 17.760770999999998
#
# number of rings (size 3 to 8) (size 9 to 14) (size 15 to 20)
#    0.000    2.750    0.000    0.750    0.000    4.500 
#    0.000    1.250    0.000    0.000    0.000    0.000 
#    0.000    0.000    0.000    0.000    0.000    0.000 
#
# Total GULP energy -396898.096580 kJ/mol
# GULP energy per Si atom -12403.065518 kJ/mol
# Density = 1.772035 g / cm^3
# Si number density = 17.760771 Si / 1000 Ang^3
#
#
#
# Elastic Constant Matrix: (Units=GPa)
#
#
# Indices 1 2 3 4 5 6 
#
# 1 98.1416 26.7876 7.0877 0.0000 8.6138 0.0000
# 2 26.7876 56.6931 30.8106 0.0000 4.1267 0.0000
# 3 7.0877 30.8106 75.3258 0.0000 3.7020 0.0000
# 4 0.0000 0.0000 0.0000 33.7208 0.0000 4.8554
# 5 8.6138 4.1267 3.7020 0.0000 14.3204 0.0000
# 6 0.0000 0.0000 0.0000 4.8554 0.0000 27.7734
#
#
#
# Elastic Compliance Matrix: (Units=1/GPa)
#
#
# Indices 1 2 3 4 5 6 
#
# 1 0.012319 -0.006317 0.001721 0.000000 -0.006035 0.000000
# 2 -0.006317 0.026171 -0.010054 0.000000 -0.001143 0.000000
# 3 0.001721 -0.010054 0.017355 0.000000 -0.002625 0.000000
# 4 0.000000 0.000000 0.000000 0.030421 0.000000 -0.005318
# 5 -0.006035 -0.001143 -0.002625 0.000000 0.074468 0.000000
# 6 0.000000 0.000000 0.000000 -0.005318 0.000000 0.036935
#
#
# Mechanical properties :
#
#
# Convention : Reuss Voigt Hill
#
# Bulk Modulus (GPa) = 37.67146 39.94805 38.80975
# Shear Modulus (GPa) = 21.20286 26.19457 23.69872
#
# Velocity S-wave (km/s) = 3.45889 3.84455 3.65681
# Velocity P-wave (km/s) = 6.09987 6.49989 6.30306
#
# Compressibility (1/GPa) = 0.02654529
#
# Stress axis : x y z
#
# Youngs Moduli (GPa) = 81.17625 38.21051 57.61975
#
# Poissons Ratio (x) = 0.24137 -0.09918
# Poissons Ratio (y) = 0.51278 0.57932
# Poissons Ratio (z) = -0.13972 0.38417
#
# Static dielectric constant tensor:
#      x y z
#    x 3.320250 0.000000 0.013960 
#    y 0.000000 3.280880 0.000000 
#    z 0.013960 0.000000 3.318580 
# 
# 
# High freq. dielectric constant tensor:
#      x y z
#    x 1.686020 0.000000 0.002450 
#    y 0.000000 1.686730 0.000000 
#    z 0.002450 0.000000 1.688250 
# 
# From -- ./inp_files/67036.got.cif
#   From: 2010.06.25/outbox.cif.g09.slc.cpg/sg11_34_cif.got.tgz:67036.got - 2010.06.27 23:14:04.
