data_PCOD8073797
_publ_section_title
;
Structure prediction by ZEFSAII (Michael W. Deem and Ramdas Pophale) SiO2 
 PCOD8073797
Probable space group: P 21/M
;
_chemical_formula_sum "Si O2"
_cell_formula_units_Z 28
_cell_length_a 10.192305
_cell_length_b 8.534065
_cell_length_c 22.727966
_cell_angle_alpha 90.000000
_cell_angle_beta 46.367894
_cell_angle_gamma 90.000000
_cell_volume 1430.865118
_symmetry_space_group_name_H-M "P 21/M"
_symmetry_group_IT_number 11
_symmetry_cell_setting 'monoclinic'
loop_
_space_group_symop_operation_xyz
x,y,z
-x,1/2+y,-z
-x,-y,-z
x,1/2-y,z
loop_
_atom_site_type_symbol
_atom_site_label
_atom_site_fract_x
_atom_site_fract_y
_atom_site_fract_z
Si Si1 0.576391 0.932482 0.271787
Si Si2 0.506459 0.567532 0.826020
Si Si3 0.209747 0.430745 0.600058
Si Si4 0.008459 0.432153 0.845154
Si Si5 0.891196 0.930518 0.760608
Si Si6 0.157967 0.433455 0.991606
Si Si7 0.483901 0.431802 0.417623
O O1 0.557406 0.750000 0.290724
O O2 0.784855 0.987533 0.210477
O O3 0.495937 0.970725 0.233319
O O4 0.459819 0.025922 0.356657
O O5 0.492356 0.750000 0.815008
O O6 0.690492 0.525612 0.802568
O O7 0.344442 0.518587 0.918745
O O8 0.154671 0.250000 0.620730
O O9 0.298634 0.473388 0.509551
O O10 0.351588 0.465635 0.608205
O O11 0.029297 0.533587 0.664382
O O12 0.987506 0.250000 0.867436
O O13 0.943015 0.461476 0.799459
O O14 0.884769 0.533589 0.927166
O O15 0.906537 0.750000 0.774351
O O16 0.178998 0.250000 0.973229
O O17 0.000000 0.500000 0.000000
O O18 0.531909 0.250000 0.411585
#
# Coordination Sequence:
#
# PCOD8073797 Si02
#       7
#     4   4   4   4   4   4   4
#     4  11  22  37  61  92 120 156 203 247 296 354
#     4  11  25  43  63  88 122 160 200 246 300 359
#     4  10  20  35  57  88 122 158 198 245 299 353
#     4  11  23  39  63  92 121 157 201 247 295 353
#     4  11  24  41  62  90 122 161 201 244 301 357
#     4  12  24  40  64  92 121 156 199 248 300 351
#     4  10  20  34  58  89 121 156 199 249 297 348
#
# _framework density 19.568580000000001
#
# number of rings (size 3 to 8) (size 9 to 14) (size 15 to 20)
#    0.000    1.143    2.857    3.857    0.000    5.714 
#    0.000    0.714    0.000    0.000    0.000    0.000 
#    0.000    0.000    0.000    0.000    0.000    0.000 
#
# Total GULP energy -347392.879838 kJ/mol
# GULP energy per Si atom -12406.888566 kJ/mol
# Density = 1.952404 g / cm^3
# Si number density = 19.568580 Si / 1000 Ang^3
#
#
#
# Elastic Constant Matrix: (Units=GPa)
#
#
# Indices 1 2 3 4 5 6 
#
# 1 83.1596 28.2721 39.3387 0.0000 -9.1414 0.0000
# 2 28.2721 44.7042 21.4275 0.0000 -6.2559 0.0000
# 3 39.3387 21.4275 122.0076 0.0000 -0.9730 0.0000
# 4 0.0000 0.0000 0.0000 35.4027 0.0000 3.9903
# 5 -9.1414 -6.2559 -0.9730 0.0000 33.1770 0.0000
# 6 0.0000 0.0000 0.0000 3.9903 0.0000 25.3750
#
#
#
# Elastic Compliance Matrix: (Units=1/GPa)
#
#
# Indices 1 2 3 4 5 6 
#
# 1 0.017142 -0.008498 -0.004010 0.000000 0.003003 0.000000
# 2 -0.008498 0.029323 -0.002385 0.000000 0.003118 0.000000
# 3 -0.004010 -0.002385 0.009898 0.000000 -0.001264 0.000000
# 4 0.000000 0.000000 0.000000 0.028756 0.000000 -0.004522
# 5 0.003003 0.003118 -0.001264 0.000000 0.031520 0.000000
# 6 0.000000 0.000000 0.000000 -0.004522 0.000000 0.040120
#
#
# Mechanical properties :
#
#
# Convention : Reuss Voigt Hill
#
# Bulk Modulus (GPa) = 37.62858 47.54979 42.58919
# Shear Modulus (GPa) = 25.58799 29.51315 27.55057
#
# Velocity S-wave (km/s) = 3.62001 3.88776 3.75627
# Velocity P-wave (km/s) = 6.06163 6.67118 6.37370
#
# Compressibility (1/GPa) = 0.02657554
#
# Stress axis : x y z
#
# Youngs Moduli (GPa) = 58.33790 34.10267 101.02980
#
# Poissons Ratio (x) = 0.28981 0.40518
# Poissons Ratio (y) = 0.49577 0.24095
# Poissons Ratio (z) = 0.23396 0.08133
#
# Static dielectric constant tensor:
#      x y z
#    x 3.315680 0.000000 -0.021680 
#    y 0.000000 3.666690 0.000000 
#    z -0.021680 0.000000 3.834520 
# 
# 
# High freq. dielectric constant tensor:
#      x y z
#    x 1.737720 0.000000 0.005870 
#    y 0.000000 1.775160 0.000000 
#    z 0.005870 0.000000 1.778670 
# 
# From -- ./inp_files/63374.got.cif
#   From: 2010.06.25/outbox.cif.g09.slc.cpg/sg11_32_cif.got.tgz:63374.got - 2010.06.27 23:14:04.
