data_PCOD8073393
_publ_section_title
;
Structure prediction by ZEFSAII (Michael W. Deem and Ramdas Pophale) SiO2 
 PCOD8073393
Probable space group: P 21/M
;
_chemical_formula_sum "Si O2"
_cell_formula_units_Z 24
_cell_length_a 7.877135
_cell_length_b 13.751887
_cell_length_c 13.234350
_cell_angle_alpha 90.000000
_cell_angle_beta 127.921664
_cell_angle_gamma 90.000000
_cell_volume 1130.911446
_symmetry_space_group_name_H-M "P 21/M"
_symmetry_group_IT_number 11
_symmetry_cell_setting 'monoclinic'
loop_
_space_group_symop_operation_xyz
x,y,z
-x,1/2+y,-z
-x,-y,-z
x,1/2-y,z
loop_
_atom_site_type_symbol
_atom_site_label
_atom_site_fract_x
_atom_site_fract_y
_atom_site_fract_z
Si Si1 0.237780 0.537163 0.992076
Si Si2 0.673670 0.637359 0.108032
Si Si3 0.536577 0.980092 0.731754
Si Si4 0.140419 0.861856 0.655767
Si Si5 0.230423 0.140818 0.625579
Si Si6 0.877630 0.636022 0.755861
O O1 0.199302 0.433853 0.921171
O O2 0.025604 0.603314 0.904030
O O3 0.427113 0.602766 0.013768
O O4 0.279091 0.517896 0.124934
O O5 0.689873 0.750000 0.078728
O O6 0.775263 0.624527 0.256470
O O7 0.646259 0.917580 0.682905
O O8 0.364321 0.918726 0.734536
O O9 0.409224 0.072019 0.638443
O O10 0.200161 0.750000 0.691452
O O11 0.006751 0.882153 0.504227
O O12 0.994277 0.897682 0.695749
O O13 0.298159 0.250000 0.621147
O O14 0.831712 0.750000 0.741400
#
# Coordination Sequence:
#
# PCOD8073393 Si02
#       6
#     4   4   4   4   4   4
#     4  10  20  34  52  81 116 143 182 231 274 326
#     4   9  17  32  57  83 109 147 186 223 275 331
#     4  11  22  37  59  84 111 147 187 226 273 330
#     4  10  21  38  59  84 113 144 183 230 275 325
#     4   9  19  36  57  82 113 147 184 228 276 324
#     4  11  23  38  57  82 112 146 184 229 279 328
#
# _framework density 21.221822
#
# number of rings (size 3 to 8) (size 9 to 14) (size 15 to 20)
#    0.000    2.000    0.000    5.000    0.000    4.000 
#    0.000    0.833    0.000    5.000    0.000    0.000 
#    0.000    0.000    0.000    0.000    0.000    0.000 
#
# Total GULP energy -297580.469712 kJ/mol
# GULP energy per Si atom -12399.186238 kJ/mol
# Density = 2.117352 g / cm^3
# Si number density = 21.221822 Si / 1000 Ang^3
#
#
#
# Elastic Constant Matrix: (Units=GPa)
#
#
# Indices 1 2 3 4 5 6 
#
# 1 75.1711 17.9064 -1.9480 0.0000 4.2739 0.0000
# 2 17.9064 83.9100 7.9302 0.0000 -1.8005 0.0000
# 3 -1.9480 7.9302 59.7452 0.0000 1.2970 0.0000
# 4 0.0000 0.0000 0.0000 29.3482 0.0000 5.1431
# 5 4.2739 -1.8005 1.2970 0.0000 12.1223 0.0000
# 6 0.0000 0.0000 0.0000 5.1431 0.0000 32.6428
#
#
#
# Elastic Compliance Matrix: (Units=1/GPa)
#
#
# Indices 1 2 3 4 5 6 
#
# 1 0.014440 -0.003301 0.001033 0.000000 -0.005692 0.000000
# 2 -0.003301 0.012871 -0.001887 0.000000 0.003277 0.000000
# 3 0.001033 -0.001887 0.017076 0.000000 -0.002471 0.000000
# 4 0.000000 0.000000 0.000000 0.035041 0.000000 -0.005521
# 5 -0.005692 0.003277 -0.002471 0.000000 0.085250 0.000000
# 6 0.000000 0.000000 0.000000 -0.005521 0.000000 0.031504
#
#
# Mechanical properties :
#
#
# Convention : Reuss Voigt Hill
#
# Bulk Modulus (GPa) = 27.72046 29.62261 28.67154
# Shear Modulus (GPa) = 23.09273 27.81851 25.45562
#
# Velocity S-wave (km/s) = 3.30231 3.62449 3.46714
# Velocity P-wave (km/s) = 5.25651 5.61291 5.43763
#
# Compressibility (1/GPa) = 0.03607443
#
# Stress axis : x y z
#
# Youngs Moduli (GPa) = 69.25343 77.69607 58.56324
#
# Poissons Ratio (x) = 0.25649 -0.06047
# Poissons Ratio (y) = 0.22862 0.11052
# Poissons Ratio (z) = -0.07151 0.14662
#
# Static dielectric constant tensor:
#      x y z
#    x 3.495530 0.000000 0.043000 
#    y 0.000000 4.131340 0.000000 
#    z 0.043000 0.000000 3.882990 
# 
# 
# High freq. dielectric constant tensor:
#      x y z
#    x 1.798220 0.000000 0.004020 
#    y 0.000000 1.849610 0.000000 
#    z 0.004020 0.000000 1.833440 
# 
# From -- ./inp_files/47704.got.cif
#   From: 2010.06.25/outbox.cif.g09.slc.cpg/sg11_24_cif.got.tgz:47704.got - 2010.06.27 23:14:04.
