data_PCOD8073775
_publ_section_title
;
Structure prediction by ZEFSAII (Michael W. Deem and Ramdas Pophale) SiO2 
 PCOD8073775
Probable space group: P 21/M
;
_chemical_formula_sum "Si O2"
_cell_formula_units_Z 32
_cell_length_a 9.127575
_cell_length_b 13.823615
_cell_length_c 23.063906
_cell_angle_alpha 90.000000
_cell_angle_beta 31.210011
_cell_angle_gamma 90.000000
_cell_volume 1507.952199
_symmetry_space_group_name_H-M "P 21/M"
_symmetry_group_IT_number 11
_symmetry_cell_setting 'monoclinic'
loop_
_space_group_symop_operation_xyz
x,y,z
-x,1/2+y,-z
-x,-y,-z
x,1/2-y,z
loop_
_atom_site_type_symbol
_atom_site_label
_atom_site_fract_x
_atom_site_fract_y
_atom_site_fract_z
Si Si1 0.084901 0.637774 0.059295
Si Si2 0.114433 0.606278 0.462209
Si Si3 0.500726 0.644788 0.672202
Si Si4 0.912310 0.138255 0.804653
Si Si5 0.502872 0.360999 0.557766
Si Si6 0.795854 0.364590 0.344688
Si Si7 0.634947 0.975927 0.835389
Si Si8 0.478899 0.034450 0.763497
O O1 0.095586 0.750000 0.036736
O O2 0.063763 0.627076 0.135063
O O3 0.816639 0.585029 0.121311
O O4 0.354033 0.582403 0.944165
O O5 0.263660 0.630670 0.471641
O O6 0.338074 0.614730 0.333860
O O7 0.000000 0.500000 0.500000
O O8 0.833548 0.669580 0.550114
O O9 0.364747 0.750000 0.734691
O O10 0.371084 0.604081 0.656449
O O11 0.434253 0.565682 0.743519
O O12 0.857142 0.250000 0.806490
O O13 0.201458 0.093588 0.678762
O O14 0.655453 0.073048 0.867669
O O15 0.435649 0.250000 0.569128
O O16 0.622005 0.408096 0.458303
O O17 0.821794 0.250000 0.341569
O O18 0.109748 0.405106 0.236431
O O19 0.644197 0.007902 0.765630
#
# Coordination Sequence:
#
# PCOD8073775 Si02
#       8
#     4   4   4   4   4   4   4   4
#     4  11  24  46  70  91 122 166 218 268 318 375
#     4  10  20  34  57  88 124 164 208 252 310 371
#     4  10  22  39  62  94 135 175 211 259 316 380
#     4  10  23  42  65  93 123 164 212 265 322 377
#     4  10  20  38  61  88 125 168 212 259 316 380
#     4  10  22  38  61  95 132 170 212 259 316 377
#     4  12  25  41  66  94 131 167 212 264 318 379
#     4  11  24  42  62  96 126 168 217 263 317 378
#
# _framework density 21.220832000000001
#
# number of rings (size 3 to 8) (size 9 to 14) (size 15 to 20)
#    0.000    1.500    1.250    3.750    3.500    3.500 
#    0.000    1.875    0.000    0.000    0.000    0.000 
#    0.000    0.000    0.000    0.000    0.000    0.000 
#
# Total GULP energy -396758.743368 kJ/mol
# GULP energy per Si atom -12398.710730 kJ/mol
# Density = 2.117253 g / cm^3
# Si number density = 21.220832 Si / 1000 Ang^3
#
#
#
# Elastic Constant Matrix: (Units=GPa)
#
#
# Indices 1 2 3 4 5 6 
#
# 1 104.2755 23.5003 6.4771 0.0000 -16.3740 0.0000
# 2 23.5003 77.3666 16.5820 0.0000 -7.9051 0.0000
# 3 6.4771 16.5820 62.1816 0.0000 -16.9550 0.0000
# 4 0.0000 0.0000 0.0000 25.9379 0.0000 -0.1686
# 5 -16.3740 -7.9051 -16.9550 0.0000 29.0126 0.0000
# 6 0.0000 0.0000 0.0000 -0.1686 0.0000 24.0433
#
#
#
# Elastic Compliance Matrix: (Units=1/GPa)
#
#
# Indices 1 2 3 4 5 6 
#
# 1 0.011177 -0.003045 0.001358 0.000000 0.006272 0.000000
# 2 -0.003045 0.014628 -0.003528 0.000000 0.000205 0.000000
# 3 0.001358 -0.003528 0.020018 0.000000 0.011504 0.000000
# 4 0.000000 0.000000 0.000000 0.038555 0.000000 0.000270
# 5 0.006272 0.000205 0.011504 0.000000 0.044786 0.000000
# 6 0.000000 0.000000 0.000000 0.000270 0.000000 0.041593
#
#
# Mechanical properties :
#
#
# Convention : Reuss Voigt Hill
#
# Bulk Modulus (GPa) = 28.25448 37.43807 32.84628
# Shear Modulus (GPa) = 25.90886 28.94971 27.42929
#
# Velocity S-wave (km/s) = 3.49795 3.69753 3.59913
# Velocity P-wave (km/s) = 5.44588 5.99245 5.72569
#
# Compressibility (1/GPa) = 0.03539262
#
# Stress axis : x y z
#
# Youngs Moduli (GPa) = 89.47146 68.36433 49.95536
#
# Poissons Ratio (x) = 0.20818 -0.06784
# Poissons Ratio (y) = 0.27246 0.17622
# Poissons Ratio (z) = -0.12150 0.24116
#
# Static dielectric constant tensor:
#      x y z
#    x 3.856710 0.000000 -0.182830 
#    y 0.000000 5.124210 0.000000 
#    z -0.182830 0.000000 4.394790 
# 
# 
# High freq. dielectric constant tensor:
#      x y z
#    x 1.833560 0.000000 -0.005710 
#    y 0.000000 1.848160 0.000000 
#    z -0.005710 0.000000 1.825590 
# 
# From -- ./inp_files/68140.got.cif
#   From: 2010.06.25/outbox.cif.g09.slc.cpg/sg11_35_cif.got.tgz:68140.got - 2010.06.27 23:14:04.
