data_PCOD8073075
_publ_section_title
;
Structure prediction by ZEFSAII (Michael W. Deem and Ramdas Pophale) SiO2 
 PCOD8073075
Probable space group: P 21/M
;
_chemical_formula_sum "Si O2"
_cell_formula_units_Z 32
_cell_length_a 16.934970
_cell_length_b 9.056028
_cell_length_c 25.444243
_cell_angle_alpha 90.000000
_cell_angle_beta 153.548698
_cell_angle_gamma 90.000000
_cell_volume 1738.193103
_symmetry_space_group_name_H-M "P 21/M"
_symmetry_group_IT_number 11
_symmetry_cell_setting 'monoclinic'
loop_
_space_group_symop_operation_xyz
x,y,z
-x,1/2+y,-z
-x,-y,-z
x,1/2-y,z
loop_
_atom_site_type_symbol
_atom_site_label
_atom_site_fract_x
_atom_site_fract_y
_atom_site_fract_z
Si Si1 0.566867 0.077972 0.988204
Si Si2 0.411362 0.074944 0.640282
Si Si3 0.165098 0.076831 0.922471
Si Si4 0.424827 0.082823 0.170160
Si Si5 0.536933 0.421536 0.439537
Si Si6 0.056965 0.084375 0.482728
Si Si7 0.242659 0.921087 0.328564
Si Si8 0.325959 0.587118 0.772551
O O1 0.594831 0.250000 0.014634
O O2 0.412428 0.048612 0.854334
O O3 0.500000 0.000000 0.000000
O O4 0.749850 0.008734 0.076141
O O5 0.423089 0.250000 0.643062
O O6 0.221539 0.017105 0.548828
O O7 0.565022 0.018421 0.771671
O O8 0.431538 0.009361 0.594821
O O9 0.189512 0.250000 0.926932
O O10 0.959963 0.032095 0.801757
O O11 0.264136 0.031160 0.035888
O O12 0.390464 0.250000 0.168347
O O13 0.613920 0.069337 0.252513
O O14 0.516684 0.250000 0.414100
O O15 0.700390 0.450013 0.577010
O O16 0.355665 0.477421 0.357341
O O17 0.106988 0.250000 0.529510
O O18 0.883582 0.080507 0.342592
O O19 0.000000 0.000000 0.500000
O O20 0.274672 0.750000 0.333084
O O21 0.395836 0.750000 0.833191
#
# Coordination Sequence:
#
# PCOD8073075 Si02
#       8
#     4   4   4   4   4   4   4   4
#     4  11  22  35  52  76 108 144 183 227 271 319
#     4  11  22  34  52  80 114 147 186 230 273 325
#     4   9  19  37  60  83 109 142 180 222 276 333
#     4   9  17  32  54  77 107 144 178 218 268 325
#     4  10  21  37  59  85 112 143 178 222 277 332
#     4  10  20  33  51  76 107 144 183 225 270 318
#     4   9  19  39  64  86 110 139 177 224 278 336
#     4   9  18  34  52  72 103 142 182 224 272 322
#
# _framework density 18.409922000000002
#
# number of rings (size 3 to 8) (size 9 to 14) (size 15 to 20)
#    0.000    2.250    1.250    2.625    0.000    5.000 
#    0.000    3.125    0.000    0.000    0.000    0.000 
#    0.000    0.000    0.000    0.000    0.000    0.000 
#
# Total GULP energy -396674.063941 kJ/mol
# GULP energy per Si atom -12396.064498 kJ/mol
# Density = 1.836802 g / cm^3
# Si number density = 18.409922 Si / 1000 Ang^3
#
#
#
# Elastic Constant Matrix: (Units=GPa)
#
#
# Indices 1 2 3 4 5 6 
#
# 1 115.2766 59.6328 60.9707 0.0000 -8.1437 0.0000
# 2 59.6328 91.7647 42.7796 0.0000 -2.4136 0.0000
# 3 60.9707 42.7796 118.4818 0.0000 8.4313 0.0000
# 4 0.0000 0.0000 0.0000 25.3818 0.0000 -1.9603
# 5 -8.1437 -2.4136 8.4313 0.0000 20.5889 0.0000
# 6 0.0000 0.0000 0.0000 -1.9603 0.0000 34.0424
#
#
#
# Elastic Compliance Matrix: (Units=1/GPa)
#
#
# Indices 1 2 3 4 5 6 
#
# 1 0.016538 -0.007561 -0.006369 0.000000 0.008263 0.000000
# 2 -0.007561 0.016821 -0.002173 0.000000 -0.000129 0.000000
# 3 -0.006369 -0.002173 0.013081 0.000000 -0.008130 0.000000
# 4 0.000000 0.000000 0.000000 0.039574 0.000000 0.002279
# 5 0.008263 -0.000129 -0.008130 0.000000 0.055153 0.000000
# 6 0.000000 0.000000 0.000000 0.002279 0.000000 0.029506
#
#
# Mechanical properties :
#
#
# Convention : Reuss Voigt Hill
#
# Bulk Modulus (GPa) = 70.25517 72.47660 71.36588
# Shear Modulus (GPa) = 24.08206 26.81195 25.44701
#
# Velocity S-wave (km/s) = 3.62069 3.82040 3.72189
# Velocity P-wave (km/s) = 7.46483 7.67557 7.57093
#
# Compressibility (1/GPa) = 0.01423383
#
# Stress axis : x y z
#
# Youngs Moduli (GPa) = 60.46585 59.45064 76.44865
#
# Poissons Ratio (x) = 0.44951 0.48687
# Poissons Ratio (y) = 0.45718 0.16615
# Poissons Ratio (z) = 0.38508 0.12920
#
# Static dielectric constant tensor:
#      x y z
#    x 3.377970 0.000000 -0.048460 
#    y 0.000000 3.170080 0.000000 
#    z -0.048460 0.000000 3.696580 
# 
# 
# High freq. dielectric constant tensor:
#      x y z
#    x 1.700590 0.000000 -0.001770 
#    y 0.000000 1.714720 0.000000 
#    z -0.001770 0.000000 1.713120 
# 
# From -- ./inp_files/69148.got.cif
#   From: 2010.06.25/outbox.cif.g09.slc.cpg/sg11_35_cif.got.tgz:69148.got - 2010.06.27 23:14:04.
