data_PCOD8073934
_publ_section_title
;
Structure prediction by ZEFSAII (Michael W. Deem and Ramdas Pophale) SiO2 
 PCOD8073934
Probable space group: P 21/M
;
_chemical_formula_sum "Si O2"
_cell_formula_units_Z 28
_cell_length_a 11.902968
_cell_length_b 8.969245
_cell_length_c 15.794996
_cell_angle_alpha 90.000000
_cell_angle_beta 56.930129
_cell_angle_gamma 90.000000
_cell_volume 1413.115570
_symmetry_space_group_name_H-M "P 21/M"
_symmetry_group_IT_number 11
_symmetry_cell_setting 'monoclinic'
loop_
_space_group_symop_operation_xyz
x,y,z
-x,1/2+y,-z
-x,-y,-z
x,1/2-y,z
loop_
_atom_site_type_symbol
_atom_site_label
_atom_site_fract_x
_atom_site_fract_y
_atom_site_fract_z
Si Si1 0.144091 0.918759 0.628975
Si Si2 0.585343 0.080149 0.393501
Si Si3 0.133711 0.074147 0.169855
Si Si4 0.873116 0.072689 0.007530
Si Si5 0.860298 0.574030 0.537897
Si Si6 0.326732 0.073600 0.236232
Si Si7 0.596983 0.427544 0.200693
O O1 0.133687 0.750000 0.598739
O O2 0.255925 0.932763 0.655159
O O3 0.001735 0.967930 0.725093
O O4 0.188985 0.026033 0.534482
O O5 0.536651 0.250000 0.414696
O O6 0.563803 0.010668 0.308660
O O7 0.500000 0.000000 0.500000
O O8 0.137906 0.250000 0.146767
O O9 0.259982 0.021180 0.175495
O O10 0.138308 0.977658 0.084058
O O11 0.886509 0.250000 0.006790
O O12 0.739877 0.013288 0.109648
O O13 0.000000 0.000000 0.000000
O O14 0.874817 0.750000 0.536594
O O15 0.755751 0.512215 0.649729
O O16 0.000000 0.500000 0.500000
O O17 0.320543 0.250000 0.241267
O O18 0.480462 0.017898 0.183525
O O19 0.601331 0.250000 0.203341
#
# Coordination Sequence:
#
# PCOD8073934 Si02
#       7
#     4   4   4   4   4   4   4
#     4  10  20  35  54  80 114 154 193 234 286 337
#     4  10  20  35  56  80 112 149 188 233 281 335
#     4  10  20  37  59  83 113 148 187 232 283 338
#     4  11  23  40  62  86 111 144 189 237 284 337
#     4  11  20  33  55  83 115 152 190 231 278 336
#     4   9  18  34  57  83 113 151 190 226 278 343
#     4   9  19  37  59  82 111 150 189 228 279 338
#
# _framework density 19.814374000000001
#
# number of rings (size 3 to 8) (size 9 to 14) (size 15 to 20)
#    0.000    2.000    1.429    2.571    0.000    5.143 
#    0.000    2.857    0.000    5.143    0.000    0.000 
#    0.000    0.000    0.000    0.000    0.000    0.000 
#
# Total GULP energy -347171.522912 kJ/mol
# GULP energy per Si atom -12398.982961 kJ/mol
# Density = 1.976928 g / cm^3
# Si number density = 19.814374 Si / 1000 Ang^3
#
#
#
# Elastic Constant Matrix: (Units=GPa)
#
#
# Indices 1 2 3 4 5 6 
#
# 1 163.6015 31.5617 78.3343 0.0000 -0.4726 0.0000
# 2 31.5617 49.7113 37.1137 0.0000 0.9934 0.0000
# 3 78.3343 37.1137 127.2444 0.0000 4.2218 0.0000
# 4 0.0000 0.0000 0.0000 30.9964 0.0000 5.3396
# 5 -0.4726 0.9934 4.2218 0.0000 38.1111 0.0000
# 6 0.0000 0.0000 0.0000 5.3396 0.0000 26.3053
#
#
#
# Elastic Compliance Matrix: (Units=1/GPa)
#
#
# Indices 1 2 3 4 5 6 
#
# 1 0.008835 -0.001975 -0.004886 0.000000 0.000702 0.000000
# 2 -0.001975 0.026159 -0.006414 0.000000 0.000004 0.000000
# 3 -0.004886 -0.006414 0.012781 0.000000 -0.001309 0.000000
# 4 0.000000 0.000000 0.000000 0.033431 0.000000 -0.006786
# 5 0.000702 0.000004 -0.001309 0.000000 0.026393 0.000000
# 6 0.000000 0.000000 0.000000 -0.006786 0.000000 0.039393
#
#
# Mechanical properties :
#
#
# Convention : Reuss Voigt Hill
#
# Bulk Modulus (GPa) = 47.11640 70.50852 58.81246
# Shear Modulus (GPa) = 27.68297 31.98573 29.83435
#
# Velocity S-wave (km/s) = 3.74186 4.02216 3.88453
# Velocity P-wave (km/s) = 6.51914 7.56519 7.06156
#
# Compressibility (1/GPa) = 0.02122403
#
# Stress axis : x y z
#
# Youngs Moduli (GPa) = 113.18469 38.22820 78.24063
#
# Poissons Ratio (x) = 0.07552 0.38230
# Poissons Ratio (y) = 0.22360 0.50182
# Poissons Ratio (z) = 0.55304 0.24519
#
# Static dielectric constant tensor:
#      x y z
#    x 4.132660 0.000000 0.176880 
#    y 0.000000 3.571680 0.000000 
#    z 0.176880 0.000000 3.908060 
# 
# 
# High freq. dielectric constant tensor:
#      x y z
#    x 1.795160 0.000000 0.002250 
#    y 0.000000 1.736470 0.000000 
#    z 0.002250 0.000000 1.773700 
# 
# From -- ./inp_files/37317.got.cif
#   From: 2010.06.25/outbox.cif.g09.slc.cpg/sg11_19_cif.got.tgz:37317.got - 2010.06.27 23:14:04.
