data_PCOD8073005
_publ_section_title
;
Structure prediction by ZEFSAII (Michael W. Deem and Ramdas Pophale) SiO2 
 PCOD8073005
Probable space group: P 21/M
;
_chemical_formula_sum "Si O2"
_cell_formula_units_Z 28
_cell_length_a 19.433858
_cell_length_b 9.072415
_cell_length_c 24.121926
_cell_angle_alpha 90.000000
_cell_angle_beta 155.888826
_cell_angle_gamma 90.000000
_cell_volume 1737.380674
_symmetry_space_group_name_H-M "P 21/M"
_symmetry_group_IT_number 11
_symmetry_cell_setting 'monoclinic'
loop_
_space_group_symop_operation_xyz
x,y,z
-x,1/2+y,-z
-x,-y,-z
x,1/2-y,z
loop_
_atom_site_type_symbol
_atom_site_label
_atom_site_fract_x
_atom_site_fract_y
_atom_site_fract_z
Si Si1 0.863013 0.416322 0.434752
Si Si2 0.181555 0.922622 0.980217
Si Si3 0.324574 0.580983 0.372897
Si Si4 0.981580 0.074675 0.927407
Si Si5 0.206598 0.916118 0.496915
Si Si6 0.930667 0.078096 0.719760
Si Si7 0.570802 0.578593 0.264389
O O1 0.845822 0.250000 0.399639
O O2 0.916698 0.417767 0.539631
O O3 0.679930 0.496868 0.296356
O O4 0.000000 0.500000 0.500000
O O5 0.146592 0.750000 0.963792
O O6 0.376305 0.955659 0.112240
O O7 0.126174 0.011655 0.993873
O O8 0.084340 0.980115 0.854613
O O9 0.500000 0.500000 0.500000
O O10 0.368920 0.750000 0.398786
O O11 0.200518 0.531702 0.231847
O O12 0.234831 0.548145 0.365285
O O13 0.003457 0.250000 0.947867
O O14 0.000000 0.000000 0.000000
O O15 0.269924 0.750000 0.530961
O O16 0.107647 0.976303 0.370736
O O17 0.369986 0.016604 0.631542
O O18 0.982263 0.250000 0.760765
O O19 0.611658 0.750000 0.291696
#
# Coordination Sequence:
#
# PCOD8073005 Si02
#       7
#     4   4   4   4   4   4   4
#     4   9  17  30  51  76 103 131 163 203 247 295
#     4  10  20  33  50  74 101 130 165 205 249 296
#     4   9  19  33  49  69  94 125 162 203 247 294
#     4  10  21  36  52  71  96 129 167 208 252 300
#     4   8  17  31  49  73  97 126 166 203 243 290
#     4   9  18  34  51  69  96 130 166 204 246 295
#     4   9  18  31  48  73 102 129 163 203 241 286
#
# _framework density 16.116213999999999
#
# number of rings (size 3 to 8) (size 9 to 14) (size 15 to 20)
#    0.857    2.000    0.000    2.143    0.000    6.857 
#    0.000    2.857    0.000    0.857    0.000    0.000 
#    0.000    0.000    0.000    0.000    0.000    0.000 
#
# Total GULP energy -346986.818761 kJ/mol
# GULP energy per Si atom -12392.386384 kJ/mol
# Density = 1.607953 g / cm^3
# Si number density = 16.116214 Si / 1000 Ang^3
#
#
#
# Elastic Constant Matrix: (Units=GPa)
#
#
# Indices 1 2 3 4 5 6 
#
# 1 77.9438 43.5629 58.9462 0.0000 0.9631 0.0000
# 2 43.5629 96.4337 63.9052 0.0000 10.5972 0.0000
# 3 58.9462 63.9052 108.8195 0.0000 10.8256 0.0000
# 4 0.0000 0.0000 0.0000 32.0725 0.0000 0.9349
# 5 0.9631 10.5972 10.8256 0.0000 23.3696 0.0000
# 6 0.0000 0.0000 0.0000 0.9349 0.0000 25.3465
#
#
#
# Elastic Compliance Matrix: (Units=1/GPa)
#
#
# Indices 1 2 3 4 5 6 
#
# 1 0.023118 -0.003931 -0.010794 0.000000 0.005830 0.000000
# 2 -0.003931 0.017880 -0.007947 0.000000 -0.004265 0.000000
# 3 -0.010794 -0.007947 0.020233 0.000000 -0.005324 0.000000
# 4 0.000000 0.000000 0.000000 0.031213 0.000000 -0.001151
# 5 0.005830 -0.004265 -0.005324 0.000000 0.046951 0.000000
# 6 0.000000 0.000000 0.000000 -0.001151 0.000000 0.039496
#
#
# Mechanical properties :
#
#
# Convention : Reuss Voigt Hill
#
# Bulk Modulus (GPa) = 62.94191 68.44729 65.69460
# Shear Modulus (GPa) = 21.78353 23.94323 22.86338
#
# Velocity S-wave (km/s) = 3.68047 3.85861 3.77059
# Velocity P-wave (km/s) = 7.56313 7.90032 7.73357
#
# Compressibility (1/GPa) = 0.01588767
#
# Stress axis : x y z
#
# Youngs Moduli (GPa) = 43.25620 55.92689 49.42335
#
# Poissons Ratio (x) = 0.21983 0.53350
# Poissons Ratio (y) = 0.17003 0.39277
# Poissons Ratio (z) = 0.46693 0.44445
#
# Static dielectric constant tensor:
#      x y z
#    x 2.785530 0.000000 0.387390 
#    y 0.000000 3.148690 0.000000 
#    z 0.387390 0.000000 1.689560 
# 
# 
# High freq. dielectric constant tensor:
#      x y z
#    x 1.604910 0.000000 -0.002120 
#    y 0.000000 1.631970 0.000000 
#    z -0.002120 0.000000 1.606510 
# 
# From -- ./inp_files/71958.got.cif
#   From: 2010.06.25/outbox.cif.g09.slc.cpg/sg11_36_cif.got.tgz:71958.got - 2010.06.27 23:14:04.
