data_PCOD8073142
_publ_section_title
;
Structure prediction by ZEFSAII (Michael W. Deem and Ramdas Pophale) SiO2 
 PCOD8073142
Probable space group: P 21/M
;
_chemical_formula_sum "Si O2"
_cell_formula_units_Z 32
_cell_length_a 21.190113
_cell_length_b 9.495866
_cell_length_c 14.284511
_cell_angle_alpha 90.000000
_cell_angle_beta 35.963695
_cell_angle_gamma 90.000000
_cell_volume 1688.001772
_symmetry_space_group_name_H-M "P 21/M"
_symmetry_group_IT_number 11
_symmetry_cell_setting 'monoclinic'
loop_
_space_group_symop_operation_xyz
x,y,z
-x,1/2+y,-z
-x,-y,-z
x,1/2-y,z
loop_
_atom_site_type_symbol
_atom_site_label
_atom_site_fract_x
_atom_site_fract_y
_atom_site_fract_z
Si Si1 0.950477 0.916107 0.780704
Si Si2 0.735672 0.596478 0.376366
Si Si3 0.674847 0.412227 0.611821
Si Si4 0.924671 0.584807 0.021359
Si Si5 0.789175 0.913867 0.815752
Si Si6 0.167203 0.914558 0.419173
Si Si7 0.439901 0.413123 0.832486
Si Si8 0.495478 0.908214 0.597397
O O1 0.945651 0.750000 0.794722
O O2 0.853594 0.967506 0.829956
O O3 0.064869 0.965224 0.602365
O O4 0.934317 0.977851 0.904693
O O5 0.773188 0.750000 0.367697
O O6 0.748515 0.488949 0.446312
O O7 0.804286 0.554475 0.202758
O O8 0.613860 0.602486 0.493374
O O9 0.691052 0.250000 0.568996
O O10 0.723058 0.448297 0.655750
O O11 0.548543 0.453669 0.759256
O O12 0.954362 0.750000 0.988384
O O13 0.000000 0.500000 0.000000
O O14 0.812762 0.750000 0.769032
O O15 0.832775 0.999897 0.676095
O O16 0.662107 0.941985 0.979302
O O17 0.158429 0.750000 0.405409
O O18 0.443391 0.250000 0.796087
O O19 0.424569 0.509941 0.759483
O O20 0.449298 0.750000 0.634863
O O21 0.500000 0.000000 0.500000
#
# Coordination Sequence:
#
# PCOD8073142 Si02
#       8
#     4   4   4   4   4   4   4   4
#     4   9  19  35  55  76 102 141 178 213 264 321
#     4   9  19  33  52  78 106 138 176 217 259 308
#     4   9  18  34  55  78 106 140 175 217 267 319
#     4  10  20  35  55  79 107 139 177 217 261 315
#     4  10  21  36  56  78 103 139 180 219 264 320
#     4  10  20  35  55  77 103 137 177 222 272 318
#     4   9  19  35  54  77 106 139 178 218 263 319
#     4  10  20  33  52  78 107 141 178 215 260 312
#
# _framework density 18.957325000000001
#
# number of rings (size 3 to 8) (size 9 to 14) (size 15 to 20)
#    0.000    2.500    0.000    1.500    1.750    3.500 
#    0.000    1.250    0.000    0.000    0.000    0.000 
#    0.000    0.000    0.000    0.000    0.000    0.000 
#
# Total GULP energy -396712.138629 kJ/mol
# GULP energy per Si atom -12397.254332 kJ/mol
# Density = 1.891418 g / cm^3
# Si number density = 18.957325 Si / 1000 Ang^3
#
#
#
# Elastic Constant Matrix: (Units=GPa)
#
#
# Indices 1 2 3 4 5 6 
#
# 1 114.9538 39.6145 57.0404 0.0000 18.3436 0.0000
# 2 39.6145 60.4994 37.5645 0.0000 12.1005 0.0000
# 3 57.0404 37.5645 116.3259 0.0000 14.2343 0.0000
# 4 0.0000 0.0000 0.0000 29.6251 0.0000 8.4994
# 5 18.3436 12.1005 14.2343 0.0000 31.0570 0.0000
# 6 0.0000 0.0000 0.0000 8.4994 0.0000 28.5153
#
#
#
# Elastic Compliance Matrix: (Units=1/GPa)
#
#
# Indices 1 2 3 4 5 6 
#
# 1 0.013266 -0.005223 -0.004353 0.000000 -0.003806 0.000000
# 2 -0.005223 0.023585 -0.004564 0.000000 -0.004013 0.000000
# 3 -0.004353 -0.004564 0.012366 0.000000 -0.001318 0.000000
# 4 0.000000 0.000000 0.000000 0.036912 0.000000 -0.011002
# 5 -0.003806 -0.004013 -0.001318 0.000000 0.036614 0.000000
# 6 0.000000 0.000000 0.000000 -0.011002 0.000000 0.038348
#
#
# Mechanical properties :
#
#
# Convention : Reuss Voigt Hill
#
# Bulk Modulus (GPa) = 47.75992 62.24642 55.00317
# Shear Modulus (GPa) = 25.46460 28.34348 26.90404
#
# Velocity S-wave (km/s) = 3.66903 3.87087 3.77130
# Velocity P-wave (km/s) = 6.57245 7.27217 6.93115
#
# Compressibility (1/GPa) = 0.02093806
#
# Stress axis : x y z
#
# Youngs Moduli (GPa) = 75.38007 42.39897 80.86545
#
# Poissons Ratio (x) = 0.22144 0.35199
# Poissons Ratio (y) = 0.39369 0.36910
# Poissons Ratio (z) = 0.32812 0.19352
#
# Static dielectric constant tensor:
#      x y z
#    x 3.375370 0.000000 -0.047030 
#    y 0.000000 3.653000 0.000000 
#    z -0.047030 0.000000 3.673960 
# 
# 
# High freq. dielectric constant tensor:
#      x y z
#    x 1.735730 0.000000 -0.002600 
#    y 0.000000 1.721890 0.000000 
#    z -0.002600 0.000000 1.739800 
# 
# From -- ./inp_files/55545.got.cif
#   From: 2010.06.25/outbox.cif.g09.slc.cpg/sg11_28_cif.got.tgz:55545.got - 2010.06.27 23:14:04.
