data_PCOD8073427
_publ_section_title
;
Structure prediction by ZEFSAII (Michael W. Deem and Ramdas Pophale) SiO2 
 PCOD8073427
Probable space group: P 21/M
;
_chemical_formula_sum "Si O2"
_cell_formula_units_Z 32
_cell_length_a 14.357159
_cell_length_b 8.584645
_cell_length_c 26.333571
_cell_angle_alpha 90.000000
_cell_angle_beta 34.778888
_cell_angle_gamma 90.000000
_cell_volume 1851.349725
_symmetry_space_group_name_H-M "P 21/M"
_symmetry_group_IT_number 11
_symmetry_cell_setting 'monoclinic'
loop_
_space_group_symop_operation_xyz
x,y,z
-x,1/2+y,-z
-x,-y,-z
x,1/2-y,z
loop_
_atom_site_type_symbol
_atom_site_label
_atom_site_fract_x
_atom_site_fract_y
_atom_site_fract_z
Si Si1 0.534178 0.427536 0.148314
Si Si2 0.241875 0.431505 0.407147
Si Si3 0.418643 0.430469 0.768030
Si Si4 0.226805 0.568849 0.236658
Si Si5 0.791285 0.926422 0.967286
Si Si6 0.077378 0.931417 0.914068
Si Si7 0.322094 0.070158 0.090804
Si Si8 0.972657 0.568879 0.593018
O O1 0.539503 0.250000 0.165424
O O2 0.589067 0.541824 0.168371
O O3 0.354862 0.464901 0.209866
O O4 0.656961 0.452559 0.046958
O O5 0.218833 0.250000 0.427854
O O6 0.432026 0.475388 0.323562
O O7 0.164572 0.477739 0.387348
O O8 0.150911 0.524529 0.492434
O O9 0.442952 0.250000 0.745202
O O10 0.247020 0.488263 0.822422
O O11 0.268746 0.750000 0.222226
O O12 0.227767 0.520713 0.177487
O O13 0.057738 0.527791 0.341175
O O14 0.735702 0.750000 0.005360
O O15 0.798132 0.947893 0.903610
O O16 0.963594 0.963427 0.916313
O O17 0.106717 0.750000 0.910781
O O18 0.000000 0.000000 0.000000
O O19 0.345458 0.250000 0.095676
O O20 0.500000 0.000000 0.000000
O O21 0.968449 0.750000 0.607801
#
# Coordination Sequence:
#
# PCOD8073427 Si02
#       8
#     4   4   4   4   4   4   4   4
#     4  12  22  32  51  75 104 141 181 222 263 311
#     4  10  20  34  53  77 107 140 176 216 263 314
#     4  12  23  35  52  76 108 144 181 219 263 316
#     4  12  23  35  52  76 108 144 181 219 263 316
#     4  10  22  38  54  73 104 141 180 224 268 311
#     4  11  22  36  54  77 105 140 181 223 266 314
#     4  11  22  36  54  77 105 140 181 223 266 314
#     4  10  20  34  53  77 107 140 176 216 263 314
#
# _framework density 17.284686000000001
#
# number of rings (size 3 to 8) (size 9 to 14) (size 15 to 20)
#    0.000    1.000    3.750    4.875    0.000    2.000 
#    0.000    0.000    0.000    0.000    0.000    0.875 
#    0.000    0.000    0.000    0.000    0.000    0.000 
#
# Total GULP energy -396895.884147 kJ/mol
# GULP energy per Si atom -12402.996380 kJ/mol
# Density = 1.724535 g / cm^3
# Si number density = 17.284686 Si / 1000 Ang^3
#
#
#
# Elastic Constant Matrix: (Units=GPa)
#
#
# Indices 1 2 3 4 5 6 
#
# 1 80.5937 24.7183 38.4029 0.0000 6.2718 0.0000
# 2 24.7183 83.7695 30.6773 0.0000 2.1153 0.0000
# 3 38.4029 30.6773 112.5383 0.0000 6.3972 0.0000
# 4 0.0000 0.0000 0.0000 32.6989 0.0000 1.8588
# 5 6.2718 2.1153 6.3972 0.0000 23.3799 0.0000
# 6 0.0000 0.0000 0.0000 1.8588 0.0000 20.1517
#
#
#
# Elastic Compliance Matrix: (Units=1/GPa)
#
#
# Indices 1 2 3 4 5 6 
#
# 1 0.015602 -0.002935 -0.004369 0.000000 -0.002724 0.000000
# 2 -0.002935 0.013815 -0.002781 0.000000 0.000298 0.000000
# 3 -0.004369 -0.002781 0.011229 0.000000 -0.001649 0.000000
# 4 0.000000 0.000000 0.000000 0.030743 0.000000 -0.002836
# 5 -0.002724 0.000298 -0.001649 0.000000 0.043927 0.000000
# 6 0.000000 0.000000 0.000000 -0.002836 0.000000 0.049885
#
#
# Mechanical properties :
#
#
# Convention : Reuss Voigt Hill
#
# Bulk Modulus (GPa) = 48.84102 51.61092 50.22597
# Shear Modulus (GPa) = 26.01514 27.45296 26.73405
#
# Velocity S-wave (km/s) = 3.88377 3.98965 3.93706
# Velocity P-wave (km/s) = 6.95914 7.15173 7.05609
#
# Compressibility (1/GPa) = 0.02047459
#
# Stress axis : x y z
#
# Youngs Moduli (GPa) = 64.09441 72.38764 89.05774
#
# Poissons Ratio (x) = 0.21245 0.38911
# Poissons Ratio (y) = 0.18811 0.24769
# Poissons Ratio (z) = 0.28004 0.20132
#
# Static dielectric constant tensor:
#      x y z
#    x 3.157740 0.000000 0.062830 
#    y 0.000000 3.303380 0.000000 
#    z 0.062830 0.000000 3.272380 
# 
# 
# High freq. dielectric constant tensor:
#      x y z
#    x 1.635190 0.000000 0.002730 
#    y 0.000000 1.685350 0.000000 
#    z 0.002730 0.000000 1.661390 
# 
# From -- ./inp_files/56149.got.cif
#   From: 2010.06.25/outbox.cif.g09.slc.cpg/sg11_29_cif.got.tgz:56149.got - 2010.06.27 23:14:04.
