data_PCOD8073698
_publ_section_title
;
Structure prediction by ZEFSAII (Michael W. Deem and Ramdas Pophale) SiO2 
 PCOD8073698
Probable space group: P 21/M
;
_chemical_formula_sum "Si O2"
_cell_formula_units_Z 32
_cell_length_a 20.400139
_cell_length_b 9.181857
_cell_length_c 25.876621
_cell_angle_alpha 90.000000
_cell_angle_beta 19.871751
_cell_angle_gamma 90.000000
_cell_volume 1647.565579
_symmetry_space_group_name_H-M "P 21/M"
_symmetry_group_IT_number 11
_symmetry_cell_setting 'monoclinic'
loop_
_space_group_symop_operation_xyz
x,y,z
-x,1/2+y,-z
-x,-y,-z
x,1/2-y,z
loop_
_atom_site_type_symbol
_atom_site_label
_atom_site_fract_x
_atom_site_fract_y
_atom_site_fract_z
Si Si1 0.610539 0.917735 0.679187
Si Si2 0.174537 0.583024 0.013835
Si Si3 0.401552 0.590804 0.133716
Si Si4 0.069894 0.077609 0.703947
Si Si5 0.146067 0.418870 0.928607
Si Si6 0.584000 0.080427 0.592697
Si Si7 0.774641 0.418417 0.838132
Si Si8 0.840251 0.088459 0.589556
O O1 0.671558 0.750000 0.628949
O O2 0.400014 0.935371 0.860961
O O3 0.620990 0.989123 0.616129
O O4 0.773857 0.999077 0.589701
O O5 0.131076 0.750000 0.030575
O O6 0.125375 0.482565 0.001528
O O7 0.050378 0.535638 0.155585
O O8 0.478247 0.750000 0.058529
O O9 0.226203 0.547143 0.223311
O O10 0.334972 0.602477 0.241268
O O11 0.570964 0.475719 0.009244
O O12 0.110601 0.250000 0.671838
O O13 0.953829 0.018722 0.738763
O O14 0.273449 0.990464 0.555827
O O15 0.090966 0.250000 0.972803
O O16 0.358564 0.439384 0.745957
O O17 0.000000 0.500000 0.000000
O O18 0.633365 0.250000 0.564024
O O19 0.778316 0.250000 0.848587
O O20 0.912124 0.250000 0.519881
O O21 0.000000 0.000000 0.500000
#
# Coordination Sequence:
#
# PCOD8073698 Si02
#       8
#     4   4   4   4   4   4   4   4
#     4  10  20  37  59  79 106 147 191 238 288 339
#     4   9  19  36  59  88 116 148 191 231 275 332
#     4   9  19  34  49  70 100 135 180 231 283 335
#     4  10  20  34  56  84 115 150 188 232 279 332
#     4  10  21  39  64  90 118 151 187 228 273 329
#     4  10  22  38  57  87 120 149 186 231 279 335
#     4   9  18  33  53  74 100 137 181 227 275 331
#     4  11  23  35  49  73 104 140 186 237 288 339
#
# _framework density 19.422595999999999
#
# number of rings (size 3 to 8) (size 9 to 14) (size 15 to 20)
#    0.000    2.250    0.000    2.250    1.750    5.000 
#    0.000    0.625    0.000    0.000    0.000    0.000 
#    0.000    0.000    0.000    0.000    0.000    0.000 
#
# Total GULP energy -396612.570972 kJ/mol
# GULP energy per Si atom -12394.142843 kJ/mol
# Density = 1.937839 g / cm^3
# Si number density = 19.422596 Si / 1000 Ang^3
#
#
#
# Elastic Constant Matrix: (Units=GPa)
#
#
# Indices 1 2 3 4 5 6 
#
# 1 64.6236 49.6655 22.6807 0.0000 -20.7867 0.0000
# 2 49.6655 114.9660 47.9815 0.0000 -14.0407 0.0000
# 3 22.6807 47.9815 83.0609 0.0000 -2.9103 0.0000
# 4 0.0000 0.0000 0.0000 33.1847 0.0000 -2.7071
# 5 -20.7867 -14.0407 -2.9103 0.0000 28.5947 0.0000
# 6 0.0000 0.0000 0.0000 -2.7071 0.0000 32.9957
#
#
#
# Elastic Compliance Matrix: (Units=1/GPa)
#
#
# Indices 1 2 3 4 5 6 
#
# 1 0.028651 -0.009759 -0.001630 0.000000 0.015870 0.000000
# 2 -0.009759 0.015536 -0.006314 0.000000 -0.000108 0.000000
# 3 -0.001630 -0.006314 0.016039 0.000000 -0.002653 0.000000
# 4 0.000000 0.000000 0.000000 0.030337 0.000000 0.002489
# 5 0.015870 -0.000108 -0.002653 0.000000 0.046185 0.000000
# 6 0.000000 0.000000 0.000000 0.002489 0.000000 0.030511
#
#
# Mechanical properties :
#
#
# Convention : Reuss Voigt Hill
#
# Bulk Modulus (GPa) = 40.28918 55.92288 48.10603
# Shear Modulus (GPa) = 23.70372 28.44319 26.07345
#
# Velocity S-wave (km/s) = 3.49724 3.83095 3.66789
# Velocity P-wave (km/s) = 6.09065 6.95869 6.53909
#
# Compressibility (1/GPa) = 0.02482056
#
# Stress axis : x y z
#
# Youngs Moduli (GPa) = 34.90284 64.36749 62.34936
#
# Poissons Ratio (x) = 0.62815 0.10164
# Poissons Ratio (y) = 0.34061 0.39365
# Poissons Ratio (z) = 0.05690 0.40639
#
# Static dielectric constant tensor:
#      x y z
#    x 3.537220 0.000000 0.100230 
#    y 0.000000 3.386620 0.000000 
#    z 0.100230 0.000000 3.672150 
# 
# 
# High freq. dielectric constant tensor:
#      x y z
#    x 1.743090 0.000000 0.001910 
#    y 0.000000 1.763160 0.000000 
#    z 0.001910 0.000000 1.752160 
# 
# From -- ./inp_files/72016.got.cif
#   From: 2010.06.25/outbox.cif.g09.slc.cpg/sg11_37_cif.got.tgz:72016.got - 2010.06.27 23:14:04.
