data_PCOD8073140
_publ_section_title
;
Structure prediction by ZEFSAII (Michael W. Deem and Ramdas Pophale) SiO2 
 PCOD8073140
Probable space group: P 21/M
;
_chemical_formula_sum "Si O2"
_cell_formula_units_Z 28
_cell_length_a 8.769587
_cell_length_b 9.099731
_cell_length_c 26.001161
_cell_angle_alpha 90.000000
_cell_angle_beta 136.920629
_cell_angle_gamma 90.000000
_cell_volume 1417.189844
_symmetry_space_group_name_H-M "P 21/M"
_symmetry_group_IT_number 11
_symmetry_cell_setting 'monoclinic'
loop_
_space_group_symop_operation_xyz
x,y,z
-x,1/2+y,-z
-x,-y,-z
x,1/2-y,z
loop_
_atom_site_type_symbol
_atom_site_label
_atom_site_fract_x
_atom_site_fract_y
_atom_site_fract_z
Si Si1 0.338903 0.922998 0.345949
Si Si2 0.039585 0.581898 0.940152
Si Si3 0.614552 0.418543 0.243685
Si Si4 0.802900 0.915694 0.784565
Si Si5 0.057950 0.918953 0.374806
Si Si6 0.347948 0.917862 0.100980
Si Si7 0.794557 0.420945 0.475842
O O1 0.384304 0.750000 0.356208
O O2 0.211700 0.973212 0.365926
O O3 0.189054 0.969869 0.260248
O O4 0.570907 0.008054 0.398769
O O5 0.957395 0.750000 0.932353
O O6 0.025104 0.560255 0.874639
O O7 0.877704 0.462710 0.925496
O O8 0.290164 0.559893 0.025539
O O9 0.667680 0.250000 0.247419
O O10 0.412135 0.445739 0.232770
O O11 0.556142 0.487168 0.173113
O O12 0.831384 0.490425 0.321886
O O13 0.795438 0.750000 0.760648
O O14 0.991374 0.750000 0.351230
O O15 0.196878 0.944933 0.460906
O O16 0.406055 0.750000 0.127730
O O17 0.798659 0.250000 0.461851
O O18 0.000000 0.500000 0.500000
#
# Coordination Sequence:
#
# PCOD8073140 Si02
#       7
#     4   4   4   4   4   4   4
#     4  11  23  38  56  80 109 140 175 214 258 310
#     4   8  15  27  44  70 103 137 174 217 263 310
#     4  10  20  33  52  78 107 139 177 220 264 312
#     4   9  18  33  52  77 108 140 177 219 262 310
#     4  10  23  40  56  77 107 141 176 214 258 309
#     4   9  15  25  45  72 103 137 172 216 267 312
#     4  11  23  40  62  85 108 136 171 213 260 308
#
# _framework density 19.757408999999999
#
# number of rings (size 3 to 8) (size 9 to 14) (size 15 to 20)
#    0.000    2.286    0.000    3.857    0.000    8.000 
#    0.000    0.000    0.000    0.857    0.000    0.000 
#    0.000    0.000    0.000    0.000    0.000    0.000 
#
# Total GULP energy -347100.841530 kJ/mol
# GULP energy per Si atom -12396.458626 kJ/mol
# Density = 1.971244 g / cm^3
# Si number density = 19.757409 Si / 1000 Ang^3
#
#
#
# Elastic Constant Matrix: (Units=GPa)
#
#
# Indices 1 2 3 4 5 6 
#
# 1 55.3105 24.2111 10.8203 0.0000 -20.3684 0.0000
# 2 24.2111 80.5403 31.1084 0.0000 -12.9198 0.0000
# 3 10.8203 31.1084 82.2094 0.0000 -27.0732 0.0000
# 4 0.0000 0.0000 0.0000 36.1394 0.0000 -2.2517
# 5 -20.3684 -12.9198 -27.0732 0.0000 23.6462 0.0000
# 6 0.0000 0.0000 0.0000 -2.2517 0.0000 22.1181
#
#
#
# Elastic Compliance Matrix: (Units=1/GPa)
#
#
# Indices 1 2 3 4 5 6 
#
# 1 0.032841 -0.008207 0.010631 0.000000 0.035976 0.000000
# 2 -0.008207 0.016696 -0.007323 0.000000 -0.006331 0.000000
# 3 0.010631 -0.007323 0.024454 0.000000 0.033155 0.000000
# 4 0.000000 0.000000 0.000000 0.027847 0.000000 0.002835
# 5 0.035976 -0.006331 0.033155 0.000000 0.107779 0.000000
# 6 0.000000 0.000000 0.000000 0.002835 0.000000 0.045500
#
#
# Mechanical properties :
#
#
# Convention : Reuss Voigt Hill
#
# Bulk Modulus (GPa) = 15.57809 38.92666 27.25238
# Shear Modulus (GPa) = 17.46335 26.50877 21.98606
#
# Velocity S-wave (km/s) = 2.97625 3.66691 3.33949
# Velocity P-wave (km/s) = 4.43988 6.13787 5.35658
#
# Compressibility (1/GPa) = 0.06419274
#
# Stress axis : x y z
#
# Youngs Moduli (GPa) = 30.44986 59.89441 40.89276
#
# Poissons Ratio (x) = 0.49157 -0.43472
# Poissons Ratio (y) = 0.24991 0.29944
# Poissons Ratio (z) = -0.32370 0.43858
#
# Static dielectric constant tensor:
#      x y z
#    x 3.208030 0.000000 -0.268380 
#    y 0.000000 3.644640 0.000000 
#    z -0.268380 0.000000 4.065080 
# 
# 
# High freq. dielectric constant tensor:
#      x y z
#    x 1.720040 0.000000 -0.019100 
#    y 0.000000 1.777530 0.000000 
#    z -0.019100 0.000000 1.793800 
# 
# From -- ./inp_files/29082.got.cif
#   From: 2010.06.25/outbox.cif.g09.slc.cpg/sg11_15_cif.got.tgz:29082.got - 2010.06.27 23:14:04.
