data_PCOD8073229
_publ_section_title
;
Structure prediction by ZEFSAII (Michael W. Deem and Ramdas Pophale) SiO2 
 PCOD8073229
Probable space group: P 21/M
;
_chemical_formula_sum "Si O2"
_cell_formula_units_Z 32
_cell_length_a 9.710721
_cell_length_b 13.837374
_cell_length_c 24.223062
_cell_angle_alpha 90.000000
_cell_angle_beta 149.979411
_cell_angle_gamma 90.000000
_cell_volume 1628.449878
_symmetry_space_group_name_H-M "P 21/M"
_symmetry_group_IT_number 11
_symmetry_cell_setting 'monoclinic'
loop_
_space_group_symop_operation_xyz
x,y,z
-x,1/2+y,-z
-x,-y,-z
x,1/2-y,z
loop_
_atom_site_type_symbol
_atom_site_label
_atom_site_fract_x
_atom_site_fract_y
_atom_site_fract_z
Si Si1 0.449960 0.019909 0.657775
Si Si2 0.230638 0.637290 0.428816
Si Si3 0.970010 0.359579 0.854990
Si Si4 0.869885 0.862251 0.766772
Si Si5 0.194052 0.359381 0.809294
Si Si6 0.003077 0.478471 0.417022
Si Si7 0.142424 0.138449 0.361901
Si Si8 0.318224 0.530475 0.987505
O O1 0.605252 0.928231 0.685670
O O2 0.296295 0.982468 0.659303
O O3 0.654120 0.106750 0.745559
O O4 0.228690 0.064799 0.538000
O O5 0.216323 0.750000 0.435457
O O6 0.104829 0.586784 0.438896
O O7 0.541279 0.603859 0.525397
O O8 0.052222 0.602453 0.314356
O O9 0.994028 0.250000 0.886672
O O10 0.085057 0.366526 0.833342
O O11 0.154602 0.436158 0.954725
O O12 0.785573 0.750000 0.743787
O O13 0.976037 0.882161 0.740799
O O14 0.105814 0.888108 0.892420
O O15 0.269247 0.250000 0.819627
O O16 0.473012 0.421945 0.895673
O O17 0.975383 0.417765 0.351007
O O18 0.115969 0.250000 0.367677
O O19 0.500000 0.500000 0.000000
#
# Coordination Sequence:
#
# PCOD8073229 Si02
#       8
#     4   4   4   4   4   4   4   4
#     4  10  22  35  51  81 107 152 182 217 272 320
#     4  10  20  33  54  81 112 146 179 222 273 321
#     4   9  18  33  52  76 108 141 181 225 268 319
#     4  10  20  36  57  80 111 142 178 224 271 324
#     4   9  17  30  52  83 110 139 181 228 273 318
#     4  11  22  34  53  77 115 144 184 223 265 324
#     4  10  21  35  55  82 109 145 181 221 277 323
#     4   9  18  30  53  83 111 135 178 224 280 316
#
# _framework density 19.650590000000001
#
# number of rings (size 3 to 8) (size 9 to 14) (size 15 to 20)
#    0.000    2.250    1.250    1.500    5.250    3.000 
#    0.000    2.500    0.000    3.000    0.000    1.750 
#    0.000    0.000    0.000    0.000    0.000    0.000 
#
# Total GULP energy -396657.532523 kJ/mol
# GULP energy per Si atom -12395.547891 kJ/mol
# Density = 1.960586 g / cm^3
# Si number density = 19.650590 Si / 1000 Ang^3
#
#
#
# Elastic Constant Matrix: (Units=GPa)
#
#
# Indices 1 2 3 4 5 6 
#
# 1 70.9183 28.3844 -3.2025 0.0000 9.2154 0.0000
# 2 28.3844 82.2492 18.2278 0.0000 8.7629 0.0000
# 3 -3.2025 18.2278 76.3600 0.0000 5.6532 0.0000
# 4 0.0000 0.0000 0.0000 23.1627 0.0000 1.6790
# 5 9.2154 8.7629 5.6532 0.0000 20.6134 0.0000
# 6 0.0000 0.0000 0.0000 1.6790 0.0000 15.6639
#
#
#
# Elastic Compliance Matrix: (Units=1/GPa)
#
#
# Indices 1 2 3 4 5 6 
#
# 1 0.017365 -0.005931 0.002585 0.000000 -0.005950 0.000000
# 2 -0.005931 0.015328 -0.003697 0.000000 -0.002851 0.000000
# 3 0.002585 -0.003697 0.014347 0.000000 -0.003519 0.000000
# 4 0.000000 0.000000 0.000000 0.043511 0.000000 -0.004664
# 5 -0.005950 -0.002851 -0.003519 0.000000 0.053349 0.000000
# 6 0.000000 0.000000 0.000000 -0.004664 0.000000 0.064341
#
#
# Mechanical properties :
#
#
# Convention : Reuss Voigt Hill
#
# Bulk Modulus (GPa) = 30.34620 35.14965 32.74792
# Shear Modulus (GPa) = 21.43053 24.29586 22.86320
#
# Velocity S-wave (km/s) = 3.30598 3.52005 3.41469
# Velocity P-wave (km/s) = 5.48170 5.86917 5.67874
#
# Compressibility (1/GPa) = 0.03295306
#
# Stress axis : x y z
#
# Youngs Moduli (GPa) = 57.58821 65.23976 69.70002
#
# Poissons Ratio (x) = 0.38697 -0.18015
# Poissons Ratio (y) = 0.34158 0.25766
# Poissons Ratio (z) = -0.14885 0.24117
#
# Static dielectric constant tensor:
#      x y z
#    x 3.207900 0.000000 0.182150 
#    y 0.000000 3.850640 0.000000 
#    z 0.182150 0.000000 2.219380 
# 
# 
# High freq. dielectric constant tensor:
#      x y z
#    x 1.721530 0.000000 0.006530 
#    y 0.000000 1.776590 0.000000 
#    z 0.006530 0.000000 1.767670 
# 
# From -- ./inp_files/55018.got.cif
#   From: 2010.06.25/outbox.cif.g09.slc.cpg/sg11_28_cif.got.tgz:55018.got - 2010.06.27 23:14:04.
