data_PCOD8073221
_publ_section_title
;
Structure prediction by ZEFSAII (Michael W. Deem and Ramdas Pophale) SiO2 
 PCOD8073221
Probable space group: P 21/M
;
_chemical_formula_sum "Si O2"
_cell_formula_units_Z 24
_cell_length_a 26.422677
_cell_length_b 8.668390
_cell_length_c 17.284614
_cell_angle_alpha 90.000000
_cell_angle_beta 161.470402
_cell_angle_gamma 90.000000
_cell_volume 1258.117845
_symmetry_space_group_name_H-M "P 21/M"
_symmetry_group_IT_number 11
_symmetry_cell_setting 'monoclinic'
loop_
_space_group_symop_operation_xyz
x,y,z
-x,1/2+y,-z
-x,-y,-z
x,1/2-y,z
loop_
_atom_site_type_symbol
_atom_site_label
_atom_site_fract_x
_atom_site_fract_y
_atom_site_fract_z
Si Si1 0.942838 0.929485 0.645777
Si Si2 0.882852 0.067716 0.393163
Si Si3 0.631397 0.080103 0.239279
Si Si4 0.453012 0.420572 0.137280
Si Si5 0.022091 0.070512 0.910039
Si Si6 0.752660 0.929588 0.624617
O O1 0.969259 0.750000 0.667988
O O2 0.948315 0.015748 0.571643
O O3 0.776945 0.963271 0.447294
O O4 0.064761 0.991109 0.888565
O O5 0.884693 0.250000 0.391386
O O6 0.000000 0.000000 0.500000
O O7 0.704878 0.011215 0.116329
O O8 0.676227 0.250000 0.270222
O O9 0.568814 0.099943 0.233687
O O10 0.500000 0.000000 0.000000
O O11 0.405692 0.250000 0.100572
O O12 0.568635 0.511299 0.364389
O O13 0.993890 0.250000 0.853318
O O14 0.172004 0.037105 0.182213
O O15 0.859331 0.010822 0.713616
O O16 0.752145 0.750000 0.603690
#
# Coordination Sequence:
#
# PCOD8073221 Si02
#       6
#     4   4   4   4   4   4
#     4  12  23  36  57  84 116 152 192 233 284 342
#     4  12  26  44  64  84 112 147 191 240 290 341
#     4  11  21  32  51  81 115 150 186 229 282 343
#     4  11  22  36  57  84 118 153 191 233 283 342
#     4  10  20  34  52  81 119 157 194 232 280 338
#     4  10  20  33  53  82 118 157 194 232 280 338
#
# _framework density 19.076115999999999
#
# number of rings (size 3 to 8) (size 9 to 14) (size 15 to 20)
#    0.000    1.000    3.333    5.000    0.000    3.333 
#    0.000    0.000    0.000    1.000    0.000    0.000 
#    0.000    0.000    0.000    0.000    0.000    0.000 
#
# Total GULP energy -297428.242746 kJ/mol
# GULP energy per Si atom -12392.843448 kJ/mol
# Density = 1.903270 g / cm^3
# Si number density = 19.076116 Si / 1000 Ang^3
#
#
#
# Elastic Constant Matrix: (Units=GPa)
#
#
# Indices 1 2 3 4 5 6 
#
# 1 97.7058 50.9748 54.8697 0.0000 -14.3982 0.0000
# 2 50.9748 143.9799 40.9029 0.0000 -14.0040 0.0000
# 3 54.8697 40.9029 75.5639 0.0000 -30.8556 0.0000
# 4 0.0000 0.0000 0.0000 31.6357 0.0000 -3.0519
# 5 -14.3982 -14.0040 -30.8556 0.0000 27.7155 0.0000
# 6 0.0000 0.0000 0.0000 -3.0519 0.0000 28.6214
#
#
#
# Elastic Compliance Matrix: (Units=1/GPa)
#
#
# Indices 1 2 3 4 5 6 
#
# 1 0.019851 -0.003246 -0.016714 0.000000 -0.009936 0.000000
# 2 -0.003246 0.008771 -0.002328 0.000000 0.000154 0.000000
# 3 -0.016714 -0.002328 0.041446 0.000000 0.036283 0.000000
# 4 0.000000 0.000000 0.000000 0.031938 0.000000 0.003406
# 5 -0.009936 0.000154 0.036283 0.000000 0.071390 0.000000
# 6 0.000000 0.000000 0.000000 0.003406 0.000000 0.035302
#
#
# Mechanical properties :
#
#
# Convention : Reuss Voigt Hill
#
# Bulk Modulus (GPa) = 39.22863 67.86049 53.54456
# Shear Modulus (GPa) = 19.10060 28.96135 24.03098
#
# Velocity S-wave (km/s) = 3.16774 3.90064 3.55313
# Velocity P-wave (km/s) = 5.82995 7.47913 6.70543
#
# Compressibility (1/GPa) = 0.02549159
#
# Stress axis : x y z
#
# Youngs Moduli (GPa) = 50.37644 114.01333 24.12760
#
# Poissons Ratio (x) = 0.37008 0.40327
# Poissons Ratio (y) = 0.16352 0.05617
# Poissons Ratio (z) = 0.84200 0.26541
#
# Static dielectric constant tensor:
#      x y z
#    x 3.336290 0.000000 -0.303550 
#    y 0.000000 3.902570 0.000000 
#    z -0.303550 0.000000 3.628920 
# 
# 
# High freq. dielectric constant tensor:
#      x y z
#    x 1.713320 0.000000 -0.034090 
#    y 0.000000 1.763490 0.000000 
#    z -0.034090 0.000000 1.740180 
# 
# From -- ./inp_files/62109.got.cif
#   From: 2010.06.25/outbox.cif.g09.slc.cpg/sg11_32_cif.got.tgz:62109.got - 2010.06.27 23:14:04.
