data_PCOD8073006
_publ_section_title
;
Structure prediction by ZEFSAII (Michael W. Deem and Ramdas Pophale) SiO2 
 PCOD8073006
Probable space group: P 21/M
;
_chemical_formula_sum "Si O2"
_cell_formula_units_Z 32
_cell_length_a 14.658316
_cell_length_b 14.140834
_cell_length_c 9.131999
_cell_angle_alpha 90.000000
_cell_angle_beta 71.850649
_cell_angle_gamma 90.000000
_cell_volume 1798.712794
_symmetry_space_group_name_H-M "P 21/M"
_symmetry_group_IT_number 11
_symmetry_cell_setting 'monoclinic'
loop_
_space_group_symop_operation_xyz
x,y,z
-x,1/2+y,-z
-x,-y,-z
x,1/2-y,z
loop_
_atom_site_type_symbol
_atom_site_label
_atom_site_fract_x
_atom_site_fract_y
_atom_site_fract_z
Si Si1 0.980151 0.645574 0.683451
Si Si2 0.352124 0.993485 0.652837
Si Si3 0.352124 0.993485 0.995040
Si Si4 0.155050 0.980889 0.595611
Si Si5 0.473575 0.141396 0.092841
Si Si6 0.155050 0.980889 0.249340
Si Si7 0.019849 0.145574 0.663602
Si Si8 0.526425 0.641396 0.566416
O O1 0.969335 0.750000 0.758446
O O2 0.889956 0.581637 0.777205
O O3 0.080915 0.600341 0.683141
O O4 0.980796 0.650436 0.509602
O O5 0.338318 0.009557 0.830841
O O6 0.388400 0.091724 0.565507
O O7 0.252658 0.962314 0.631729
O O8 0.425865 0.909018 0.580935
O O9 0.425865 0.909018 0.993201
O O10 0.388400 0.091724 0.046092
O O11 0.252658 0.962314 0.115614
O O12 0.174298 0.977869 0.412851
O O13 0.110044 0.081637 0.667161
O O14 0.481360 0.250000 0.038984
O O15 0.447797 0.132708 0.276102
O O16 0.080915 0.899659 0.235944
O O17 0.030665 0.250000 0.727782
O O18 0.518640 0.750000 0.520344
#
# Coordination Sequence:
#
# PCOD8073006 Si02
#       8
#     4   4   4   4   4   4   4   4
#     4   8  15  29  48  69  93 123 162 203 235 272
#     4  10  20  33  50  74 102 127 156 200 248 289
#     4  10  20  33  50  74 102 127 156 200 248 289
#     4   9  17  30  49  71  94 124 162 198 235 283
#     4   9  19  36  54  70  93 129 168 200 235 286
#     4   9  17  30  49  71  94 124 162 198 235 283
#     4   8  15  29  48  69  93 123 162 203 235 272
#     4   9  19  36  54  70  93 129 168 200 235 286
#
# _framework density 17.790500999999999
#
# number of rings (size 3 to 8) (size 9 to 14) (size 15 to 20)
#    0.000    3.000    0.000    2.250    0.000    3.500 
#    0.000    5.000    0.000    1.500    0.000    0.000 
#    0.000    0.000    0.000    0.000    0.000    0.000 
#
# Total GULP energy -396757.622967 kJ/mol
# GULP energy per Si atom -12398.675718 kJ/mol
# Density = 1.775001 g / cm^3
# Si number density = 17.790501 Si / 1000 Ang^3
#
#
#
# Elastic Constant Matrix: (Units=GPa)
#
#
# Indices 1 2 3 4 5 6 
#
# 1 66.3050 -5.9071 8.7150 0.0000 5.5932 0.0000
# 2 -5.9071 92.4273 6.4438 0.0000 6.6658 0.0000
# 3 8.7150 6.4438 52.5900 0.0000 -12.9954 0.0000
# 4 0.0000 0.0000 0.0000 17.0349 0.0000 1.1547
# 5 5.5932 6.6658 -12.9954 0.0000 23.9444 0.0000
# 6 0.0000 0.0000 0.0000 1.1547 0.0000 14.8953
#
#
#
# Elastic Compliance Matrix: (Units=1/GPa)
#
#
# Indices 1 2 3 4 5 6 
#
# 1 0.016442 0.001872 -0.004656 0.000000 -0.006889 0.000000
# 2 0.001872 0.011532 -0.003031 0.000000 -0.005293 0.000000
# 3 -0.004656 -0.003031 0.023832 0.000000 0.014866 0.000000
# 4 0.000000 0.000000 0.000000 0.059013 0.000000 -0.004575
# 5 -0.006889 -0.005293 0.014866 0.000000 0.052914 0.000000
# 6 0.000000 0.000000 0.000000 -0.004575 0.000000 0.067490
#
#
# Mechanical properties :
#
#
# Convention : Reuss Voigt Hill
#
# Bulk Modulus (GPa) = 24.89130 25.53619 25.21375
# Shear Modulus (GPa) = 19.51260 24.64630 22.07945
#
# Velocity S-wave (km/s) = 3.31539 3.72608 3.52672
# Velocity P-wave (km/s) = 5.35513 5.73556 5.54861
#
# Compressibility (1/GPa) = 0.04017467
#
# Stress axis : x y z
#
# Youngs Moduli (GPa) = 60.82066 86.71510 41.96127
#
# Poissons Ratio (x) = -0.16236 0.19539
# Poissons Ratio (y) = -0.11387 0.12719
# Poissons Ratio (z) = 0.28321 0.26285
#
# Static dielectric constant tensor:
#      x y z
#    x 3.195730 0.000000 -0.084030 
#    y 0.000000 3.734080 0.000000 
#    z -0.084030 0.000000 3.040030 
# 
# 
# High freq. dielectric constant tensor:
#      x y z
#    x 1.685680 0.000000 -0.011280 
#    y 0.000000 1.692660 0.000000 
#    z -0.011280 0.000000 1.664780 
# 
# From -- ./inp_files/22160.got.cif
#   From: 2010.06.25/outbox.cif.g09.slc.cpg/sg11_12_cif.got.tgz:22160.got - 2010.06.27 23:14:04.
