data_PCOD8073356
_publ_section_title
;
Structure prediction by ZEFSAII (Michael W. Deem and Ramdas Pophale) SiO2 
 PCOD8073356
Probable space group: P 21/M
;
_chemical_formula_sum "Si O2"
_cell_formula_units_Z 32
_cell_length_a 11.361759
_cell_length_b 8.805252
_cell_length_c 20.025522
_cell_angle_alpha 90.000000
_cell_angle_beta 55.277648
_cell_angle_gamma 90.000000
_cell_volume 1646.651739
_symmetry_space_group_name_H-M "P 21/M"
_symmetry_group_IT_number 11
_symmetry_cell_setting 'monoclinic'
loop_
_space_group_symop_operation_xyz
x,y,z
-x,1/2+y,-z
-x,-y,-z
x,1/2-y,z
loop_
_atom_site_type_symbol
_atom_site_label
_atom_site_fract_x
_atom_site_fract_y
_atom_site_fract_z
Si Si1 0.144766 0.571463 0.921404
Si Si2 0.682921 0.581696 0.892043
Si Si3 0.787117 0.568907 0.244186
Si Si4 0.040770 0.929322 0.390269
Si Si5 0.947937 0.426000 0.758187
Si Si6 0.515986 0.571192 0.420880
Si Si7 0.376507 0.578257 0.957257
Si Si8 0.782361 0.071882 0.544088
O O1 0.116918 0.750000 0.922044
O O2 0.196806 0.502534 0.834330
O O3 0.278950 0.536507 0.925919
O O4 0.000000 0.500000 0.000000
O O5 0.750763 0.750000 0.865293
O O6 0.797163 0.452452 0.840962
O O7 0.546779 0.570889 0.885867
O O8 0.641650 0.551115 0.981691
O O9 0.784636 0.750000 0.236152
O O10 0.650361 0.513984 0.332643
O O11 0.923524 0.504670 0.240269
O O12 0.036818 0.750000 0.388134
O O13 0.064645 0.003222 0.310287
O O14 0.170905 0.980978 0.396519
O O15 0.885048 0.984922 0.460979
O O16 0.979924 0.250000 0.740711
O O17 0.500000 0.500000 0.500000
O O18 0.527372 0.750000 0.428618
O O19 0.379538 0.525342 0.419905
O O20 0.339260 0.750000 0.994356
O O21 0.806830 0.250000 0.526753
#
# Coordination Sequence:
#
# PCOD8073356 Si02
#       8
#     4   4   4   4   4   4   4   4
#     4  11  23  39  59  82 111 147 184 224 271 322
#     4  10  20  34  55  80 103 132 172 216 261 313
#     4  10  22  38  55  80 113 146 183 226 271 324
#     4   9  18  33  53  76 103 137 173 211 263 323
#     4  10  20  34  52  75 105 138 171 212 264 316
#     4  10  21  37  57  81 111 147 185 227 273 321
#     4   9  20  38  55  75 106 138 170 213 265 316
#     4   9  18  33  53  78 105 133 173 222 265 309
#
# _framework density 19.433374000000001
#
# number of rings (size 3 to 8) (size 9 to 14) (size 15 to 20)
#    0.000    2.250    0.000    2.250    0.000    8.500 
#    0.000    1.250    0.000    0.000    0.000    0.000 
#    0.000    0.000    0.000    0.000    0.000    0.000 
#
# Total GULP energy -396517.518935 kJ/mol
# GULP energy per Si atom -12391.172467 kJ/mol
# Density = 1.938914 g / cm^3
# Si number density = 19.433374 Si / 1000 Ang^3
#
#
#
# Elastic Constant Matrix: (Units=GPa)
#
#
# Indices 1 2 3 4 5 6 
#
# 1 165.6417 35.1632 81.2269 0.0000 -5.3397 0.0000
# 2 35.1632 32.0041 28.7669 0.0000 1.6596 0.0000
# 3 81.2269 28.7669 132.2278 0.0000 0.3843 0.0000
# 4 0.0000 0.0000 0.0000 31.2921 0.0000 -0.3030
# 5 -5.3397 1.6596 0.3843 0.0000 27.6067 0.0000
# 6 0.0000 0.0000 0.0000 -0.3030 0.0000 25.0344
#
#
#
# Elastic Compliance Matrix: (Units=1/GPa)
#
#
# Indices 1 2 3 4 5 6 
#
# 1 0.009780 -0.006789 -0.004537 0.000000 0.002363 0.000000
# 2 -0.006789 0.043691 -0.005324 0.000000 -0.003865 0.000000
# 3 -0.004537 -0.005324 0.011510 0.000000 -0.000718 0.000000
# 4 0.000000 0.000000 0.000000 0.031961 0.000000 0.000387
# 5 0.002363 -0.003865 -0.000718 0.000000 0.036922 0.000000
# 6 0.000000 0.000000 0.000000 0.000387 0.000000 0.039950
#
#
# Mechanical properties :
#
#
# Convention : Reuss Voigt Hill
#
# Bulk Modulus (GPa) = 31.56499 68.90971 50.23735
# Shear Modulus (GPa) = 22.97023 29.10108 26.03565
#
# Velocity S-wave (km/s) = 3.44175 3.87393 3.66422
# Velocity P-wave (km/s) = 5.66323 7.45293 6.61885
#
# Compressibility (1/GPa) = 0.03168067
#
# Stress axis : x y z
#
# Youngs Moduli (GPa) = 102.25452 22.88825 86.87900
#
# Poissons Ratio (x) = 0.15539 0.39421
# Poissons Ratio (y) = 0.69420 0.46250
# Poissons Ratio (z) = 0.46397 0.12185
#
# Static dielectric constant tensor:
#      x y z
#    x 3.917800 0.000000 0.024910 
#    y 0.000000 3.386510 0.000000 
#    z 0.024910 0.000000 3.447740 
# 
# 
# High freq. dielectric constant tensor:
#      x y z
#    x 1.775880 0.000000 0.000140 
#    y 0.000000 1.745230 0.000000 
#    z 0.000140 0.000000 1.750190 
# 
# From -- ./inp_files/64370.got.cif
#   From: 2010.06.25/outbox.cif.g09.slc.cpg/sg11_33_cif.got.tgz:64370.got - 2010.06.27 23:14:04.
