data_PCOD8073877
_publ_section_title
;
Structure prediction by ZEFSAII (Michael W. Deem and Ramdas Pophale) SiO2 
 PCOD8073877
Probable space group: P 21/M
;
_chemical_formula_sum "Si O2"
_cell_formula_units_Z 32
_cell_length_a 9.329410
_cell_length_b 13.163503
_cell_length_c 13.881478
_cell_angle_alpha 90.000000
_cell_angle_beta 113.836520
_cell_angle_gamma 90.000000
_cell_volume 1559.341078
_symmetry_space_group_name_H-M "P 21/M"
_symmetry_group_IT_number 11
_symmetry_cell_setting 'monoclinic'
loop_
_space_group_symop_operation_xyz
x,y,z
-x,1/2+y,-z
-x,-y,-z
x,1/2-y,z
loop_
_atom_site_type_symbol
_atom_site_label
_atom_site_fract_x
_atom_site_fract_y
_atom_site_fract_z
Si Si1 0.471362 0.636309 0.466546
Si Si2 0.073429 0.367452 0.926042
Si Si3 0.023037 0.062019 0.396257
Si Si4 0.849953 0.864167 0.272400
Si Si5 0.226564 0.001207 0.129520
Si Si6 0.538379 0.938943 0.276960
Si Si7 0.246662 0.571115 0.558209
Si Si8 0.262605 0.134202 0.326468
O O1 0.531578 0.750000 0.485231
O O2 0.460329 0.607105 0.352529
O O3 0.304524 0.628661 0.477709
O O4 0.606775 0.578619 0.567098
O O5 0.064059 0.250000 0.956689
O O6 0.150330 0.377834 0.842572
O O7 0.898864 0.413486 0.882747
O O8 0.184618 0.431757 0.026219
O O9 0.090850 0.129958 0.328954
O O10 0.888714 0.127830 0.415522
O O11 0.166251 0.037399 0.508209
O O12 0.961129 0.951388 0.344879
O O13 0.911574 0.750000 0.315056
O O14 0.672075 0.871749 0.263237
O O15 0.248282 0.074295 0.225362
O O16 0.398268 0.950907 0.161328
O O17 0.610360 0.047766 0.329865
O O18 0.307492 0.250000 0.315103
#
# Coordination Sequence:
#
# PCOD8073877 Si02
#       8
#     4   4   4   4   4   4   4   4
#     4  11  22  34  54  87 123 156 200 244 287 346
#     4  10  23  42  64  90 116 149 199 252 306 363
#     4  10  20  36  56  82 119 164 198 238 296 343
#     4  10  22  39  60  87 120 155 199 249 300 351
#     4  11  22  40  66  88 117 155 195 252 305 357
#     4  11  21  37  59  84 120 155 200 241 299 354
#     4  10  20  35  53  79 119 158 200 239 284 350
#     4  11  21  36  58  87 122 160 199 238 293 352
#
# _framework density 20.521488999999999
#
# number of rings (size 3 to 8) (size 9 to 14) (size 15 to 20)
#    0.000    1.500    3.750    1.875    0.000    2.500 
#    0.000    0.000    0.000    0.000    0.000    0.000 
#    0.000    0.000    0.000    0.000    0.000    0.000 
#
# Total GULP energy -396486.485446 kJ/mol
# GULP energy per Si atom -12390.202670 kJ/mol
# Density = 2.047478 g / cm^3
# Si number density = 20.521489 Si / 1000 Ang^3
#
#
#
# Elastic Constant Matrix: (Units=GPa)
#
#
# Indices 1 2 3 4 5 6 
#
# 1 98.9637 16.2383 26.3337 0.0000 -4.0558 0.0000
# 2 16.2383 58.9325 22.2440 0.0000 -0.6455 0.0000
# 3 26.3337 22.2440 87.2282 0.0000 9.4471 0.0000
# 4 0.0000 0.0000 0.0000 7.5686 0.0000 14.0918
# 5 -4.0558 -0.6455 9.4471 0.0000 33.5721 0.0000
# 6 0.0000 0.0000 0.0000 14.0918 0.0000 8.9799
#
#
#
# Elastic Compliance Matrix: (Units=1/GPa)
#
#
# Indices 1 2 3 4 5 6 
#
# 1 0.011356 -0.001902 -0.003185 0.000000 0.002231 0.000000
# 2 -0.001902 0.019196 -0.004472 0.000000 0.001398 0.000000
# 3 -0.003185 -0.004472 0.014045 0.000000 -0.004423 0.000000
# 4 0.000000 0.000000 0.000000 -0.068751 0.000000 0.107889
# 5 0.002231 0.001398 -0.004423 0.000000 0.031328 0.000000
# 6 0.000000 0.000000 0.000000 0.107889 0.000000 -0.057946
#
#
# Mechanical properties :
#
#
# Convention : Reuss Voigt Hill
#
# Bulk Modulus (GPa) = 39.24937 41.63961 40.44449
# Shear Modulus (GPa) = -215.87974 22.04467 -96.91754
#
# Velocity S-wave (km/s) = -10.26768 3.28109 -6.87967
# Velocity P-wave (km/s) = 11.01815 5.88973 6.58448
#
# Compressibility (1/GPa) = 0.02547811
#
# Stress axis : x y z
#
# Youngs Moduli (GPa) = 88.06082 52.09385 71.19902
#
# Poissons Ratio (x) = 0.09911 0.22675
# Poissons Ratio (y) = 0.16753 0.31842
# Poissons Ratio (z) = 0.28045 0.23298
#
# Static dielectric constant tensor:
#      x y z
#    x 4.110710 0.000000 0.040390 
#    y 0.000000 3.565890 0.000000 
#    z 0.040390 0.000000 3.673650 
# 
# 
# High freq. dielectric constant tensor:
#      x y z
#    x 1.822240 0.000000 -0.001960 
#    y 0.000000 1.786650 0.000000 
#    z -0.001960 0.000000 1.785900 
# 
# From -- ./inp_files/47661.got.cif
#   From: 2010.06.25/outbox.cif.g09.slc.cpg/sg11_24_cif.got.tgz:47661.got - 2010.06.27 23:14:04.
