data_PCOD8073868
_publ_section_title
;
Structure prediction by ZEFSAII (Michael W. Deem and Ramdas Pophale) SiO2 
 PCOD8073868
Probable space group: P 21/M
;
_chemical_formula_sum "Si O2"
_cell_formula_units_Z 32
_cell_length_a 23.565994
_cell_length_b 8.563512
_cell_length_c 15.820282
_cell_angle_alpha 90.000000
_cell_angle_beta 148.242311
_cell_angle_gamma 90.000000
_cell_volume 1680.383457
_symmetry_space_group_name_H-M "P 21/M"
_symmetry_group_IT_number 11
_symmetry_cell_setting 'monoclinic'
loop_
_space_group_symop_operation_xyz
x,y,z
-x,1/2+y,-z
-x,-y,-z
x,1/2-y,z
loop_
_atom_site_type_symbol
_atom_site_label
_atom_site_fract_x
_atom_site_fract_y
_atom_site_fract_z
Si Si1 0.902980 0.931706 0.632334
Si Si2 0.892553 0.565869 0.322948
Si Si3 0.695943 0.935609 0.469185
Si Si4 0.862506 0.069681 0.102961
Si Si5 0.647430 0.566848 0.755353
Si Si6 0.213733 0.930686 0.661796
Si Si7 0.410592 0.073293 0.829760
Si Si8 0.571696 0.934274 0.474192
O O1 0.880289 0.750000 0.583251
O O2 0.818741 0.989380 0.599323
O O3 0.029050 0.955691 0.817305
O O4 0.889174 0.033705 0.528779
O O5 0.887914 0.750000 0.331867
O O6 0.874383 0.530532 0.202377
O O7 0.800672 0.475387 0.258818
O O8 0.000000 0.500000 0.500000
O O9 0.695034 0.750000 0.469477
O O10 0.610037 0.998625 0.290138
O O11 0.653976 0.999131 0.506348
O O12 0.850762 0.250000 0.113204
O O13 0.757822 0.017398 0.919357
O O14 0.663177 0.750000 0.786742
O O15 0.546485 0.512020 0.685052
O O16 0.624384 0.518274 0.629688
O O17 0.248377 0.750000 0.697893
O O18 0.300651 0.053004 0.739819
O O19 0.443975 0.250000 0.860683
O O20 0.500000 0.000000 0.000000
O O21 0.555243 0.750000 0.445611
#
# Coordination Sequence:
#
# PCOD8073868 Si02
#       8
#     4   4   4   4   4   4   4   4
#     4   9  18  34  55  78 107 142 182 226 272 328
#     4  12  23  36  54  79 110 145 186 229 272 323
#     4   8  16  33  58  81 101 138 185 228 276 331
#     4  11  22  36  56  81 113 149 186 228 279 339
#     4  10  21  36  56  83 113 144 180 233 290 337
#     4  11  21  34  53  76 106 146 186 225 273 329
#     4  10  20  35  53  76 109 145 185 234 282 332
#     4   9  18  37  62  82 106 142 188 234 284 344
#
# _framework density 19.043274
#
# number of rings (size 3 to 8) (size 9 to 14) (size 15 to 20)
#    0.000    2.000    1.250    4.125    0.000    2.000 
#    0.000    7.500    0.000    0.000    0.000    0.000 
#    0.000    0.000    0.000    0.000    0.000    0.000 
#
# Total GULP energy -396518.298907 kJ/mol
# GULP energy per Si atom -12391.196841 kJ/mol
# Density = 1.899993 g / cm^3
# Si number density = 19.043274 Si / 1000 Ang^3
#
#
#
# Elastic Constant Matrix: (Units=GPa)
#
#
# Indices 1 2 3 4 5 6 
#
# 1 135.9952 20.2199 50.0023 0.0000 1.0758 0.0000
# 2 20.2199 55.0286 20.8964 0.0000 3.7830 0.0000
# 3 50.0023 20.8964 110.2598 0.0000 12.1644 0.0000
# 4 0.0000 0.0000 0.0000 31.3207 0.0000 1.4433
# 5 1.0758 3.7830 12.1644 0.0000 18.5059 0.0000
# 6 0.0000 0.0000 0.0000 1.4433 0.0000 22.6673
#
#
#
# Elastic Compliance Matrix: (Units=1/GPa)
#
#
# Indices 1 2 3 4 5 6 
#
# 1 0.009112 -0.001990 -0.004034 0.000000 0.002529 0.000000
# 2 -0.001990 0.020065 -0.002653 0.000000 -0.002242 0.000000
# 3 -0.004034 -0.002653 0.012201 0.000000 -0.007243 0.000000
# 4 0.000000 0.000000 0.000000 0.032022 0.000000 -0.002039
# 5 0.002529 -0.002242 -0.007243 0.000000 0.059109 0.000000
# 6 0.000000 0.000000 0.000000 -0.002039 0.000000 0.044246
#
#
# Mechanical properties :
#
#
# Convention : Reuss Voigt Hill
#
# Bulk Modulus (GPa) = 41.62523 53.72454 47.67488
# Shear Modulus (GPa) = 24.73801 28.50979 26.62390
#
# Velocity S-wave (km/s) = 3.60813 3.87344 3.74314
# Velocity P-wave (km/s) = 6.26609 6.94822 6.61595
#
# Compressibility (1/GPa) = 0.02402389
#
# Stress axis : x y z
#
# Youngs Moduli (GPa) = 109.74054 49.83764 81.96152
#
# Poissons Ratio (x) = 0.09919 0.33065
# Poissons Ratio (y) = 0.21841 0.21743
# Poissons Ratio (z) = 0.44272 0.13221
#
# Static dielectric constant tensor:
#      x y z
#    x 3.829510 0.000000 -0.007380 
#    y 0.000000 3.469240 0.000000 
#    z -0.007380 0.000000 3.416490 
# 
# 
# High freq. dielectric constant tensor:
#      x y z
#    x 1.743000 0.000000 0.012770 
#    y 0.000000 1.733260 0.000000 
#    z 0.012770 0.000000 1.727610 
# 
# From -- ./inp_files/55686.got.cif
#   From: 2010.06.25/outbox.cif.g09.slc.cpg/sg11_28_cif.got.tgz:55686.got - 2010.06.27 23:14:04.
