data_PCOD8073363
_publ_section_title
;
Structure prediction by ZEFSAII (Michael W. Deem and Ramdas Pophale) SiO2 
 PCOD8073363
Probable space group: P 21/M
;
_chemical_formula_sum "Si O2"
_cell_formula_units_Z 32
_cell_length_a 25.804786
_cell_length_b 8.737633
_cell_length_c 15.989392
_cell_angle_alpha 90.000000
_cell_angle_beta 150.983528
_cell_angle_gamma 90.000000
_cell_volume 1748.728586
_symmetry_space_group_name_H-M "P 21/M"
_symmetry_group_IT_number 11
_symmetry_cell_setting 'monoclinic'
loop_
_space_group_symop_operation_xyz
x,y,z
-x,1/2+y,-z
-x,-y,-z
x,1/2-y,z
loop_
_atom_site_type_symbol
_atom_site_label
_atom_site_fract_x
_atom_site_fract_y
_atom_site_fract_z
Si Si1 0.962007 0.569684 0.860174
Si Si2 0.442909 0.069091 0.339801
Si Si3 0.700901 0.071348 0.098183
Si Si4 0.791149 0.430302 0.396941
Si Si5 0.026270 0.069469 0.783012
Si Si6 0.771911 0.068096 0.019922
Si Si7 0.523844 0.570348 0.287494
Si Si8 0.727282 0.571065 0.472572
O O1 0.982152 0.750000 0.886884
O O2 0.837641 0.527806 0.673787
O O3 0.031022 0.492112 0.884280
O O4 0.000000 0.500000 0.000000
O O5 0.438076 0.250000 0.340449
O O6 0.500000 0.000000 0.500000
O O7 0.322878 0.004116 0.168284
O O8 0.510684 0.021947 0.354329
O O9 0.722342 0.250000 0.134046
O O10 0.749338 0.996079 0.250726
O O11 0.760904 0.008993 0.100169
O O12 0.574950 0.035342 0.913905
O O13 0.777265 0.250000 0.378073
O O14 0.719285 0.494322 0.370627
O O15 0.914207 0.477574 0.582865
O O16 0.045449 0.250000 0.810341
O O17 0.115314 0.986731 0.854493
O O18 0.761560 0.250000 0.999933
O O19 0.528911 0.750000 0.316615
O O20 0.630979 0.510551 0.394177
O O21 0.716262 0.750000 0.442651
#
# Coordination Sequence:
#
# PCOD8073363 Si02
#       8
#     4   4   4   4   4   4   4   4
#     4  10  20  35  53  74 102 135 174 217 263 313
#     4  11  22  37  56  79 107 137 173 214 258 309
#     4   8  16  32  53  75 102 137 173 212 260 310
#     4   9  18  33  52  75 105 139 174 213 257 308
#     4  10  20  34  52  76 106 138 174 215 260 311
#     4  10  20  36  56  77 104 138 175 215 262 310
#     4   9  18  35  55  75 104 139 174 214 262 309
#     4   9  19  34  52  75 103 135 170 212 259 308
#
# _framework density 18.299008000000001
#
# number of rings (size 3 to 8) (size 9 to 14) (size 15 to 20)
#    0.000    2.500    0.000    3.000    0.000    3.500 
#    0.000    6.875    0.000    0.000    0.000    0.000 
#    0.000    0.000    0.000    0.000    0.000    0.000 
#
# Total GULP energy -396824.932842 kJ/mol
# GULP energy per Si atom -12400.779151 kJ/mol
# Density = 1.825736 g / cm^3
# Si number density = 18.299008 Si / 1000 Ang^3
#
#
#
# Elastic Constant Matrix: (Units=GPa)
#
#
# Indices 1 2 3 4 5 6 
#
# 1 122.0060 41.3571 74.4861 0.0000 4.9718 0.0000
# 2 41.3571 70.7605 38.4010 0.0000 -2.8051 0.0000
# 3 74.4861 38.4010 102.7619 0.0000 -16.2005 0.0000
# 4 0.0000 0.0000 0.0000 23.0353 0.0000 1.0916
# 5 4.9718 -2.8051 -16.2005 0.0000 40.9654 0.0000
# 6 0.0000 0.0000 0.0000 1.0916 0.0000 32.6913
#
#
#
# Elastic Compliance Matrix: (Units=1/GPa)
#
#
# Indices 1 2 3 4 5 6 
#
# 1 0.017203 -0.003711 -0.012213 0.000000 -0.007172 0.000000
# 2 -0.003711 0.018614 -0.004260 0.000000 0.000040 0.000000
# 3 -0.012213 -0.004260 0.021718 0.000000 0.009779 0.000000
# 4 0.000000 0.000000 0.000000 0.043480 0.000000 -0.001452
# 5 -0.007172 0.000040 0.009779 0.000000 0.029151 0.000000
# 6 0.000000 0.000000 0.000000 -0.001452 0.000000 0.030638
#
#
# Mechanical properties :
#
#
# Convention : Reuss Voigt Hill
#
# Bulk Modulus (GPa) = 58.25212 67.11299 62.68256
# Shear Modulus (GPa) = 24.16693 28.75736 26.46215
#
# Velocity S-wave (km/s) = 3.63804 3.96855 3.80688
# Velocity P-wave (km/s) = 7.03916 7.59964 7.32476
#
# Compressibility (1/GPa) = 0.01716676
#
# Stress axis : x y z
#
# Youngs Moduli (GPa) = 58.13011 53.72186 46.04574
#
# Poissons Ratio (x) = 0.19935 0.56237
# Poissons Ratio (y) = 0.21570 0.19615
# Poissons Ratio (z) = 0.70996 0.22885
#
# Static dielectric constant tensor:
#      x y z
#    x 3.578340 0.000000 -0.061520 
#    y 0.000000 3.281920 0.000000 
#    z -0.061520 0.000000 3.529640 
# 
# 
# High freq. dielectric constant tensor:
#      x y z
#    x 1.716590 0.000000 -0.002000 
#    y 0.000000 1.701960 0.000000 
#    z -0.002000 0.000000 1.710750 
# 
# From -- ./inp_files/51758.got.cif
#   From: 2010.06.25/outbox.cif.g09.slc.cpg/sg11_26_cif.got.tgz:51758.got - 2010.06.27 23:14:04.
