data_PCOD8073386
_publ_section_title
;
Structure prediction by ZEFSAII (Michael W. Deem and Ramdas Pophale) SiO2 
 PCOD8073386
Probable space group: P 21/M
;
_chemical_formula_sum "Si O2"
_cell_formula_units_Z 32
_cell_length_a 24.530157
_cell_length_b 9.100024
_cell_length_c 24.502924
_cell_angle_alpha 90.000000
_cell_angle_beta 18.053031
_cell_angle_gamma 90.000000
_cell_volume 1695.033667
_symmetry_space_group_name_H-M "P 21/M"
_symmetry_group_IT_number 11
_symmetry_cell_setting 'monoclinic'
loop_
_space_group_symop_operation_xyz
x,y,z
-x,1/2+y,-z
-x,-y,-z
x,1/2-y,z
loop_
_atom_site_type_symbol
_atom_site_label
_atom_site_fract_x
_atom_site_fract_y
_atom_site_fract_z
Si Si1 0.122243 0.924800 0.137860
Si Si2 0.103535 0.917294 0.448107
Si Si3 0.512522 0.081412 0.159230
Si Si4 0.445832 0.083652 0.105203
Si Si5 0.330440 0.922610 0.726309
Si Si6 0.275832 0.422472 0.667426
Si Si7 0.066250 0.575903 0.069195
Si Si8 0.854406 0.419201 0.472312
O O1 0.104496 0.750000 0.159565
O O2 0.096230 0.984962 0.101332
O O3 0.316765 0.976341 0.970971
O O4 0.968648 0.994854 0.319800
O O5 0.129015 0.750000 0.404174
O O6 0.033773 0.925806 0.576729
O O7 0.281197 0.002675 0.286036
O O8 0.000000 0.000000 0.500000
O O9 0.467432 0.250000 0.217390
O O10 0.572035 0.074878 0.038031
O O11 0.342333 0.985866 0.337102
O O12 0.404907 0.250000 0.126493
O O13 0.500000 0.000000 0.000000
O O14 0.303857 0.750000 0.743590
O O15 0.536046 0.962794 0.538528
O O16 0.251048 0.999389 0.748776
O O17 0.223426 0.981202 0.880589
O O18 0.259284 0.250000 0.693852
O O19 0.122840 0.479274 0.772797
O O20 0.070216 0.750000 0.067305
O O21 0.832525 0.250000 0.475651
#
# Coordination Sequence:
#
# PCOD8073386 Si02
#       8
#     4   4   4   4   4   4   4   4
#     4  10  21  37  59  83 107 144 189 232 275 323
#     4  10  21  36  54  79 106 137 173 217 272 332
#     4   9  20  38  58  80 106 141 184 226 269 323
#     4  10  20  34  52  79 108 138 173 217 271 328
#     4   9  17  30  49  74 105 139 174 215 260 312
#     4   9  17  30  50  76 105 138 173 214 264 314
#     4   9  18  32  51  77 104 134 178 222 263 312
#     4  10  22  39  57  80 110 144 179 222 278 332
#
# _framework density 18.878682000000001
#
# number of rings (size 3 to 8) (size 9 to 14) (size 15 to 20)
#    0.000    2.500    0.000    1.500    1.750    3.500 
#    0.000    5.000    0.000    3.000    0.000    0.000 
#    0.000    0.000    0.000    0.000    0.000    0.000 
#
# Total GULP energy -396533.315667 kJ/mol
# GULP energy per Si atom -12391.666115 kJ/mol
# Density = 1.883571 g / cm^3
# Si number density = 18.878682 Si / 1000 Ang^3
#
#
#
# Elastic Constant Matrix: (Units=GPa)
#
#
# Indices 1 2 3 4 5 6 
#
# 1 159.2977 47.1982 84.9829 0.0000 0.3813 0.0000
# 2 47.1982 78.1886 41.0650 0.0000 3.3955 0.0000
# 3 84.9829 41.0650 121.3676 0.0000 4.2364 0.0000
# 4 0.0000 0.0000 0.0000 25.7129 0.0000 3.5284
# 5 0.3813 3.3955 4.2364 0.0000 29.6353 0.0000
# 6 0.0000 0.0000 0.0000 3.5284 0.0000 25.0809
#
#
#
# Elastic Compliance Matrix: (Units=1/GPa)
#
#
# Indices 1 2 3 4 5 6 
#
# 1 0.010620 -0.003081 -0.006433 0.000000 0.001136 0.000000
# 2 -0.003081 0.016479 -0.003371 0.000000 -0.001367 0.000000
# 3 -0.006433 -0.003371 0.013938 0.000000 -0.001523 0.000000
# 4 0.000000 0.000000 0.000000 0.039657 0.000000 -0.005579
# 5 0.001136 -0.001367 -0.001523 0.000000 0.034103 0.000000
# 6 0.000000 0.000000 0.000000 -0.005579 0.000000 0.040656
#
#
# Mechanical properties :
#
#
# Convention : Reuss Voigt Hill
#
# Bulk Modulus (GPa) = 65.50232 78.37179 71.93705
# Shear Modulus (GPa) = 26.83685 28.45968 27.64827
#
# Velocity S-wave (km/s) = 3.77443 3.88687 3.83106
# Velocity P-wave (km/s) = 7.33259 7.85794 7.59980
#
# Compressibility (1/GPa) = 0.01526664
#
# Stress axis : x y z
#
# Youngs Moduli (GPa) = 94.16397 60.68287 71.74811
#
# Poissons Ratio (x) = 0.18697 0.46157
# Poissons Ratio (y) = 0.29013 0.24183
# Poissons Ratio (z) = 0.60578 0.20454
#
# Static dielectric constant tensor:
#      x y z
#    x 4.057730 0.000000 -0.025950 
#    y 0.000000 3.368740 0.000000 
#    z -0.025950 0.000000 3.292830 
# 
# 
# High freq. dielectric constant tensor:
#      x y z
#    x 1.739040 0.000000 0.000180 
#    y 0.000000 1.721300 0.000000 
#    z 0.000180 0.000000 1.730000 
# 
# From -- ./inp_files/69967.got.cif
#   From: 2010.06.25/outbox.cif.g09.slc.cpg/sg11_35_cif.got.tgz:69967.got - 2010.06.27 23:14:04.
