data_PCOD8073860
_publ_section_title
;
Structure prediction by ZEFSAII (Michael W. Deem and Ramdas Pophale) SiO2 
 PCOD8073860
Probable space group: P 21/M
;
_chemical_formula_sum "Si O2"
_cell_formula_units_Z 32
_cell_length_a 25.883417
_cell_length_b 8.738557
_cell_length_c 20.470823
_cell_angle_alpha 90.000000
_cell_angle_beta 20.298205
_cell_angle_gamma 90.000000
_cell_volume 1606.233885
_symmetry_space_group_name_H-M "P 21/M"
_symmetry_group_IT_number 11
_symmetry_cell_setting 'monoclinic'
loop_
_space_group_symop_operation_xyz
x,y,z
-x,1/2+y,-z
-x,-y,-z
x,1/2-y,z
loop_
_atom_site_type_symbol
_atom_site_label
_atom_site_fract_x
_atom_site_fract_y
_atom_site_fract_z
Si Si1 0.091575 0.069064 0.832589
Si Si2 0.856140 0.574767 0.749387
Si Si3 0.390833 0.926581 0.180621
Si Si4 0.838889 0.921890 0.625601
Si Si5 0.278002 0.430132 0.955025
Si Si6 0.980031 0.425360 0.823779
Si Si7 0.691349 0.926080 0.593911
Si Si8 0.389652 0.929260 0.442395
O O1 0.091707 0.250000 0.836556
O O2 0.014365 0.014149 0.856498
O O3 0.263332 0.014289 0.634698
O O4 0.000000 0.000000 0.000000
O O5 0.911893 0.750000 0.694289
O O6 0.771527 0.566566 0.779560
O O7 0.986581 0.452476 0.585354
O O8 0.756766 0.519321 0.928764
O O9 0.425251 0.750000 0.153321
O O10 0.229220 0.949774 0.340713
O O11 0.403421 0.022491 0.231807
O O12 0.500000 0.000000 0.000000
O O13 0.807222 0.750000 0.636643
O O14 0.279409 0.250000 0.950074
O O15 0.443060 0.489726 0.738876
O O16 0.154940 0.485682 0.049662
O O17 0.930828 0.250000 0.884600
O O18 0.131675 0.447518 0.602317
O O19 0.658095 0.750000 0.614538
O O20 0.639092 0.037415 0.599033
O O21 0.375267 0.750000 0.472941
#
# Coordination Sequence:
#
# PCOD8073860 Si02
#       8
#     4   4   4   4   4   4   4   4
#     4  10  21  40  65  92 121 155 195 237 282 342
#     4   9  19  35  54  75 106 146 186 235 287 342
#     4  12  25  38  53  75 105 143 189 243 300 354
#     4  10  20  35  53  75 104 140 188 241 292 349
#     4  10  21  35  55  84 116 151 194 237 282 338
#     4   9  20  37  59  87 118 149 187 234 283 337
#     4  10  21  39  59  83 112 149 196 246 294 351
#     4  10  21  37  59  89 122 157 194 237 287 343
#
# _framework density 19.92238
#
# number of rings (size 3 to 8) (size 9 to 14) (size 15 to 20)
#    0.000    2.000    0.000    4.125    1.750    7.000 
#    0.000    0.625    0.000    0.000    0.000    0.000 
#    0.000    0.000    0.000    0.000    0.000    0.000 
#
# Total GULP energy -396646.923588 kJ/mol
# GULP energy per Si atom -12395.216362 kJ/mol
# Density = 1.987704 g / cm^3
# Si number density = 19.922380 Si / 1000 Ang^3
#
#
#
# Elastic Constant Matrix: (Units=GPa)
#
#
# Indices 1 2 3 4 5 6 
#
# 1 48.1677 18.2611 37.5775 0.0000 11.3443 0.0000
# 2 18.2611 55.6546 32.5496 0.0000 5.6516 0.0000
# 3 37.5775 32.5496 118.5220 0.0000 15.4622 0.0000
# 4 0.0000 0.0000 0.0000 31.6358 0.0000 -1.3112
# 5 11.3443 5.6516 15.4622 0.0000 36.0701 0.0000
# 6 0.0000 0.0000 0.0000 -1.3112 0.0000 33.2139
#
#
#
# Elastic Compliance Matrix: (Units=1/GPa)
#
#
# Indices 1 2 3 4 5 6 
#
# 1 0.029610 -0.004871 -0.007346 0.000000 -0.005400 0.000000
# 2 -0.004871 0.022234 -0.004562 0.000000 0.000004 0.000000
# 3 -0.007346 -0.004562 0.012313 0.000000 -0.002253 0.000000
# 4 0.000000 0.000000 0.000000 0.031662 0.000000 0.001250
# 5 -0.005400 0.000004 -0.002253 0.000000 0.030387 0.000000
# 6 0.000000 0.000000 0.000000 0.001250 0.000000 0.030157
#
#
# Mechanical properties :
#
#
# Convention : Reuss Voigt Hill
#
# Bulk Modulus (GPa) = 32.68042 44.34673 38.51358
# Shear Modulus (GPa) = 24.98490 29.11439 27.04964
#
# Velocity S-wave (km/s) = 3.54519 3.82696 3.68877
# Velocity P-wave (km/s) = 5.76171 6.46804 6.12507
#
# Compressibility (1/GPa) = 0.03059936
#
# Stress axis : x y z
#
# Youngs Moduli (GPa) = 33.77241 44.97604 81.21454
#
# Poissons Ratio (x) = 0.21908 0.59657
# Poissons Ratio (y) = 0.16450 0.37052
# Poissons Ratio (z) = 0.24808 0.20519
#
# Static dielectric constant tensor:
#      x y z
#    x 3.694060 0.000000 -0.003830 
#    y 0.000000 3.745770 0.000000 
#    z -0.003830 0.000000 3.555370 
# 
# 
# High freq. dielectric constant tensor:
#      x y z
#    x 1.765010 0.000000 -0.001260 
#    y 0.000000 1.777360 0.000000 
#    z -0.001260 0.000000 1.775890 
# 
# From -- ./inp_files/67121.got.cif
#   From: 2010.06.25/outbox.cif.g09.slc.cpg/sg11_34_cif.got.tgz:67121.got - 2010.06.27 23:14:04.
