data_PCOD8073068
_publ_section_title
;
Structure prediction by ZEFSAII (Michael W. Deem and Ramdas Pophale) SiO2 
 PCOD8073068
Probable space group: P 21/M
;
_chemical_formula_sum "Si O2"
_cell_formula_units_Z 32
_cell_length_a 22.138840
_cell_length_b 9.145812
_cell_length_c 27.520772
_cell_angle_alpha 90.000000
_cell_angle_beta 18.164964
_cell_angle_gamma 90.000000
_cell_volume 1737.199598
_symmetry_space_group_name_H-M "P 21/M"
_symmetry_group_IT_number 11
_symmetry_cell_setting 'monoclinic'
loop_
_space_group_symop_operation_xyz
x,y,z
-x,1/2+y,-z
-x,-y,-z
x,1/2-y,z
loop_
_atom_site_type_symbol
_atom_site_label
_atom_site_fract_x
_atom_site_fract_y
_atom_site_fract_z
Si Si1 0.381372 0.075803 0.633184
Si Si2 0.945911 0.578659 0.675255
Si Si3 0.059204 0.923342 0.042405
Si Si4 0.664918 0.916104 0.606188
Si Si5 0.679675 0.583222 0.969199
Si Si6 0.404704 0.919747 0.712798
Si Si7 0.704597 0.080881 0.048708
Si Si8 0.641984 0.420098 0.855029
O O1 0.402927 0.250000 0.613212
O O2 0.158692 0.023336 0.799234
O O3 0.500000 0.000000 0.500000
O O4 0.461230 0.018373 0.623492
O O5 0.938078 0.750000 0.670715
O O6 0.852687 0.495887 0.699505
O O7 0.164869 0.529915 0.515330
O O8 0.824551 0.534528 0.815665
O O9 0.077051 0.750000 0.030742
O O10 0.198940 0.976284 0.891797
O O11 0.138191 0.985173 0.033500
O O12 0.742267 0.750000 0.550443
O O13 0.571868 0.943356 0.624648
O O14 0.509084 0.946512 0.767202
O O15 0.717659 0.750000 0.953801
O O16 0.730936 0.491456 0.976845
O O17 0.454733 0.560553 0.124457
O O18 0.392509 0.750000 0.706528
O O19 0.745865 0.250000 0.009399
O O20 0.656939 0.250000 0.857326
O O21 0.500000 0.500000 0.000000
#
# Coordination Sequence:
#
# PCOD8073068 Si02
#       8
#     4   4   4   4   4   4   4   4
#     4  11  22  35  52  77 108 137 168 209 255 301
#     4  10  20  33  51  76 104 134 172 214 254 302
#     4   8  17  35  56  75  98 132 172 210 249 300
#     4   9  19  35  54  76 102 132 167 209 256 305
#     4   9  19  33  49  74 104 131 163 208 255 298
#     4   9  18  36  58  76  98 131 171 212 254 302
#     4   9  18  34  55  76  98 130 172 210 248 302
#     4   9  17  31  50  72 101 135 172 212 256 306
#
# _framework density 18.420452000000001
#
# number of rings (size 3 to 8) (size 9 to 14) (size 15 to 20)
#    0.000    2.750    0.000    3.750    0.000    5.000 
#    0.000    8.125    0.000    0.000    0.000    0.000 
#    0.000    0.000    0.000    0.000    0.000    0.000 
#
# Total GULP energy -396689.337172 kJ/mol
# GULP energy per Si atom -12396.541787 kJ/mol
# Density = 1.837853 g / cm^3
# Si number density = 18.420452 Si / 1000 Ang^3
#
#
#
# Elastic Constant Matrix: (Units=GPa)
#
#
# Indices 1 2 3 4 5 6 
#
# 1 34.1413 7.6013 -8.6353 0.0000 0.7285 0.0000
# 2 7.6013 53.3098 8.4441 0.0000 -3.1681 0.0000
# 3 -8.6353 8.4441 35.8798 0.0000 -10.6295 0.0000
# 4 0.0000 0.0000 0.0000 29.2927 0.0000 -0.7658
# 5 0.7285 -3.1681 -10.6295 0.0000 24.0994 0.0000
# 6 0.0000 0.0000 0.0000 -0.7658 0.0000 32.9041
#
#
#
# Elastic Compliance Matrix: (Units=1/GPa)
#
#
# Indices 1 2 3 4 5 6 
#
# 1 0.033205 -0.006198 0.010251 0.000000 0.002703 0.000000
# 2 -0.006198 0.020649 -0.006317 0.000000 0.000116 0.000000
# 3 0.010251 -0.006317 0.036219 0.000000 0.014835 0.000000
# 4 0.000000 0.000000 0.000000 0.034159 0.000000 0.000795
# 5 0.002703 0.000116 0.014835 0.000000 0.047972 0.000000
# 6 0.000000 0.000000 0.000000 0.000795 0.000000 0.030410
#
#
# Mechanical properties :
#
#
# Convention : Reuss Voigt Hill
#
# Bulk Modulus (GPa) = 11.68962 15.35013 13.51988
# Shear Modulus (GPa) = 21.21723 24.98728 23.10226
#
# Velocity S-wave (km/s) = 3.39754 3.68706 3.54526
# Velocity P-wave (km/s) = 4.66378 5.14560 4.91060
#
# Compressibility (1/GPa) = 0.08554599
#
# Stress axis : x y z
#
# Youngs Moduli (GPa) = 30.11604 48.42738 27.60945
#
# Poissons Ratio (x) = 0.30014 -0.28302
# Poissons Ratio (y) = 0.18665 0.17441
# Poissons Ratio (z) = -0.30871 0.30592
#
# Static dielectric constant tensor:
#      x y z
#    x 3.551830 0.000000 -0.292950 
#    y 0.000000 3.192600 0.000000 
#    z -0.292950 0.000000 3.435320 
# 
# 
# High freq. dielectric constant tensor:
#      x y z
#    x 1.717510 0.000000 -0.014450 
#    y 0.000000 1.705780 0.000000 
#    z -0.014450 0.000000 1.702460 
# 
# From -- ./inp_files/67117.got.cif
#   From: 2010.06.25/outbox.cif.g09.slc.cpg/sg11_34_cif.got.tgz:67117.got - 2010.06.27 23:14:04.
