data_PCOD8073727
_publ_section_title
;
Structure prediction by ZEFSAII (Michael W. Deem and Ramdas Pophale) SiO2 
 PCOD8073727
Probable space group: P 21/M
;
_chemical_formula_sum "Si O2"
_cell_formula_units_Z 32
_cell_length_a 20.700358
_cell_length_b 8.913349
_cell_length_c 26.610307
_cell_angle_alpha 90.000000
_cell_angle_beta 19.701351
_cell_angle_gamma 90.000000
_cell_volume 1655.197783
_symmetry_space_group_name_H-M "P 21/M"
_symmetry_group_IT_number 11
_symmetry_cell_setting 'monoclinic'
loop_
_space_group_symop_operation_xyz
x,y,z
-x,1/2+y,-z
-x,-y,-z
x,1/2-y,z
loop_
_atom_site_type_symbol
_atom_site_label
_atom_site_fract_x
_atom_site_fract_y
_atom_site_fract_z
Si Si1 0.731148 0.924003 0.998996
Si Si2 0.206341 0.927013 0.845379
Si Si3 0.437649 0.574325 0.969571
Si Si4 0.206339 0.425049 0.226131
Si Si5 0.513814 0.573773 0.436048
Si Si6 0.131473 0.922128 0.655960
Si Si7 0.408225 0.574782 0.801592
Si Si8 0.159575 0.074303 0.530437
O O1 0.679176 0.750000 0.033906
O O2 0.583814 0.012850 0.070947
O O3 0.708326 0.981038 0.072269
O O4 0.949224 0.956328 0.824145
O O5 0.187280 0.750000 0.851352
O O6 0.326335 0.966853 0.807172
O O7 0.310600 0.998369 0.721412
O O8 0.000000 0.000000 0.000000
O O9 0.395371 0.750000 0.002257
O O10 0.652984 0.537880 0.830603
O O11 0.284626 0.493513 0.117063
O O12 0.185462 0.250000 0.232241
O O13 0.997583 0.494671 0.390307
O O14 0.500000 0.500000 0.500000
O O15 0.552201 0.750000 0.412958
O O16 0.317678 0.537806 0.551317
O O17 0.133172 0.750000 0.636328
O O18 0.123995 0.029174 0.613794
O O19 0.383771 0.750000 0.830975
O O20 0.629929 0.524974 0.641445
O O21 0.132022 0.250000 0.545597
#
# Coordination Sequence:
#
# PCOD8073727 Si02
#       8
#     4   4   4   4   4   4   4   4
#     4  11  23  38  60  90 121 157 200 248 298 351
#     4  11  24  44  65  90 123 161 204 248 301 365
#     4  10  20  35  56  85 121 158 195 243 298 352
#     4  10  20  34  56  87 121 155 196 244 297 355
#     4  11  24  42  64  93 126 161 200 250 303 356
#     4  10  22  39  60  88 121 154 197 250 299 351
#     4  10  24  43  61  86 121 159 200 245 296 358
#     4  11  21  37  62  89 116 156 202 246 297 352
#
# _framework density 19.333036
#
# number of rings (size 3 to 8) (size 9 to 14) (size 15 to 20)
#    0.000    1.500    2.500    2.250    1.750    4.500 
#    0.000    0.625    0.000    0.000    0.000    0.000 
#    0.000    0.000    0.000    0.000    0.000    0.000 
#
# Total GULP energy -396969.191788 kJ/mol
# GULP energy per Si atom -12405.287243 kJ/mol
# Density = 1.928903 g / cm^3
# Si number density = 19.333036 Si / 1000 Ang^3
#
#
#
# Elastic Constant Matrix: (Units=GPa)
#
#
# Indices 1 2 3 4 5 6 
#
# 1 77.1947 41.0862 51.1067 0.0000 -2.1558 0.0000
# 2 41.0862 91.9571 57.6148 0.0000 -4.0296 0.0000
# 3 51.1067 57.6148 129.2886 0.0000 -4.1362 0.0000
# 4 0.0000 0.0000 0.0000 35.1468 0.0000 0.3356
# 5 -2.1558 -4.0296 -4.1362 0.0000 34.3237 0.0000
# 6 0.0000 0.0000 0.0000 0.3356 0.0000 32.5151
#
#
#
# Elastic Compliance Matrix: (Units=1/GPa)
#
#
# Indices 1 2 3 4 5 6 
#
# 1 0.019255 -0.005321 -0.005242 0.000000 -0.000047 0.000000
# 2 -0.005321 0.016589 -0.005258 0.000000 0.000980 0.000000
# 3 -0.005242 -0.005258 0.012166 0.000000 0.000520 0.000000
# 4 0.000000 0.000000 0.000000 0.028455 0.000000 -0.000294
# 5 -0.000047 0.000980 0.000520 0.000000 0.029309 0.000000
# 6 0.000000 0.000000 0.000000 -0.000294 0.000000 0.030758
#
#
# Mechanical properties :
#
#
# Convention : Reuss Voigt Hill
#
# Bulk Modulus (GPa) = 61.08948 66.45064 63.77006
# Shear Modulus (GPa) = 28.79667 30.30597 29.55132
#
# Velocity S-wave (km/s) = 3.86360 3.96356 3.91390
# Velocity P-wave (km/s) = 7.18125 7.44262 7.31310
#
# Compressibility (1/GPa) = 0.01636943
#
# Stress axis : x y z
#
# Youngs Moduli (GPa) = 51.93357 60.27955 82.19376
#
# Poissons Ratio (x) = 0.32076 0.43084
# Poissons Ratio (y) = 0.27635 0.43217
# Poissons Ratio (z) = 0.27222 0.31695
#
# Static dielectric constant tensor:
#      x y z
#    x 3.586150 0.000000 -0.265070 
#    y 0.000000 -1.844880 0.000000 
#    z -0.265070 0.000000 3.654870 
# 
# 
# High freq. dielectric constant tensor:
#      x y z
#    x 1.751960 0.000000 -0.015650 
#    y 0.000000 1.763710 0.000000 
#    z -0.015650 0.000000 1.756210 
# 
# From -- ./inp_files/72024.got.cif
#   From: 2010.06.25/outbox.cif.g09.slc.cpg/sg11_37_cif.got.tgz:72024.got - 2010.06.27 23:14:04.
