data_PCOD8073786
_publ_section_title
;
Structure prediction by ZEFSAII (Michael W. Deem and Ramdas Pophale) SiO2 
 PCOD8073786
Probable space group: P 21/M
;
_chemical_formula_sum "Si O2"
_cell_formula_units_Z 32
_cell_length_a 12.852784
_cell_length_b 17.295765
_cell_length_c 14.740816
_cell_angle_alpha 90.000000
_cell_angle_beta 149.683603
_cell_angle_gamma 90.000000
_cell_volume 1654.078367
_symmetry_space_group_name_H-M "P 21/M"
_symmetry_group_IT_number 11
_symmetry_cell_setting 'monoclinic'
loop_
_space_group_symop_operation_xyz
x,y,z
-x,1/2+y,-z
-x,-y,-z
x,1/2-y,z
loop_
_atom_site_type_symbol
_atom_site_label
_atom_site_fract_x
_atom_site_fract_y
_atom_site_fract_z
Si Si1 0.228474 0.838087 0.618215
Si Si2 0.862851 0.992637 0.773145
Si Si3 0.302311 0.523824 0.161049
Si Si4 0.440355 0.335196 0.657192
Si Si5 0.638851 0.090706 0.459854
Si Si6 0.900568 0.906173 0.487133
Si Si7 0.317061 0.525653 0.795607
Si Si8 0.350062 0.335035 0.382285
O O1 0.302253 0.750000 0.685996
O O2 0.227110 0.860736 0.510872
O O3 0.380792 0.894849 0.790878
O O4 0.995626 0.849341 0.481441
O O5 0.822771 0.900972 0.755008
O O6 0.754955 0.036547 0.775990
O O7 0.776539 0.026727 0.614935
O O8 0.106910 0.004635 0.956725
O O9 0.387127 0.603521 0.181649
O O10 0.469459 0.456680 0.276021
O O11 0.497088 0.250000 0.737807
O O12 0.210690 0.357595 0.518195
O O13 0.444358 0.335173 0.552529
O O14 0.536187 0.149598 0.452840
O O15 0.091373 0.957403 0.673286
O O16 0.723677 0.959419 0.309379
O O17 0.500000 0.500000 0.000000
O O18 0.254931 0.250000 0.288715
#
# Coordination Sequence:
#
# PCOD8073786 Si02
#       8
#     4   4   4   4   4   4   4   4
#     4  10  21  39  63  88 122 156 195 250 303 354
#     4  10  20  36  60  81 116 156 202 250 293 354
#     4  10  20  36  57  86 111 158 207 246 289 361
#     4  11  20  36  58  85 123 155 191 248 302 359
#     4  11  19  39  59  82 119 154 197 244 299 361
#     4   9  21  40  61  88 115 157 199 239 304 357
#     4   9  20  41  67  87 113 156 206 251 292 361
#     4  10  20  34  58  85 113 153 192 237 305 355
#
# _framework density 19.346121
#
# number of rings (size 3 to 8) (size 9 to 14) (size 15 to 20)
#    0.750    1.250    2.500    2.250    0.000    0.500 
#    9.000    1.250    0.000    1.500    0.000    0.000 
#    0.000    0.000    0.000    0.000    0.000    0.000 
#
# Total GULP energy -396529.438586 kJ/mol
# GULP energy per Si atom -12391.544956 kJ/mol
# Density = 1.930209 g / cm^3
# Si number density = 19.346121 Si / 1000 Ang^3
#
#
#
# Elastic Constant Matrix: (Units=GPa)
#
#
# Indices 1 2 3 4 5 6 
#
# 1 93.5750 53.8704 27.2777 0.0000 7.0314 0.0000
# 2 53.8704 137.3672 48.6400 0.0000 -0.0100 0.0000
# 3 27.2777 48.6400 100.5402 0.0000 -0.5652 0.0000
# 4 0.0000 0.0000 0.0000 14.7319 0.0000 1.5870
# 5 7.0314 -0.0100 -0.5652 0.0000 17.8314 0.0000
# 6 0.0000 0.0000 0.0000 1.5870 0.0000 23.1474
#
#
#
# Elastic Compliance Matrix: (Units=1/GPa)
#
#
# Indices 1 2 3 4 5 6 
#
# 1 0.014530 -0.005178 -0.001470 0.000000 -0.005779 0.000000
# 2 -0.005178 0.010630 -0.003727 0.000000 0.001930 0.000000
# 3 -0.001470 -0.003727 0.012153 0.000000 0.000963 0.000000
# 4 0.000000 0.000000 0.000000 0.068385 0.000000 -0.004689
# 5 -0.005779 0.001930 0.000963 0.000000 0.058391 0.000000
# 6 0.000000 0.000000 0.000000 -0.004689 0.000000 0.043523
#
#
# Mechanical properties :
#
#
# Convention : Reuss Voigt Hill
#
# Bulk Modulus (GPa) = 60.37051 65.67319 63.02185
# Shear Modulus (GPa) = 21.37805 24.58842 22.98324
#
# Velocity S-wave (km/s) = 3.32781 3.56894 3.45048
# Velocity P-wave (km/s) = 6.78520 7.14166 6.96571
#
# Compressibility (1/GPa) = 0.01656438
#
# Stress axis : x y z
#
# Youngs Moduli (GPa) = 68.82119 94.07018 82.28108
#
# Poissons Ratio (x) = 0.48713 0.12091
# Poissons Ratio (y) = 0.35638 0.30666
# Poissons Ratio (z) = 0.10113 0.35060
#
# Static dielectric constant tensor:
#      x y z
#    x 3.520270 0.000000 0.128970 
#    y 0.000000 3.723990 0.000000 
#    z 0.128970 0.000000 3.135110 
# 
# 
# High freq. dielectric constant tensor:
#      x y z
#    x 1.757230 0.000000 0.011490 
#    y 0.000000 1.754860 0.000000 
#    z 0.011490 0.000000 1.713670 
# 
# From -- ./inp_files/50725.got.cif
#   From: 2010.06.25/outbox.cif.g09.slc.cpg/sg11_26_cif.got.tgz:50725.got - 2010.06.27 23:14:04.
