data_PCOD8073665
_publ_section_title
;
Structure prediction by ZEFSAII (Michael W. Deem and Ramdas Pophale) SiO2 
 PCOD8073665
Probable space group: P 21/M
;
_chemical_formula_sum "Si O2"
_cell_formula_units_Z 28
_cell_length_a 9.748078
_cell_length_b 8.719296
_cell_length_c 27.308626
_cell_angle_alpha 90.000000
_cell_angle_beta 38.279468
_cell_angle_gamma 90.000000
_cell_volume 1437.937505
_symmetry_space_group_name_H-M "P 21/M"
_symmetry_group_IT_number 11
_symmetry_cell_setting 'monoclinic'
loop_
_space_group_symop_operation_xyz
x,y,z
-x,1/2+y,-z
-x,-y,-z
x,1/2-y,z
loop_
_atom_site_type_symbol
_atom_site_label
_atom_site_fract_x
_atom_site_fract_y
_atom_site_fract_z
Si Si1 0.813257 0.069584 0.018810
Si Si2 0.546903 0.069136 0.346979
Si Si3 0.740623 0.930162 0.938363
Si Si4 0.602259 0.072918 0.815255
Si Si5 0.014095 0.926532 0.219262
Si Si6 0.314156 0.930666 0.317976
Si Si7 0.886255 0.927458 0.486259
O O1 0.839527 0.250000 0.008857
O O2 0.570632 0.028784 0.106511
O O3 0.856239 0.000814 0.953389
O O4 0.000000 0.000000 0.000000
O O5 0.597084 0.250000 0.331745
O O6 0.372658 0.022350 0.439683
O O7 0.454357 0.021199 0.319417
O O8 0.765046 0.976748 0.300209
O O9 0.716256 0.750000 0.951680
O O10 0.891987 0.967358 0.849811
O O11 0.500000 0.000000 0.000000
O O12 0.528354 0.250000 0.839294
O O13 0.843579 0.049558 0.771404
O O14 0.607373 0.016790 0.757637
O O15 0.021117 0.750000 0.200262
O O16 0.354390 0.750000 0.314653
O O17 0.046576 0.967822 0.395392
O O18 0.886682 0.750000 0.496319
O O19 0.000000 0.000000 0.500000
#
# Coordination Sequence:
#
# PCOD8073665 Si02
#       7
#     4   4   4   4   4   4   4
#     4  12  26  43  64  88 119 155 194 242 292 344
#     4  10  20  34  55  85 117 149 191 240 288 344
#     4  12  24  42  65  89 116 152 196 239 290 348
#     4  10  22  40  60  83 115 151 194 242 293 346
#     4  11  23  39  59  83 115 155 196 238 287 344
#     4   9  18  35  59  84 112 149 192 239 292 346
#     4   8  15  30  53  80 111 147 187 234 287 341
#
# _framework density 19.472334
#
# number of rings (size 3 to 8) (size 9 to 14) (size 15 to 20)
#    0.000    1.714    1.429    3.429    2.000    1.714 
#    0.000    0.714    0.000    0.000    0.000    0.000 
#    0.000    0.000    0.000    0.000    0.000    0.000 
#
# Total GULP energy -347060.958989 kJ/mol
# GULP energy per Si atom -12395.034250 kJ/mol
# Density = 1.942801 g / cm^3
# Si number density = 19.472334 Si / 1000 Ang^3
#
#
#
# Elastic Constant Matrix: (Units=GPa)
#
#
# Indices 1 2 3 4 5 6 
#
# 1 81.7100 31.7875 9.4521 0.0000 -13.8116 0.0000
# 2 31.7875 97.5552 18.7987 0.0000 -7.6257 0.0000
# 3 9.4521 18.7987 65.4326 0.0000 -17.7224 0.0000
# 4 0.0000 0.0000 0.0000 28.9248 0.0000 -3.9726
# 5 -13.8116 -7.6257 -17.7224 0.0000 34.4771 0.0000
# 6 0.0000 0.0000 0.0000 -3.9726 0.0000 27.9914
#
#
#
# Elastic Compliance Matrix: (Units=1/GPa)
#
#
# Indices 1 2 3 4 5 6 
#
# 1 0.014818 -0.004531 0.000578 0.000000 0.005231 0.000000
# 2 -0.004531 0.012262 -0.003050 0.000000 -0.000671 0.000000
# 3 0.000578 -0.003050 0.018536 0.000000 0.009085 0.000000
# 4 0.000000 0.000000 0.000000 0.035260 0.000000 0.005004
# 5 0.005231 -0.000671 0.009085 0.000000 0.035622 0.000000
# 6 0.000000 0.000000 0.000000 0.005004 0.000000 0.036435
#
#
# Mechanical properties :
#
#
# Convention : Reuss Voigt Hill
#
# Bulk Modulus (GPa) = 31.63437 40.53047 36.08242
# Shear Modulus (GPa) = 28.17257 30.58930 29.38093
#
# Velocity S-wave (km/s) = 3.80781 3.96777 3.88861
# Velocity P-wave (km/s) = 5.96771 6.46920 6.22351
#
# Compressibility (1/GPa) = 0.03161119
#
# Stress axis : x y z
#
# Youngs Moduli (GPa) = 67.48342 81.55084 53.94775
#
# Poissons Ratio (x) = 0.36950 -0.03118
# Poissons Ratio (y) = 0.30576 0.16455
# Poissons Ratio (z) = -0.03901 0.24874
#
# Static dielectric constant tensor:
#      x y z
#    x 3.510380 0.000000 0.246230 
#    y 0.000000 3.674050 0.000000 
#    z 0.246230 0.000000 6.483940 
# 
# 
# High freq. dielectric constant tensor:
#      x y z
#    x 1.742530 0.000000 -0.008350 
#    y 0.000000 1.763640 0.000000 
#    z -0.008350 0.000000 1.772730 
# 
# From -- ./inp_files/28311.got.cif
#   From: 2010.06.25/outbox.cif.g09.slc.cpg/sg11_15_cif.got.tgz:28311.got - 2010.06.27 23:14:04.
