data_PCOD8073472
_publ_section_title
;
Structure prediction by ZEFSAII (Michael W. Deem and Ramdas Pophale) SiO2 
 PCOD8073472
Probable space group: P 21/M
;
_chemical_formula_sum "Si O2"
_cell_formula_units_Z 32
_cell_length_a 16.234595
_cell_length_b 8.877221
_cell_length_c 11.437053
_cell_angle_alpha 90.000000
_cell_angle_beta 92.057345
_cell_angle_gamma 90.000000
_cell_volume 1647.223717
_symmetry_space_group_name_H-M "P 21/M"
_symmetry_group_IT_number 11
_symmetry_cell_setting 'monoclinic'
loop_
_space_group_symop_operation_xyz
x,y,z
-x,1/2+y,-z
-x,-y,-z
x,1/2-y,z
loop_
_atom_site_type_symbol
_atom_site_label
_atom_site_fract_x
_atom_site_fract_y
_atom_site_fract_z
Si Si1 0.315999 0.925531 0.664391
Si Si2 0.449152 0.921937 0.846847
Si Si3 0.164840 0.074997 0.770112
Si Si4 0.241951 0.578782 0.430468
Si Si5 0.076275 0.921832 0.562220
Si Si6 0.911016 0.925921 0.984404
Si Si7 0.775107 0.428945 0.827744
Si Si8 0.376512 0.076582 0.062871
O O1 0.290315 0.750000 0.660092
O O2 0.408809 0.949829 0.716747
O O3 0.305334 0.991000 0.531168
O O4 0.254369 0.004898 0.751635
O O5 0.432947 0.750000 0.887509
O O6 0.547182 0.951284 0.843675
O O7 0.407050 0.035118 0.935291
O O8 0.168047 0.250000 0.740610
O O9 0.141822 0.043463 0.902305
O O10 0.095388 0.000480 0.685929
O O11 0.267507 0.750000 0.410797
O O12 0.151026 0.561746 0.476512
O O13 0.244828 0.502232 0.302679
O O14 0.054522 0.750000 0.587574
O O15 0.000000 0.000000 0.500000
O O16 0.922730 0.750000 0.960821
O O17 0.860722 0.999400 0.875149
O O18 0.000000 0.000000 0.000000
O O19 0.786715 0.250000 0.826794
O O20 0.699627 0.472594 0.907090
O O21 0.347604 0.250000 0.061784
#
# Coordination Sequence:
#
# PCOD8073472 Si02
#       8
#     4   4   4   4   4   4   4   4
#     4   9  17  34  58  81 105 139 183 228 273 322
#     4   9  18  33  57  84 111 144 185 229 275 330
#     4  10  21  36  53  77 108 138 174 221 273 327
#     4   8  18  35  54  76 104 141 181 223 271 323
#     4  10  20  35  56  80 105 136 178 227 275 321
#     4  11  25  41  57  80 109 143 183 229 278 331
#     4  11  22  38  58  78 109 150 186 222 273 335
#     4  10  20  34  53  83 117 147 181 227 278 327
#
# _framework density 19.426625000000001
#
# number of rings (size 3 to 8) (size 9 to 14) (size 15 to 20)
#    0.000    2.250    0.000    3.375    1.750    5.000 
#    0.000    6.250    0.000    0.000    0.000    0.000 
#    0.000    0.000    0.000    0.000    0.000    0.000 
#
# Total GULP energy -396734.332406 kJ/mol
# GULP energy per Si atom -12397.947888 kJ/mol
# Density = 1.938241 g / cm^3
# Si number density = 19.426625 Si / 1000 Ang^3
#
#
#
# Elastic Constant Matrix: (Units=GPa)
#
#
# Indices 1 2 3 4 5 6 
#
# 1 95.4927 32.2175 41.3918 0.0000 31.3777 0.0000
# 2 32.2175 80.8028 36.1254 0.0000 7.4517 0.0000
# 3 41.3918 36.1254 94.8768 0.0000 22.5986 0.0000
# 4 0.0000 0.0000 0.0000 25.2776 0.0000 3.6108
# 5 31.3777 7.4517 22.5986 0.0000 34.9911 0.0000
# 6 0.0000 0.0000 0.0000 3.6108 0.0000 28.6783
#
#
#
# Elastic Compliance Matrix: (Units=1/GPa)
#
#
# Indices 1 2 3 4 5 6 
#
# 1 0.017443 -0.004502 -0.002834 0.000000 -0.012852 0.000000
# 2 -0.004502 0.016087 -0.005090 0.000000 0.003899 0.000000
# 3 -0.002834 -0.005090 0.015187 0.000000 -0.006183 0.000000
# 4 0.000000 0.000000 0.000000 0.040285 0.000000 -0.005072
# 5 -0.012852 0.003899 -0.006183 0.000000 0.043267 0.000000
# 6 0.000000 0.000000 0.000000 -0.005072 0.000000 0.035508
#
#
# Mechanical properties :
#
#
# Convention : Reuss Voigt Hill
#
# Bulk Modulus (GPa) = 41.90345 54.51575 48.20960
# Shear Modulus (GPa) = 24.92723 28.55189 26.73956
#
# Velocity S-wave (km/s) = 3.58599 3.83786 3.71406
# Velocity P-wave (km/s) = 6.22597 6.91102 6.57742
#
# Compressibility (1/GPa) = 0.02386439
#
# Stress axis : x y z
#
# Youngs Moduli (GPa) = 57.33111 62.16220 65.84532
#
# Poissons Ratio (x) = 0.27988 0.18661
# Poissons Ratio (y) = 0.25813 0.33513
# Poissons Ratio (z) = 0.16248 0.31639
#
# Static dielectric constant tensor:
#      x y z
#    x 3.501700 0.000000 0.292350 
#    y 0.000000 3.600990 0.000000 
#    z 0.292350 0.000000 3.789190 
# 
# 
# High freq. dielectric constant tensor:
#      x y z
#    x 1.752140 0.000000 0.025420 
#    y 0.000000 1.750900 0.000000 
#    z 0.025420 0.000000 1.756410 
# 
# From -- ./inp_files/38198.got.cif
#   From: 2010.06.25/outbox.cif.g09.slc.cpg/sg11_20_cif.got.tgz:38198.got - 2010.06.27 23:14:04.
