data_PCOD8073935
_publ_section_title
;
Structure prediction by ZEFSAII (Michael W. Deem and Ramdas Pophale) SiO2 
 PCOD8073935
Probable space group: P 21/M
;
_chemical_formula_sum "Si O2"
_cell_formula_units_Z 32
_cell_length_a 11.550074
_cell_length_b 8.639273
_cell_length_c 30.061636
_cell_angle_alpha 90.000000
_cell_angle_beta 145.955611
_cell_angle_gamma 90.000000
_cell_volume 1679.324553
_symmetry_space_group_name_H-M "P 21/M"
_symmetry_group_IT_number 11
_symmetry_cell_setting 'monoclinic'
loop_
_space_group_symop_operation_xyz
x,y,z
-x,1/2+y,-z
-x,-y,-z
x,1/2-y,z
loop_
_atom_site_type_symbol
_atom_site_label
_atom_site_fract_x
_atom_site_fract_y
_atom_site_fract_z
Si Si1 0.377002 0.433321 0.766190
Si Si2 0.733061 0.931960 0.451816
Si Si3 0.223649 0.065478 0.063108
Si Si4 0.421615 0.565921 0.429299
Si Si5 0.798363 0.068927 0.379294
Si Si6 0.679549 0.572849 0.000372
Si Si7 0.253810 0.070083 0.884640
Si Si8 0.036704 0.431335 0.727528
O O1 0.393099 0.250000 0.775094
O O2 0.602509 0.503889 0.847628
O O3 0.309003 0.478375 0.695043
O O4 0.208807 0.500410 0.748441
O O5 0.713742 0.750000 0.436770
O O6 0.563223 0.991581 0.433253
O O7 0.958730 0.974134 0.543037
O O8 0.694653 0.018182 0.392868
O O9 0.224152 0.250000 0.066154
O O10 0.265148 0.988496 0.027713
O O11 0.000000 0.000000 0.000000
O O12 0.500000 0.500000 0.500000
O O13 0.425129 0.750000 0.431568
O O14 0.189950 0.497604 0.351703
O O15 0.763017 0.250000 0.360912
O O16 0.705955 0.750000 0.996950
O O17 0.823953 0.532974 0.089529
O O18 0.444835 0.540333 0.937337
O O19 0.322502 0.250000 0.902995
O O20 0.083307 0.029556 0.793828
O O21 0.029196 0.250000 0.716537
#
# Coordination Sequence:
#
# PCOD8073935 Si02
#       8
#     4   4   4   4   4   4   4   4
#     4  11  21  36  58  83 108 141 186 227 275 335
#     4   9  19  36  56  81 113 151 192 230 275 332
#     4  11  23  39  56  80 112 145 183 228 278 329
#     4  10  20  35  54  81 114 147 184 225 276 329
#     4  10  20  35  57  82 111 148 189 236 280 321
#     4   9  18  32  53  79 106 135 174 220 269 320
#     4   9  16  31  54  78 104 136 175 217 266 322
#     4   9  18  32  54  81 108 140 180 224 270 326
#
# _framework density 19.05528
#
# number of rings (size 3 to 8) (size 9 to 14) (size 15 to 20)
#    0.000    2.250    1.250    1.875    0.000    1.500 
#    2.250    1.250    0.000    0.000    0.000    0.000 
#    0.000    0.000    0.000    0.000    0.000    0.000 
#
# Total GULP energy -396569.881127 kJ/mol
# GULP energy per Si atom -12392.808785 kJ/mol
# Density = 1.901191 g / cm^3
# Si number density = 19.055280 Si / 1000 Ang^3
#
#
#
# Elastic Constant Matrix: (Units=GPa)
#
#
# Indices 1 2 3 4 5 6 
#
# 1 117.6959 28.3747 74.2623 0.0000 -6.2708 0.0000
# 2 28.3747 36.6604 29.4776 0.0000 -3.6334 0.0000
# 3 74.2623 29.4776 153.6433 0.0000 -10.1841 0.0000
# 4 0.0000 0.0000 0.0000 26.9290 0.0000 -2.5147
# 5 -6.2708 -3.6334 -10.1841 0.0000 35.8258 0.0000
# 6 0.0000 0.0000 0.0000 -2.5147 0.0000 22.0098
#
#
#
# Elastic Compliance Matrix: (Units=1/GPa)
#
#
# Indices 1 2 3 4 5 6 
#
# 1 0.013270 -0.006035 -0.005242 0.000000 0.000221 0.000000
# 2 -0.006035 0.035081 -0.003718 0.000000 0.001445 0.000000
# 3 -0.005242 -0.003718 0.009855 0.000000 0.001507 0.000000
# 4 0.000000 0.000000 0.000000 0.037535 0.000000 0.004289
# 5 0.000221 0.001445 0.001507 0.000000 0.028526 0.000000
# 6 0.000000 0.000000 0.000000 0.004289 0.000000 0.045924
#
#
# Mechanical properties :
#
#
# Convention : Reuss Voigt Hill
#
# Bulk Modulus (GPa) = 35.43844 63.58098 49.50971
# Shear Modulus (GPa) = 23.85645 28.67859 26.26752
#
# Velocity S-wave (km/s) = 3.54214 3.88367 3.71683
# Velocity P-wave (km/s) = 5.94703 7.31775 6.66771
#
# Compressibility (1/GPa) = 0.02821795
#
# Stress axis : x y z
#
# Youngs Moduli (GPa) = 75.35536 28.50572 101.46753
#
# Poissons Ratio (x) = 0.17202 0.53187
# Poissons Ratio (y) = 0.45473 0.37726
# Poissons Ratio (z) = 0.39500 0.10598
#
# Static dielectric constant tensor:
#      x y z
#    x 3.436290 0.000000 -0.003700 
#    y 0.000000 3.297300 0.000000 
#    z -0.003700 0.000000 3.588170 
# 
# 
# High freq. dielectric constant tensor:
#      x y z
#    x 1.745160 0.000000 -0.019250 
#    y 0.000000 1.724380 0.000000 
#    z -0.019250 0.000000 1.743160 
# 
# From -- ./inp_files/73163.got.cif
#   From: 2010.06.25/outbox.cif.g09.slc.cpg/sg11_37_cif.got.tgz:73163.got - 2010.06.27 23:14:04.
