data_PCOD8073428
_publ_section_title
;
Structure prediction by ZEFSAII (Michael W. Deem and Ramdas Pophale) SiO2 
 PCOD8073428
Probable space group: P 21/M
;
_chemical_formula_sum "Si O2"
_cell_formula_units_Z 28
_cell_length_a 17.912215
_cell_length_b 8.970081
_cell_length_c 19.609997
_cell_angle_alpha 90.000000
_cell_angle_beta 28.772803
_cell_angle_gamma 90.000000
_cell_volume 1516.606891
_symmetry_space_group_name_H-M "P 21/M"
_symmetry_group_IT_number 11
_symmetry_cell_setting 'monoclinic'
loop_
_space_group_symop_operation_xyz
x,y,z
-x,1/2+y,-z
-x,-y,-z
x,1/2-y,z
loop_
_atom_site_type_symbol
_atom_site_label
_atom_site_fract_x
_atom_site_fract_y
_atom_site_fract_z
Si Si1 0.892973 0.424629 0.029339
Si Si2 0.353652 0.079353 0.700184
Si Si3 0.986163 0.923882 0.215184
Si Si4 0.847063 0.924868 0.653547
Si Si5 0.801309 0.580838 0.849801
Si Si6 0.296429 0.921139 0.606665
Si Si7 0.540606 0.077279 0.897490
O O1 0.897227 0.250000 0.037177
O O2 0.719339 0.487027 0.179135
O O3 0.939688 0.470383 0.916076
O O4 0.000000 0.500000 0.000000
O O5 0.300260 0.250000 0.746498
O O6 0.536600 0.061107 0.561262
O O7 0.286890 0.017057 0.682810
O O8 0.950361 0.750000 0.248739
O O9 0.099779 0.967348 0.184965
O O10 0.825414 0.014583 0.350442
O O11 0.850205 0.750000 0.634515
O O12 0.835704 0.956688 0.743273
O O13 0.691373 0.996435 0.743500
O O14 0.000000 0.000000 0.500000
O O15 0.853315 0.750000 0.823391
O O16 0.619713 0.561293 0.016819
O O17 0.260586 0.750000 0.653418
O O18 0.581864 0.250000 0.876286
O O19 0.500000 0.000000 0.000000
#
# Coordination Sequence:
#
# PCOD8073428 Si02
#       7
#     4   4   4   4   4   4   4
#     4  11  22  35  53  78 105 138 179 228 276 323
#     4  10  20  34  53  78 102 131 178 226 272 329
#     4  11  23  36  54  80 109 141 184 230 275 328
#     4  10  20  35  58  88 116 146 184 226 269 324
#     4   9  20  37  56  80 111 146 183 220 271 330
#     4  10  20  34  54  76 103 140 176 220 276 329
#     4   9  17  32  55  82 111 145 183 223 265 321
#
# _framework density 18.462266
#
# number of rings (size 3 to 8) (size 9 to 14) (size 15 to 20)
#    0.000    2.000    1.429    3.429    0.000    6.857 
#    0.000    1.429    0.000    1.714    0.000    0.000 
#    0.000    0.000    0.000    0.000    0.000    0.000 
#
# Total GULP energy -347147.085163 kJ/mol
# GULP energy per Si atom -12398.110184 kJ/mol
# Density = 1.842024 g / cm^3
# Si number density = 18.462266 Si / 1000 Ang^3
#
#
#
# Elastic Constant Matrix: (Units=GPa)
#
#
# Indices 1 2 3 4 5 6 
#
# 1 70.4586 40.4316 35.4940 0.0000 -14.5905 0.0000
# 2 40.4316 105.5441 58.2573 0.0000 -9.5778 0.0000
# 3 35.4940 58.2573 119.8823 0.0000 -16.7948 0.0000
# 4 0.0000 0.0000 0.0000 37.8608 0.0000 -3.5963
# 5 -14.5905 -9.5778 -16.7948 0.0000 24.7693 0.0000
# 6 0.0000 0.0000 0.0000 -3.5963 0.0000 30.0599
#
#
#
# Elastic Compliance Matrix: (Units=1/GPa)
#
#
# Indices 1 2 3 4 5 6 
#
# 1 0.020318 -0.005946 -0.001958 0.000000 0.008342 0.000000
# 2 -0.005946 0.014703 -0.005612 0.000000 -0.001622 0.000000
# 3 -0.001958 -0.005612 0.012356 0.000000 0.005055 0.000000
# 4 0.000000 0.000000 0.000000 0.026716 0.000000 0.003196
# 5 0.008342 -0.001622 0.005055 0.000000 0.048087 0.000000
# 6 0.000000 0.000000 0.000000 0.003196 0.000000 0.033649
#
#
# Mechanical properties :
#
#
# Convention : Reuss Voigt Hill
#
# Bulk Modulus (GPa) = 49.14735 62.69453 55.92094
# Shear Modulus (GPa) = 26.36538 29.31813 27.84176
#
# Velocity S-wave (km/s) = 3.78308 3.98930 3.88756
# Velocity P-wave (km/s) = 6.76465 7.43312 7.10675
#
# Compressibility (1/GPa) = 0.02034698
#
# Stress axis : x y z
#
# Youngs Moduli (GPa) = 49.21660 68.01446 80.93019
#
# Poissons Ratio (x) = 0.40441 0.15843
# Poissons Ratio (y) = 0.29264 0.45416
# Poissons Ratio (z) = 0.09635 0.38168
#
# Static dielectric constant tensor:
#      x y z
#    x 3.147400 0.000000 -0.242480 
#    y 0.000000 3.597540 0.000000 
#    z -0.242480 0.000000 3.890660 
# 
# 
# High freq. dielectric constant tensor:
#      x y z
#    x 1.680120 0.000000 -0.020770 
#    y 0.000000 1.734670 0.000000 
#    z -0.020770 0.000000 1.726690 
# 
# From -- ./inp_files/65989.got.cif
#   From: 2010.06.25/outbox.cif.g09.slc.cpg/sg11_33_cif.got.tgz:65989.got - 2010.06.27 23:14:04.
