data_PCOD8073298
_publ_section_title
;
Structure prediction by ZEFSAII (Michael W. Deem and Ramdas Pophale) SiO2 
 PCOD8073298
Probable space group: P 21/M
;
_chemical_formula_sum "Si O2"
_cell_formula_units_Z 32
_cell_length_a 12.472177
_cell_length_b 8.960811
_cell_length_c 20.826242
_cell_angle_alpha 90.000000
_cell_angle_beta 126.275564
_cell_angle_gamma 90.000000
_cell_volume 1876.432248
_symmetry_space_group_name_H-M "P 21/M"
_symmetry_group_IT_number 11
_symmetry_cell_setting 'monoclinic'
loop_
_space_group_symop_operation_xyz
x,y,z
-x,1/2+y,-z
-x,-y,-z
x,1/2-y,z
loop_
_atom_site_type_symbol
_atom_site_label
_atom_site_fract_x
_atom_site_fract_y
_atom_site_fract_z
Si Si1 0.289993 0.921999 0.169110
Si Si2 0.039209 0.077248 0.419294
Si Si3 0.528737 0.073534 0.317603
Si Si4 0.442919 0.577238 0.417311
Si Si5 0.863698 0.079911 0.670103
Si Si6 0.800346 0.923608 0.397182
Si Si7 0.893087 0.078576 0.006130
Si Si8 0.032527 0.577260 0.157732
O O1 0.326734 0.750000 0.197627
O O2 0.250086 0.941383 0.079528
O O3 0.169065 0.974424 0.171925
O O4 0.415518 0.026053 0.227203
O O5 0.998178 0.250000 0.404101
O O6 0.147151 0.044736 0.512531
O O7 0.908531 0.978272 0.383928
O O8 0.105193 0.033571 0.375556
O O9 0.529980 0.250000 0.326228
O O10 0.507671 0.998816 0.378860
O O11 0.668140 0.018251 0.338465
O O12 0.500000 0.500000 0.500000
O O13 0.484368 0.750000 0.432353
O O14 0.285395 0.556260 0.358104
O O15 0.883689 0.250000 0.653409
O O16 0.960617 0.042922 0.764116
O O17 0.771265 0.750000 0.375201
O O18 0.931233 0.250000 0.024968
O O19 0.000000 0.000000 0.000000
O O20 0.904720 0.007772 0.081653
O O21 0.010644 0.750000 0.136153
#
# Coordination Sequence:
#
# PCOD8073298 Si02
#       8
#     4   4   4   4   4   4   4   4
#     4   9  17  32  48  67 100 137 169 204 249 299
#     4  10  21  36  55  78  99 124 168 219 257 298
#     4  12  23  33  50  76 103 133 171 212 253 298
#     4  11  22  36  50  69 101 137 173 207 248 303
#     4  10  20  34  51  71 101 138 169 203 251 303
#     4  10  21  38  57  73  97 133 169 212 262 304
#     4   9  17  28  45  68  96 131 167 205 248 295
#     4   9  17  31  48  69  99 135 170 205 246 297
#
# _framework density 17.053640999999999
#
# number of rings (size 3 to 8) (size 9 to 14) (size 15 to 20)
#    0.000    2.000    1.250    4.125    0.000    7.500 
#    0.000    0.000    0.000    0.000    0.000    0.875 
#    0.000    0.000    0.000    0.000    0.000    0.000 
#
# Total GULP energy -396806.893474 kJ/mol
# GULP energy per Si atom -12400.215421 kJ/mol
# Density = 1.701483 g / cm^3
# Si number density = 17.053641 Si / 1000 Ang^3
#
#
#
# Elastic Constant Matrix: (Units=GPa)
#
#
# Indices 1 2 3 4 5 6 
#
# 1 39.0645 24.1567 7.8005 0.0000 9.2955 0.0000
# 2 24.1567 101.0177 42.6438 0.0000 9.4536 0.0000
# 3 7.8005 42.6438 79.6647 0.0000 7.9584 0.0000
# 4 0.0000 0.0000 0.0000 32.4808 0.0000 -0.6003
# 5 9.2955 9.4536 7.9584 0.0000 15.8587 0.0000
# 6 0.0000 0.0000 0.0000 -0.6003 0.0000 27.4856
#
#
#
# Elastic Compliance Matrix: (Units=1/GPa)
#
#
# Indices 1 2 3 4 5 6 
#
# 1 0.033689 -0.007516 0.002368 0.000000 -0.016455 0.000000
# 2 -0.007516 0.014766 -0.007084 0.000000 -0.000842 0.000000
# 3 0.002368 -0.007084 0.016665 0.000000 -0.005528 0.000000
# 4 0.000000 0.000000 0.000000 0.030800 0.000000 0.000673
# 5 -0.016455 -0.000842 -0.005528 0.000000 0.075978 0.000000
# 6 0.000000 0.000000 0.000000 0.000673 0.000000 0.036397
#
#
# Mechanical properties :
#
#
# Convention : Reuss Voigt Hill
#
# Bulk Modulus (GPa) = 24.59640 40.99433 32.79536
# Shear Modulus (GPa) = 20.29962 24.84141 22.57051
#
# Velocity S-wave (km/s) = 3.45387 3.82077 3.64194
# Velocity P-wave (km/s) = 5.50998 6.59962 6.07926
#
# Compressibility (1/GPa) = 0.04065636
#
# Stress axis : x y z
#
# Youngs Moduli (GPa) = 29.68336 67.72408 60.00613
#
# Poissons Ratio (x) = 0.50902 -0.14211
# Poissons Ratio (y) = 0.22310 0.42508
# Poissons Ratio (z) = -0.07030 0.47976
#
# Static dielectric constant tensor:
#      x y z
#    x 2.846810 0.000000 0.048440 
#    y 0.000000 3.347290 0.000000 
#    z 0.048440 0.000000 3.552110 
# 
# 
# High freq. dielectric constant tensor:
#      x y z
#    x 1.616820 0.000000 -0.000460 
#    y 0.000000 1.668840 0.000000 
#    z -0.000460 0.000000 1.664670 
# 
# From -- ./inp_files/42816.got.cif
#   From: 2010.06.25/outbox.cif.g09.slc.cpg/sg11_22_cif.got.tgz:42816.got - 2010.06.27 23:14:04.
