data_PCOD8073524
_publ_section_title
;
Structure prediction by ZEFSAII (Michael W. Deem and Ramdas Pophale) SiO2 
 PCOD8073524
Probable space group: P 21/M
;
_chemical_formula_sum "Si O2"
_cell_formula_units_Z 28
_cell_length_a 25.199049
_cell_length_b 9.227590
_cell_length_c 9.038175
_cell_angle_alpha 90.000000
_cell_angle_beta 44.316843
_cell_angle_gamma 90.000000
_cell_volume 1468.242226
_symmetry_space_group_name_H-M "P 21/M"
_symmetry_group_IT_number 11
_symmetry_cell_setting 'monoclinic'
loop_
_space_group_symop_operation_xyz
x,y,z
-x,1/2+y,-z
-x,-y,-z
x,1/2-y,z
loop_
_atom_site_type_symbol
_atom_site_label
_atom_site_fract_x
_atom_site_fract_y
_atom_site_fract_z
Si Si1 0.856915 0.921256 0.943141
Si Si2 0.271902 0.583176 0.626475
Si Si3 0.586173 0.919253 0.169135
Si Si4 0.706521 0.418214 0.751104
Si Si5 0.855076 0.418443 0.640099
Si Si6 0.997481 0.080781 0.158909
Si Si7 0.413408 0.915368 0.539256
O O1 0.849036 0.750000 0.945693
O O2 0.783640 0.982414 0.170932
O O3 0.931444 0.967960 0.884190
O O4 0.863853 0.985777 0.766908
O O5 0.246419 0.750000 0.696854
O O6 0.268839 0.535207 0.462321
O O7 0.357334 0.559264 0.514318
O O8 0.603299 0.750000 0.137905
O O9 0.497829 0.955085 0.316129
O O10 0.612582 0.984849 0.272990
O O11 0.633066 0.990504 0.943060
O O12 0.684248 0.250000 0.798575
O O13 0.774850 0.453631 0.725408
O O14 0.861516 0.250000 0.670997
O O15 0.920855 0.463598 0.395701
O O16 0.999490 0.250000 0.120697
O O17 0.000000 0.000000 0.000000
O O18 0.410327 0.750000 0.602337
#
# Coordination Sequence:
#
# PCOD8073524 Si02
#       7
#     4   4   4   4   4   4   4
#     4  11  23  37  56  85 114 139 177 228 273 312
#     4  10  21  38  58  78 106 146 185 220 265 324
#     4  10  20  34  54  80 109 140 176 223 275 320
#     4  10  21  36  55  79 106 140 183 224 264 319
#     4  10  21  38  58  79 107 146 186 218 259 323
#     4  10  22  39  59  84 113 144 180 222 267 317
#     4   9  19  36  56  78 105 141 184 222 262 322
#
# _framework density 19.070423000000002
#
# number of rings (size 3 to 8) (size 9 to 14) (size 15 to 20)
#    0.000    2.000    0.000    3.000    0.000    9.143 
#    0.000    0.000    0.000    0.000    0.000    0.000 
#    0.000    0.000    0.000    0.000    0.000    0.000 
#
# Total GULP energy -347349.986890 kJ/mol
# GULP energy per Si atom -12405.356675 kJ/mol
# Density = 1.902702 g / cm^3
# Si number density = 19.070423 Si / 1000 Ang^3
#
#
#
# Elastic Constant Matrix: (Units=GPa)
#
#
# Indices 1 2 3 4 5 6 
#
# 1 90.3590 51.5115 50.3293 0.0000 9.7374 0.0000
# 2 51.5115 75.5795 61.6841 0.0000 7.9408 0.0000
# 3 50.3293 61.6841 131.3744 0.0000 6.3814 0.0000
# 4 0.0000 0.0000 0.0000 35.6863 0.0000 3.7463
# 5 9.7374 7.9408 6.3814 0.0000 32.9101 0.0000
# 6 0.0000 0.0000 0.0000 3.7463 0.0000 28.1943
#
#
#
# Elastic Compliance Matrix: (Units=1/GPa)
#
#
# Indices 1 2 3 4 5 6 
#
# 1 0.018581 -0.010847 -0.001904 0.000000 -0.002512 0.000000
# 2 -0.010847 0.028134 -0.008965 0.000000 -0.001841 0.000000
# 3 -0.001904 -0.008965 0.012536 0.000000 0.000296 0.000000
# 4 0.000000 0.000000 0.000000 0.028418 0.000000 -0.003776
# 5 -0.002512 -0.001841 0.000296 0.000000 0.031516 0.000000
# 6 0.000000 0.000000 0.000000 -0.003776 0.000000 0.035970
#
#
# Mechanical properties :
#
#
# Convention : Reuss Voigt Hill
#
# Bulk Modulus (GPa) = 63.20810 69.37364 66.29087
# Shear Modulus (GPa) = 24.52675 28.27734 26.40205
#
# Velocity S-wave (km/s) = 3.59013 3.85487 3.72486
# Velocity P-wave (km/s) = 7.09943 7.50133 7.30315
#
# Compressibility (1/GPa) = 0.01582076
#
# Stress axis : x y z
#
# Youngs Moduli (GPa) = 53.81729 35.54456 79.77011
#
# Poissons Ratio (x) = 0.38554 0.15186
# Poissons Ratio (y) = 0.58374 0.71513
# Poissons Ratio (z) = 0.10245 0.31865
#
# Static dielectric constant tensor:
#      x y z
#    x 3.633130 0.000000 -0.084500 
#    y 0.000000 3.490740 0.000000 
#    z -0.084500 0.000000 3.515880 
# 
# 
# High freq. dielectric constant tensor:
#      x y z
#    x 1.751050 0.000000 -0.004610 
#    y 0.000000 1.738590 0.000000 
#    z -0.004610 0.000000 1.750410 
# 
# From -- ./inp_files/28262.got.cif
#   From: 2010.06.25/outbox.cif.g09.slc.cpg/sg11_15_cif.got.tgz:28262.got - 2010.06.27 23:14:04.
