data_PCOD8073123
_publ_section_title
;
Structure prediction by ZEFSAII (Michael W. Deem and Ramdas Pophale) SiO2 
 PCOD8073123
Probable space group: P 21/M
;
_chemical_formula_sum "Si O2"
_cell_formula_units_Z 32
_cell_length_a 14.875653
_cell_length_b 8.530306
_cell_length_c 23.168606
_cell_angle_alpha 90.000000
_cell_angle_beta 39.654261
_cell_angle_gamma 90.000000
_cell_volume 1876.141736
_symmetry_space_group_name_H-M "P 21/M"
_symmetry_group_IT_number 11
_symmetry_cell_setting 'monoclinic'
loop_
_space_group_symop_operation_xyz
x,y,z
-x,1/2+y,-z
-x,-y,-z
x,1/2-y,z
loop_
_atom_site_type_symbol
_atom_site_label
_atom_site_fract_x
_atom_site_fract_y
_atom_site_fract_z
Si Si1 0.264944 0.431292 0.932364
Si Si2 0.285052 0.566626 0.799749
Si Si3 0.297025 0.933314 0.577912
Si Si4 0.007868 0.433294 0.235486
Si Si5 0.709849 0.433352 0.869139
Si Si6 0.454785 0.567349 0.932865
Si Si7 0.535595 0.065495 0.394547
Si Si8 0.011726 0.431401 0.880236
O O1 0.225339 0.250000 0.959638
O O2 0.307303 0.465657 0.845875
O O3 0.398112 0.472671 0.906203
O O4 0.132092 0.537333 0.014592
O O5 0.300677 0.750000 0.806153
O O6 0.404672 0.505515 0.696088
O O7 0.132517 0.539468 0.847109
O O8 0.322781 0.750000 0.561105
O O9 0.365293 0.001839 0.603140
O O10 0.132006 0.975057 0.658952
O O11 0.374552 0.010762 0.484371
O O12 0.013087 0.250000 0.217262
O O13 0.139122 0.482964 0.210092
O O14 0.011457 0.531741 0.175197
O O15 0.725610 0.250000 0.849988
O O16 0.611891 0.507825 0.868347
O O17 0.645940 0.469701 0.963438
O O18 0.458003 0.750000 0.916587
O O19 0.545160 0.250000 0.390102
O O20 0.052055 0.250000 0.867959
#
# Coordination Sequence:
#
# PCOD8073123 Si02
#       8
#     4   4   4   4   4   4   4   4
#     4  12  24  37  53  74 102 138 177 216 256 300
#     4  11  22  38  54  72 102 138 178 217 255 302
#     4   9  18  32  50  74 102 133 168 209 257 305
#     4  11  20  33  52  76 106 140 172 209 257 306
#     4  10  20  33  52  77 104 134 170 211 257 305
#     4  10  20  35  53  75 102 135 172 211 257 302
#     4   9  18  33  51  73  99 133 170 212 257 299
#     4  12  23  35  50  73 103 139 179 215 252 299
#
# _framework density 17.056280999999998
#
# number of rings (size 3 to 8) (size 9 to 14) (size 15 to 20)
#    0.000    1.500    2.500    4.125    0.000    3.000 
#    0.000    0.000    0.000    0.000    0.000    0.875 
#    0.000    0.000    0.000    0.000    0.000    0.000 
#
# Total GULP energy -396925.236228 kJ/mol
# GULP energy per Si atom -12403.913632 kJ/mol
# Density = 1.701746 g / cm^3
# Si number density = 17.056281 Si / 1000 Ang^3
#
#
#
# Elastic Constant Matrix: (Units=GPa)
#
#
# Indices 1 2 3 4 5 6 
#
# 1 76.9897 16.4413 53.3222 0.0000 -11.2021 0.0000
# 2 16.4413 53.9898 24.0136 0.0000 -2.4280 0.0000
# 3 53.3222 24.0136 108.5388 0.0000 -6.4878 0.0000
# 4 0.0000 0.0000 0.0000 23.7173 0.0000 -2.5954
# 5 -11.2021 -2.4280 -6.4878 0.0000 22.5499 0.0000
# 6 0.0000 0.0000 0.0000 -2.5954 0.0000 28.5015
#
#
#
# Elastic Compliance Matrix: (Units=1/GPa)
#
#
# Indices 1 2 3 4 5 6 
#
# 1 0.021045 -0.001854 -0.009478 0.000000 0.007528 0.000000
# 2 -0.001854 0.020726 -0.003659 0.000000 0.000258 0.000000
# 3 -0.009478 -0.003659 0.014626 0.000000 -0.000895 0.000000
# 4 0.000000 0.000000 0.000000 0.042588 0.000000 0.003878
# 5 0.007528 0.000258 -0.000895 0.000000 0.047856 0.000000
# 6 0.000000 0.000000 0.000000 0.003878 0.000000 0.035439
#
#
# Mechanical properties :
#
#
# Convention : Reuss Voigt Hill
#
# Bulk Modulus (GPa) = 37.86068 47.45252 42.65660
# Shear Modulus (GPa) = 22.61757 24.66982 23.64370
#
# Velocity S-wave (km/s) = 3.64545 3.80725 3.72723
# Velocity P-wave (km/s) = 6.32177 6.87084 6.60202
#
# Compressibility (1/GPa) = 0.02641263
#
# Stress axis : x y z
#
# Youngs Moduli (GPa) = 47.51788 48.24912 68.37179
#
# Poissons Ratio (x) = 0.08947 0.64806
# Poissons Ratio (y) = 0.08811 0.25018
# Poissons Ratio (z) = 0.45040 0.17655
#
# Static dielectric constant tensor:
#      x y z
#    x 3.133040 0.000000 -0.082880 
#    y 0.000000 3.179060 0.000000 
#    z -0.082880 0.000000 3.228860 
# 
# 
# High freq. dielectric constant tensor:
#      x y z
#    x 1.638540 0.000000 -0.011870 
#    y 0.000000 1.668930 0.000000 
#    z -0.011870 0.000000 1.643020 
# 
# From -- ./inp_files/54309.got.cif
#   From: 2010.06.25/outbox.cif.g09.slc.cpg/sg11_28_cif.got.tgz:54309.got - 2010.06.27 23:14:04.
