data_PCOD8073814
_publ_section_title
;
Structure prediction by ZEFSAII (Michael W. Deem and Ramdas Pophale) SiO2 
 PCOD8073814
Probable space group: P 21/M
;
_chemical_formula_sum "Si O2"
_cell_formula_units_Z 32
_cell_length_a 12.246092
_cell_length_b 13.844804
_cell_length_c 18.434590
_cell_angle_alpha 90.000000
_cell_angle_beta 28.644340
_cell_angle_gamma 90.000000
_cell_volume 1498.268750
_symmetry_space_group_name_H-M "P 21/M"
_symmetry_group_IT_number 11
_symmetry_cell_setting 'monoclinic'
loop_
_space_group_symop_operation_xyz
x,y,z
-x,1/2+y,-z
-x,-y,-z
x,1/2-y,z
loop_
_atom_site_type_symbol
_atom_site_label
_atom_site_fract_x
_atom_site_fract_y
_atom_site_fract_z
Si Si1 0.412255 0.138897 0.360702
Si Si2 0.897929 0.034858 0.471298
Si Si3 0.849182 0.356877 0.360967
Si Si4 0.603614 0.854499 0.464799
Si Si5 0.219345 0.513439 0.924391
Si Si6 0.410038 0.863030 0.245217
Si Si7 0.968394 0.465873 0.810097
Si Si8 0.306009 0.547854 0.161245
O O1 0.361669 0.250000 0.369335
O O2 0.469082 0.123398 0.411312
O O3 0.635637 0.102672 0.189084
O O4 0.192080 0.075037 0.469296
O O5 0.773602 0.094729 0.480533
O O6 0.831173 0.091595 0.584218
O O7 0.166740 0.029991 0.293061
O O8 0.952981 0.250000 0.312171
O O9 0.622880 0.352428 0.447858
O O10 0.037931 0.420720 0.208610
O O11 0.726347 0.750000 0.388315
O O12 0.770065 0.934518 0.334790
O O13 0.376155 0.416977 0.840167
O O14 0.000000 0.500000 0.000000
O O15 0.154535 0.548652 0.042547
O O16 0.427636 0.750000 0.253569
O O17 0.411817 0.875729 0.156447
O O18 0.859646 0.406491 0.804649
O O19 0.500000 0.500000 0.000000
#
# Coordination Sequence:
#
# PCOD8073814 Si02
#       8
#     4   4   4   4   4   4   4   4
#     4  10  21  39  61  89 124 170 217 261 319 390
#     4  10  22  41  66  93 128 168 218 271 328 394
#     4  10  20  34  61  96 129 166 212 268 324 393
#     4  10  20  35  61  93 124 165 219 263 320 392
#     4  11  25  41  64  96 138 177 213 271 336 394
#     4  11  25  44  68  97 131 177 225 272 331 398
#     4  11  22  39  64  90 130 169 217 269 329 388
#     4  11  22  44  67  91 128 170 217 276 327 392
#
# _framework density 21.357983999999998
#
# number of rings (size 3 to 8) (size 9 to 14) (size 15 to 20)
#    0.000    1.500    3.750    1.875    3.500    2.500 
#    0.000    0.625    0.000    6.750    0.000    0.000 
#    0.000    0.000    0.000    0.000    0.000    0.000 
#
# Total GULP energy -396542.309111 kJ/mol
# GULP energy per Si atom -12391.947160 kJ/mol
# Density = 2.130937 g / cm^3
# Si number density = 21.357984 Si / 1000 Ang^3
#
#
#
# Elastic Constant Matrix: (Units=GPa)
#
#
# Indices 1 2 3 4 5 6 
#
# 1 90.8649 33.9337 38.2576 0.0000 9.9719 0.0000
# 2 33.9337 141.0754 50.1498 0.0000 11.9925 0.0000
# 3 38.2576 50.1498 136.3943 0.0000 21.9225 0.0000
# 4 0.0000 0.0000 0.0000 15.5576 0.0000 5.1222
# 5 9.9719 11.9925 21.9225 0.0000 36.2051 0.0000
# 6 0.0000 0.0000 0.0000 5.1222 0.0000 21.2424
#
#
#
# Elastic Compliance Matrix: (Units=1/GPa)
#
#
# Indices 1 2 3 4 5 6 
#
# 1 0.013054 -0.002074 -0.002694 0.000000 -0.001277 0.000000
# 2 -0.002074 0.008515 -0.002424 0.000000 -0.000782 0.000000
# 3 -0.002694 -0.002424 0.009671 0.000000 -0.004311 0.000000
# 4 0.000000 0.000000 0.000000 0.069820 0.000000 -0.016836
# 5 -0.001277 -0.000782 -0.004311 0.000000 0.030842 0.000000
# 6 0.000000 0.000000 0.000000 -0.016836 0.000000 0.051135
#
#
# Mechanical properties :
#
#
# Convention : Reuss Voigt Hill
#
# Bulk Modulus (GPa) = 59.31729 68.11298 63.71513
# Shear Modulus (GPa) = 24.62572 31.00059 27.81316
#
# Velocity S-wave (km/s) = 3.39927 3.81396 3.61257
# Velocity P-wave (km/s) = 6.57570 7.16627 6.87733
#
# Compressibility (1/GPa) = 0.01685849
#
# Stress axis : x y z
#
# Youngs Moduli (GPa) = 76.60373 117.43667 103.39852
#
# Poissons Ratio (x) = 0.24354 0.27853
# Poissons Ratio (y) = 0.15886 0.25059
# Poissons Ratio (z) = 0.20635 0.28461
#
# Static dielectric constant tensor:
#      x y z
#    x 4.174440 0.000000 0.075530 
#    y 0.000000 4.212780 0.000000 
#    z 0.075530 0.000000 4.021620 
# 
# 
# High freq. dielectric constant tensor:
#      x y z
#    x 1.850850 0.000000 0.010480 
#    y 0.000000 1.820230 0.000000 
#    z 0.010480 0.000000 1.840770 
# 
# From -- ./inp_files/59471.got.cif
#   From: 2010.06.25/outbox.cif.g09.slc.cpg/sg11_30_cif.got.tgz:59471.got - 2010.06.27 23:14:04.
