data_PCOD8073920
_publ_section_title
;
Structure prediction by ZEFSAII (Michael W. Deem and Ramdas Pophale) SiO2 
 PCOD8073920
Probable space group: P 21/M
;
_chemical_formula_sum "Si O2"
_cell_formula_units_Z 28
_cell_length_a 21.983575
_cell_length_b 8.721288
_cell_length_c 24.180840
_cell_angle_alpha 90.000000
_cell_angle_beta 162.478924
_cell_angle_gamma 90.000000
_cell_volume 1395.720583
_symmetry_space_group_name_H-M "P 21/M"
_symmetry_group_IT_number 11
_symmetry_cell_setting 'monoclinic'
loop_
_space_group_symop_operation_xyz
x,y,z
-x,1/2+y,-z
-x,-y,-z
x,1/2-y,z
loop_
_atom_site_type_symbol
_atom_site_label
_atom_site_fract_x
_atom_site_fract_y
_atom_site_fract_z
Si Si1 0.040110 0.422717 0.477076
Si Si2 0.188601 0.075960 0.882890
Si Si3 0.708226 0.569356 0.703537
Si Si4 0.117832 0.070801 0.028685
Si Si5 0.651776 0.427346 0.871107
Si Si6 0.799337 0.569968 0.493152
Si Si7 0.330159 0.073766 0.890066
O O1 0.066161 0.250000 0.517100
O O2 0.218198 0.472806 0.588597
O O3 0.000000 0.500000 0.500000
O O4 0.850225 0.456419 0.274470
O O5 0.177194 0.250000 0.895309
O O6 0.358556 0.068234 0.981064
O O7 0.965395 0.031232 0.668411
O O8 0.253309 0.962255 0.987161
O O9 0.500000 0.500000 0.500000
O O10 0.688960 0.750000 0.681068
O O11 0.901573 0.513402 0.835997
O O12 0.751897 0.517963 0.804795
O O13 0.072718 0.250000 0.992728
O O14 0.246822 0.032427 0.086863
O O15 0.690096 0.250000 0.890484
O O16 0.414837 0.467040 0.665150
O O17 0.855749 0.750000 0.546807
O O18 0.290255 0.250000 0.836409
O O19 0.500000 0.000000 0.000000
#
# Coordination Sequence:
#
# PCOD8073920 Si02
#       7
#     4   4   4   4   4   4   4
#     4  10  20  35  54  79 107 141 185 239 297 358
#     4  10  22  39  58  83 114 150 193 245 301 358
#     4  10  21  39  65  94 128 167 203 245 294 344
#     4  10  22  40  61  91 126 160 204 251 291 344
#     4  11  23  39  62  88 118 160 201 244 299 357
#     4   9  21  40  58  80 112 152 196 243 297 358
#     4  10  21  36  54  79 107 142 185 237 298 360
#
# _framework density 20.061322000000001
#
# number of rings (size 3 to 8) (size 9 to 14) (size 15 to 20)
#    0.000    2.000    0.000    2.571    2.000    6.286 
#    0.000    2.857    0.000    0.000    0.000    0.000 
#    0.000    0.000    0.000    0.000    0.000    0.000 
#
# Total GULP energy -346919.992648 kJ/mol
# GULP energy per Si atom -12389.999737 kJ/mol
# Density = 2.001566 g / cm^3
# Si number density = 20.061322 Si / 1000 Ang^3
#
#
#
# Elastic Constant Matrix: (Units=GPa)
#
#
# Indices 1 2 3 4 5 6 
#
# 1 106.8573 22.3776 40.6181 0.0000 14.3391 0.0000
# 2 22.3776 36.5038 31.1576 0.0000 3.4947 0.0000
# 3 40.6181 31.1576 99.6719 0.0000 6.6345 0.0000
# 4 0.0000 0.0000 0.0000 33.0645 0.0000 -0.2067
# 5 14.3391 3.4947 6.6345 0.0000 30.3569 0.0000
# 6 0.0000 0.0000 0.0000 -0.2067 0.0000 35.3262
#
#
#
# Elastic Compliance Matrix: (Units=1/GPa)
#
#
# Indices 1 2 3 4 5 6 
#
# 1 0.012098 -0.004136 -0.003337 0.000000 -0.004509 0.000000
# 2 -0.004136 0.038873 -0.010450 0.000000 -0.000237 0.000000
# 3 -0.003337 -0.010450 0.014688 0.000000 -0.000431 0.000000
# 4 0.000000 0.000000 0.000000 0.030245 0.000000 0.000177
# 5 -0.004509 -0.000237 -0.000431 0.000000 0.035193 0.000000
# 6 0.000000 0.000000 0.000000 0.000177 0.000000 0.028309
#
#
# Mechanical properties :
#
#
# Convention : Reuss Voigt Hill
#
# Bulk Modulus (GPa) = 33.54395 47.92662 40.73529
# Shear Modulus (GPa) = 24.36772 29.67483 27.02127
#
# Velocity S-wave (km/s) = 3.48898 3.85022 3.67404
# Velocity P-wave (km/s) = 5.74349 6.61116 6.19254
#
# Compressibility (1/GPa) = 0.02981163
#
# Stress axis : x y z
#
# Youngs Moduli (GPa) = 82.65824 25.72512 68.08187
#
# Poissons Ratio (x) = 0.10641 0.22719
# Poissons Ratio (y) = 0.34191 0.71147
# Poissons Ratio (z) = 0.27583 0.26883
#
# Static dielectric constant tensor:
#      x y z
#    x 4.290070 0.000000 0.010150 
#    y 0.000000 3.636740 0.000000 
#    z 0.010150 0.000000 3.398670 
# 
# 
# High freq. dielectric constant tensor:
#      x y z
#    x 1.792250 0.000000 0.007320 
#    y 0.000000 1.792220 0.000000 
#    z 0.007320 0.000000 1.771620 
# 
# From -- ./inp_files/69818.got.cif
#   From: 2010.06.25/outbox.cif.g09.slc.cpg/sg11_35_cif.got.tgz:69818.got - 2010.06.27 23:14:04.
