data_PCOD8073683
_publ_section_title
;
Structure prediction by ZEFSAII (Michael W. Deem and Ramdas Pophale) SiO2 
 PCOD8073683
Probable space group: P 21/M
;
_chemical_formula_sum "Si O2"
_cell_formula_units_Z 28
_cell_length_a 21.536138
_cell_length_b 8.827702
_cell_length_c 16.260176
_cell_angle_alpha 90.000000
_cell_angle_beta 26.431554
_cell_angle_gamma 90.000000
_cell_volume 1376.024082
_symmetry_space_group_name_H-M "P 21/M"
_symmetry_group_IT_number 11
_symmetry_cell_setting 'monoclinic'
loop_
_space_group_symop_operation_xyz
x,y,z
-x,1/2+y,-z
-x,-y,-z
x,1/2-y,z
loop_
_atom_site_type_symbol
_atom_site_label
_atom_site_fract_x
_atom_site_fract_y
_atom_site_fract_z
Si Si1 0.043329 0.571756 0.534286
Si Si2 0.762891 0.072080 0.456677
Si Si3 0.684459 0.584245 0.817212
Si Si4 0.673980 0.071444 0.218211
Si Si5 0.605436 0.426641 0.481116
Si Si6 0.525730 0.583661 0.842544
Si Si7 0.962250 0.069815 0.796033
O O1 0.021224 0.750000 0.560958
O O2 0.204374 0.529292 0.355123
O O3 0.000000 0.500000 0.500000
O O4 0.956802 0.498895 0.711274
O O5 0.781279 0.250000 0.451163
O O6 0.721754 0.035243 0.411391
O O7 0.638233 0.011352 0.659924
O O8 0.907316 0.990009 0.305907
O O9 0.748712 0.750000 0.764671
O O10 0.569978 0.611105 0.883699
O O11 0.618607 0.511311 0.978718
O O12 0.665726 0.250000 0.221964
O O13 0.665341 0.014863 0.322953
O O14 0.542695 0.005860 0.322885
O O15 0.820358 0.014441 0.007891
O O16 0.573635 0.250000 0.516280
O O17 0.501125 0.750000 0.830714
O O18 0.974497 0.250000 0.775849
#
# Coordination Sequence:
#
# PCOD8073683 Si02
#       7
#     4   4   4   4   4   4   4
#     4  12  25  41  61  84 116 155 198 245 297 355
#     4  11  22  36  58  89 125 160 200 250 301 355
#     4  10  20  36  57  81 111 147 192 240 288 343
#     4   9  20  40  64  88 119 158 199 244 297 357
#     4   9  20  39  62  90 121 155 198 247 296 353
#     4  10  20  34  56  82 113 150 190 237 289 345
#     4  11  23  40  61  88 122 159 200 248 301 360
#
# _framework density 20.348481
#
# number of rings (size 3 to 8) (size 9 to 14) (size 15 to 20)
#    0.000    1.714    1.429    3.000    0.000    5.143 
#    0.000    2.857    0.000    0.000    0.000    0.000 
#    0.000    0.000    0.000    0.000    0.000    0.000 
#
# Total GULP energy -347143.278990 kJ/mol
# GULP energy per Si atom -12397.974250 kJ/mol
# Density = 2.030217 g / cm^3
# Si number density = 20.348481 Si / 1000 Ang^3
#
#
#
# Elastic Constant Matrix: (Units=GPa)
#
#
# Indices 1 2 3 4 5 6 
#
# 1 85.3163 40.4900 39.3455 0.0000 12.9014 0.0000
# 2 40.4900 114.1909 55.8844 0.0000 3.6810 0.0000
# 3 39.3455 55.8844 158.0812 0.0000 8.4108 0.0000
# 4 0.0000 0.0000 0.0000 33.1250 0.0000 -3.3242
# 5 12.9014 3.6810 8.4108 0.0000 11.0223 0.0000
# 6 0.0000 0.0000 0.0000 -3.3242 0.0000 29.7687
#
#
#
# Elastic Compliance Matrix: (Units=1/GPa)
#
#
# Indices 1 2 3 4 5 6 
#
# 1 0.017424 -0.004773 -0.001719 0.000000 -0.017488 0.000000
# 2 -0.004773 0.011902 -0.003237 0.000000 0.004082 0.000000
# 3 -0.001719 -0.003237 0.008061 0.000000 -0.003058 0.000000
# 4 0.000000 0.000000 0.000000 0.030531 0.000000 0.003409
# 5 -0.017488 0.004082 -0.003058 0.000000 0.112166 0.000000
# 6 0.000000 0.000000 0.000000 0.003409 0.000000 0.033973
#
#
# Mechanical properties :
#
#
# Convention : Reuss Voigt Hill
#
# Bulk Modulus (GPa) = 55.77567 69.89201 62.83384
# Shear Modulus (GPa) = 20.87772 29.57443 25.22608
#
# Velocity S-wave (km/s) = 3.20661 3.81648 3.52476
# Velocity P-wave (km/s) = 6.41713 7.33777 6.89284
#
# Compressibility (1/GPa) = 0.01792896
#
# Stress axis : x y z
#
# Youngs Moduli (GPa) = 57.39342 84.01773 124.05978
#
# Poissons Ratio (x) = 0.40103 0.21323
# Poissons Ratio (y) = 0.27395 0.40156
# Poissons Ratio (z) = 0.09864 0.27195
#
# Static dielectric constant tensor:
#      x y z
#    x 3.872190 0.000000 -0.081980 
#    y 0.000000 4.011380 0.000000 
#    z -0.081980 0.000000 3.967150 
# 
# 
# High freq. dielectric constant tensor:
#      x y z
#    x 1.783900 0.000000 0.000810 
#    y 0.000000 1.806840 0.000000 
#    z 0.000810 0.000000 1.797820 
# 
# From -- ./inp_files/54497.got.cif
#   From: 2010.06.25/outbox.cif.g09.slc.cpg/sg11_28_cif.got.tgz:54497.got - 2010.06.27 23:14:04.
