data_PCOD8073858
_publ_section_title
;
Structure prediction by ZEFSAII (Michael W. Deem and Ramdas Pophale) SiO2 
 PCOD8073858
Probable space group: P 21/M
;
_chemical_formula_sum "Si O2"
_cell_formula_units_Z 20
_cell_length_a 26.442448
_cell_length_b 9.051550
_cell_length_c 9.208032
_cell_angle_alpha 90.000000
_cell_angle_beta 29.618483
_cell_angle_gamma 90.000000
_cell_volume 1089.215463
_symmetry_space_group_name_H-M "P 21/M"
_symmetry_group_IT_number 11
_symmetry_cell_setting 'monoclinic'
loop_
_space_group_symop_operation_xyz
x,y,z
-x,1/2+y,-z
-x,-y,-z
x,1/2-y,z
loop_
_atom_site_type_symbol
_atom_site_label
_atom_site_fract_x
_atom_site_fract_y
_atom_site_fract_z
Si Si1 0.008672 0.923090 0.324381
Si Si2 0.407543 0.074347 0.813788
Si Si3 0.785219 0.577855 0.878468
Si Si4 0.408794 0.076064 0.143386
Si Si5 0.205929 0.424665 0.815039
O O1 0.029483 0.750000 0.291279
O O2 0.897588 0.951486 0.526396
O O3 0.000000 0.000000 0.500000
O O4 0.103778 0.998250 0.002414
O O5 0.416122 0.250000 0.778683
O O6 0.500000 0.000000 0.500000
O O7 0.302465 0.010904 0.005919
O O8 0.410129 0.023763 0.973942
O O9 0.764380 0.750000 0.943668
O O10 0.776837 0.514859 0.063739
O O11 0.422932 0.250000 0.123462
O O12 0.301498 0.025384 0.480030
O O13 0.500000 0.000000 0.000000
O O14 0.188318 0.250000 0.854971
#
# Coordination Sequence:
#
# PCOD8073858 Si02
#       5
#     4   4   4   4   4
#     4   9  16  28  48  73  98 129 165 202 243 291
#     4  10  20  35  53  74  99 131 168 207 251 301
#     4   8  15  29  49  69  95 129 162 196 241 290
#     4  10  21  35  53  75 101 133 169 208 255 304
#     4   9  17  31  49  71  99 132 165 203 247 292
#
# _framework density 18.361840999999998
#
# number of rings (size 3 to 8) (size 9 to 14) (size 15 to 20)
#    0.000    2.800    0.000    3.000    0.000    3.200 
#    0.000    8.000    0.000    0.000    0.000    0.000 
#    0.000    0.000    0.000    0.000    0.000    0.000 
#
# Total GULP energy -247863.023892 kJ/mol
# GULP energy per Si atom -12393.151195 kJ/mol
# Density = 1.832005 g / cm^3
# Si number density = 18.361841 Si / 1000 Ang^3
#
#
#
# Elastic Constant Matrix: (Units=GPa)
#
#
# Indices 1 2 3 4 5 6 
#
# 1 130.6235 32.2572 90.7794 0.0000 -18.1128 0.0000
# 2 32.2572 41.7609 48.4372 0.0000 -10.4456 0.0000
# 3 90.7794 48.4372 186.1370 0.0000 -21.1665 0.0000
# 4 0.0000 0.0000 0.0000 33.9672 0.0000 -6.6341
# 5 -18.1128 -10.4456 -21.1665 0.0000 34.8357 0.0000
# 6 0.0000 0.0000 0.0000 -6.6341 0.0000 21.3794
#
#
#
# Elastic Compliance Matrix: (Units=1/GPa)
#
#
# Indices 1 2 3 4 5 6 
#
# 1 0.012117 -0.003177 -0.004807 0.000000 0.002427 0.000000
# 2 -0.003177 0.036039 -0.007291 0.000000 0.004724 0.000000
# 3 -0.004807 -0.007291 0.009755 0.000000 0.001242 0.000000
# 4 0.000000 0.000000 0.000000 0.031340 0.000000 0.009725
# 5 0.002427 0.004724 0.001242 0.000000 0.032139 0.000000
# 6 0.000000 0.000000 0.000000 0.009725 0.000000 0.049792
#
#
# Mechanical properties :
#
#
# Convention : Reuss Voigt Hill
#
# Bulk Modulus (GPa) = 36.54937 77.94100 57.24518
# Shear Modulus (GPa) = 23.71323 30.50630 27.10976
#
# Velocity S-wave (km/s) = 3.59756 4.08045 3.84659
# Velocity P-wave (km/s) = 6.09958 8.04608 7.13948
#
# Compressibility (1/GPa) = 0.02736025
#
# Stress axis : x y z
#
# Youngs Moduli (GPa) = 82.52599 27.74796 102.50858
#
# Poissons Ratio (x) = 0.08817 0.49274
# Poissons Ratio (y) = 0.26222 0.74742
# Poissons Ratio (z) = 0.39669 0.20232
#
# Static dielectric constant tensor:
#      x y z
#    x 3.580290 0.000000 -0.331600 
#    y 0.000000 3.339650 0.000000 
#    z -0.331600 0.000000 3.678220 
# 
# 
# High freq. dielectric constant tensor:
#      x y z
#    x 1.698390 0.000000 -0.023780 
#    y 0.000000 1.688590 0.000000 
#    z -0.023780 0.000000 1.723350 
# 
# From -- ./inp_files/16664.got.cif
#   From: 2010.06.25/outbox.cif.g09.slc.cpg/sg11_9_cif.got.tgz:16664.got - 2010.06.27 23:14:04.
