data_PCOD8073757
_publ_section_title
;
Structure prediction by ZEFSAII (Michael W. Deem and Ramdas Pophale) SiO2 
 PCOD8073757
Probable space group: P 21/M
;
_chemical_formula_sum "Si O2"
_cell_formula_units_Z 28
_cell_length_a 29.920082
_cell_length_b 9.018103
_cell_length_c 10.177004
_cell_angle_alpha 90.000000
_cell_angle_beta 146.602282
_cell_angle_gamma 90.000000
_cell_volume 1511.519697
_symmetry_space_group_name_H-M "P 21/M"
_symmetry_group_IT_number 11
_symmetry_cell_setting 'monoclinic'
loop_
_space_group_symop_operation_xyz
x,y,z
-x,1/2+y,-z
-x,-y,-z
x,1/2-y,z
loop_
_atom_site_type_symbol
_atom_site_label
_atom_site_fract_x
_atom_site_fract_y
_atom_site_fract_z
Si Si1 0.503116 0.577572 0.868888
Si Si2 0.321807 0.422014 0.797262
Si Si3 0.912925 0.923049 0.138977
Si Si4 0.773328 0.076748 0.662585
Si Si5 0.751593 0.922880 0.104355
Si Si6 0.902901 0.422712 0.389870
Si Si7 0.667300 0.077562 0.656376
O O1 0.498782 0.750000 0.889442
O O2 0.426547 0.531302 0.591757
O O3 0.500000 0.500000 0.000000
O O4 0.584311 0.533205 0.990442
O O5 0.307042 0.250000 0.726333
O O6 0.265997 0.521479 0.568061
O O7 0.300147 0.458428 0.893683
O O8 0.894662 0.750000 0.111060
O O9 0.006995 0.951834 0.333756
O O10 0.889504 0.003903 0.215724
O O11 0.858683 0.991643 0.890248
O O12 0.791270 0.250000 0.695248
O O13 0.713521 0.038664 0.635388
O O14 0.768474 0.750000 0.128971
O O15 0.838394 0.005139 0.330878
O O16 0.702043 0.979799 0.858207
O O17 0.884426 0.250000 0.327785
O O18 0.677513 0.250000 0.717489
#
# Coordination Sequence:
#
# PCOD8073757 Si02
#       7
#     4   4   4   4   4   4   4
#     4  10  20  37  59  83 113 146 187 237 283 330
#     4  10  23  40  58  82 116 153 191 235 283 338
#     4  10  20  34  57  86 114 146 187 234 282 332
#     4  11  21  35  58  88 116 147 190 234 283 337
#     4  11  23  38  57  84 116 154 192 229 284 341
#     4  10  20  35  56  84 115 148 187 233 282 333
#     4  10  21  36  57  85 115 146 187 237 282 334
#
# _framework density 18.524401999999998
#
# number of rings (size 3 to 8) (size 9 to 14) (size 15 to 20)
#    0.000    1.714    2.857    1.714    0.000    4.571 
#    0.000    0.714    0.000    0.000    0.000    0.000 
#    0.000    0.000    0.000    0.000    0.000    0.000 
#
# Total GULP energy -347314.655932 kJ/mol
# GULP energy per Si atom -12404.094855 kJ/mol
# Density = 1.848224 g / cm^3
# Si number density = 18.524402 Si / 1000 Ang^3
#
#
#
# Elastic Constant Matrix: (Units=GPa)
#
#
# Indices 1 2 3 4 5 6 
#
# 1 106.3138 51.2442 43.5329 0.0000 11.1420 0.0000
# 2 51.2442 91.8571 52.0901 0.0000 4.9815 0.0000
# 3 43.5329 52.0901 112.1758 0.0000 15.9713 0.0000
# 4 0.0000 0.0000 0.0000 34.6206 0.0000 -0.5263
# 5 11.1420 4.9815 15.9713 0.0000 30.8225 0.0000
# 6 0.0000 0.0000 0.0000 -0.5263 0.0000 24.9680
#
#
#
# Elastic Compliance Matrix: (Units=1/GPa)
#
#
# Indices 1 2 3 4 5 6 
#
# 1 0.013532 -0.006309 -0.001912 0.000000 -0.002881 0.000000
# 2 -0.006309 0.017765 -0.006172 0.000000 0.002608 0.000000
# 3 -0.001912 -0.006172 0.013260 0.000000 -0.005183 0.000000
# 4 0.000000 0.000000 0.000000 0.028894 0.000000 0.000609
# 5 -0.002881 0.002608 -0.005183 0.000000 0.035749 0.000000
# 6 0.000000 0.000000 0.000000 0.000609 0.000000 0.040064
#
#
# Mechanical properties :
#
#
# Convention : Reuss Voigt Hill
#
# Bulk Modulus (GPa) = 63.40427 67.12011 65.26219
# Shear Modulus (GPa) = 27.27677 28.98085 28.12881
#
# Velocity S-wave (km/s) = 3.84145 3.95963 3.90099
# Velocity P-wave (km/s) = 7.34693 7.56418 7.45635
#
# Compressibility (1/GPa) = 0.01577181
#
# Stress axis : x y z
#
# Youngs Moduli (GPa) = 73.90082 56.29184 75.41212
#
# Poissons Ratio (x) = 0.35512 0.14416
# Poissons Ratio (y) = 0.46621 0.46546
# Poissons Ratio (z) = 0.14127 0.34745
#
# Static dielectric constant tensor:
#      x y z
#    x 14.778240 0.000000 0.610330 
#    y 0.000000 3.609390 0.000000 
#    z 0.610330 0.000000 3.545420 
# 
# 
# High freq. dielectric constant tensor:
#      x y z
#    x 1.706470 0.000000 0.018110 
#    y 0.000000 1.727150 0.000000 
#    z 0.018110 0.000000 1.726820 
# 
# From -- ./inp_files/28250.got.cif
#   From: 2010.06.25/outbox.cif.g09.slc.cpg/sg11_15_cif.got.tgz:28250.got - 2010.06.27 23:14:04.
