data_PCOD8073070
_publ_section_title
;
Structure prediction by ZEFSAII (Michael W. Deem and Ramdas Pophale) SiO2 
 PCOD8073070
Probable space group: P 21/M
;
_chemical_formula_sum "Si O2"
_cell_formula_units_Z 32
_cell_length_a 26.941705
_cell_length_b 8.918480
_cell_length_c 21.581431
_cell_angle_alpha 90.000000
_cell_angle_beta 20.547703
_cell_angle_gamma 90.000000
_cell_volume 1820.066782
_symmetry_space_group_name_H-M "P 21/M"
_symmetry_group_IT_number 11
_symmetry_cell_setting 'monoclinic'
loop_
_space_group_symop_operation_xyz
x,y,z
-x,1/2+y,-z
-x,-y,-z
x,1/2-y,z
loop_
_atom_site_type_symbol
_atom_site_label
_atom_site_fract_x
_atom_site_fract_y
_atom_site_fract_z
Si Si1 0.151090 0.571819 0.817522
Si Si2 0.651032 0.928042 0.313228
Si Si3 0.232635 0.083296 0.084175
Si Si4 0.643642 0.071956 0.527246
Si Si5 0.861766 0.425894 0.689449
Si Si6 0.557384 0.073562 0.994984
Si Si7 0.651011 0.573263 0.174905
Si Si8 0.452786 0.916753 0.232520
O O1 0.142651 0.750000 0.832755
O O2 0.240855 0.507713 0.768504
O O3 0.219022 0.521046 0.672223
O O4 0.000000 0.500000 0.000000
O O5 0.645051 0.750000 0.331537
O O6 0.703039 0.967393 0.182742
O O7 0.500000 0.000000 0.500000
O O8 0.164453 0.250000 0.167696
O O9 0.145111 0.972353 0.230391
O O10 0.235028 0.019308 0.010514
O O11 0.393862 0.091654 0.916688
O O12 0.632634 0.250000 0.539594
O O13 0.504910 0.003076 0.655354
O O14 0.650842 0.020603 0.591447
O O15 0.879110 0.250000 0.664658
O O16 0.000000 0.500000 0.500000
O O17 0.719090 0.478737 0.820147
O O18 0.549355 0.250000 0.997038
O O19 0.453206 0.025299 0.172713
O O20 0.500000 0.000000 0.000000
O O21 0.636829 0.750000 0.183245
O O22 0.405949 0.750000 0.265463
#
# Coordination Sequence:
#
# PCOD8073070 Si02
#       8
#     4   4   4   4   4   4   4   4
#     4  11  22  37  54  75 106 141 179 219 262 316
#     4  11  20  33  54  81 108 137 175 217 263 310
#     4   8  14  27  49  74  99 130 168 207 249 298
#     4   8  14  28  51  75  99 131 169 209 251 304
#     4  10  20  33  51  76 105 135 169 206 248 300
#     4  10  20  33  51  77 106 133 165 207 254 299
#     4   8  14  27  50  77 102 129 166 210 253 304
#     4   8  14  27  50  75  97 127 169 209 250 299
#
# _framework density 17.581772999999998
#
# number of rings (size 3 to 8) (size 9 to 14) (size 15 to 20)
#    0.000    2.750    1.250    3.000    0.000    1.500 
#    0.000    2.500    2.750    0.000    0.000    0.000 
#    0.000    0.000    0.000    0.000    0.000    0.000 
#
# Total GULP energy -396519.682893 kJ/mol
# GULP energy per Si atom -12391.240090 kJ/mol
# Density = 1.754176 g / cm^3
# Si number density = 17.581773 Si / 1000 Ang^3
#
#
#
# Elastic Constant Matrix: (Units=GPa)
#
#
# Indices 1 2 3 4 5 6 
#
# 1 122.1804 45.3616 78.1207 0.0000 27.5399 0.0000
# 2 45.3616 65.9288 45.5183 0.0000 8.3783 0.0000
# 3 78.1207 45.5183 131.4534 0.0000 25.2590 0.0000
# 4 0.0000 0.0000 0.0000 27.3081 0.0000 2.7540
# 5 27.5399 8.3783 25.2590 0.0000 32.7559 0.0000
# 6 0.0000 0.0000 0.0000 2.7540 0.0000 27.7838
#
#
#
# Elastic Compliance Matrix: (Units=1/GPa)
#
#
# Indices 1 2 3 4 5 6 
#
# 1 0.015792 -0.005817 -0.005994 0.000000 -0.007168 0.000000
# 2 -0.005817 0.022078 -0.004746 0.000000 0.002903 0.000000
# 3 -0.005994 -0.004746 0.013631 0.000000 -0.004258 0.000000
# 4 0.000000 0.000000 0.000000 0.036989 0.000000 -0.003666
# 5 -0.007168 0.002903 -0.004258 0.000000 0.039096 0.000000
# 6 0.000000 0.000000 0.000000 -0.003666 0.000000 0.036356
#
#
# Mechanical properties :
#
#
# Convention : Reuss Voigt Hill
#
# Bulk Modulus (GPa) = 54.38268 73.06263 63.72265
# Shear Modulus (GPa) = 24.60844 27.60702 26.10773
#
# Velocity S-wave (km/s) = 3.74526 3.96688 3.85766
# Velocity P-wave (km/s) = 7.04990 7.91376 7.49429
#
# Compressibility (1/GPa) = 0.01838821
#
# Stress axis : x y z
#
# Youngs Moduli (GPa) = 63.32355 45.29463 73.36405
#
# Poissons Ratio (x) = 0.26346 0.43971
# Poissons Ratio (y) = 0.36833 0.34818
# Poissons Ratio (z) = 0.37953 0.21497
#
# Static dielectric constant tensor:
#      x y z
#    x 3.382460 0.000000 0.569270 
#    y 0.000000 2.416510 0.000000 
#    z 0.569270 0.000000 3.416830 
# 
# 
# High freq. dielectric constant tensor:
#      x y z
#    x 1.672690 0.000000 0.034360 
#    y 0.000000 1.661780 0.000000 
#    z 0.034360 0.000000 1.665970 
# 
# From -- ./inp_files/67079.got.cif
#   From: 2010.06.25/outbox.cif.g09.slc.cpg/sg11_34_cif.got.tgz:67079.got - 2010.06.27 23:14:04.
