data_PCOD8073925
_publ_section_title
;
Structure prediction by ZEFSAII (Michael W. Deem and Ramdas Pophale) SiO2 
 PCOD8073925
Probable space group: P 21/M
;
_chemical_formula_sum "Si O2"
_cell_formula_units_Z 28
_cell_length_a 15.790546
_cell_length_b 8.868585
_cell_length_c 21.494444
_cell_angle_alpha 90.000000
_cell_angle_beta 28.186551
_cell_angle_gamma 90.000000
_cell_volume 1421.791757
_symmetry_space_group_name_H-M "P 21/M"
_symmetry_group_IT_number 11
_symmetry_cell_setting 'monoclinic'
loop_
_space_group_symop_operation_xyz
x,y,z
-x,1/2+y,-z
-x,-y,-z
x,1/2-y,z
loop_
_atom_site_type_symbol
_atom_site_label
_atom_site_fract_x
_atom_site_fract_y
_atom_site_fract_z
Si Si1 0.388913 0.923865 0.987798
Si Si2 0.546524 0.570166 0.403236
Si Si3 0.072409 0.077641 0.892101
Si Si4 0.057597 0.073667 0.527666
Si Si5 0.696652 0.076589 0.088980
Si Si6 0.584065 0.928508 0.632840
Si Si7 0.224879 0.422016 0.205546
O O1 0.325364 0.750000 0.031992
O O2 0.255672 0.022669 0.115666
O O3 0.376780 0.995385 0.926936
O O4 0.593133 0.940703 0.874563
O O5 0.500000 0.500000 0.500000
O O6 0.536266 0.750000 0.415196
O O7 0.745882 0.510878 0.255150
O O8 0.409557 0.512027 0.438345
O O9 0.106796 0.250000 0.887052
O O10 0.910566 0.056026 0.948280
O O11 0.000000 0.000000 0.000000
O O12 0.054747 0.250000 0.517408
O O13 0.251798 0.023694 0.428299
O O14 0.000000 0.000000 0.500000
O O15 0.919353 0.029970 0.670467
O O16 0.638606 0.250000 0.126483
O O17 0.596407 0.010938 0.215047
O O18 0.585508 0.750000 0.618663
O O19 0.157016 0.250000 0.249619
#
# Coordination Sequence:
#
# PCOD8073925 Si02
#       7
#     4   4   4   4   4   4   4
#     4   9  18  34  56  81 110 149 195 237 282 345
#     4  11  24  40  60  90 125 163 204 249 305 365
#     4  10  20  36  60  86 113 146 189 238 291 349
#     4  11  23  38  59  86 116 154 198 242 296 361
#     4   9  17  33  59  84 108 143 189 238 287 343
#     4  10  21  39  62  85 114 156 201 246 299 359
#     4  10  20  35  54  79 115 152 191 239 291 343
#
# _framework density 19.693460999999999
#
# number of rings (size 3 to 8) (size 9 to 14) (size 15 to 20)
#    0.000    2.000    1.429    2.143    0.000    5.714 
#    0.000    4.286    0.000    0.000    0.000    0.000 
#    0.000    0.000    0.000    0.000    0.000    0.000 
#
# Total GULP energy -347097.617410 kJ/mol
# GULP energy per Si atom -12396.343479 kJ/mol
# Density = 1.964864 g / cm^3
# Si number density = 19.693461 Si / 1000 Ang^3
#
#
#
# Elastic Constant Matrix: (Units=GPa)
#
#
# Indices 1 2 3 4 5 6 
#
# 1 138.4688 47.2564 57.2574 0.0000 19.4324 0.0000
# 2 47.2564 53.3035 36.7692 0.0000 -0.2385 0.0000
# 3 57.2574 36.7692 117.4555 0.0000 9.2271 0.0000
# 4 0.0000 0.0000 0.0000 30.1494 0.0000 4.9616
# 5 19.4324 -0.2385 9.2271 0.0000 25.8984 0.0000
# 6 0.0000 0.0000 0.0000 4.9616 0.0000 31.4711
#
#
#
# Elastic Compliance Matrix: (Units=1/GPa)
#
#
# Indices 1 2 3 4 5 6 
#
# 1 0.012787 -0.009631 -0.002528 0.000000 -0.008782 0.000000
# 2 -0.009631 0.031407 -0.005892 0.000000 0.009615 0.000000
# 3 -0.002528 -0.005892 0.011776 0.000000 -0.002353 0.000000
# 4 0.000000 0.000000 0.000000 0.034052 0.000000 -0.005368
# 5 -0.008782 0.009615 -0.002353 0.000000 0.046129 0.000000
# 6 0.000000 0.000000 0.000000 -0.005368 0.000000 0.032622
#
#
# Mechanical properties :
#
#
# Convention : Reuss Voigt Hill
#
# Bulk Modulus (GPa) = 50.33822 65.75488 58.04655
# Shear Modulus (GPa) = 23.64107 28.70008 26.17057
#
# Velocity S-wave (km/s) = 3.46851 3.82165 3.64936
# Velocity P-wave (km/s) = 6.45424 7.27565 6.87722
#
# Compressibility (1/GPa) = 0.01986562
#
# Stress axis : x y z
#
# Youngs Moduli (GPa) = 78.20587 31.84045 84.92084
#
# Poissons Ratio (x) = 0.30667 0.21471
# Poissons Ratio (y) = 0.75323 0.50035
# Poissons Ratio (z) = 0.19773 0.18760
#
# Static dielectric constant tensor:
#      x y z
#    x 2.994130 0.000000 0.305780 
#    y 0.000000 3.494810 0.000000 
#    z 0.305780 0.000000 3.622600 
# 
# 
# High freq. dielectric constant tensor:
#      x y z
#    x 1.777160 0.000000 0.002810 
#    y 0.000000 1.749750 0.000000 
#    z 0.002810 0.000000 1.771230 
# 
# From -- ./inp_files/54582.got.cif
#   From: 2010.06.25/outbox.cif.g09.slc.cpg/sg11_28_cif.got.tgz:54582.got - 2010.06.27 23:14:04.
