data_PCOD8073895
_publ_section_title
;
Structure prediction by ZEFSAII (Michael W. Deem and Ramdas Pophale) SiO2 
 PCOD8073895
Probable space group: P 21/M
;
_chemical_formula_sum "Si O2"
_cell_formula_units_Z 32
_cell_length_a 21.916203
_cell_length_b 9.017484
_cell_length_c 12.027835
_cell_angle_alpha 90.000000
_cell_angle_beta 45.699902
_cell_angle_gamma 90.000000
_cell_volume 1701.233945
_symmetry_space_group_name_H-M "P 21/M"
_symmetry_group_IT_number 11
_symmetry_cell_setting 'monoclinic'
loop_
_space_group_symop_operation_xyz
x,y,z
-x,1/2+y,-z
-x,-y,-z
x,1/2-y,z
loop_
_atom_site_type_symbol
_atom_site_label
_atom_site_fract_x
_atom_site_fract_y
_atom_site_fract_z
Si Si1 0.269169 0.575246 0.073516
Si Si2 0.582548 0.076353 0.267984
Si Si3 0.966660 0.920117 0.433422
Si Si4 0.391646 0.075571 0.539794
Si Si5 0.089284 0.422731 0.910091
Si Si6 0.246714 0.422780 0.556674
Si Si7 0.792338 0.073591 0.612498
Si Si8 0.129853 0.919433 0.079271
O O1 0.256896 0.750000 0.092900
O O2 0.255737 0.514648 0.215325
O O3 0.196807 0.512209 0.082571
O O4 0.362963 0.529730 0.910055
O O5 0.589790 0.250000 0.280874
O O6 0.484616 0.028212 0.374237
O O7 0.624404 0.998432 0.320989
O O8 0.944415 0.750000 0.490498
O O9 0.035740 0.928388 0.248707
O O10 0.885688 0.004561 0.489001
O O11 0.000000 0.000000 0.500000
O O12 0.384933 0.250000 0.565819
O O13 0.319988 0.019004 0.546365
O O14 0.071648 0.250000 0.948464
O O15 0.153540 0.452297 0.726570
O O16 0.134469 0.483853 0.962687
O O17 0.000000 0.500000 0.000000
O O18 0.259602 0.250000 0.513530
O O19 0.259281 0.515453 0.428093
O O20 0.799197 0.250000 0.600636
O O21 0.153406 0.750000 0.019193
#
# Coordination Sequence:
#
# PCOD8073895 Si02
#       8
#     4   4   4   4   4   4   4   4
#     4   9  18  34  53  78 108 136 171 217 269 314
#     4   9  17  32  58  84 107 137 172 215 269 324
#     4  11  21  35  54  77 107 143 180 220 265 312
#     4   9  18  34  56  82 110 138 172 217 267 322
#     4  11  23  37  53  75 104 138 175 218 264 314
#     4  10  22  39  54  74 109 146 178 217 271 322
#     4  11  22  37  55  77 106 142 186 227 263 314
#     4  10  20  35  54  76 106 137 170 218 266 311
#
# _framework density 18.809875999999999
#
# number of rings (size 3 to 8) (size 9 to 14) (size 15 to 20)
#    0.000    2.000    1.250    2.625    0.000    5.500 
#    0.000    1.875    0.000    0.000    0.000    0.000 
#    0.000    0.000    0.000    0.000    0.000    0.000 
#
# Total GULP energy -396852.524001 kJ/mol
# GULP energy per Si atom -12401.641375 kJ/mol
# Density = 1.876706 g / cm^3
# Si number density = 18.809876 Si / 1000 Ang^3
#
#
#
# Elastic Constant Matrix: (Units=GPa)
#
#
# Indices 1 2 3 4 5 6 
#
# 1 117.7212 40.5160 49.3833 0.0000 5.8520 0.0000
# 2 40.5160 67.0996 37.9932 0.0000 8.7354 0.0000
# 3 49.3833 37.9932 104.1541 0.0000 6.8747 0.0000
# 4 0.0000 0.0000 0.0000 24.0806 0.0000 5.8740
# 5 5.8520 8.7354 6.8747 0.0000 31.3994 0.0000
# 6 0.0000 0.0000 0.0000 5.8740 0.0000 32.6195
#
#
#
# Elastic Compliance Matrix: (Units=1/GPa)
#
#
# Indices 1 2 3 4 5 6 
#
# 1 0.011793 -0.004986 -0.003774 0.000000 0.000015 0.000000
# 2 -0.004986 0.021344 -0.005166 0.000000 -0.003878 0.000000
# 3 -0.003774 -0.005166 0.013326 0.000000 -0.000777 0.000000
# 4 0.000000 0.000000 0.000000 0.043435 0.000000 -0.007822
# 5 0.000015 -0.003878 -0.000777 0.000000 0.033094 0.000000
# 6 0.000000 0.000000 0.000000 -0.007822 0.000000 0.032065
#
#
# Mechanical properties :
#
#
# Convention : Reuss Voigt Hill
#
# Bulk Modulus (GPa) = 53.72956 60.52891 57.12924
# Shear Modulus (GPa) = 26.43943 28.35871 27.39907
#
# Velocity S-wave (km/s) = 3.75322 3.88706 3.82073
# Velocity P-wave (km/s) = 6.88540 7.23843 7.06412
#
# Compressibility (1/GPa) = 0.01861173
#
# Stress axis : x y z
#
# Youngs Moduli (GPa) = 84.79629 46.85237 75.04114
#
# Poissons Ratio (x) = 0.23361 0.28318
# Poissons Ratio (y) = 0.42280 0.38764
# Poissons Ratio (z) = 0.31999 0.24202
#
# Static dielectric constant tensor:
#      x y z
#    x 3.382180 0.000000 0.001500 
#    y 0.000000 3.348850 0.000000 
#    z 0.001500 0.000000 3.638110 
# 
# 
# High freq. dielectric constant tensor:
#      x y z
#    x 1.729660 0.000000 0.000800 
#    y 0.000000 1.719160 0.000000 
#    z 0.000800 0.000000 1.734860 
# 
# From -- ./inp_files/42773.got.cif
#   From: 2010.06.25/outbox.cif.g09.slc.cpg/sg11_22_cif.got.tgz:42773.got - 2010.06.27 23:14:04.
