data_PCOD8073015
_publ_section_title
;
Structure prediction by ZEFSAII (Michael W. Deem and Ramdas Pophale) SiO2 
 PCOD8073015
Probable space group: P 21/M
;
_chemical_formula_sum "Si O2"
_cell_formula_units_Z 32
_cell_length_a 15.356184
_cell_length_b 9.055994
_cell_length_c 14.594683
_cell_angle_alpha 90.000000
_cell_angle_beta 118.372697
_cell_angle_gamma 90.000000
_cell_volume 1785.809536
_symmetry_space_group_name_H-M "P 21/M"
_symmetry_group_IT_number 11
_symmetry_cell_setting 'monoclinic'
loop_
_space_group_symop_operation_xyz
x,y,z
-x,1/2+y,-z
-x,-y,-z
x,1/2-y,z
loop_
_atom_site_type_symbol
_atom_site_label
_atom_site_fract_x
_atom_site_fract_y
_atom_site_fract_z
Si Si1 0.235749 0.418878 0.082560
Si Si2 0.764251 0.081122 0.346811
Si Si3 0.153035 0.924404 0.413512
Si Si4 0.975579 0.578719 0.081033
Si Si5 0.614176 0.421902 0.964089
Si Si6 0.975579 0.078719 0.394546
Si Si7 0.614176 0.578098 0.150087
Si Si8 0.153035 0.075596 0.239523
O O1 0.271742 0.250000 0.101356
O O2 0.324522 0.520387 0.092109
O O3 0.207966 0.467174 0.172494
O O4 0.142983 0.437157 0.966003
O O5 0.728258 0.250000 0.329615
O O6 0.792034 0.032826 0.464528
O O7 0.857017 0.062843 0.323020
O O8 0.675477 0.979614 0.267587
O O9 0.146225 0.750000 0.397722
O O10 0.209319 0.000000 0.354659
O O11 0.041613 0.993190 0.353142
O O12 0.006537 0.750000 0.093098
O O13 0.041613 0.493190 0.188471
O O14 0.000000 0.500000 0.000000
O O15 0.633532 0.250000 0.986396
O O16 0.500000 0.458155 0.886899
O O17 0.649956 0.500001 0.074978
O O18 0.006537 0.250000 0.413439
O O19 0.000000 0.000000 0.500000
O O20 0.633533 0.750000 0.147138
O O21 0.146225 0.250000 0.248503
#
# Coordination Sequence:
#
# PCOD8073015 Si02
#       8
#     4   4   4   4   4   4   4   4
#     4   9  19  34  52  75 102 133 169 208 251 299
#     4   9  19  34  52  75 102 133 169 208 251 299
#     4  10  20  33  50  74 104 139 176 210 249 295
#     4   9  17  30  47  69  98 131 168 206 245 289
#     4  10  21  36  55  78 101 127 161 203 253 306
#     4   9  17  30  47  69  98 131 168 206 245 289
#     4  10  21  36  55  78 101 127 161 203 253 306
#     4  10  20  33  50  74 104 139 176 210 249 295
#
# _framework density 17.919045000000001
#
# number of rings (size 3 to 8) (size 9 to 14) (size 15 to 20)
#    0.000    2.500    0.000    3.750    0.000    8.500 
#    0.000    0.000    0.000    0.750    0.000    0.000 
#    0.000    0.000    0.000    0.000    0.000    0.000 
#
# Total GULP energy -396575.513744 kJ/mol
# GULP energy per Si atom -12392.984804 kJ/mol
# Density = 1.787826 g / cm^3
# Si number density = 17.919045 Si / 1000 Ang^3
#
#
#
# Elastic Constant Matrix: (Units=GPa)
#
#
# Indices 1 2 3 4 5 6 
#
# 1 84.9381 54.0410 51.8998 0.0000 -8.6737 0.0000
# 2 54.0410 109.4408 56.8053 0.0000 -2.3933 0.0000
# 3 51.8998 56.8053 104.1289 0.0000 -7.9455 0.0000
# 4 0.0000 0.0000 0.0000 34.1453 0.0000 -1.2965
# 5 -8.6737 -2.3933 -7.9455 0.0000 20.8963 0.0000
# 6 0.0000 0.0000 0.0000 -1.2965 0.0000 32.6481
#
#
#
# Elastic Compliance Matrix: (Units=1/GPa)
#
#
# Indices 1 2 3 4 5 6 
#
# 1 0.020317 -0.006796 -0.006009 0.000000 0.005370 0.000000
# 2 -0.006796 0.015050 -0.005053 0.000000 -0.003019 0.000000
# 3 -0.006009 -0.005053 0.015573 0.000000 0.002848 0.000000
# 4 0.000000 0.000000 0.000000 0.029331 0.000000 0.001165
# 5 0.005370 -0.003019 0.002848 0.000000 0.050821 0.000000
# 6 0.000000 0.000000 0.000000 0.001165 0.000000 0.030676
#
#
# Mechanical properties :
#
#
# Convention : Reuss Voigt Hill
#
# Bulk Modulus (GPa) = 65.69094 69.33333 67.51214
# Shear Modulus (GPa) = 24.68400 26.58874 25.63637
#
# Velocity S-wave (km/s) = 3.71553 3.85622 3.78653
# Velocity P-wave (km/s) = 7.42606 7.65531 7.54156
#
# Compressibility (1/GPa) = 0.01522280
#
# Stress axis : x y z
#
# Youngs Moduli (GPa) = 49.21869 66.44485 64.21452
#
# Poissons Ratio (x) = 0.45156 0.38590
# Poissons Ratio (y) = 0.33449 0.32450
# Poissons Ratio (z) = 0.29578 0.33577
#
# Static dielectric constant tensor:
#      x y z
#    x 3.315320 0.000000 -0.060710 
#    y 0.000000 4.008310 0.000000 
#    z -0.060710 0.000000 3.385420 
# 
# 
# High freq. dielectric constant tensor:
#      x y z
#    x 1.671190 0.000000 -0.011280 
#    y 0.000000 1.707720 0.000000 
#    z -0.011280 0.000000 1.684230 
# 
# From -- ./inp_files/51775.got.cif
#   From: 2010.06.25/outbox.cif.g09.slc.cpg/sg11_26_cif.got.tgz:51775.got - 2010.06.27 23:14:04.
