data_PCOD8073270
_publ_section_title
;
Structure prediction by ZEFSAII (Michael W. Deem and Ramdas Pophale) SiO2 
 PCOD8073270
Probable space group: P 21/M
;
_chemical_formula_sum "Si O2"
_cell_formula_units_Z 32
_cell_length_a 24.496045
_cell_length_b 8.576996
_cell_length_c 19.079380
_cell_angle_alpha 90.000000
_cell_angle_beta 155.800371
_cell_angle_gamma 90.000000
_cell_volume 1643.204068
_symmetry_space_group_name_H-M "P 21/M"
_symmetry_group_IT_number 11
_symmetry_cell_setting 'monoclinic'
loop_
_space_group_symop_operation_xyz
x,y,z
-x,1/2+y,-z
-x,-y,-z
x,1/2-y,z
loop_
_atom_site_type_symbol
_atom_site_label
_atom_site_fract_x
_atom_site_fract_y
_atom_site_fract_z
Si Si1 0.133883 0.078934 0.486968
Si Si2 0.157784 0.562939 0.858986
Si Si3 0.156552 0.565351 0.015443
Si Si4 0.134985 0.078550 0.323109
Si Si5 0.634415 0.435856 0.628928
Si Si6 0.422047 0.435649 0.111374
Si Si7 0.624754 0.429753 0.462563
Si Si8 0.426243 0.063356 0.846290
O O1 0.136382 0.250000 0.524672
O O2 0.134479 0.094348 0.404981
O O3 0.273444 0.994809 0.671525
O O4 0.990362 0.000906 0.339560
O O5 0.158946 0.750000 0.857659
O O6 0.187015 0.501557 0.972583
O O7 0.269581 0.494240 0.937938
O O8 0.168936 0.750000 0.026332
O O9 0.253846 0.494276 0.188170
O O10 0.009752 0.517904 0.869959
O O11 0.167606 0.250000 0.329202
O O12 0.240758 0.952114 0.423084
O O13 0.500000 0.500000 0.500000
O O14 0.640576 0.250000 0.636064
O O15 0.645266 0.506300 0.563060
O O16 0.425302 0.250000 0.109292
O O17 0.500873 0.498537 0.272781
O O18 0.495042 0.504996 0.129419
O O19 0.595894 0.250000 0.439547
O O20 0.423304 0.250000 0.840892
O O21 0.500000 0.000000 0.000000
#
# Coordination Sequence:
#
# PCOD8073270 Si02
#       8
#     4   4   4   4   4   4   4   4
#     4   8  16  33  57  82 108 137 177 222 266 315
#     4   9  17  33  58  83 105 140 186 231 270 311
#     4   8  16  31  52  75 103 137 181 229 272 316
#     4   9  16  31  54  77  98 133 181 223 263 319
#     4  10  20  34  48  68 101 141 179 223 275 321
#     4  11  22  36  53  81 115 146 182 223 265 322
#     4  10  21  33  48  73 109 142 174 222 274 315
#     4  11  22  39  62  87 112 142 175 218 270 324
#
# _framework density 19.474149000000001
#
# number of rings (size 3 to 8) (size 9 to 14) (size 15 to 20)
#    0.000    2.500    1.250    3.000    0.000    1.500 
#    0.000    5.000    0.000    0.000    0.000    0.000 
#    0.000    0.000    0.000    0.000    0.000    0.000 
#
# Total GULP energy -396442.445790 kJ/mol
# GULP energy per Si atom -12388.826431 kJ/mol
# Density = 1.942982 g / cm^3
# Si number density = 19.474149 Si / 1000 Ang^3
#
#
#
# Elastic Constant Matrix: (Units=GPa)
#
#
# Indices 1 2 3 4 5 6 
#
# 1 74.5779 20.5650 71.3365 0.0000 10.1264 0.0000
# 2 20.5650 28.1545 26.2708 0.0000 -0.5157 0.0000
# 3 71.3365 26.2708 192.0334 0.0000 12.8819 0.0000
# 4 0.0000 0.0000 0.0000 13.1453 0.0000 -3.4652
# 5 10.1264 -0.5157 12.8819 0.0000 33.0719 0.0000
# 6 0.0000 0.0000 0.0000 -3.4652 0.0000 14.5053
#
#
#
# Elastic Compliance Matrix: (Units=1/GPa)
#
#
# Indices 1 2 3 4 5 6 
#
# 1 0.023772 -0.010896 -0.007024 0.000000 -0.004713 0.000000
# 2 -0.010896 0.045979 -0.002582 0.000000 0.005059 0.000000
# 3 -0.007024 -0.002582 0.008244 0.000000 -0.001101 0.000000
# 4 0.000000 0.000000 0.000000 0.081186 0.000000 0.019395
# 5 -0.004713 0.005059 -0.001101 0.000000 0.032188 0.000000
# 6 0.000000 0.000000 0.000000 0.019395 0.000000 0.073573
#
#
# Mechanical properties :
#
#
# Convention : Reuss Voigt Hill
#
# Bulk Modulus (GPa) = 27.03374 59.01228 43.02301
# Shear Modulus (GPa) = 15.70964 23.91741 19.81352
#
# Velocity S-wave (km/s) = 2.84331 3.50832 3.19317
# Velocity P-wave (km/s) = 4.96903 6.83957 5.97792
#
# Compressibility (1/GPa) = 0.03699081
#
# Stress axis : x y z
#
# Youngs Moduli (GPa) = 42.06598 21.74912 121.30399
#
# Poissons Ratio (x) = 0.23698 0.85205
# Poissons Ratio (y) = 0.45836 0.31317
# Poissons Ratio (z) = 0.29548 0.05615
#
# Static dielectric constant tensor:
#      x y z
#    x 2.678160 0.000000 -0.558380 
#    y 0.000000 3.145010 0.000000 
#    z -0.558380 0.000000 3.391940 
# 
# 
# High freq. dielectric constant tensor:
#      x y z
#    x 1.744740 0.000000 0.010160 
#    y 0.000000 1.720950 0.000000 
#    z 0.010160 0.000000 1.777150 
# 
# From -- ./inp_files/67261.got.cif
#   From: 2010.06.25/outbox.cif.g09.slc.cpg/sg11_34_cif.got.tgz:67261.got - 2010.06.27 23:14:04.
