data_PCOD8073703
_publ_section_title
;
Structure prediction by ZEFSAII (Michael W. Deem and Ramdas Pophale) SiO2 
 PCOD8073703
Probable space group: P 21/M
;
_chemical_formula_sum "Si O2"
_cell_formula_units_Z 28
_cell_length_a 16.263519
_cell_length_b 9.081142
_cell_length_c 22.459085
_cell_angle_alpha 90.000000
_cell_angle_beta 154.737640
_cell_angle_gamma 90.000000
_cell_volume 1415.580797
_symmetry_space_group_name_H-M "P 21/M"
_symmetry_group_IT_number 11
_symmetry_cell_setting 'monoclinic'
loop_
_space_group_symop_operation_xyz
x,y,z
-x,1/2+y,-z
-x,-y,-z
x,1/2-y,z
loop_
_atom_site_type_symbol
_atom_site_label
_atom_site_fract_x
_atom_site_fract_y
_atom_site_fract_z
Si Si1 0.277673 0.421183 0.660836
Si Si2 0.693521 0.074547 0.650784
Si Si3 0.176427 0.417442 0.145332
Si Si4 0.899631 0.581875 0.129946
Si Si5 0.106650 0.581149 0.651240
Si Si6 0.626246 0.911224 0.845824
Si Si7 0.311823 0.920947 0.902921
O O1 0.268153 0.250000 0.664654
O O2 0.267943 0.494337 0.719509
O O3 0.475881 0.461335 0.759986
O O4 0.104633 0.477922 0.504984
O O5 0.665178 0.250000 0.637751
O O6 0.873669 0.038288 0.724447
O O7 0.500000 0.000000 0.500000
O O8 0.737651 0.008183 0.743968
O O9 0.120469 0.250000 0.127911
O O10 0.339128 0.412451 0.201566
O O11 0.000000 0.500000 0.000000
O O12 0.877908 0.750000 0.136882
O O13 0.770485 0.484603 0.089580
O O14 0.820417 0.558515 0.010934
O O15 0.129775 0.750000 0.648405
O O16 0.139910 0.556901 0.742838
O O17 0.544293 0.750000 0.810603
O O18 0.362508 0.750000 0.945796
O O19 0.500000 0.000000 0.000000
#
# Coordination Sequence:
#
# PCOD8073703 Si02
#       7
#     4   4   4   4   4   4   4
#     4  10  20  34  56  85 110 144 195 243 288 349
#     4  11  24  44  66  94 129 169 212 262 322 382
#     4  11  22  40  65  92 122 161 205 254 310 370
#     4  10  22  41  61  84 120 160 200 250 306 367
#     4   9  20  38  54  74 114 154 185 234 298 352
#     4  10  21  38  59  85 118 154 193 240 303 361
#     4  11  23  38  58  85 117 156 199 244 299 362
#
# _framework density 19.779866999999999
#
# number of rings (size 3 to 8) (size 9 to 14) (size 15 to 20)
#    0.000    1.714    1.429    2.571    0.000    9.143 
#    0.000    2.857    0.000    0.000    0.000    0.000 
#    0.000    0.000    0.000    0.000    0.000    0.000 
#
# Total GULP energy -347171.704390 kJ/mol
# GULP energy per Si atom -12398.989443 kJ/mol
# Density = 1.973485 g / cm^3
# Si number density = 19.779867 Si / 1000 Ang^3
#
#
#
# Elastic Constant Matrix: (Units=GPa)
#
#
# Indices 1 2 3 4 5 6 
#
# 1 106.9204 52.6565 48.2380 0.0000 1.2430 0.0000
# 2 52.6565 105.1567 52.8552 0.0000 -0.0378 0.0000
# 3 48.2380 52.8552 104.2881 0.0000 2.2267 0.0000
# 4 0.0000 0.0000 0.0000 36.3641 0.0000 1.0937
# 5 1.2430 -0.0378 2.2267 0.0000 33.6003 0.0000
# 6 0.0000 0.0000 0.0000 1.0937 0.0000 34.5659
#
#
#
# Elastic Compliance Matrix: (Units=1/GPa)
#
#
# Indices 1 2 3 4 5 6 
#
# 1 0.013433 -0.004839 -0.003756 0.000000 -0.000253 0.000000
# 2 -0.004839 0.014510 -0.005127 0.000000 0.000535 0.000000
# 3 -0.003756 -0.005127 0.013941 0.000000 -0.000791 0.000000
# 4 0.000000 0.000000 0.000000 0.027526 0.000000 -0.000871
# 5 -0.000253 0.000535 -0.000791 0.000000 0.029824 0.000000
# 6 0.000000 0.000000 0.000000 -0.000871 0.000000 0.028958
#
#
# Mechanical properties :
#
#
# Convention : Reuss Voigt Hill
#
# Bulk Modulus (GPa) = 69.24644 69.31830 69.28237
# Shear Modulus (GPa) = 31.16253 31.74708 31.45481
#
# Velocity S-wave (km/s) = 3.97352 4.01062 3.99211
# Velocity P-wave (km/s) = 7.49242 7.52115 7.50680
#
# Compressibility (1/GPa) = 0.01444118
#
# Stress axis : x y z
#
# Youngs Moduli (GPa) = 74.44262 68.91824 71.72923
#
# Poissons Ratio (x) = 0.33350 0.26938
# Poissons Ratio (y) = 0.36023 0.36776
# Poissons Ratio (z) = 0.27957 0.35335
#
# Static dielectric constant tensor:
#      x y z
#    x 2.129350 0.000000 1.966910 
#    y 0.000000 3.700180 0.000000 
#    z 1.966910 0.000000 0.863550 
# 
# 
# High freq. dielectric constant tensor:
#      x y z
#    x 1.767880 0.000000 -0.002420 
#    y 0.000000 1.780190 0.000000 
#    z -0.002420 0.000000 1.774180 
# 
# From -- ./inp_files/65440.got.cif
#   From: 2010.06.25/outbox.cif.g09.slc.cpg/sg11_33_cif.got.tgz:65440.got - 2010.06.27 23:14:04.
