data_PCOD8073237
_publ_section_title
;
Structure prediction by ZEFSAII (Michael W. Deem and Ramdas Pophale) SiO2 
 PCOD8073237
Probable space group: P 21/M
;
_chemical_formula_sum "Si O2"
_cell_formula_units_Z 24
_cell_length_a 24.040791
_cell_length_b 8.834406
_cell_length_c 11.788598
_cell_angle_alpha 90.000000
_cell_angle_beta 28.703789
_cell_angle_gamma 90.000000
_cell_volume 1202.497344
_symmetry_space_group_name_H-M "P 21/M"
_symmetry_group_IT_number 11
_symmetry_cell_setting 'monoclinic'
loop_
_space_group_symop_operation_xyz
x,y,z
-x,1/2+y,-z
-x,-y,-z
x,1/2-y,z
loop_
_atom_site_type_symbol
_atom_site_label
_atom_site_fract_x
_atom_site_fract_y
_atom_site_fract_z
Si Si1 0.372781 0.069592 0.732788
Si Si2 0.829625 0.579890 0.337484
Si Si3 0.192118 0.427908 0.873726
Si Si4 0.401318 0.421211 0.106318
Si Si5 0.280840 0.570473 0.122543
Si Si6 0.937464 0.073979 0.347382
O O1 0.382637 0.250000 0.716301
O O2 0.298126 0.008052 0.758906
O O3 0.500000 0.000000 0.500000
O O4 0.301963 0.014815 0.968025
O O5 0.876551 0.750000 0.236680
O O6 0.808779 0.502190 0.251711
O O7 0.710057 0.578414 0.616691
O O8 0.923386 0.492116 0.245668
O O9 0.210621 0.250000 0.830359
O O10 0.067849 0.464216 0.155645
O O11 0.436113 0.250000 0.010097
O O12 0.381220 0.519975 0.029489
O O13 0.500000 0.500000 0.000000
O O14 0.286434 0.750000 0.093886
O O15 0.156177 0.512786 0.393985
O O16 0.915180 0.250000 0.374262
#
# Coordination Sequence:
#
# PCOD8073237 Si02
#       6
#     4   4   4   4   4   4
#     4  11  24  41  60  82 112 152 195 239 285 340
#     4   9  18  33  54  83 116 148 181 227 286 342
#     4   9  19  36  58  83 114 151 186 228 288 342
#     4  10  20  33  54  83 113 150 193 236 286 340
#     4  10  21  38  58  81 114 149 188 239 286 335
#     4   9  18  35  59  86 114 147 185 229 283 341
#
# _framework density 19.958465
#
# number of rings (size 3 to 8) (size 9 to 14) (size 15 to 20)
#    0.000    2.333    0.000    2.000    2.333    2.000 
#    0.000    3.333    0.000    0.000    0.000    0.000 
#    0.000    0.000    0.000    0.000    0.000    0.000 
#
# Total GULP energy -297524.372872 kJ/mol
# GULP energy per Si atom -12396.848870 kJ/mol
# Density = 1.991304 g / cm^3
# Si number density = 19.958465 Si / 1000 Ang^3
#
#
#
# Elastic Constant Matrix: (Units=GPa)
#
#
# Indices 1 2 3 4 5 6 
#
# 1 146.4379 34.0919 73.3991 0.0000 -8.3938 0.0000
# 2 34.0919 60.3908 30.3436 0.0000 -4.3640 0.0000
# 3 73.3991 30.3436 77.3494 0.0000 -0.0414 0.0000
# 4 0.0000 0.0000 0.0000 25.6646 0.0000 1.5708
# 5 -8.3938 -4.3640 -0.0414 0.0000 38.8828 0.0000
# 6 0.0000 0.0000 0.0000 1.5708 0.0000 30.5062
#
#
#
# Elastic Compliance Matrix: (Units=1/GPa)
#
#
# Indices 1 2 3 4 5 6 
#
# 1 0.013406 -0.001219 -0.012241 0.000000 0.002744 0.000000
# 2 -0.001219 0.020944 -0.007058 0.000000 0.002080 0.000000
# 3 -0.012241 -0.007058 0.027312 0.000000 -0.003406 0.000000
# 4 0.000000 0.000000 0.000000 0.039087 0.000000 -0.002013
# 5 0.002744 0.002080 -0.003406 0.000000 0.026541 0.000000
# 6 0.000000 0.000000 0.000000 -0.002013 0.000000 0.032884
#
#
# Mechanical properties :
#
#
# Convention : Reuss Voigt Hill
#
# Bulk Modulus (GPa) = 48.48758 62.20526 55.34642
# Shear Modulus (GPa) = 24.02869 28.76696 26.39783
#
# Velocity S-wave (km/s) = 3.47354 3.80062 3.64075
# Velocity P-wave (km/s) = 6.35880 7.10596 6.74273
#
# Compressibility (1/GPa) = 0.02062384
#
# Stress axis : x y z
#
# Youngs Moduli (GPa) = 74.59544 47.74722 36.61426
#
# Poissons Ratio (x) = 0.05819 0.44821
# Poissons Ratio (y) = 0.09091 0.25844
# Poissons Ratio (z) = 0.91316 0.33702
#
# Static dielectric constant tensor:
#      x y z
#    x 3.811630 0.000000 0.052150 
#    y 0.000000 3.666370 0.000000 
#    z 0.052150 0.000000 3.719580 
# 
# 
# High freq. dielectric constant tensor:
#      x y z
#    x 1.780840 0.000000 -0.001840 
#    y 0.000000 1.761910 0.000000 
#    z -0.001840 0.000000 1.786970 
# 
# From -- ./inp_files/33788.got.cif
#   From: 2010.06.25/outbox.cif.g09.slc.cpg/sg11_17_cif.got.tgz:33788.got - 2010.06.27 23:14:04.
