data_PCOD8073709
_publ_section_title
;
Structure prediction by ZEFSAII (Michael W. Deem and Ramdas Pophale) SiO2 
 PCOD8073709
Probable space group: P 21/M
;
_chemical_formula_sum "Si O2"
_cell_formula_units_Z 28
_cell_length_a 12.326828
_cell_length_b 8.515024
_cell_length_c 16.551405
_cell_angle_alpha 90.000000
_cell_angle_beta 60.167456
_cell_angle_gamma 90.000000
_cell_volume 1507.068759
_symmetry_space_group_name_H-M "P 21/M"
_symmetry_group_IT_number 11
_symmetry_cell_setting 'monoclinic'
loop_
_space_group_symop_operation_xyz
x,y,z
-x,1/2+y,-z
-x,-y,-z
x,1/2-y,z
loop_
_atom_site_type_symbol
_atom_site_label
_atom_site_fract_x
_atom_site_fract_y
_atom_site_fract_z
Si Si1 0.693078 0.067405 0.897521
Si Si2 0.491847 0.930283 0.718751
Si Si3 0.563949 0.934008 0.094069
Si Si4 0.845994 0.568451 0.416029
Si Si5 0.760506 0.068323 0.611301
Si Si6 0.618533 0.069571 0.410976
Si Si7 0.104991 0.431092 0.286738
O O1 0.724798 0.250000 0.882060
O O2 0.575381 0.025675 0.884421
O O3 0.811422 0.970994 0.822041
O O4 0.665350 0.017291 0.999452
O O5 0.530731 0.750000 0.718465
O O6 0.397662 0.947282 0.678957
O O7 0.419126 0.997335 0.822965
O O8 0.615135 0.030024 0.654058
O O9 0.589836 0.750000 0.083692
O O10 0.832794 0.750000 0.444419
O O11 0.832365 0.465916 0.501851
O O12 0.741550 0.525722 0.389199
O O13 0.980610 0.535231 0.327819
O O14 0.776294 0.250000 0.628769
O O15 0.818257 0.964974 0.660682
O O16 0.634333 0.250000 0.431341
O O17 0.500000 0.000000 0.500000
O O18 0.066680 0.250000 0.298440
#
# Coordination Sequence:
#
# PCOD8073709 Si02
#       7
#     4   4   4   4   4   4   4
#     4  10  20  35  56  84 118 152 189 234 285 343
#     4  11  22  36  58  86 118 153 190 237 289 341
#     4  10  20  34  56  85 117 152 190 235 286 340
#     4  12  25  41  59  82 115 155 199 240 287 342
#     4  12  23  37  57  84 118 154 193 235 287 345
#     4  11  23  39  60  85 115 152 197 241 288 337
#     4  12  24  39  59  84 118 155 193 236 289 348
#
# _framework density 18.579111999999999
#
# number of rings (size 3 to 8) (size 9 to 14) (size 15 to 20)
#    0.000    0.857    2.857    6.000    0.000    2.857 
#    0.000    0.000    0.000    0.857    0.000    0.000 
#    0.000    0.000    0.000    0.000    0.000    0.000 
#
# Total GULP energy -347427.116996 kJ/mol
# GULP energy per Si atom -12408.111321 kJ/mol
# Density = 1.853682 g / cm^3
# Si number density = 18.579112 Si / 1000 Ang^3
#
#
#
# Elastic Constant Matrix: (Units=GPa)
#
#
# Indices 1 2 3 4 5 6 
#
# 1 67.6758 18.5384 31.1500 0.0000 -10.6599 0.0000
# 2 18.5384 83.8694 24.0593 0.0000 1.3556 0.0000
# 3 31.1500 24.0593 107.9327 0.0000 -4.2885 0.0000
# 4 0.0000 0.0000 0.0000 32.0232 0.0000 -2.3625
# 5 -10.6599 1.3556 -4.2885 0.0000 21.7083 0.0000
# 6 0.0000 0.0000 0.0000 -2.3625 0.0000 28.3892
#
#
#
# Elastic Compliance Matrix: (Units=1/GPa)
#
#
# Indices 1 2 3 4 5 6 
#
# 1 0.019036 -0.003066 -0.004466 0.000000 0.008657 0.000000
# 2 -0.003066 0.013272 -0.002183 0.000000 -0.002766 0.000000
# 3 -0.004466 -0.002183 0.011046 0.000000 0.000125 0.000000
# 4 0.000000 0.000000 0.000000 0.031420 0.000000 0.002615
# 5 0.008657 -0.002766 0.000125 0.000000 0.050514 0.000000
# 6 0.000000 0.000000 0.000000 0.002615 0.000000 0.035442
#
#
# Mechanical properties :
#
#
# Convention : Reuss Voigt Hill
#
# Bulk Modulus (GPa) = 41.80368 45.21926 43.51147
# Shear Modulus (GPa) = 26.57662 28.80617 27.69139
#
# Velocity S-wave (km/s) = 3.78624 3.94186 3.86483
# Velocity P-wave (km/s) = 6.45472 6.71634 6.58683
#
# Compressibility (1/GPa) = 0.02392134
#
# Stress axis : x y z
#
# Youngs Moduli (GPa) = 52.53325 75.34587 90.53271
#
# Poissons Ratio (x) = 0.23103 0.40435
# Poissons Ratio (y) = 0.16108 0.19767
# Poissons Ratio (z) = 0.23463 0.16451
#
# Static dielectric constant tensor:
#      x y z
#    x 3.255620 0.000000 0.062540 
#    y 0.000000 7.412640 0.000000 
#    z 0.062540 0.000000 3.477300 
# 
# 
# High freq. dielectric constant tensor:
#      x y z
#    x 1.696000 0.000000 0.000780 
#    y 0.000000 1.741270 0.000000 
#    z 0.000780 0.000000 1.725290 
# 
# From -- ./inp_files/49091.got.cif
#   From: 2010.06.25/outbox.cif.g09.slc.cpg/sg11_25_cif.got.tgz:49091.got - 2010.06.27 23:14:04.
