data_PCOD8073271
_publ_section_title
;
Structure prediction by ZEFSAII (Michael W. Deem and Ramdas Pophale) SiO2 
 PCOD8073271
Probable space group: P 21/M
;
_chemical_formula_sum "Si O2"
_cell_formula_units_Z 32
_cell_length_a 20.555128
_cell_length_b 9.030141
_cell_length_c 31.068657
_cell_angle_alpha 90.000000
_cell_angle_beta 159.325880
_cell_angle_gamma 90.000000
_cell_volume 2035.992684
_symmetry_space_group_name_H-M "P 21/M"
_symmetry_group_IT_number 11
_symmetry_cell_setting 'monoclinic'
loop_
_space_group_symop_operation_xyz
x,y,z
-x,1/2+y,-z
-x,-y,-z
x,1/2-y,z
loop_
_atom_site_type_symbol
_atom_site_label
_atom_site_fract_x
_atom_site_fract_y
_atom_site_fract_z
Si Si1 0.275682 0.412119 0.678744
Si Si2 0.968877 0.087194 0.416153
Si Si3 0.305391 0.577389 0.382670
Si Si4 0.359555 0.917070 0.510367
Si Si5 0.785645 0.923689 0.754615
Si Si6 0.949943 0.927020 0.013998
Si Si7 0.264841 0.425157 0.536224
Si Si8 0.565447 0.426329 0.790115
O O1 0.324960 0.250000 0.726427
O O2 0.217249 0.503209 0.684957
O O3 0.453919 0.475494 0.763997
O O4 0.107419 0.403706 0.541704
O O5 0.903073 0.250000 0.361826
O O6 0.080192 0.010576 0.445340
O O7 0.500000 0.500000 0.500000
O O8 0.321251 0.750000 0.379730
O O9 0.243058 0.561209 0.394000
O O10 0.171677 0.491480 0.266564
O O11 0.340089 0.750000 0.515166
O O12 0.573707 0.953265 0.635357
O O13 0.272578 0.023159 0.492057
O O14 0.836109 0.750000 0.786528
O O15 0.905183 0.015420 0.861864
O O16 0.959194 0.750000 0.016026
O O17 0.749138 0.978403 0.904248
O O18 0.000000 0.000000 0.000000
O O19 0.249942 0.250000 0.529138
O O20 0.448672 0.473554 0.675650
O O21 0.605691 0.250000 0.814863
#
# Coordination Sequence:
#
# PCOD8073271 Si02
#       8
#     4   4   4   4   4   4   4   4
#     4   8  14  25  41  58  78 108 143 177 214 253
#     4   8  14  24  37  57  83 109 139 174 211 253
#     4   9  17  30  46  65  87 112 143 180 222 264
#     4   9  18  29  43  64  88 112 141 177 215 258
#     4  10  20  34  49  65  85 112 148 187 224 261
#     4  12  24  35  47  64  87 117 151 185 221 257
#     4   9  17  27  41  61  87 118 147 176 214 257
#     4   9  18  32  45  60  85 116 151 187 218 252
#
# _framework density 15.717148
#
# number of rings (size 3 to 8) (size 9 to 14) (size 15 to 20)
#    0.000    2.750    0.000    4.875    0.000    6.500 
#    0.000    2.500    0.000    0.000    0.000    0.000 
#    0.000    1.000    0.000    3.250    0.000    4.750 
#
# Total GULP energy -396525.082787 kJ/mol
# GULP energy per Si atom -12391.408837 kJ/mol
# Density = 1.568138 g / cm^3
# Si number density = 15.717148 Si / 1000 Ang^3
#
#
#
# Elastic Constant Matrix: (Units=GPa)
#
#
# Indices 1 2 3 4 5 6 
#
# 1 103.7608 45.8284 44.3300 0.0000 0.4373 0.0000
# 2 45.8284 81.2230 33.0869 0.0000 -0.4252 0.0000
# 3 44.3300 33.0869 55.1039 0.0000 -6.3872 0.0000
# 4 0.0000 0.0000 0.0000 21.5167 0.0000 -1.1597
# 5 0.4373 -0.4252 -6.3872 0.0000 23.4535 0.0000
# 6 0.0000 0.0000 0.0000 -1.1597 0.0000 29.9617
#
#
#
# Elastic Compliance Matrix: (Units=1/GPa)
#
#
# Indices 1 2 3 4 5 6 
#
# 1 0.016345 -0.004936 -0.010565 0.000000 -0.003271 0.000000
# 2 -0.004936 0.017926 -0.006964 0.000000 -0.001480 0.000000
# 3 -0.010565 -0.006964 0.031842 0.000000 0.008742 0.000000
# 4 0.000000 0.000000 0.000000 0.046573 0.000000 0.001803
# 5 -0.003271 -0.001480 0.008742 0.000000 0.045053 0.000000
# 6 0.000000 0.000000 0.000000 0.001803 0.000000 0.033446
#
#
# Mechanical properties :
#
#
# Convention : Reuss Voigt Hill
#
# Bulk Modulus (GPa) = 47.20783 54.06426 50.63605
# Shear Modulus (GPa) = 20.56142 22.77587 21.66865
#
# Velocity S-wave (km/s) = 3.62085 3.81085 3.71706
# Velocity P-wave (km/s) = 6.89796 7.33733 7.12103
#
# Compressibility (1/GPa) = 0.02118293
#
# Stress axis : x y z
#
# Youngs Moduli (GPa) = 61.18109 55.78514 31.40546
#
# Poissons Ratio (x) = 0.27534 0.33179
# Poissons Ratio (y) = 0.30198 0.21872
# Poissons Ratio (z) = 0.64636 0.38850
#
# Static dielectric constant tensor:
#      x y z
#    x 3.222690 0.000000 -0.034330 
#    y 0.000000 3.186240 0.000000 
#    z -0.034330 0.000000 2.745350 
# 
# 
# High freq. dielectric constant tensor:
#      x y z
#    x 1.605560 0.000000 0.000360 
#    y 0.000000 1.608610 0.000000 
#    z 0.000360 0.000000 1.554640 
# 
# From -- ./inp_files/65242.got.cif
#   From: 2010.06.25/outbox.cif.g09.slc.cpg/sg11_33_cif.got.tgz:65242.got - 2010.06.27 23:14:04.
