data_PCOD8073290
_publ_section_title
;
Structure prediction by ZEFSAII (Michael W. Deem and Ramdas Pophale) SiO2 
 PCOD8073290
Probable space group: P 21/M
;
_chemical_formula_sum "Si O2"
_cell_formula_units_Z 32
_cell_length_a 15.470495
_cell_length_b 13.550686
_cell_length_c 18.016814
_cell_angle_alpha 90.000000
_cell_angle_beta 26.132166
_cell_angle_gamma 90.000000
_cell_volume 1663.540776
_symmetry_space_group_name_H-M "P 21/M"
_symmetry_group_IT_number 11
_symmetry_cell_setting 'monoclinic'
loop_
_space_group_symop_operation_xyz
x,y,z
-x,1/2+y,-z
-x,-y,-z
x,1/2-y,z
loop_
_atom_site_type_symbol
_atom_site_label
_atom_site_fract_x
_atom_site_fract_y
_atom_site_fract_z
Si Si1 0.898685 0.534671 0.503618
Si Si2 0.773182 0.860388 0.208022
Si Si3 0.102809 0.634713 0.213921
Si Si4 0.661533 0.144247 0.438071
Si Si5 0.483819 0.634642 0.823756
Si Si6 0.308197 0.858384 0.409676
Si Si7 0.316392 0.036213 0.871603
Si Si8 0.068869 0.028894 0.784665
O O1 0.704636 0.599059 0.673579
O O2 0.849103 0.434597 0.498706
O O3 0.000000 0.500000 0.500000
O O4 0.059153 0.592900 0.329916
O O5 0.828811 0.750000 0.136060
O O6 0.565284 0.856148 0.410407
O O7 0.753079 0.939633 0.157903
O O8 0.935434 0.895241 0.142633
O O9 0.064586 0.750000 0.245964
O O10 0.933402 0.589487 0.290365
O O11 0.326570 0.613669 0.012253
O O12 0.751784 0.250000 0.340571
O O13 0.690683 0.138330 0.503216
O O14 0.754781 0.045703 0.333600
O O15 0.487375 0.750000 0.800988
O O16 0.412654 0.573900 0.805440
O O17 0.256133 0.750000 0.418953
O O18 0.529731 0.885450 0.213495
O O19 0.123821 0.039593 0.070424
#
# Coordination Sequence:
#
# PCOD8073290 Si02
#       8
#     4   4   4   4   4   4   4   4
#     4  11  22  37  62  89 115 148 189 233 289 349
#     4  10  20  34  50  74 109 150 190 235 286 331
#     4  10  21  38  60  86 117 154 192 235 286 344
#     4   9  18  32  50  71 104 142 182 230 277 327
#     4   9  20  39  60  86 121 153 190 236 284 341
#     4   9  18  36  55  74 106 147 181 225 284 340
#     4   9  19  33  54  78 105 147 188 232 280 333
#     4  11  19  33  54  80 108 145 193 236 284 335
#
# _framework density 19.236079
#
# number of rings (size 3 to 8) (size 9 to 14) (size 15 to 20)
#    0.000    2.250    1.250    2.625    0.000    3.000 
#    0.000    0.625    0.000    0.000    0.000    0.000 
#    0.000    0.000    0.000    0.000    0.000    0.000 
#
# Total GULP energy -396439.047026 kJ/mol
# GULP energy per Si atom -12388.720220 kJ/mol
# Density = 1.919230 g / cm^3
# Si number density = 19.236079 Si / 1000 Ang^3
#
#
#
# Elastic Constant Matrix: (Units=GPa)
#
#
# Indices 1 2 3 4 5 6 
#
# 1 74.1767 31.3265 22.5018 0.0000 6.5857 0.0000
# 2 31.3265 125.7733 43.1922 0.0000 6.9738 0.0000
# 3 22.5018 43.1922 73.9675 0.0000 3.3729 0.0000
# 4 0.0000 0.0000 0.0000 27.7794 0.0000 2.4743
# 5 6.5857 6.9738 3.3729 0.0000 18.0237 0.0000
# 6 0.0000 0.0000 0.0000 2.4743 0.0000 21.3395
#
#
#
# Elastic Compliance Matrix: (Units=1/GPa)
#
#
# Indices 1 2 3 4 5 6 
#
# 1 0.015920 -0.002670 -0.003092 0.000000 -0.004205 0.000000
# 2 -0.002670 0.010534 -0.005242 0.000000 -0.002119 0.000000
# 3 -0.003092 -0.005242 0.017527 0.000000 -0.000122 0.000000
# 4 0.000000 0.000000 0.000000 0.036374 0.000000 -0.004217
# 5 -0.004205 -0.002119 -0.000122 0.000000 0.057862 0.000000
# 6 0.000000 0.000000 0.000000 -0.004217 0.000000 0.047350
#
#
# Mechanical properties :
#
#
# Convention : Reuss Voigt Hill
#
# Bulk Modulus (GPa) = 45.51275 51.99538 48.75407
# Shear Modulus (GPa) = 23.26673 25.22165 24.24419
#
# Velocity S-wave (km/s) = 3.48161 3.62493 3.55399
# Velocity P-wave (km/s) = 6.31456 6.67899 6.49933
#
# Compressibility (1/GPa) = 0.02197186
#
# Stress axis : x y z
#
# Youngs Moduli (GPa) = 62.81241 94.93476 57.05600
#
# Poissons Ratio (x) = 0.25350 0.17643
# Poissons Ratio (y) = 0.16773 0.29909
# Poissons Ratio (z) = 0.19423 0.49764
#
# Static dielectric constant tensor:
#      x y z
#    x 3.271380 0.000000 -0.155520 
#    y 0.000000 3.811240 0.000000 
#    z -0.155520 0.000000 3.667470 
# 
# 
# High freq. dielectric constant tensor:
#      x y z
#    x 1.718070 0.000000 -0.012660 
#    y 0.000000 1.765240 0.000000 
#    z -0.012660 0.000000 1.738540 
# 
# From -- ./inp_files/47224.got.cif
#   From: 2010.06.25/outbox.cif.g09.slc.cpg/sg11_24_cif.got.tgz:47224.got - 2010.06.27 23:14:04.
