data_PCOD8073960
_publ_section_title
;
Structure prediction by ZEFSAII (Michael W. Deem and Ramdas Pophale) SiO2 
 PCOD8073960
Probable space group: P 21/M
;
_chemical_formula_sum "Si O2"
_cell_formula_units_Z 24
_cell_length_a 9.497077
_cell_length_b 12.941082
_cell_length_c 15.028242
_cell_angle_alpha 90.000000
_cell_angle_beta 139.962692
_cell_angle_gamma 90.000000
_cell_volume 1188.154775
_symmetry_space_group_name_H-M "P 21/M"
_symmetry_group_IT_number 11
_symmetry_cell_setting 'monoclinic'
loop_
_space_group_symop_operation_xyz
x,y,z
-x,1/2+y,-z
-x,-y,-z
x,1/2-y,z
loop_
_atom_site_type_symbol
_atom_site_label
_atom_site_fract_x
_atom_site_fract_y
_atom_site_fract_z
Si Si1 0.967906 0.628346 0.838619
Si Si2 0.049777 0.129850 0.974846
Si Si3 0.090546 0.627286 0.281049
Si Si4 0.734506 0.479029 0.154072
Si Si5 0.484220 0.872606 0.590237
Si Si6 0.441852 0.869091 0.767492
O O1 0.953761 0.750000 0.847153
O O2 0.730627 0.589148 0.688397
O O3 0.150500 0.603222 0.855295
O O4 0.021533 0.579936 0.963781
O O5 0.986557 0.250000 0.945981
O O6 0.923722 0.081612 0.827498
O O7 0.307054 0.116307 0.082099
O O8 0.067764 0.750000 0.272650
O O9 0.317218 0.587520 0.433833
O O10 0.882646 0.581795 0.233934
O O11 0.714566 0.433347 0.243137
O O12 0.500000 0.500000 0.000000
O O13 0.479829 0.750000 0.590666
O O14 0.408400 0.911831 0.651103
O O15 0.372562 0.750000 0.741223
#
# Coordination Sequence:
#
# PCOD8073960 Si02
#       6
#     4   4   4   4   4   4
#     4   9  19  36  58  81 104 133 179 223 260 314
#     4   8  15  32  56  77 101 137 173 217 264 305
#     4  10  20  35  55  78 108 139 180 224 267 316
#     4  12  23  32  52  85 109 145 178 214 267 312
#     4   8  17  36  60  78 100 141 180 220 269 313
#     4   9  17  34  56  78 106 140 179 216 262 323
#
# _framework density 20.199389
#
# number of rings (size 3 to 8) (size 9 to 14) (size 15 to 20)
#    0.000    2.667    1.667    2.500    0.000    2.667 
#    0.000    0.000    3.667    0.000    0.000    0.000 
#    0.000    0.000    0.000    0.000    0.000    0.000 
#
# Total GULP energy -297508.231527 kJ/mol
# GULP energy per Si atom -12396.176314 kJ/mol
# Density = 2.015341 g / cm^3
# Si number density = 20.199389 Si / 1000 Ang^3
#
#
#
# Elastic Constant Matrix: (Units=GPa)
#
#
# Indices 1 2 3 4 5 6 
#
# 1 129.8132 19.2046 63.5480 0.0000 -10.7102 0.0000
# 2 19.2046 21.9438 29.5730 0.0000 -4.5402 0.0000
# 3 63.5480 29.5730 168.8362 0.0000 -12.1385 0.0000
# 4 0.0000 0.0000 0.0000 25.2563 0.0000 -3.0103
# 5 -10.7102 -4.5402 -12.1385 0.0000 32.4113 0.0000
# 6 0.0000 0.0000 0.0000 -3.0103 0.0000 34.5247
#
#
#
# Elastic Compliance Matrix: (Units=1/GPa)
#
#
# Indices 1 2 3 4 5 6 
#
# 1 0.009880 -0.004531 -0.002812 0.000000 0.001577 0.000000
# 2 -0.004531 0.062395 -0.008944 0.000000 0.003894 0.000000
# 3 -0.002812 -0.008944 0.008623 0.000000 0.001048 0.000000
# 4 0.000000 0.000000 0.000000 0.040010 0.000000 0.003489
# 5 0.001577 0.003894 0.001048 0.000000 0.032312 0.000000
# 6 0.000000 0.000000 0.000000 0.003489 0.000000 0.029269
#
#
# Mechanical properties :
#
#
# Convention : Reuss Voigt Hill
#
# Bulk Modulus (GPa) = 20.69311 60.58272 40.63791
# Shear Modulus (GPa) = 21.62896 32.32296 26.97596
#
# Velocity S-wave (km/s) = 3.27582 4.00458 3.65839
# Velocity P-wave (km/s) = 4.95728 7.17215 6.16500
#
# Compressibility (1/GPa) = 0.04832526
#
# Stress axis : x y z
#
# Youngs Moduli (GPa) = 101.21134 16.02687 115.96823
#
# Poissons Ratio (x) = 0.07262 0.32607
# Poissons Ratio (y) = 0.45863 1.03717
# Poissons Ratio (z) = 0.28458 0.14334
#
# Static dielectric constant tensor:
#      x y z
#    x 3.632110 0.000000 -0.236390 
#    y 0.000000 3.588530 0.000000 
#    z -0.236390 0.000000 3.999670 
# 
# 
# High freq. dielectric constant tensor:
#      x y z
#    x 1.779440 0.000000 -0.015440 
#    y 0.000000 1.798060 0.000000 
#    z -0.015440 0.000000 1.786950 
# 
# From -- ./inp_files/12621.got.cif
#   From: 2010.06.25/outbox.cif.g09.slc.cpg/sg11_7_cif.got.tgz:12621.got - 2010.06.27 23:14:04.
