data_PCOD8073690
_publ_section_title
;
Structure prediction by ZEFSAII (Michael W. Deem and Ramdas Pophale) SiO2 
 PCOD8073690
Probable space group: P 21/M
;
_chemical_formula_sum "Si O2"
_cell_formula_units_Z 28
_cell_length_a 9.507640
_cell_length_b 9.237484
_cell_length_c 26.179161
_cell_angle_alpha 90.000000
_cell_angle_beta 42.373435
_cell_angle_gamma 90.000000
_cell_volume 1549.587950
_symmetry_space_group_name_H-M "P 21/M"
_symmetry_group_IT_number 11
_symmetry_cell_setting 'monoclinic'
loop_
_space_group_symop_operation_xyz
x,y,z
-x,1/2+y,-z
-x,-y,-z
x,1/2-y,z
loop_
_atom_site_type_symbol
_atom_site_label
_atom_site_fract_x
_atom_site_fract_y
_atom_site_fract_z
Si Si1 0.834930 0.417342 0.695639
Si Si2 0.968822 0.921324 0.757370
Si Si3 0.829476 0.420986 0.579285
Si Si4 0.452877 0.594888 0.788300
Si Si5 0.800195 0.093149 0.046960
Si Si6 0.560538 0.922402 0.930939
Si Si7 0.595152 0.415484 0.312377
O O1 0.867038 0.250000 0.699289
O O2 0.962968 0.508363 0.702682
O O3 0.891205 0.454712 0.621656
O O4 0.594447 0.460586 0.766821
O O5 0.951437 0.750000 0.755727
O O6 0.783276 0.972288 0.846142
O O7 0.195876 0.970681 0.716079
O O8 0.827937 0.250000 0.569211
O O9 0.604514 0.483796 0.622758
O O10 0.000000 0.500000 0.500000
O O11 0.579127 0.750000 0.754003
O O12 0.268340 0.608963 0.876840
O O13 0.346978 0.570368 0.762341
O O14 0.861083 0.250000 0.007979
O O15 0.618031 0.026714 0.060742
O O16 0.000000 0.000000 0.000000
O O17 0.562801 0.750000 0.938790
O O18 0.500000 0.000000 0.000000
O O19 0.541518 0.250000 0.342585
#
# Coordination Sequence:
#
# PCOD8073690 Si02
#       7
#     4   4   4   4   4   4   4
#     4  10  20  34  56  84 110 140 179 223 269 318
#     4  10  20  37  58  80 111 148 188 228 272 335
#     4  10  21  38  60  87 117 145 178 221 267 324
#     4   9  17  34  55  74 101 139 181 226 272 324
#     4  10  21  35  52  75 104 139 184 232 278 330
#     4  10  22  38  54  77 109 147 190 234 281 332
#     4   9  19  34  58  85 107 141 184 224 273 326
#
# _framework density 18.069319
#
# number of rings (size 3 to 8) (size 9 to 14) (size 15 to 20)
#    0.000    2.286    1.429    0.857    2.000    4.000 
#    0.000    0.714    0.000    0.000    0.000    0.000 
#    0.000    0.000    0.000    0.000    0.000    0.000 
#
# Total GULP energy -346914.062212 kJ/mol
# GULP energy per Si atom -12389.787936 kJ/mol
# Density = 1.802819 g / cm^3
# Si number density = 18.069319 Si / 1000 Ang^3
#
#
#
# Elastic Constant Matrix: (Units=GPa)
#
#
# Indices 1 2 3 4 5 6 
#
# 1 141.7201 59.8812 76.5136 0.0000 -12.8941 0.0000
# 2 59.8812 72.3698 59.8222 0.0000 -2.0536 0.0000
# 3 76.5136 59.8222 116.9676 0.0000 -6.3035 0.0000
# 4 0.0000 0.0000 0.0000 29.2413 0.0000 0.5404
# 5 -12.8941 -2.0536 -6.3035 0.0000 24.2519 0.0000
# 6 0.0000 0.0000 0.0000 0.5404 0.0000 32.5703
#
#
#
# Elastic Compliance Matrix: (Units=1/GPa)
#
#
# Indices 1 2 3 4 5 6 
#
# 1 0.012870 -0.006534 -0.004806 0.000000 0.005040 0.000000
# 2 -0.006534 0.027288 -0.009883 0.000000 -0.003732 0.000000
# 3 -0.004806 -0.009883 0.016800 0.000000 0.000975 0.000000
# 4 0.000000 0.000000 0.000000 0.034209 0.000000 -0.000568
# 5 0.005040 -0.003732 0.000975 0.000000 0.043851 0.000000
# 6 0.000000 0.000000 0.000000 -0.000568 0.000000 0.030712
#
#
# Mechanical properties :
#
#
# Convention : Reuss Voigt Hill
#
# Bulk Modulus (GPa) = 68.90415 80.38794 74.64605
# Shear Modulus (GPa) = 23.47275 26.20205 24.83740
#
# Velocity S-wave (km/s) = 3.60813 3.81213 3.71153
# Velocity P-wave (km/s) = 7.45481 7.99760 7.73097
#
# Compressibility (1/GPa) = 0.01451291
#
# Stress axis : x y z
#
# Youngs Moduli (GPa) = 77.70078 36.64620 59.52287
#
# Poissons Ratio (x) = 0.23943 0.28604
# Poissons Ratio (y) = 0.50766 0.58829
# Poissons Ratio (z) = 0.37340 0.36219
#
# Static dielectric constant tensor:
#      x y z
#    x 3.426520 0.000000 0.041190 
#    y 0.000000 2.801360 0.000000 
#    z 0.041190 0.000000 3.189870 
# 
# 
# High freq. dielectric constant tensor:
#      x y z
#    x 1.705520 0.000000 0.007090 
#    y 0.000000 1.698170 0.000000 
#    z 0.007090 0.000000 1.687500 
# 
# From -- ./inp_files/24099.got.cif
#   From: 2010.06.25/outbox.cif.g09.slc.cpg/sg11_13_cif.got.tgz:24099.got - 2010.06.27 23:14:04.
