data_PCOD8073113
_publ_section_title
;
Structure prediction by ZEFSAII (Michael W. Deem and Ramdas Pophale) SiO2 
 PCOD8073113
Probable space group: P 21/M
;
_chemical_formula_sum "Si O2"
_cell_formula_units_Z 24
_cell_length_a 11.100040
_cell_length_b 9.030308
_cell_length_c 19.876802
_cell_angle_alpha 90.000000
_cell_angle_beta 136.672121
_cell_angle_gamma 90.000000
_cell_volume 1367.120699
_symmetry_space_group_name_H-M "P 21/M"
_symmetry_group_IT_number 11
_symmetry_cell_setting 'monoclinic'
loop_
_space_group_symop_operation_xyz
x,y,z
-x,1/2+y,-z
-x,-y,-z
x,1/2-y,z
loop_
_atom_site_type_symbol
_atom_site_label
_atom_site_fract_x
_atom_site_fract_y
_atom_site_fract_z
Si Si1 0.418627 0.919586 0.189564
Si Si2 0.751545 0.079192 0.362932
Si Si3 0.870504 0.578384 0.541092
Si Si4 0.686527 0.425431 0.586076
Si Si5 0.166407 0.577832 0.210155
Si Si6 0.906076 0.078901 0.022833
O O1 0.481293 0.750000 0.221191
O O2 0.307215 0.964771 0.210220
O O3 0.586808 0.025398 0.251987
O O4 0.303188 0.941660 0.074444
O O5 0.730623 0.250000 0.374818
O O6 0.923868 0.054258 0.388228
O O7 0.757493 0.982382 0.432927
O O8 0.821339 0.750000 0.531090
O O9 0.824853 0.486332 0.588602
O O10 0.500000 0.500000 0.500000
O O11 0.667489 0.250000 0.571113
O O12 0.757160 0.472457 0.687627
O O13 0.122450 0.750000 0.190571
O O14 0.980669 0.493298 0.121806
O O15 0.957294 0.250000 0.042697
O O16 0.000000 0.000000 0.000000
#
# Coordination Sequence:
#
# PCOD8073113 Si02
#       6
#     4   4   4   4   4   4
#     4   9  17  30  49  74 102 128 158 201 249 292
#     4  10  20  33  52  75  97 128 168 207 248 292
#     4  10  21  36  51  71 101 132 165 206 247 291
#     4  11  22  35  53  76 102 133 166 200 243 294
#     4   9  19  33  48  71 102 131 160 199 245 290
#     4   9  17  29  47  71  98 129 162 198 243 290
#
# _framework density 17.555143999999999
#
# number of rings (size 3 to 8) (size 9 to 14) (size 15 to 20)
#    0.000    2.333    0.000    4.000    0.000    8.000 
#    0.000    0.000    0.000    1.000    0.000    0.000 
#    0.000    0.000    0.000    0.000    0.000    0.000 
#
# Total GULP energy -297583.321536 kJ/mol
# GULP energy per Si atom -12399.305064 kJ/mol
# Density = 1.751519 g / cm^3
# Si number density = 17.555144 Si / 1000 Ang^3
#
#
#
# Elastic Constant Matrix: (Units=GPa)
#
#
# Indices 1 2 3 4 5 6 
#
# 1 58.3296 37.1952 49.2623 0.0000 -2.8394 0.0000
# 2 37.1952 91.4817 73.2484 0.0000 2.0262 0.0000
# 3 49.2623 73.2484 157.3358 0.0000 2.0216 0.0000
# 4 0.0000 0.0000 0.0000 37.2896 0.0000 1.9008
# 5 -2.8394 2.0262 2.0216 0.0000 22.9961 0.0000
# 6 0.0000 0.0000 0.0000 1.9008 0.0000 27.6116
#
#
#
# Elastic Compliance Matrix: (Units=1/GPa)
#
#
# Indices 1 2 3 4 5 6 
#
# 1 0.025806 -0.006493 -0.005111 0.000000 0.004208 0.000000
# 2 -0.006493 0.019077 -0.006824 0.000000 -0.001883 0.000000
# 3 -0.005111 -0.006824 0.011146 0.000000 -0.001010 0.000000
# 4 0.000000 0.000000 0.000000 0.026912 0.000000 -0.001853
# 5 0.004208 -0.001883 -0.001010 0.000000 0.044260 0.000000
# 6 0.000000 0.000000 0.000000 -0.001853 0.000000 0.036344
#
#
# Mechanical properties :
#
#
# Convention : Reuss Voigt Hill
#
# Bulk Modulus (GPa) = 52.15888 69.61768 60.88828
# Shear Modulus (GPa) = 24.17894 27.40888 25.79391
#
# Velocity S-wave (km/s) = 3.71524 3.95562 3.83731
# Velocity P-wave (km/s) = 6.94118 7.78493 7.37513
#
# Compressibility (1/GPa) = 0.01917219
#
# Stress axis : x y z
#
# Youngs Moduli (GPa) = 38.75096 52.41954 89.71764
#
# Poissons Ratio (x) = 0.34037 0.45855
# Poissons Ratio (y) = 0.25162 0.61224
# Poissons Ratio (z) = 0.19806 0.35772
#
# Static dielectric constant tensor:
#      x y z
#    x 3.016330 0.000000 0.007750 
#    y 0.000000 3.434640 0.000000 
#    z 0.007750 0.000000 3.580510 
# 
# 
# High freq. dielectric constant tensor:
#      x y z
#    x 1.639830 0.000000 0.008790 
#    y 0.000000 1.691870 0.000000 
#    z 0.008790 0.000000 1.690530 
# 
# From -- ./inp_files/36965.got.cif
#   From: 2010.06.25/outbox.cif.g09.slc.cpg/sg11_19_cif.got.tgz:36965.got - 2010.06.27 23:14:04.
