data_PCOD8073031
_publ_section_title
;
Structure prediction by ZEFSAII (Michael W. Deem and Ramdas Pophale) SiO2 
 PCOD8073031
Probable space group: P 21/M
;
_chemical_formula_sum "Si O2"
_cell_formula_units_Z 28
_cell_length_a 20.873554
_cell_length_b 9.428772
_cell_length_c 15.973121
_cell_angle_alpha 90.000000
_cell_angle_beta 28.389015
_cell_angle_gamma 90.000000
_cell_volume 1494.690371
_symmetry_space_group_name_H-M "P 21/M"
_symmetry_group_IT_number 11
_symmetry_cell_setting 'monoclinic'
loop_
_space_group_symop_operation_xyz
x,y,z
-x,1/2+y,-z
-x,-y,-z
x,1/2-y,z
loop_
_atom_site_type_symbol
_atom_site_label
_atom_site_fract_x
_atom_site_fract_y
_atom_site_fract_z
Si Si1 0.282618 0.585909 0.938176
Si Si2 0.868109 0.909164 0.565985
Si Si3 0.880179 0.914743 0.744274
Si Si4 0.175096 0.415768 0.730970
Si Si5 0.871766 0.414380 0.050793
Si Si6 0.571569 0.914526 0.661451
Si Si7 0.573143 0.912416 0.844502
O O1 0.249525 0.750000 0.995376
O O2 0.211550 0.536886 0.934528
O O3 0.443675 0.560809 0.747620
O O4 0.231593 0.490178 0.072113
O O5 0.927281 0.750000 0.489968
O O6 0.838241 0.944040 0.697033
O O7 0.732898 0.925138 0.669609
O O8 0.974063 0.018002 0.404625
O O9 0.885648 0.750000 0.760810
O O10 0.197497 0.250000 0.723171
O O11 0.184011 0.494737 0.808790
O O12 0.294045 0.479270 0.535716
O O13 0.030782 0.443635 0.852795
O O14 0.846361 0.250000 0.100460
O O15 0.601094 0.750000 0.642577
O O16 0.541449 0.977539 0.788822
O O17 0.524273 0.750000 0.909519
O O18 0.500000 0.000000 0.000000
#
# Coordination Sequence:
#
# PCOD8073031 Si02
#       7
#     4   4   4   4   4   4   4
#     4  10  20  34  53  77 105 140 175 212 259 317
#     4   9  19  34  52  73 100 141 181 218 264 315
#     4  10  20  33  50  76 106 134 174 223 267 309
#     4   9  18  35  56  77 103 135 174 217 260 311
#     4   9  19  34  55  79 104 136 172 214 264 315
#     4   9  19  34  54  79 105 139 180 216 255 313
#     4  10  20  34  54  76 105 142 181 219 261 309
#
# _framework density 18.732977999999999
#
# number of rings (size 3 to 8) (size 9 to 14) (size 15 to 20)
#    0.000    2.571    0.000    1.286    2.000    2.286 
#    0.000    1.429    0.000    0.000    0.000    0.000 
#    0.000    0.000    0.000    0.000    0.000    0.000 
#
# Total GULP energy -347201.039915 kJ/mol
# GULP energy per Si atom -12400.037140 kJ/mol
# Density = 1.869034 g / cm^3
# Si number density = 18.732978 Si / 1000 Ang^3
#
#
#
# Elastic Constant Matrix: (Units=GPa)
#
#
# Indices 1 2 3 4 5 6 
#
# 1 119.3236 29.8236 54.6904 0.0000 -5.5874 0.0000
# 2 29.8236 56.6946 43.1573 0.0000 3.4301 0.0000
# 3 54.6904 43.1573 130.3303 0.0000 5.6743 0.0000
# 4 0.0000 0.0000 0.0000 30.7594 0.0000 5.2984
# 5 -5.5874 3.4301 5.6743 0.0000 19.8101 0.0000
# 6 0.0000 0.0000 0.0000 5.2984 0.0000 21.8084
#
#
#
# Elastic Compliance Matrix: (Units=1/GPa)
#
#
# Indices 1 2 3 4 5 6 
#
# 1 0.011170 -0.003262 -0.003817 0.000000 0.004809 0.000000
# 2 -0.003262 0.024604 -0.006636 0.000000 -0.003279 0.000000
# 3 -0.003817 -0.006636 0.011613 0.000000 -0.003254 0.000000
# 4 0.000000 0.000000 0.000000 0.033930 0.000000 -0.008244
# 5 0.004809 -0.003279 -0.003254 0.000000 0.053335 0.000000
# 6 0.000000 0.000000 0.000000 -0.008244 0.000000 0.047857
#
#
# Mechanical properties :
#
#
# Convention : Reuss Voigt Hill
#
# Bulk Modulus (GPa) = 50.10179 62.41012 56.25595
# Shear Modulus (GPa) = 23.08495 26.38740 24.73618
#
# Velocity S-wave (km/s) = 3.51424 3.75721 3.63776
# Velocity P-wave (km/s) = 6.57798 7.22566 6.90941
#
# Compressibility (1/GPa) = 0.01995937
#
# Stress axis : x y z
#
# Youngs Moduli (GPa) = 89.52354 40.64404 86.10701
#
# Poissons Ratio (x) = 0.13256 0.32864
# Poissons Ratio (y) = 0.29199 0.57139
# Poissons Ratio (z) = 0.34168 0.26971
#
# Static dielectric constant tensor:
#      x y z
#    x 3.515310 0.000000 -0.057800 
#    y 0.000000 3.323510 0.000000 
#    z -0.057800 0.000000 3.421960 
# 
# 
# High freq. dielectric constant tensor:
#      x y z
#    x 1.732220 0.000000 -0.006320 
#    y 0.000000 1.707110 0.000000 
#    z -0.006320 0.000000 1.726570 
# 
# From -- ./inp_files/48932.got.cif
#   From: 2010.06.25/outbox.cif.g09.slc.cpg/sg11_25_cif.got.tgz:48932.got - 2010.06.27 23:14:04.
