data_PCOD8073008
_publ_section_title
;
Structure prediction by ZEFSAII (Michael W. Deem and Ramdas Pophale) SiO2 
 PCOD8073008
Probable space group: P 21/M
;
_chemical_formula_sum "Si O2"
_cell_formula_units_Z 28
_cell_length_a 8.198079
_cell_length_b 13.738855
_cell_length_c 13.918043
_cell_angle_alpha 90.000000
_cell_angle_beta 79.541660
_cell_angle_gamma 90.000000
_cell_volume 1541.577428
_symmetry_space_group_name_H-M "P 21/M"
_symmetry_group_IT_number 11
_symmetry_cell_setting 'monoclinic'
loop_
_space_group_symop_operation_xyz
x,y,z
-x,1/2+y,-z
-x,-y,-z
x,1/2-y,z
loop_
_atom_site_type_symbol
_atom_site_label
_atom_site_fract_x
_atom_site_fract_y
_atom_site_fract_z
Si Si1 0.694330 0.860352 0.740047
Si Si2 0.777487 0.360513 0.874001
Si Si3 0.676352 0.526689 0.365631
Si Si4 0.554402 0.640337 0.550321
Si Si5 0.525579 0.967647 0.177198
Si Si6 0.006432 0.971269 0.768316
Si Si7 0.163605 0.548402 0.941383
O O1 0.665289 0.750000 0.778044
O O2 0.675268 0.870918 0.628104
O O3 0.881236 0.892100 0.741328
O O4 0.564388 0.927036 0.811928
O O5 0.821256 0.250000 0.841247
O O6 0.597087 0.385695 0.850287
O O7 0.914708 0.432258 0.816150
O O8 0.776945 0.368844 0.990599
O O9 0.657671 0.613038 0.444252
O O10 0.604513 0.427949 0.419141
O O11 0.582282 0.560013 0.278651
O O12 0.870263 0.507435 0.327686
O O13 0.488080 0.750000 0.547285
O O14 0.683397 0.972803 0.088639
O O15 0.113768 0.915511 0.839812
O O16 0.000000 0.500000 0.000000
#
# Coordination Sequence:
#
# PCOD8073008 Si02
#       7
#     4   4   4   4   4   4   4
#     4   9  18  32  50  72  98 128 164 205 247 291
#     4  10  20  33  50  74 102 131 164 203 247 294
#     4   9  18  33  53  73  98 133 165 202 248 290
#     4   9  18  32  50  74 101 129 165 205 245 293
#     4   9  18  34  52  71  98 131 166 201 243 295
#     4   9  19  34  52  73 100 131 166 205 245 293
#     4   9  18  34  51  69  96 129 163 204 243 282
#
# _framework density 18.163212999999999
#
# number of rings (size 3 to 8) (size 9 to 14) (size 15 to 20)
#    0.000    2.857    0.000    0.429    0.000    3.429 
#    0.000    8.571    0.000    0.000    0.000    0.000 
#    0.000    0.000    0.000    0.000    0.000    0.000 
#
# Total GULP energy -347083.005263 kJ/mol
# GULP energy per Si atom -12395.821617 kJ/mol
# Density = 1.812187 g / cm^3
# Si number density = 18.163213 Si / 1000 Ang^3
#
#
#
# Elastic Constant Matrix: (Units=GPa)
#
#
# Indices 1 2 3 4 5 6 
#
# 1 91.3128 24.8802 36.3301 0.0000 -6.0416 0.0000
# 2 24.8802 90.2843 33.2382 0.0000 9.9149 0.0000
# 3 36.3301 33.2382 86.2000 0.0000 -12.5527 0.0000
# 4 0.0000 0.0000 0.0000 21.5503 0.0000 3.6436
# 5 -6.0416 9.9149 -12.5527 0.0000 26.3440 0.0000
# 6 0.0000 0.0000 0.0000 3.6436 0.0000 16.8229
#
#
#
# Elastic Compliance Matrix: (Units=1/GPa)
#
#
# Indices 1 2 3 4 5 6 
#
# 1 0.013494 -0.002228 -0.004573 0.000000 0.001754 0.000000
# 2 -0.002228 0.014948 -0.006145 0.000000 -0.009065 0.000000
# 3 -0.004573 -0.006145 0.017281 0.000000 0.009498 0.000000
# 4 0.000000 0.000000 0.000000 0.048167 0.000000 -0.010432
# 5 0.001754 -0.009065 0.009498 0.000000 0.046299 0.000000
# 6 0.000000 0.000000 0.000000 -0.010432 0.000000 0.061702
#
#
# Mechanical properties :
#
#
# Convention : Reuss Voigt Hill
#
# Bulk Modulus (GPa) = 50.42450 50.74378 50.58414
# Shear Modulus (GPa) = 21.33185 24.50002 22.91593
#
# Velocity S-wave (km/s) = 3.43075 3.67670 3.55585
# Velocity P-wave (km/s) = 6.59663 6.78398 6.69096
#
# Compressibility (1/GPa) = 0.01983163
#
# Stress axis : x y z
#
# Youngs Moduli (GPa) = 74.10857 66.89975 57.86808
#
# Poissons Ratio (x) = 0.14904 0.26461
# Poissons Ratio (y) = 0.16510 0.35559
# Poissons Ratio (z) = 0.33887 0.41109
#
# Static dielectric constant tensor:
#      x y z
#    x 3.462710 0.000000 0.135180 
#    y 0.000000 3.128870 0.000000 
#    z 0.135180 0.000000 3.576270 
# 
# 
# High freq. dielectric constant tensor:
#      x y z
#    x 1.710180 0.000000 0.004170 
#    y 0.000000 1.678010 0.000000 
#    z 0.004170 0.000000 1.708280 
# 
# From -- ./inp_files/21145.got.cif
#   From: 2010.06.25/outbox.cif.g09.slc.cpg/sg11_11_cif.got.tgz:21145.got - 2010.06.27 23:14:04.
