data_PCOD8073576
_publ_section_title
;
Structure prediction by ZEFSAII (Michael W. Deem and Ramdas Pophale) SiO2 
 PCOD8073576
Probable space group: P 21/M
;
_chemical_formula_sum "Si O2"
_cell_formula_units_Z 32
_cell_length_a 20.675215
_cell_length_b 9.032315
_cell_length_c 26.004521
_cell_angle_alpha 90.000000
_cell_angle_beta 19.861942
_cell_angle_gamma 90.000000
_cell_volume 1649.923080
_symmetry_space_group_name_H-M "P 21/M"
_symmetry_group_IT_number 11
_symmetry_cell_setting 'monoclinic'
loop_
_space_group_symop_operation_xyz
x,y,z
-x,1/2+y,-z
-x,-y,-z
x,1/2-y,z
loop_
_atom_site_type_symbol
_atom_site_label
_atom_site_fract_x
_atom_site_fract_y
_atom_site_fract_z
Si Si1 0.156586 0.081110 0.534794
Si Si2 0.835994 0.411225 0.097696
Si Si3 0.210811 0.425502 0.677989
Si Si4 0.640815 0.086218 0.345941
Si Si5 0.162847 0.074870 0.411024
Si Si6 0.448578 0.077810 0.882891
Si Si7 0.034462 0.076179 0.227853
Si Si8 0.581104 0.077864 0.199422
O O1 0.090527 0.250000 0.592844
O O2 0.124755 0.033320 0.499149
O O3 0.380177 0.062557 0.378929
O O4 0.039495 0.979342 0.661571
O O5 0.914988 0.250000 0.024628
O O6 0.670911 0.402959 0.262981
O O7 0.746222 0.479971 0.113519
O O8 0.000000 0.500000 0.000000
O O9 0.181212 0.250000 0.697823
O O10 0.190986 0.488324 0.751510
O O11 0.427648 0.480451 0.506894
O O12 0.068637 0.495897 0.742828
O O13 0.645632 0.250000 0.367359
O O14 0.162138 0.250000 0.403667
O O15 0.366262 0.015037 0.238094
O O16 0.000000 0.000000 0.500000
O O17 0.502244 0.250000 0.844898
O O18 0.397062 0.031845 0.863927
O O19 0.261712 0.043480 0.056946
O O20 0.994252 0.250000 0.252932
O O21 0.606977 0.250000 0.162908
#
# Coordination Sequence:
#
# PCOD8073576 Si02
#       8
#     4   4   4   4   4   4   4   4
#     4   9  19  37  61  87 113 146 189 230 275 331
#     4  10  21  34  49  70 101 137 180 233 287 340
#     4  10  20  34  55  75  98 138 184 231 285 344
#     4   9  19  36  51  69 100 135 178 234 290 341
#     4  10  21  40  67  95 122 153 188 226 270 328
#     4  10  22  38  57  85 119 153 191 233 280 334
#     4  11  23  36  54  83 118 150 187 236 284 330
#     4   9  19  37  57  78 107 145 191 241 290 344
#
# _framework density 19.394842000000001
#
# number of rings (size 3 to 8) (size 9 to 14) (size 15 to 20)
#    0.000    2.250    0.000    3.000    1.750    8.000 
#    0.000    1.875    0.000    0.000    0.000    0.000 
#    0.000    0.000    0.000    0.000    0.000    0.000 
#
# Total GULP energy -396552.664624 kJ/mol
# GULP energy per Si atom -12392.270769 kJ/mol
# Density = 1.935070 g / cm^3
# Si number density = 19.394842 Si / 1000 Ang^3
#
#
#
# Elastic Constant Matrix: (Units=GPa)
#
#
# Indices 1 2 3 4 5 6 
#
# 1 81.5512 39.4034 37.8143 0.0000 -31.3902 0.0000
# 2 39.4034 93.6466 44.4065 0.0000 -11.6031 0.0000
# 3 37.8143 44.4065 88.8972 0.0000 -16.5264 0.0000
# 4 0.0000 0.0000 0.0000 32.4252 0.0000 -2.0971
# 5 -31.3902 -11.6031 -16.5264 0.0000 31.8715 0.0000
# 6 0.0000 0.0000 0.0000 -2.0971 0.0000 35.6486
#
#
#
# Elastic Compliance Matrix: (Units=1/GPa)
#
#
# Indices 1 2 3 4 5 6 
#
# 1 0.024715 -0.006149 -0.003688 0.000000 0.020191 0.000000
# 2 -0.006149 0.015599 -0.005807 0.000000 -0.003388 0.000000
# 3 -0.003688 -0.005807 0.016213 0.000000 0.002661 0.000000
# 4 0.000000 0.000000 0.000000 0.030958 0.000000 0.001821
# 5 0.020191 -0.003388 0.002661 0.000000 0.051408 0.000000
# 6 0.000000 0.000000 0.000000 0.001821 0.000000 0.028159
#
#
# Mechanical properties :
#
#
# Convention : Reuss Voigt Hill
#
# Bulk Modulus (GPa) = 39.61870 56.37149 47.99510
# Shear Modulus (GPa) = 24.18350 29.48711 26.83531
#
# Velocity S-wave (km/s) = 3.53498 3.90341 3.72375
# Velocity P-wave (km/s) = 6.09371 7.03162 6.57940
#
# Compressibility (1/GPa) = 0.02524060
#
# Stress axis : x y z
#
# Youngs Moduli (GPa) = 40.46119 64.10545 61.67939
#
# Poissons Ratio (x) = 0.39417 0.22747
# Poissons Ratio (y) = 0.24878 0.35814
# Poissons Ratio (z) = 0.14922 0.37223
#
# Static dielectric constant tensor:
#      x y z
#    x 3.923050 0.000000 0.255930 
#    y 0.000000 3.587240 0.000000 
#    z 0.255930 0.000000 3.793800 
# 
# 
# High freq. dielectric constant tensor:
#      x y z
#    x 1.746690 0.000000 -0.000610 
#    y 0.000000 1.756760 0.000000 
#    z -0.000610 0.000000 1.756760 
# 
# From -- ./inp_files/72022.got.cif
#   From: 2010.06.25/outbox.cif.g09.slc.cpg/sg11_37_cif.got.tgz:72022.got - 2010.06.27 23:14:04.
