data_PCOD8073965
_publ_section_title
;
Structure prediction by ZEFSAII (Michael W. Deem and Ramdas Pophale) SiO2 
 PCOD8073965
Probable space group: P 21/M
;
_chemical_formula_sum "Si O2"
_cell_formula_units_Z 28
_cell_length_a 9.369481
_cell_length_b 8.930391
_cell_length_c 26.208858
_cell_angle_alpha 90.000000
_cell_angle_beta 139.971841
_cell_angle_gamma 90.000000
_cell_volume 1410.443995
_symmetry_space_group_name_H-M "P 21/M"
_symmetry_group_IT_number 11
_symmetry_cell_setting 'monoclinic'
loop_
_space_group_symop_operation_xyz
x,y,z
-x,1/2+y,-z
-x,-y,-z
x,1/2-y,z
loop_
_atom_site_type_symbol
_atom_site_label
_atom_site_fract_x
_atom_site_fract_y
_atom_site_fract_z
Si Si1 0.281851 0.074002 0.918531
Si Si2 0.818269 0.580187 0.224830
Si Si3 0.930642 0.580223 0.429219
Si Si4 0.404982 0.920667 0.522851
Si Si5 0.293508 0.577819 0.319886
Si Si6 0.384874 0.576405 0.734714
Si Si7 0.845661 0.576990 0.819249
O O1 0.294259 0.250000 0.929418
O O2 0.258450 0.030236 0.852682
O O3 0.069023 0.015766 0.892458
O O4 0.500000 0.000000 0.000000
O O5 0.743362 0.750000 0.215371
O O6 0.705528 0.475695 0.235631
O O7 0.084904 0.566228 0.301490
O O8 0.863669 0.750000 0.424020
O O9 0.725025 0.505901 0.343742
O O10 0.000000 0.500000 0.500000
O O11 0.139357 0.575603 0.447980
O O12 0.492562 0.750000 0.549908
O O13 0.500000 0.000000 0.500000
O O14 0.485538 0.015481 0.593542
O O15 0.326339 0.750000 0.311574
O O16 0.253844 0.472446 0.261501
O O17 0.329360 0.750000 0.712740
O O18 0.651097 0.547968 0.807469
O O19 0.912767 0.750000 0.835348
#
# Coordination Sequence:
#
# PCOD8073965 Si02
#       7
#     4   4   4   4   4   4   4
#     4  10  21  39  64  92 118 147 183 223 271 329
#     4   9  20  37  57  83 114 146 183 227 276 330
#     4  11  24  39  55  77 109 148 191 238 287 336
#     4  11  23  36  51  75 105 140 184 235 286 335
#     4  10  20  35  55  79 105 140 187 233 279 334
#     4  11  23  37  56  83 113 147 190 233 278 332
#     4  10  21  37  57  83 113 144 181 225 269 324
#
# _framework density 19.851904000000001
#
# number of rings (size 3 to 8) (size 9 to 14) (size 15 to 20)
#    0.000    1.714    0.000    5.143    0.000   14.857 
#    0.000    0.714    0.000    0.000    0.000    0.000 
#    0.000    0.000    0.000    0.000    0.000    0.000 
#
# Total GULP energy -347232.368923 kJ/mol
# GULP energy per Si atom -12401.156033 kJ/mol
# Density = 1.980672 g / cm^3
# Si number density = 19.851904 Si / 1000 Ang^3
#
#
#
# Elastic Constant Matrix: (Units=GPa)
#
#
# Indices 1 2 3 4 5 6 
#
# 1 82.3316 45.5975 18.7168 0.0000 13.8529 0.0000
# 2 45.5975 120.2832 42.8039 0.0000 8.9609 0.0000
# 3 18.7168 42.8039 92.2426 0.0000 19.6658 0.0000
# 4 0.0000 0.0000 0.0000 36.9363 0.0000 -0.7568
# 5 13.8529 8.9609 19.6658 0.0000 25.4445 0.0000
# 6 0.0000 0.0000 0.0000 -0.7568 0.0000 36.1143
#
#
#
# Elastic Compliance Matrix: (Units=1/GPa)
#
#
# Indices 1 2 3 4 5 6 
#
# 1 0.016575 -0.006105 0.001120 0.000000 -0.007739 0.000000
# 2 -0.006105 0.012207 -0.005050 0.000000 0.002928 0.000000
# 3 0.001120 -0.005050 0.015215 0.000000 -0.010591 0.000000
# 4 0.000000 0.000000 0.000000 0.027085 0.000000 0.000568
# 5 -0.007739 0.002928 -0.010591 0.000000 0.050669 0.000000
# 6 0.000000 0.000000 0.000000 0.000568 0.000000 0.027702
#
#
# Mechanical properties :
#
#
# Convention : Reuss Voigt Hill
#
# Bulk Modulus (GPa) = 41.79485 56.56596 49.18040
# Shear Modulus (GPa) = 28.16912 32.21496 30.19204
#
# Velocity S-wave (km/s) = 3.77100 4.03273 3.90406
# Velocity P-wave (km/s) = 6.32927 7.08799 6.71935
#
# Compressibility (1/GPa) = 0.02392639
#
# Stress axis : x y z
#
# Youngs Moduli (GPa) = 60.33224 81.91986 65.72449
#
# Poissons Ratio (x) = 0.50014 -0.07360
# Poissons Ratio (y) = 0.36834 0.33190
# Poissons Ratio (z) = -0.06757 0.41369
#
# Static dielectric constant tensor:
#      x y z
#    x 3.686320 0.000000 0.263440 
#    y 0.000000 3.760740 0.000000 
#    z 0.263440 0.000000 3.615560 
# 
# 
# High freq. dielectric constant tensor:
#      x y z
#    x 1.777960 0.000000 0.016060 
#    y 0.000000 1.788670 0.000000 
#    z 0.016060 0.000000 1.759630 
# 
# From -- ./inp_files/70817.got.cif
#   From: 2010.06.25/outbox.cif.g09.slc.cpg/sg11_36_cif.got.tgz:70817.got - 2010.06.27 23:14:04.
