data_PCOD8073344
_publ_section_title
;
Structure prediction by ZEFSAII (Michael W. Deem and Ramdas Pophale) SiO2 
 PCOD8073344
Probable space group: P 21/M
;
_chemical_formula_sum "Si O2"
_cell_formula_units_Z 32
_cell_length_a 15.441263
_cell_length_b 8.773453
_cell_length_c 21.122879
_cell_angle_alpha 90.000000
_cell_angle_beta 138.268342
_cell_angle_gamma 90.000000
_cell_volume 1904.792720
_symmetry_space_group_name_H-M "P 21/M"
_symmetry_group_IT_number 11
_symmetry_cell_setting 'monoclinic'
loop_
_space_group_symop_operation_xyz
x,y,z
-x,1/2+y,-z
-x,-y,-z
x,1/2-y,z
loop_
_atom_site_type_symbol
_atom_site_label
_atom_site_fract_x
_atom_site_fract_y
_atom_site_fract_z
Si Si1 0.109144 0.929575 0.103121
Si Si2 0.789871 0.423475 0.101458
Si Si3 0.511117 0.073611 0.606868
Si Si4 0.055674 0.927643 0.217023
Si Si5 0.448370 0.927822 0.121968
Si Si6 0.598442 0.073635 0.101906
Si Si7 0.382689 0.428907 0.217273
Si Si8 0.303937 0.426683 0.391928
O O1 0.104375 0.750000 0.093025
O O2 0.080670 0.981268 0.159017
O O3 0.248285 0.986801 0.156843
O O4 0.000000 0.000000 0.000000
O O5 0.835687 0.250000 0.115367
O O6 0.740578 0.444406 0.147265
O O7 0.908764 0.536621 0.156203
O O8 0.676822 0.464250 0.989722
O O9 0.530218 0.250000 0.634511
O O10 0.374182 0.042747 0.497292
O O11 0.513201 0.975731 0.672149
O O12 0.630099 0.026134 0.626853
O O13 0.081429 0.750000 0.240181
O O14 0.154508 0.020474 0.316259
O O15 0.461077 0.750000 0.143842
O O16 0.580288 0.985205 0.158514
O O17 0.439377 0.021571 0.181228
O O18 0.563564 0.250000 0.092828
O O19 0.500000 0.000000 0.000000
O O20 0.358644 0.250000 0.205057
O O21 0.314629 0.250000 0.378910
#
# Coordination Sequence:
#
# PCOD8073344 Si02
#       8
#     4   4   4   4   4   4   4   4
#     4  11  23  36  48  67  99 138 175 210 245 290
#     4   9  19  33  50  72 101 135 170 207 249 295
#     4  10  20  35  53  74  98 126 165 211 254 300
#     4  11  22  33  49  72 100 133 170 209 249 295
#     4  10  20  34  52  74 102 135 170 214 255 297
#     4   9  17  31  50  73 100 132 169 210 254 299
#     4  12  23  34  51  74 100 135 171 207 252 303
#     4  10  20  34  54  74  96 128 165 208 257 302
#
# _framework density 16.799727000000001
#
# number of rings (size 3 to 8) (size 9 to 14) (size 15 to 20)
#    0.000    1.750    1.250    4.875    0.000    8.000 
#    0.000    0.000    0.000    0.000    0.000    0.875 
#    0.000    0.000    0.000    0.000    0.000    0.000 
#
# Total GULP energy -396830.050017 kJ/mol
# GULP energy per Si atom -12400.939063 kJ/mol
# Density = 1.676149 g / cm^3
# Si number density = 16.799727 Si / 1000 Ang^3
#
#
#
# Elastic Constant Matrix: (Units=GPa)
#
#
# Indices 1 2 3 4 5 6 
#
# 1 89.2580 21.7189 33.0612 0.0000 -12.7664 0.0000
# 2 21.7189 54.6468 31.7750 0.0000 -0.6949 0.0000
# 3 33.0612 31.7750 82.9970 0.0000 -7.4084 0.0000
# 4 0.0000 0.0000 0.0000 27.0137 0.0000 -0.4507
# 5 -12.7664 -0.6949 -7.4084 0.0000 8.8528 0.0000
# 6 0.0000 0.0000 0.0000 -0.4507 0.0000 30.9617
#
#
#
# Elastic Compliance Matrix: (Units=1/GPa)
#
#
# Indices 1 2 3 4 5 6 
#
# 1 0.016366 -0.004539 -0.002925 0.000000 0.020797 0.000000
# 2 -0.004539 0.025113 -0.008878 0.000000 -0.012004 0.000000
# 3 -0.002925 -0.008878 0.017480 0.000000 0.009713 0.000000
# 4 0.000000 0.000000 0.000000 0.037027 0.000000 0.000539
# 5 0.020797 -0.012004 0.009713 0.000000 0.150136 0.000000
# 6 0.000000 0.000000 0.000000 0.000539 0.000000 0.032306
#
#
# Mechanical properties :
#
#
# Convention : Reuss Voigt Hill
#
# Bulk Modulus (GPa) = 38.05989 44.44576 41.25283
# Shear Modulus (GPa) = 15.63140 22.72209 19.17675
#
# Velocity S-wave (km/s) = 3.05365 3.68166 3.38226
# Velocity P-wave (km/s) = 5.92767 6.67731 6.31363
#
# Compressibility (1/GPa) = 0.02627438
#
# Stress axis : x y z
#
# Youngs Moduli (GPa) = 61.10240 39.82042 57.20983
#
# Poissons Ratio (x) = 0.18075 0.16734
# Poissons Ratio (y) = 0.27736 0.50789
# Poissons Ratio (z) = 0.17873 0.35351
#
# Static dielectric constant tensor:
#      x y z
#    x 3.305430 0.000000 -0.081710 
#    y 0.000000 3.313990 0.000000 
#    z -0.081710 0.000000 3.090430 
# 
# 
# High freq. dielectric constant tensor:
#      x y z
#    x 1.636390 0.000000 -0.004850 
#    y 0.000000 1.666420 0.000000 
#    z -0.004850 0.000000 1.626170 
# 
# From -- ./inp_files/54287.got.cif
#   From: 2010.06.25/outbox.cif.g09.slc.cpg/sg11_28_cif.got.tgz:54287.got - 2010.06.27 23:14:04.
