data_PCOD8073028
_publ_section_title
;
Structure prediction by ZEFSAII (Michael W. Deem and Ramdas Pophale) SiO2 
 PCOD8073028
Probable space group: P 21/M
;
_chemical_formula_sum "Si O2"
_cell_formula_units_Z 28
_cell_length_a 9.644591
_cell_length_b 8.864585
_cell_length_c 17.695966
_cell_angle_alpha 90.000000
_cell_angle_beta 90.763834
_cell_angle_gamma 90.000000
_cell_volume 1512.787422
_symmetry_space_group_name_H-M "P 21/M"
_symmetry_group_IT_number 11
_symmetry_cell_setting 'monoclinic'
loop_
_space_group_symop_operation_xyz
x,y,z
-x,1/2+y,-z
-x,-y,-z
x,1/2-y,z
loop_
_atom_site_type_symbol
_atom_site_label
_atom_site_fract_x
_atom_site_fract_y
_atom_site_fract_z
Si Si1 0.127948 0.924942 0.411151
Si Si2 0.341717 0.926401 0.291712
Si Si3 0.838136 0.422196 0.418277
Si Si4 0.650024 0.928121 0.297075
Si Si5 0.342691 0.572569 0.858734
Si Si6 0.150255 0.927019 0.995374
Si Si7 0.363442 0.572487 0.122644
O O1 0.088129 0.750000 0.395628
O O2 0.231574 0.995206 0.349460
O O3 0.198902 0.941513 0.493726
O O4 0.994321 0.028516 0.404226
O O5 0.342566 0.750000 0.306497
O O6 0.494757 0.989833 0.310074
O O7 0.301943 0.965308 0.205141
O O8 0.819639 0.250000 0.391938
O O9 0.738281 0.528793 0.370230
O O10 0.652549 0.750000 0.284581
O O11 0.707634 0.003458 0.221077
O O12 0.361590 0.750000 0.850655
O O13 0.221595 0.531045 0.916669
O O14 0.488568 0.506284 0.888903
O O15 0.130493 0.750000 0.004855
O O16 0.251038 0.988859 0.062318
O O17 0.000000 0.000000 0.000000
O O18 0.389838 0.750000 0.113162
#
# Coordination Sequence:
#
# PCOD8073028 Si02
#       7
#     4   4   4   4   4   4   4
#     4   9  18  34  53  73 102 140 175 209 256 310
#     4   8  16  32  54  77  99 128 172 215 249 300
#     4  10  20  33  50  75 106 137 172 214 257 306
#     4  10  20  35  55  77 101 133 173 214 259 312
#     4  10  20  35  54  78 106 135 171 215 259 304
#     4  10  22  36  52  78 110 140 174 214 253 300
#     4   9  18  35  56  77 102 135 173 210 253 309
#
# _framework density 18.508880000000001
#
# number of rings (size 3 to 8) (size 9 to 14) (size 15 to 20)
#    0.000    2.571    0.000    2.571    0.000    4.000 
#    0.000    5.000    0.000    0.000    0.000    0.000 
#    0.000    0.000    0.000    0.000    0.000    0.000 
#
# Total GULP energy -347182.993085 kJ/mol
# GULP energy per Si atom -12399.392610 kJ/mol
# Density = 1.846675 g / cm^3
# Si number density = 18.508880 Si / 1000 Ang^3
#
#
#
# Elastic Constant Matrix: (Units=GPa)
#
#
# Indices 1 2 3 4 5 6 
#
# 1 72.9598 29.6690 41.0004 0.0000 -14.8846 0.0000
# 2 29.6690 53.6809 33.1663 0.0000 -7.4283 0.0000
# 3 41.0004 33.1663 82.6392 0.0000 -16.8664 0.0000
# 4 0.0000 0.0000 0.0000 22.7489 0.0000 2.4123
# 5 -14.8846 -7.4283 -16.8664 0.0000 36.6271 0.0000
# 6 0.0000 0.0000 0.0000 2.4123 0.0000 29.6811
#
#
#
# Elastic Compliance Matrix: (Units=1/GPa)
#
#
# Indices 1 2 3 4 5 6 
#
# 1 0.021233 -0.006884 -0.006949 0.000000 0.004033 0.000000
# 2 -0.006884 0.027011 -0.007591 0.000000 -0.000815 0.000000
# 3 -0.006949 -0.007591 0.019541 0.000000 0.004635 0.000000
# 4 0.000000 0.000000 0.000000 0.044340 0.000000 -0.003604
# 5 0.004033 -0.000815 0.004635 0.000000 0.030910 0.000000
# 6 0.000000 0.000000 0.000000 -0.003604 0.000000 0.033984
#
#
# Mechanical properties :
#
#
# Convention : Reuss Voigt Hill
#
# Bulk Modulus (GPa) = 40.10163 46.32792 43.21477
# Shear Modulus (GPa) = 21.91246 24.84102 23.37674
#
# Velocity S-wave (km/s) = 3.44450 3.66746 3.55773
# Velocity P-wave (km/s) = 6.12639 6.55882 6.34629
#
# Compressibility (1/GPa) = 0.02493664
#
# Stress axis : x y z
#
# Youngs Moduli (GPa) = 47.09596 37.02204 51.17456
#
# Poissons Ratio (x) = 0.25487 0.35559
# Poissons Ratio (y) = 0.32422 0.38849
# Poissons Ratio (z) = 0.32725 0.28105
#
# Static dielectric constant tensor:
#      x y z
#    x 3.414900 0.000000 -0.066430 
#    y 0.000000 3.262160 0.000000 
#    z -0.066430 0.000000 3.630480 
# 
# 
# High freq. dielectric constant tensor:
#      x y z
#    x 1.712550 0.000000 -0.001920 
#    y 0.000000 1.706630 0.000000 
#    z -0.001920 0.000000 1.729350 
# 
# From -- ./inp_files/57525.got.cif
#   From: 2010.06.25/outbox.cif.g09.slc.cpg/sg11_29_cif.got.tgz:57525.got - 2010.06.27 23:14:04.
