data_PCOD8073487
_publ_section_title
;
Structure prediction by ZEFSAII (Michael W. Deem and Ramdas Pophale) SiO2 
 PCOD8073487
Probable space group: P 21/M
;
_chemical_formula_sum "Si O2"
_cell_formula_units_Z 28
_cell_length_a 7.797351
_cell_length_b 17.566221
_cell_length_c 15.928484
_cell_angle_alpha 90.000000
_cell_angle_beta 43.490492
_cell_angle_gamma 90.000000
_cell_volume 1501.537269
_symmetry_space_group_name_H-M "P 21/M"
_symmetry_group_IT_number 11
_symmetry_cell_setting 'monoclinic'
loop_
_space_group_symop_operation_xyz
x,y,z
-x,1/2+y,-z
-x,-y,-z
x,1/2-y,z
loop_
_atom_site_type_symbol
_atom_site_label
_atom_site_fract_x
_atom_site_fract_y
_atom_site_fract_z
Si Si1 0.859412 0.559119 0.369464
Si Si2 0.402294 0.522309 0.226167
Si Si3 0.428239 0.165811 0.921804
Si Si4 0.545135 0.042855 0.356015
Si Si5 0.167129 0.933262 0.980520
Si Si6 0.881604 0.337459 0.155835
Si Si7 0.071288 0.665040 0.167099
O O1 0.701628 0.573408 0.509616
O O2 0.696669 0.513814 0.360534
O O3 0.111739 0.514531 0.306106
O O4 0.926143 0.640050 0.303010
O O5 0.501405 0.608667 0.178656
O O6 0.458817 0.498378 0.301435
O O7 0.556168 0.468647 0.106214
O O8 0.399659 0.250000 0.891024
O O9 0.634989 0.166586 0.920371
O O10 0.174653 0.143258 0.060109
O O11 0.724726 0.114307 0.277856
O O12 0.197510 0.860392 0.909882
O O13 0.034303 0.901236 0.110987
O O14 0.000000 0.000000 0.000000
O O15 0.818693 0.250000 0.194599
O O16 0.979975 0.750000 0.172769
#
# Coordination Sequence:
#
# PCOD8073487 Si02
#       7
#     4   4   4   4   4   4   4
#     4  10  22  37  57  80 107 145 189 226 266 319
#     4  10  20  35  59  79 110 144 178 229 277 318
#     4   9  19  33  52  83 111 140 178 222 283 336
#     4  10  22  38  55  80 108 143 192 226 262 325
#     4  11  20  33  53  86 110 139 180 224 279 337
#     4  10  20  34  54  78 109 144 174 222 280 328
#     4  10  21  35  54  81 111 142 179 227 277 332
#
# _framework density 18.647555000000001
#
# number of rings (size 3 to 8) (size 9 to 14) (size 15 to 20)
#    0.000    2.000    1.429    2.571    2.000    1.714 
#    0.000    0.000    0.000    0.857    0.000    0.000 
#    0.000    0.000    0.000    0.000    0.000    0.000 
#
# Total GULP energy -347046.648398 kJ/mol
# GULP energy per Si atom -12394.523157 kJ/mol
# Density = 1.860511 g / cm^3
# Si number density = 18.647555 Si / 1000 Ang^3
#
#
#
# Elastic Constant Matrix: (Units=GPa)
#
#
# Indices 1 2 3 4 5 6 
#
# 1 64.9719 31.9922 30.4954 0.0000 -4.0182 0.0000
# 2 31.9922 95.7624 53.9513 0.0000 4.3509 0.0000
# 3 30.4954 53.9513 121.5411 0.0000 -4.6841 0.0000
# 4 0.0000 0.0000 0.0000 21.5123 0.0000 -1.3289
# 5 -4.0182 4.3509 -4.6841 0.0000 32.6180 0.0000
# 6 0.0000 0.0000 0.0000 -1.3289 0.0000 24.0937
#
#
#
# Elastic Compliance Matrix: (Units=1/GPa)
#
#
# Indices 1 2 3 4 5 6 
#
# 1 0.019252 -0.005191 -0.002422 0.000000 0.002716 0.000000
# 2 -0.005191 0.015576 -0.005748 0.000000 -0.003543 0.000000
# 3 -0.002422 -0.005748 0.011468 0.000000 0.002115 0.000000
# 4 0.000000 0.000000 0.000000 0.046644 0.000000 0.002573
# 5 0.002716 -0.003543 0.002115 0.000000 0.031769 0.000000
# 6 0.000000 0.000000 0.000000 0.002573 0.000000 0.041646
#
#
# Mechanical properties :
#
#
# Convention : Reuss Voigt Hill
#
# Bulk Modulus (GPa) = 51.08527 57.23923 54.16225
# Shear Modulus (GPa) = 25.04986 26.70055 25.87521
#
# Velocity S-wave (km/s) = 3.66913 3.78809 3.72908
# Velocity P-wave (km/s) = 6.73829 7.06362 6.90287
#
# Compressibility (1/GPa) = 0.01957512
#
# Stress axis : x y z
#
# Youngs Moduli (GPa) = 51.94321 64.20099 87.19614
#
# Poissons Ratio (x) = 0.33325 0.21115
# Poissons Ratio (y) = 0.26962 0.50123
# Poissons Ratio (z) = 0.12578 0.36904
#
# Static dielectric constant tensor:
#      x y z
#    x 3.372080 0.000000 -0.150170 
#    y 0.000000 3.545000 0.000000 
#    z -0.150170 0.000000 3.670170 
# 
# 
# High freq. dielectric constant tensor:
#      x y z
#    x 1.718000 0.000000 -0.012340 
#    y 0.000000 1.724110 0.000000 
#    z -0.012340 0.000000 1.722360 
# 
# From -- ./inp_files/22770.got.cif
#   From: 2010.06.25/outbox.cif.g09.slc.cpg/sg11_12_cif.got.tgz:22770.got - 2010.06.27 23:14:04.
