data_PCOD8073685
_publ_section_title
;
Structure prediction by ZEFSAII (Michael W. Deem and Ramdas Pophale) SiO2 
 PCOD8073685
Probable space group: P 21/M
;
_chemical_formula_sum "Si O2"
_cell_formula_units_Z 32
_cell_length_a 10.130537
_cell_length_b 8.793313
_cell_length_c 22.397350
_cell_angle_alpha 90.000000
_cell_angle_beta 55.556218
_cell_angle_gamma 90.000000
_cell_volume 1645.386430
_symmetry_space_group_name_H-M "P 21/M"
_symmetry_group_IT_number 11
_symmetry_cell_setting 'monoclinic'
loop_
_space_group_symop_operation_xyz
x,y,z
-x,1/2+y,-z
-x,-y,-z
x,1/2-y,z
loop_
_atom_site_type_symbol
_atom_site_label
_atom_site_fract_x
_atom_site_fract_y
_atom_site_fract_z
Si Si1 0.166942 0.070735 0.472663
Si Si2 0.522120 0.069454 0.059498
Si Si3 0.749135 0.930855 0.779865
Si Si4 0.265857 0.929594 0.789948
Si Si5 0.617672 0.931299 0.688508
Si Si6 0.673822 0.929930 0.446068
Si Si7 0.892955 0.429926 0.289641
Si Si8 0.829030 0.430580 0.056864
O O1 0.154466 0.250000 0.470378
O O2 0.291549 0.005292 0.392488
O O3 0.219350 0.020042 0.524947
O O4 0.000000 0.000000 0.500000
O O5 0.516898 0.250000 0.055747
O O6 0.375787 0.009744 0.138295
O O7 0.691689 0.016926 0.045076
O O8 0.500000 0.000000 0.000000
O O9 0.748182 0.750000 0.781260
O O10 0.697806 0.994060 0.728509
O O11 0.928412 0.992419 0.744985
O O12 0.279272 0.750000 0.792487
O O13 0.439119 0.996664 0.729397
O O14 0.142969 0.975664 0.769503
O O15 0.213302 0.996039 0.866986
O O16 0.619053 0.750000 0.689170
O O17 0.655794 0.750000 0.446056
O O18 0.500000 0.000000 0.500000
O O19 0.761415 0.992314 0.365175
O O20 0.880189 0.250000 0.303384
O O21 0.842046 0.250000 0.053418
O O22 0.000000 0.500000 0.000000
#
# Coordination Sequence:
#
# PCOD8073685 Si02
#       8
#     4   4   4   4   4   4   4   4
#     4  10  21  35  56  84 111 142 182 230 282 334
#     4  10  21  37  57  85 116 150 189 232 282 338
#     4   9  17  31  53  80 107 138 185 233 276 331
#     4   9  17  32  54  79 105 139 188 235 274 323
#     4   9  15  29  52  75 100 132 175 226 270 315
#     4  11  23  39  57  83 118 154 191 233 283 341
#     4  10  20  34  56  83 108 143 190 239 286 335
#     4  10  21  37  58  85 116 149 189 237 282 333
#
# _framework density 19.448319000000001
#
# number of rings (size 3 to 8) (size 9 to 14) (size 15 to 20)
#    0.000    2.250    1.250    1.875    1.750    4.500 
#    0.000    1.250    0.000    1.500    0.000    0.000 
#    0.000    0.000    0.000    0.000    0.000    0.000 
#
# Total GULP energy -396740.428217 kJ/mol
# GULP energy per Si atom -12398.138382 kJ/mol
# Density = 1.940405 g / cm^3
# Si number density = 19.448319 Si / 1000 Ang^3
#
#
#
# Elastic Constant Matrix: (Units=GPa)
#
#
# Indices 1 2 3 4 5 6 
#
# 1 148.8601 29.6279 57.8151 0.0000 -5.8873 0.0000
# 2 29.6279 24.4156 23.8778 0.0000 1.6626 0.0000
# 3 57.8151 23.8778 138.4176 0.0000 -2.5732 0.0000
# 4 0.0000 0.0000 0.0000 28.2488 0.0000 -3.0920
# 5 -5.8873 1.6626 -2.5732 0.0000 45.7283 0.0000
# 6 0.0000 0.0000 0.0000 -3.0920 0.0000 22.2530
#
#
#
# Elastic Compliance Matrix: (Units=1/GPa)
#
#
# Indices 1 2 3 4 5 6 
#
# 1 0.009556 -0.009403 -0.002343 0.000000 0.001440 0.000000
# 2 -0.009403 0.058759 -0.006278 0.000000 -0.003700 0.000000
# 3 -0.002343 -0.006278 0.009294 0.000000 0.000450 0.000000
# 4 0.000000 0.000000 0.000000 0.035946 0.000000 0.004995
# 5 0.001440 -0.003700 0.000450 0.000000 0.022214 0.000000
# 6 0.000000 0.000000 0.000000 0.004995 0.000000 0.045632
#
#
# Mechanical properties :
#
#
# Convention : Reuss Voigt Hill
#
# Bulk Modulus (GPa) = 24.05983 59.37053 41.71518
# Shear Modulus (GPa) = 21.61675 32.60420 27.11048
#
# Velocity S-wave (km/s) = 3.33753 4.09889 3.73765
# Velocity P-wave (km/s) = 5.22017 7.27976 6.33423
#
# Compressibility (1/GPa) = 0.04156305
#
# Stress axis : x y z
#
# Youngs Moduli (GPa) = 104.64606 17.01857 107.59364
#
# Poissons Ratio (x) = 0.16003 0.25204
# Poissons Ratio (y) = 0.98401 0.67542
# Poissons Ratio (z) = 0.24514 0.10683
#
# Static dielectric constant tensor:
#      x y z
#    x 3.791950 0.000000 -0.014370 
#    y 0.000000 3.061810 0.000000 
#    z -0.014370 0.000000 3.499550 
# 
# 
# High freq. dielectric constant tensor:
#      x y z
#    x 1.777060 0.000000 0.000690 
#    y 0.000000 1.706980 0.000000 
#    z 0.000690 0.000000 1.774300 
# 
# From -- ./inp_files/63546.got.cif
#   From: 2010.06.25/outbox.cif.g09.slc.cpg/sg11_32_cif.got.tgz:63546.got - 2010.06.27 23:14:04.
