data_PCOD8073716
_publ_section_title
;
Structure prediction by ZEFSAII (Michael W. Deem and Ramdas Pophale) SiO2 
 PCOD8073716
Probable space group: P 21/M
;
_chemical_formula_sum "Si O2"
_cell_formula_units_Z 32
_cell_length_a 12.192954
_cell_length_b 8.723186
_cell_length_c 28.962968
_cell_angle_alpha 90.000000
_cell_angle_beta 145.439836
_cell_angle_gamma 90.000000
_cell_volume 1747.503078
_symmetry_space_group_name_H-M "P 21/M"
_symmetry_group_IT_number 11
_symmetry_cell_setting 'monoclinic'
loop_
_space_group_symop_operation_xyz
x,y,z
-x,1/2+y,-z
-x,-y,-z
x,1/2-y,z
loop_
_atom_site_type_symbol
_atom_site_label
_atom_site_fract_x
_atom_site_fract_y
_atom_site_fract_z
Si Si1 0.423829 0.431970 0.775587
Si Si2 0.799451 0.929954 0.485037
Si Si3 0.194925 0.070717 0.048829
Si Si4 0.317580 0.931794 0.462290
Si Si5 0.758181 0.069567 0.374417
Si Si6 0.670916 0.572075 0.003758
Si Si7 0.264038 0.069558 0.873615
Si Si8 0.074040 0.432110 0.718186
O O1 0.424442 0.250000 0.771276
O O2 0.626882 0.486919 0.865664
O O3 0.394428 0.505568 0.715161
O O4 0.252065 0.492299 0.748975
O O5 0.765694 0.750000 0.477565
O O6 0.025422 0.974206 0.566736
O O7 0.683682 0.014229 0.485359
O O8 0.710772 0.988689 0.406357
O O9 0.205813 0.250000 0.063987
O O10 0.194094 0.040583 0.993370
O O11 0.000000 0.000000 0.000000
O O12 0.325988 0.750000 0.463175
O O13 0.126844 0.998432 0.370601
O O14 0.500000 0.000000 0.500000
O O15 0.733841 0.250000 0.372084
O O16 0.617252 0.750000 0.989725
O O17 0.777790 0.515260 0.088147
O O18 0.473120 0.481989 0.928671
O O19 0.262081 0.250000 0.869937
O O20 0.105269 0.007758 0.781839
O O21 0.068695 0.250000 0.714008
#
# Coordination Sequence:
#
# PCOD8073716 Si02
#       8
#     4   4   4   4   4   4   4   4
#     4  11  20  35  58  85 111 144 189 234 281 337
#     4  10  20  35  56  83 113 149 189 231 283 340
#     4  11  23  38  54  79 113 152 190 232 283 338
#     4  11  22  38  56  80 114 152 191 235 287 345
#     4  10  20  34  56  86 116 145 182 234 285 335
#     4   9  18  31  51  79 109 137 175 223 273 325
#     4   9  16  31  54  80 106 136 173 220 273 326
#     4   9  18  32  55  82 108 140 183 229 277 335
#
# _framework density 18.311841999999999
#
# number of rings (size 3 to 8) (size 9 to 14) (size 15 to 20)
#    0.000    2.000    2.500    1.875    0.000    1.500 
#    0.000    2.500    0.000    3.000    0.000    0.000 
#    0.000    0.000    0.000    0.000    0.000    0.000 
#
# Total GULP energy -396773.840686 kJ/mol
# GULP energy per Si atom -12399.182521 kJ/mol
# Density = 1.827016 g / cm^3
# Si number density = 18.311842 Si / 1000 Ang^3
#
#
#
# Elastic Constant Matrix: (Units=GPa)
#
#
# Indices 1 2 3 4 5 6 
#
# 1 127.9354 27.0530 66.5999 0.0000 -9.4092 0.0000
# 2 27.0530 44.1619 21.2410 0.0000 -2.7267 0.0000
# 3 66.5999 21.2410 115.5342 0.0000 -9.7956 0.0000
# 4 0.0000 0.0000 0.0000 27.3262 0.0000 -0.2396
# 5 -9.4092 -2.7267 -9.7956 0.0000 32.8735 0.0000
# 6 0.0000 0.0000 0.0000 -0.2396 0.0000 28.1372
#
#
#
# Elastic Compliance Matrix: (Units=1/GPa)
#
#
# Indices 1 2 3 4 5 6 
#
# 1 0.011943 -0.004364 -0.005974 0.000000 0.001276 0.000000
# 2 -0.004364 0.026452 -0.002326 0.000000 0.000252 0.000000
# 3 -0.005974 -0.002326 0.012686 0.000000 0.001877 0.000000
# 4 0.000000 0.000000 0.000000 0.036598 0.000000 0.000312
# 5 0.001276 0.000252 0.001877 0.000000 0.031365 0.000000
# 6 0.000000 0.000000 0.000000 0.000312 0.000000 0.035543
#
#
# Mechanical properties :
#
#
# Convention : Reuss Voigt Hill
#
# Bulk Modulus (GPa) = 38.83146 57.49105 48.16125
# Shear Modulus (GPa) = 26.52535 29.18322 27.85428
#
# Velocity S-wave (km/s) = 3.81009 3.99642 3.90437
# Velocity P-wave (km/s) = 6.37240 7.26353 6.83251
#
# Compressibility (1/GPa) = 0.02575232
#
# Stress axis : x y z
#
# Youngs Moduli (GPa) = 83.73074 37.80485 78.82675
#
# Poissons Ratio (x) = 0.16498 0.47092
# Poissons Ratio (y) = 0.36540 0.18337
# Poissons Ratio (z) = 0.50021 0.08794
#
# Static dielectric constant tensor:
#      x y z
#    x 3.440540 0.000000 -0.179470 
#    y 0.000000 3.307610 0.000000 
#    z -0.179470 0.000000 2.758170 
# 
# 
# High freq. dielectric constant tensor:
#      x y z
#    x 1.707790 0.000000 -0.026840 
#    y 0.000000 1.707380 0.000000 
#    z -0.026840 0.000000 1.702450 
# 
# From -- ./inp_files/73165.got.cif
#   From: 2010.06.25/outbox.cif.g09.slc.cpg/sg11_37_cif.got.tgz:73165.got - 2010.06.27 23:14:04.
