data_PCOD8073239
_publ_section_title
;
Structure prediction by ZEFSAII (Michael W. Deem and Ramdas Pophale) SiO2 
 PCOD8073239
Probable space group: P 21/M
;
_chemical_formula_sum "Si O2"
_cell_formula_units_Z 32
_cell_length_a 27.952019
_cell_length_b 8.836629
_cell_length_c 21.544969
_cell_angle_alpha 90.000000
_cell_angle_beta 19.010574
_cell_angle_gamma 90.000000
_cell_volume 1733.485835
_symmetry_space_group_name_H-M "P 21/M"
_symmetry_group_IT_number 11
_symmetry_cell_setting 'monoclinic'
loop_
_space_group_symop_operation_xyz
x,y,z
-x,1/2+y,-z
-x,-y,-z
x,1/2-y,z
loop_
_atom_site_type_symbol
_atom_site_label
_atom_site_fract_x
_atom_site_fract_y
_atom_site_fract_z
Si Si1 0.673830 0.077927 0.149922
Si Si2 0.586562 0.428527 0.950018
Si Si3 0.833438 0.924757 0.850712
Si Si4 0.917000 0.426202 0.545499
Si Si5 0.550376 0.574852 0.121091
Si Si6 0.657656 0.424354 0.309164
Si Si7 0.395311 0.927205 0.436071
Si Si8 0.160010 0.070407 0.806017
O O1 0.630763 0.250000 0.186340
O O2 0.727118 0.064229 0.155351
O O3 0.531503 0.974702 0.312427
O O4 0.810317 0.024734 0.940362
O O5 0.579186 0.250000 0.952961
O O6 0.753058 0.490884 0.740685
O O7 0.500000 0.500000 0.000000
O O8 0.516008 0.477688 0.102132
O O9 0.814078 0.750000 0.893127
O O10 0.994710 0.960328 0.626316
O O11 0.712012 0.967575 0.947952
O O12 0.912704 0.250000 0.564899
O O13 0.000000 0.500000 0.500000
O O14 0.541671 0.750000 0.113339
O O15 0.430563 0.534905 0.320982
O O16 0.500000 0.500000 0.500000
O O17 0.644718 0.250000 0.346744
O O18 0.761012 0.515453 0.228593
O O19 0.368796 0.750000 0.478173
O O20 0.250277 0.016943 0.634654
O O21 0.148950 0.250000 0.819696
O O22 0.000000 0.000000 0.000000
#
# Coordination Sequence:
#
# PCOD8073239 Si02
#       8
#     4   4   4   4   4   4   4   4
#     4  10  20  33  54  86 118 148 189 238 288 341
#     4  11  23  37  56  82 114 153 193 236 284 341
#     4   9  18  33  54  81 114 147 183 233 292 344
#     4  10  20  35  56  83 110 143 186 232 284 336
#     4   9  18  34  57  83 112 146 185 232 286 344
#     4  11  22  37  59  87 118 152 193 242 292 345
#     4  10  20  36  59  85 116 152 191 236 289 346
#     4  12  25  41  61  87 119 157 199 244 294 351
#
# _framework density 18.459913
#
# number of rings (size 3 to 8) (size 9 to 14) (size 15 to 20)
#    0.000    1.750    2.500    3.375    0.000    5.000 
#    0.000    1.250    0.000    4.500    0.000    0.000 
#    0.000    0.000    0.000    0.000    0.000    0.000 
#
# Total GULP energy -396861.938426 kJ/mol
# GULP energy per Si atom -12401.935576 kJ/mol
# Density = 1.841790 g / cm^3
# Si number density = 18.459913 Si / 1000 Ang^3
#
#
#
# Elastic Constant Matrix: (Units=GPa)
#
#
# Indices 1 2 3 4 5 6 
#
# 1 120.9088 58.0683 69.9959 0.0000 6.8686 0.0000
# 2 58.0683 109.7918 57.0531 0.0000 4.0642 0.0000
# 3 69.9959 57.0531 127.4767 0.0000 2.8061 0.0000
# 4 0.0000 0.0000 0.0000 30.7278 0.0000 4.6577
# 5 6.8686 4.0642 2.8061 0.0000 28.6724 0.0000
# 6 0.0000 0.0000 0.0000 4.6577 0.0000 34.3094
#
#
#
# Elastic Compliance Matrix: (Units=1/GPa)
#
#
# Indices 1 2 3 4 5 6 
#
# 1 0.013643 -0.004259 -0.005538 0.000000 -0.002122 0.000000
# 2 -0.004259 0.013237 -0.003575 0.000000 -0.000506 0.000000
# 3 -0.005538 -0.003575 0.012472 0.000000 0.000613 0.000000
# 4 0.000000 0.000000 0.000000 0.033228 0.000000 -0.004511
# 5 -0.002122 -0.000506 0.000613 0.000000 0.035397 0.000000
# 6 0.000000 0.000000 0.000000 -0.004511 0.000000 0.029759
#
#
# Mechanical properties :
#
#
# Convention : Reuss Voigt Hill
#
# Bulk Modulus (GPa) = 79.31487 80.93467 80.12477
# Shear Modulus (GPa) = 29.64159 30.27926 29.96042
#
# Velocity S-wave (km/s) = 4.01150 4.05442 4.03302
# Velocity P-wave (km/s) = 8.03215 8.11520 8.07378
#
# Compressibility (1/GPa) = 0.01260798
#
# Stress axis : x y z
#
# Youngs Moduli (GPa) = 73.29771 75.54559 80.18047
#
# Poissons Ratio (x) = 0.32176 0.44406
# Poissons Ratio (y) = 0.31219 0.28661
# Poissons Ratio (z) = 0.40594 0.27004
#
# Static dielectric constant tensor:
#      x y z
#    x 3.349980 0.000000 0.255730 
#    y 0.000000 3.460850 0.000000 
#    z 0.255730 0.000000 3.574910 
# 
# 
# High freq. dielectric constant tensor:
#      x y z
#    x 1.704910 0.000000 0.023850 
#    y 0.000000 1.725210 0.000000 
#    z 0.023850 0.000000 1.712440 
# 
# From -- ./inp_files/66923.got.cif
#   From: 2010.06.25/outbox.cif.g09.slc.cpg/sg11_34_cif.got.tgz:66923.got - 2010.06.27 23:14:04.
