data_PCOD8073639
_publ_section_title
;
Structure prediction by ZEFSAII (Michael W. Deem and Ramdas Pophale) SiO2 
 PCOD8073639
Probable space group: P 21/M
;
_chemical_formula_sum "Si O2"
_cell_formula_units_Z 24
_cell_length_a 15.788607
_cell_length_b 8.831974
_cell_length_c 9.154678
_cell_angle_alpha 90.000000
_cell_angle_beta 73.018997
_cell_angle_gamma 90.000000
_cell_volume 1220.913745
_symmetry_space_group_name_H-M "P 21/M"
_symmetry_group_IT_number 11
_symmetry_cell_setting 'monoclinic'
loop_
_space_group_symop_operation_xyz
x,y,z
-x,1/2+y,-z
-x,-y,-z
x,1/2-y,z
loop_
_atom_site_type_symbol
_atom_site_label
_atom_site_fract_x
_atom_site_fract_y
_atom_site_fract_z
Si Si1 0.079471 0.429179 0.369783
Si Si2 0.251453 0.927013 0.785157
Si Si3 0.235334 0.925636 0.461636
Si Si4 0.399823 0.072496 0.890799
Si Si5 0.400812 0.924563 0.188258
Si Si6 0.078916 0.929646 0.051740
O O1 0.067112 0.250000 0.365199
O O2 0.171148 0.468534 0.401467
O O3 0.078910 0.499582 0.210588
O O4 0.000000 0.500000 0.500000
O O5 0.268797 0.750000 0.781939
O O6 0.229715 0.978326 0.631689
O O7 0.341222 0.005666 0.790967
O O8 0.170422 0.975570 0.928380
O O9 0.207180 0.750000 0.457027
O O10 0.335180 0.952727 0.355900
O O11 0.389339 0.250000 0.891602
O O12 0.501404 0.020207 0.813716
O O13 0.365911 0.014873 0.064961
O O14 0.403332 0.750000 0.140119
O O15 0.067193 0.750000 0.067025
O O16 0.000000 0.000000 0.000000
#
# Coordination Sequence:
#
# PCOD8073639 Si02
#       6
#     4   4   4   4   4   4
#     4  12  25  41  62  88 117 150 190 236 288 343
#     4  10  22  38  57  82 114 151 187 230 286 342
#     4  10  21  39  60  83 114 151 192 236 285 341
#     4  10  20  34  55  83 113 148 192 237 281 336
#     4   9  19  36  57  81 112 150 190 235 286 336
#     4  11  23  40  62  88 118 152 192 237 288 344
#
# _framework density 19.657406999999999
#
# number of rings (size 3 to 8) (size 9 to 14) (size 15 to 20)
#    0.000    1.667    0.000    4.500    0.000    9.333 
#    0.000    0.000    0.000    0.000    0.000    0.000 
#    0.000    0.000    0.000    0.000    0.000    0.000 
#
# Total GULP energy -297718.586953 kJ/mol
# GULP energy per Si atom -12404.941123 kJ/mol
# Density = 1.961267 g / cm^3
# Si number density = 19.657407 Si / 1000 Ang^3
#
#
#
# Elastic Constant Matrix: (Units=GPa)
#
#
# Indices 1 2 3 4 5 6 
#
# 1 124.8660 53.3188 70.5536 0.0000 11.6530 0.0000
# 2 53.3188 71.9986 54.9927 0.0000 4.3948 0.0000
# 3 70.5536 54.9927 165.2502 0.0000 3.9406 0.0000
# 4 0.0000 0.0000 0.0000 31.0470 0.0000 6.1807
# 5 11.6530 4.3948 3.9406 0.0000 35.8436 0.0000
# 6 0.0000 0.0000 0.0000 6.1807 0.0000 38.2169
#
#
#
# Elastic Compliance Matrix: (Units=1/GPa)
#
#
# Indices 1 2 3 4 5 6 
#
# 1 0.013116 -0.007113 -0.003160 0.000000 -0.003044 0.000000
# 2 -0.007113 0.022574 -0.004476 0.000000 0.000037 0.000000
# 3 -0.003160 -0.004476 0.008876 0.000000 0.000600 0.000000
# 4 0.000000 0.000000 0.000000 0.033281 0.000000 -0.005382
# 5 -0.003044 0.000037 0.000600 0.000000 0.028818 0.000000
# 6 0.000000 0.000000 0.000000 -0.005382 0.000000 0.027037
#
#
# Mechanical properties :
#
#
# Convention : Reuss Voigt Hill
#
# Bulk Modulus (GPa) = 66.37289 79.98280 73.17784
# Shear Modulus (GPa) = 29.72273 33.23814 31.48044
#
# Velocity S-wave (km/s) = 3.89271 4.11648 4.00616
# Velocity P-wave (km/s) = 7.35135 7.96057 7.66202
#
# Compressibility (1/GPa) = 0.01506639
#
# Stress axis : x y z
#
# Youngs Moduli (GPa) = 76.24477 44.29966 112.66673
#
# Poissons Ratio (x) = 0.31513 0.35601
# Poissons Ratio (y) = 0.54237 0.50429
# Poissons Ratio (z) = 0.24092 0.19828
#
# Static dielectric constant tensor:
#      x y z
#    x 3.751810 0.000000 -0.072890 
#    y 0.000000 3.671590 0.000000 
#    z -0.072890 0.000000 3.839470 
# 
# 
# High freq. dielectric constant tensor:
#      x y z
#    x 1.778760 0.000000 -0.001940 
#    y 0.000000 1.766440 0.000000 
#    z -0.001940 0.000000 1.774200 
# 
# From -- ./inp_files/20359.got.cif
#   From: 2010.06.25/outbox.cif.g09.slc.cpg/sg11_11_cif.got.tgz:20359.got - 2010.06.27 23:14:04.
