data_PCOD8073448
_publ_section_title
;
Structure prediction by ZEFSAII (Michael W. Deem and Ramdas Pophale) SiO2 
 PCOD8073448
Probable space group: P 21/M
;
_chemical_formula_sum "Si O2"
_cell_formula_units_Z 32
_cell_length_a 26.931499
_cell_length_b 9.104273
_cell_length_c 21.443050
_cell_angle_alpha 90.000000
_cell_angle_beta 20.298710
_cell_angle_gamma 90.000000
_cell_volume 1823.958083
_symmetry_space_group_name_H-M "P 21/M"
_symmetry_group_IT_number 11
_symmetry_cell_setting 'monoclinic'
loop_
_space_group_symop_operation_xyz
x,y,z
-x,1/2+y,-z
-x,-y,-z
x,1/2-y,z
loop_
_atom_site_type_symbol
_atom_site_label
_atom_site_fract_x
_atom_site_fract_y
_atom_site_fract_z
Si Si1 0.850731 0.423324 0.685295
Si Si2 0.664703 0.419715 0.654421
Si Si3 0.861283 0.584289 0.185144
Si Si4 0.451173 0.075308 0.494211
Si Si5 0.353897 0.920295 0.184105
Si Si6 0.463372 0.420183 0.723251
Si Si7 0.655459 0.918814 0.008591
Si Si8 0.727191 0.581960 0.468189
O O1 0.871192 0.250000 0.665488
O O2 0.759866 0.472800 0.732484
O O3 0.000000 0.500000 0.500000
O O4 0.775626 0.478371 0.837021
O O5 0.692912 0.250000 0.604740
O O6 0.706869 0.456792 0.675634
O O7 0.498392 0.460851 0.839314
O O8 0.767052 0.522236 0.490212
O O9 0.882654 0.750000 0.137982
O O10 0.712082 0.527207 0.330257
O O11 0.856643 0.572676 0.266140
O O12 0.000000 0.500000 0.000000
O O13 0.466021 0.250000 0.481364
O O14 0.500000 0.000000 0.500000
O O15 0.558444 0.017217 0.313434
O O16 0.387746 0.750000 0.137951
O O17 0.500000 0.000000 0.000000
O O18 0.473630 0.250000 0.691745
O O19 0.341086 0.443940 0.920109
O O20 0.608625 0.469071 0.584772
O O21 0.691112 0.750000 0.950942
O O22 0.670237 0.750000 0.538148
#
# Coordination Sequence:
#
# PCOD8073448 Si02
#       8
#     4   4   4   4   4   4   4   4
#     4  11  23  36  53  75 103 139 176 212 257 311
#     4   9  17  30  50  76 104 130 164 211 261 307
#     4   9  19  33  51  76 105 136 173 211 251 304
#     4  10  20  34  53  80 109 137 174 217 260 307
#     4  10  20  34  53  79 104 131 170 213 259 307
#     4   9  17  30  50  76 104 135 170 211 259 305
#     4   9  17  31  52  76 103 132 166 211 258 306
#     4   9  17  29  46  74 106 133 168 212 254 301
#
# _framework density 17.544263000000001
#
# number of rings (size 3 to 8) (size 9 to 14) (size 15 to 20)
#    0.000    2.500    1.250    3.000    0.000    6.500 
#    0.000    0.000    2.750    0.000    0.000    0.000 
#    0.000    0.000    0.000    0.000    0.000    0.000 
#
# Total GULP energy -396605.048549 kJ/mol
# GULP energy per Si atom -12393.907767 kJ/mol
# Density = 1.750433 g / cm^3
# Si number density = 17.544263 Si / 1000 Ang^3
#
#
#
# Elastic Constant Matrix: (Units=GPa)
#
#
# Indices 1 2 3 4 5 6 
#
# 1 113.9166 54.5203 60.6551 0.0000 20.4316 0.0000
# 2 54.5203 84.9777 59.1278 0.0000 11.5350 0.0000
# 3 60.6551 59.1278 101.3934 0.0000 15.4409 0.0000
# 4 0.0000 0.0000 0.0000 33.3296 0.0000 8.0528
# 5 20.4316 11.5350 15.4409 0.0000 24.7677 0.0000
# 6 0.0000 0.0000 0.0000 8.0528 0.0000 29.4021
#
#
#
# Elastic Compliance Matrix: (Units=1/GPa)
#
#
# Indices 1 2 3 4 5 6 
#
# 1 0.015228 -0.005424 -0.004881 0.000000 -0.006992 0.000000
# 2 -0.005424 0.021848 -0.009533 0.000000 0.000242 0.000000
# 3 -0.004881 -0.009533 0.018841 0.000000 -0.003280 0.000000
# 4 0.000000 0.000000 0.000000 0.032129 0.000000 -0.008800
# 5 -0.006992 0.000242 -0.003280 0.000000 0.048075 0.000000
# 6 0.000000 0.000000 0.000000 -0.008800 0.000000 0.036421
#
#
# Mechanical properties :
#
#
# Convention : Reuss Voigt Hill
#
# Bulk Modulus (GPa) = 61.57624 72.09936 66.83780
# Shear Modulus (GPa) = 22.97452 25.89883 24.43668
#
# Velocity S-wave (km/s) = 3.62265 3.84630 3.73615
# Velocity P-wave (km/s) = 7.25755 7.80450 7.53599
#
# Compressibility (1/GPa) = 0.01624003
#
# Stress axis : x y z
#
# Youngs Moduli (GPa) = 65.67036 45.77125 53.07510
#
# Poissons Ratio (x) = 0.24827 0.25909
# Poissons Ratio (y) = 0.35620 0.50595
# Poissons Ratio (z) = 0.32057 0.43632
#
# Static dielectric constant tensor:
#      x y z
#    x 3.516960 0.000000 0.410400 
#    y 0.000000 3.319240 0.000000 
#    z 0.410400 0.000000 3.118500 
# 
# 
# High freq. dielectric constant tensor:
#      x y z
#    x 1.672050 0.000000 0.035650 
#    y 0.000000 1.686930 0.000000 
#    z 0.035650 0.000000 1.651240 
# 
# From -- ./inp_files/67108.got.cif
#   From: 2010.06.25/outbox.cif.g09.slc.cpg/sg11_34_cif.got.tgz:67108.got - 2010.06.27 23:14:04.
