data_PCOD8073377
_publ_section_title
;
Structure prediction by ZEFSAII (Michael W. Deem and Ramdas Pophale) SiO2 
 PCOD8073377
Probable space group: P 21/M
;
_chemical_formula_sum "Si O2"
_cell_formula_units_Z 28
_cell_length_a 9.628070
_cell_length_b 9.155596
_cell_length_c 26.648684
_cell_angle_alpha 90.000000
_cell_angle_beta 138.857611
_cell_angle_gamma 90.000000
_cell_volume 1545.549841
_symmetry_space_group_name_H-M "P 21/M"
_symmetry_group_IT_number 11
_symmetry_cell_setting 'monoclinic'
loop_
_space_group_symop_operation_xyz
x,y,z
-x,1/2+y,-z
-x,-y,-z
x,1/2-y,z
loop_
_atom_site_type_symbol
_atom_site_label
_atom_site_fract_x
_atom_site_fract_y
_atom_site_fract_z
Si Si1 0.565740 0.908024 0.792754
Si Si2 0.371298 0.577058 0.283303
Si Si3 0.975215 0.579406 0.235582
Si Si4 0.841809 0.582167 0.306505
Si Si5 0.793279 0.587643 0.956485
Si Si6 0.852308 0.581475 0.421488
Si Si7 0.461236 0.426386 0.935585
O O1 0.515843 0.750000 0.754270
O O2 0.703824 0.882600 0.878043
O O3 0.687749 0.010316 0.786546
O O4 0.355736 0.981372 0.755492
O O5 0.365215 0.750000 0.277371
O O6 0.610132 0.525675 0.361911
O O7 0.194235 0.514599 0.273149
O O8 0.976014 0.750000 0.226397
O O9 0.990244 0.544134 0.299398
O O10 0.764775 0.521181 0.149726
O O11 0.766735 0.750000 0.283232
O O12 0.939906 0.552653 0.388523
O O13 0.831726 0.750000 0.991644
O O14 0.644675 0.487129 0.950095
O O15 0.000000 0.500000 0.000000
O O16 0.864128 0.750000 0.438614
O O17 0.000000 0.500000 0.500000
O O18 0.475560 0.250000 0.943116
O O19 0.500000 0.500000 0.000000
#
# Coordination Sequence:
#
# PCOD8073377 Si02
#       7
#     4   4   4   4   4   4   4
#     4  10  20  34  52  78 106 136 176 228 275 315
#     4   9  19  35  56  81 106 141 183 220 264 326
#     4   9  18  35  59  81 104 140 186 226 268 324
#     4   9  17  34  58  80 102 139 182 217 262 326
#     4  11  24  39  55  78 108 145 188 234 284 335
#     4   9  18  32  54  80 110 143 177 220 265 317
#     4  11  23  39  58  82 112 149 187 235 287 336
#
# _framework density 18.116530000000001
#
# number of rings (size 3 to 8) (size 9 to 14) (size 15 to 20)
#    0.000    2.286    1.429    2.143    2.000    4.000 
#    0.000    2.143    0.000    0.000    0.000    0.000 
#    0.000    0.000    0.000    0.000    0.000    0.000 
#
# Total GULP energy -346876.813771 kJ/mol
# GULP energy per Si atom -12388.457635 kJ/mol
# Density = 1.807530 g / cm^3
# Si number density = 18.116530 Si / 1000 Ang^3
#
#
#
# Elastic Constant Matrix: (Units=GPa)
#
#
# Indices 1 2 3 4 5 6 
#
# 1 158.0874 41.9207 66.5275 0.0000 5.2173 0.0000
# 2 41.9207 71.1523 40.1700 0.0000 0.1452 0.0000
# 3 66.5275 40.1700 91.0090 0.0000 -11.9806 0.0000
# 4 0.0000 0.0000 0.0000 26.9720 0.0000 -6.2307
# 5 5.2173 0.1452 -11.9806 0.0000 21.9635 0.0000
# 6 0.0000 0.0000 0.0000 -6.2307 0.0000 13.1028
#
#
#
# Elastic Compliance Matrix: (Units=1/GPa)
#
#
# Indices 1 2 3 4 5 6 
#
# 1 0.010165 -0.001727 -0.007525 0.000000 -0.006508 0.000000
# 2 -0.001727 0.019534 -0.007889 0.000000 -0.004022 0.000000
# 3 -0.007525 -0.007889 0.021777 0.000000 0.013718 0.000000
# 4 0.000000 0.000000 0.000000 0.041651 0.000000 0.019806
# 5 -0.006508 -0.004022 0.013718 0.000000 0.054586 0.000000
# 6 0.000000 0.000000 0.000000 0.019806 0.000000 0.085738
#
#
# Mechanical properties :
#
#
# Convention : Reuss Voigt Hill
#
# Bulk Modulus (GPa) = 58.16169 68.60947 63.38558
# Shear Modulus (GPa) = 18.28399 23.84969 21.06684
#
# Velocity S-wave (km/s) = 3.18031 3.63224 3.41376
# Velocity P-wave (km/s) = 6.75720 7.45281 7.11351
#
# Compressibility (1/GPa) = 0.01719345
#
# Stress axis : x y z
#
# Youngs Moduli (GPa) = 98.37488 51.19286 45.92083
#
# Poissons Ratio (x) = 0.08843 0.34556
# Poissons Ratio (y) = 0.16993 0.36226
# Poissons Ratio (z) = 0.74027 0.40385
#
# Static dielectric constant tensor:
#      x y z
#    x 3.878340 0.000000 0.103660 
#    y 0.000000 3.515300 0.000000 
#    z 0.103660 0.000000 3.329980 
# 
# 
# High freq. dielectric constant tensor:
#      x y z
#    x 1.711130 0.000000 -0.008190 
#    y 0.000000 1.698900 0.000000 
#    z -0.008190 0.000000 1.683440 
# 
# From -- ./inp_files/28976.got.cif
#   From: 2010.06.25/outbox.cif.g09.slc.cpg/sg11_15_cif.got.tgz:28976.got - 2010.06.27 23:14:04.
