data_PCOD8073905
_publ_section_title
;
Structure prediction by ZEFSAII (Michael W. Deem and Ramdas Pophale) SiO2 
 PCOD8073905
Probable space group: P 21/M
;
_chemical_formula_sum "Si O2"
_cell_formula_units_Z 24
_cell_length_a 12.188703
_cell_length_b 14.065775
_cell_length_c 16.076975
_cell_angle_alpha 90.000000
_cell_angle_beta 154.377838
_cell_angle_gamma 90.000000
_cell_volume 1191.916626
_symmetry_space_group_name_H-M "P 21/M"
_symmetry_group_IT_number 11
_symmetry_cell_setting 'monoclinic'
loop_
_space_group_symop_operation_xyz
x,y,z
-x,1/2+y,-z
-x,-y,-z
x,1/2-y,z
loop_
_atom_site_type_symbol
_atom_site_label
_atom_site_fract_x
_atom_site_fract_y
_atom_site_fract_z
Si Si1 0.519378 0.860601 0.682736
Si Si2 0.174158 0.355458 0.269377
Si Si3 0.414654 0.445634 0.100542
Si Si4 0.783824 0.144379 0.224313
Si Si5 0.089143 0.000326 0.342102
Si Si6 0.403802 0.850964 0.086687
O O1 0.454526 0.750000 0.641072
O O2 0.716836 0.886079 0.745181
O O3 0.648426 0.892796 0.856838
O O4 0.253611 0.913956 0.488227
O O5 0.276528 0.250000 0.364336
O O6 0.256250 0.433444 0.394066
O O7 0.870839 0.352550 0.057541
O O8 0.613354 0.383098 0.185944
O O9 0.539812 0.550614 0.206139
O O10 0.155147 0.457346 0.871939
O O11 0.898031 0.250000 0.318214
O O12 0.614391 0.146242 0.025528
O O13 0.005855 0.066825 0.362900
O O14 0.539410 0.750000 0.204866
#
# Coordination Sequence:
#
# PCOD8073905 Si02
#       6
#     4   4   4   4   4   4
#     4  11  23  35  51  79 110 137 171 216 261 307
#     4   8  16  34  56  78 106 136 169 214 260 302
#     4  10  20  35  54  77 108 138 168 212 265 310
#     4   9  17  33  56  79 104 136 173 213 259 307
#     4  10  20  36  58  77 100 140 180 212 252 307
#     4   8  15  30  54  78 101 136 178 214 250 301
#
# _framework density 20.135636000000002
#
# number of rings (size 3 to 8) (size 9 to 14) (size 15 to 20)
#    0.000    3.000    0.000    4.500    0.000    4.667 
#    0.000    2.500    0.000    7.000    0.000    0.000 
#    0.000    0.000    0.000    0.000    0.000    0.000 
#
# Total GULP energy -297339.947161 kJ/mol
# GULP energy per Si atom -12389.164465 kJ/mol
# Density = 2.008981 g / cm^3
# Si number density = 20.135636 Si / 1000 Ang^3
#
#
#
# Elastic Constant Matrix: (Units=GPa)
#
#
# Indices 1 2 3 4 5 6 
#
# 1 103.0617 37.5465 18.3001 0.0000 0.3197 0.0000
# 2 37.5465 130.8923 26.9876 0.0000 0.9772 0.0000
# 3 18.3001 26.9876 41.3327 0.0000 -2.1415 0.0000
# 4 0.0000 0.0000 0.0000 22.0630 0.0000 3.2953
# 5 0.3197 0.9772 -2.1415 0.0000 5.3817 0.0000
# 6 0.0000 0.0000 0.0000 3.2953 0.0000 31.9405
#
#
#
# Elastic Compliance Matrix: (Units=1/GPa)
#
#
# Indices 1 2 3 4 5 6 
#
# 1 0.011227 -0.002504 -0.003417 0.000000 -0.001572 0.000000
# 2 -0.002504 0.009471 -0.005265 0.000000 -0.003666 0.000000
# 3 -0.003417 -0.005265 0.029820 0.000000 0.013025 0.000000
# 4 0.000000 0.000000 0.000000 0.046034 0.000000 -0.004749
# 5 -0.001572 -0.003666 0.013025 0.000000 0.191758 0.000000
# 6 0.000000 0.000000 0.000000 -0.004749 0.000000 0.031798
#
#
# Mechanical properties :
#
#
# Convention : Reuss Voigt Hill
#
# Bulk Modulus (GPa) = 35.53093 48.99501 42.26297
# Shear Modulus (GPa) = 14.21009 24.70721 19.45865
#
# Velocity S-wave (km/s) = 2.65942 3.50671 3.11204
# Velocity P-wave (km/s) = 5.20712 6.38603 5.82647
#
# Compressibility (1/GPa) = 0.02814450
#
# Stress axis : x y z
#
# Youngs Moduli (GPa) = 89.07225 105.58374 33.53507
#
# Poissons Ratio (x) = 0.26440 0.11459
# Poissons Ratio (y) = 0.22305 0.17657
# Poissons Ratio (z) = 0.30437 0.55593
#
# Static dielectric constant tensor:
#      x y z
#    x 3.725010 0.000000 -0.063720 
#    y 0.000000 4.281070 0.000000 
#    z -0.063720 0.000000 2.973250 
# 
# 
# High freq. dielectric constant tensor:
#      x y z
#    x 1.795560 0.000000 -0.003290 
#    y 0.000000 1.814460 0.000000 
#    z -0.003290 0.000000 1.719750 
# 
# From -- ./inp_files/17373.got.cif
#   From: 2010.06.25/outbox.cif.g09.slc.cpg/sg11_9_cif.got.tgz:17373.got - 2010.06.27 23:14:04.
