data_PCOD8073041
_publ_section_title
;
Structure prediction by ZEFSAII (Michael W. Deem and Ramdas Pophale) SiO2 
 PCOD8073041
Probable space group: P 21/M
;
_chemical_formula_sum "Si O2"
_cell_formula_units_Z 32
_cell_length_a 29.172449
_cell_length_b 9.120041
_cell_length_c 14.387343
_cell_angle_alpha 90.000000
_cell_angle_beta 152.386163
_cell_angle_gamma 90.000000
_cell_volume 1774.227981
_symmetry_space_group_name_H-M "P 21/M"
_symmetry_group_IT_number 11
_symmetry_cell_setting 'monoclinic'
loop_
_space_group_symop_operation_xyz
x,y,z
-x,1/2+y,-z
-x,-y,-z
x,1/2-y,z
loop_
_atom_site_type_symbol
_atom_site_label
_atom_site_fract_x
_atom_site_fract_y
_atom_site_fract_z
Si Si1 0.531371 0.582370 0.464902
Si Si2 0.128173 0.577158 0.041135
Si Si3 0.716344 0.422280 0.823096
Si Si4 0.273916 0.420222 0.768990
Si Si5 0.396741 0.923799 0.836243
Si Si6 0.319420 0.917261 0.029862
Si Si7 0.789166 0.078514 0.617133
Si Si8 0.911412 0.920232 0.687060
O O1 0.500000 0.500000 0.500000
O O2 0.555904 0.750000 0.532219
O O3 0.630756 0.502621 0.608477
O O4 0.438335 0.570981 0.228019
O O5 0.118117 0.750000 0.024044
O O6 0.180382 0.528571 0.038568
O O7 0.196858 0.527482 0.251280
O O8 0.017540 0.511388 0.848131
O O9 0.696718 0.250000 0.778410
O O10 0.714270 0.469175 0.927530
O O11 0.304464 0.250000 0.819993
O O12 0.354383 0.513655 0.856662
O O13 0.164480 0.446673 0.533154
O O14 0.268582 0.475614 0.865126
O O15 0.411870 0.750000 0.873238
O O16 0.320162 0.964660 0.615795
O O17 0.500000 0.000000 0.000000
O O18 0.284703 0.750000 0.951130
O O19 0.806105 0.250000 0.634779
O O20 0.874908 0.000638 0.713340
O O21 0.920362 0.750000 0.728280
#
# Coordination Sequence:
#
# PCOD8073041 Si02
#       8
#     4   4   4   4   4   4   4   4
#     4   9  17  30  48  70  96 126 160 197 241 290
#     4   9  17  32  53  74  98 128 161 200 247 297
#     4   9  18  32  50  73 101 132 165 202 246 293
#     4  10  20  33  51  73  96 130 172 207 244 290
#     4  10  20  34  51  75 107 135 162 199 242 291
#     4   9  18  32  49  70  97 132 169 203 244 292
#     4   9  18  32  52  76  99 127 162 197 239 294
#     4   9  18  33  52  73  97 126 162 203 246 293
#
# _framework density 18.036013000000001
#
# number of rings (size 3 to 8) (size 9 to 14) (size 15 to 20)
#    0.000    2.750    0.000    2.250    0.000    4.500 
#    0.000    3.125    0.000    0.000    0.000    0.000 
#    0.000    0.000    0.000    0.000    0.000    0.000 
#
# Total GULP energy -396646.120071 kJ/mol
# GULP energy per Si atom -12395.191252 kJ/mol
# Density = 1.799496 g / cm^3
# Si number density = 18.036013 Si / 1000 Ang^3
#
#
#
# Elastic Constant Matrix: (Units=GPa)
#
#
# Indices 1 2 3 4 5 6 
#
# 1 114.9547 38.7353 70.3342 0.0000 8.6494 0.0000
# 2 38.7353 61.1595 38.3821 0.0000 1.3731 0.0000
# 3 70.3342 38.3821 104.3975 0.0000 15.0200 0.0000
# 4 0.0000 0.0000 0.0000 23.8953 0.0000 -0.9572
# 5 8.6494 1.3731 15.0200 0.0000 31.4273 0.0000
# 6 0.0000 0.0000 0.0000 -0.9572 0.0000 26.2386
#
#
#
# Elastic Compliance Matrix: (Units=1/GPa)
#
#
# Indices 1 2 3 4 5 6 
#
# 1 0.015615 -0.004258 -0.008981 0.000000 0.000181 0.000000
# 2 -0.004258 0.022685 -0.005904 0.000000 0.003002 0.000000
# 3 -0.008981 -0.005904 0.018692 0.000000 -0.006204 0.000000
# 4 0.000000 0.000000 0.000000 0.041911 0.000000 0.001529
# 5 0.000181 0.003002 -0.006204 0.000000 0.034604 0.000000
# 6 0.000000 0.000000 0.000000 0.001529 0.000000 0.038168
#
#
# Mechanical properties :
#
#
# Convention : Reuss Voigt Hill
#
# Bulk Modulus (GPa) = 53.45282 63.93500 58.69391
# Shear Modulus (GPa) = 23.12740 25.18290 24.15515
#
# Velocity S-wave (km/s) = 3.58479 3.74071 3.66358
# Velocity P-wave (km/s) = 6.84364 7.36089 7.10697
#
# Compressibility (1/GPa) = 0.01870809
#
# Stress axis : x y z
#
# Youngs Moduli (GPa) = 64.04134 44.08219 53.49815
#
# Poissons Ratio (x) = 0.18769 0.48045
# Poissons Ratio (y) = 0.27267 0.31583
# Poissons Ratio (z) = 0.57513 0.26024
#
# Static dielectric constant tensor:
#      x y z
#    x 3.309060 0.000000 0.089540 
#    y 0.000000 3.370400 0.000000 
#    z 0.089540 0.000000 3.540450 
# 
# 
# High freq. dielectric constant tensor:
#      x y z
#    x 1.686060 0.000000 0.003240 
#    y 0.000000 1.690050 0.000000 
#    z 0.003240 0.000000 1.698100 
# 
# From -- ./inp_files/56196.got.cif
#   From: 2010.06.25/outbox.cif.g09.slc.cpg/sg11_29_cif.got.tgz:56196.got - 2010.06.27 23:14:04.
