data_PCOD8073612
_publ_section_title
;
Structure prediction by ZEFSAII (Michael W. Deem and Ramdas Pophale) SiO2 
 PCOD8073612
Probable space group: P 21/M
;
_chemical_formula_sum "Si O2"
_cell_formula_units_Z 32
_cell_length_a 11.357717
_cell_length_b 8.625286
_cell_length_c 19.623147
_cell_angle_alpha 90.000000
_cell_angle_beta 123.922942
_cell_angle_gamma 90.000000
_cell_volume 1595.147401
_symmetry_space_group_name_H-M "P 21/M"
_symmetry_group_IT_number 11
_symmetry_cell_setting 'monoclinic'
loop_
_space_group_symop_operation_xyz
x,y,z
-x,1/2+y,-z
-x,-y,-z
x,1/2-y,z
loop_
_atom_site_type_symbol
_atom_site_label
_atom_site_fract_x
_atom_site_fract_y
_atom_site_fract_z
Si Si1 0.208872 0.565910 0.257047
Si Si2 0.514630 0.564336 0.581214
Si Si3 0.032761 0.923178 0.601240
Si Si4 0.388507 0.929042 0.063010
Si Si5 0.220951 0.568792 0.542217
Si Si6 0.855529 0.434379 0.919795
Si Si7 0.327929 0.071198 0.902234
Si Si8 0.941467 0.423830 0.235752
O O1 0.204066 0.750000 0.262715
O O2 0.358755 0.504919 0.332622
O O3 0.170219 0.515074 0.166952
O O4 0.096690 0.485704 0.270285
O O5 0.500000 0.500000 0.500000
O O6 0.528219 0.750000 0.582359
O O7 0.375854 0.501457 0.576381
O O8 0.996377 0.750000 0.563435
O O9 0.156105 0.995098 0.592622
O O10 0.090252 0.919645 0.695129
O O11 0.889055 0.023029 0.552762
O O12 0.377379 0.750000 0.075582
O O13 0.280853 0.006045 0.082971
O O14 0.555682 0.980197 0.118271
O O15 0.339253 0.962537 0.970990
O O16 0.239765 0.750000 0.550200
O O17 0.865660 0.250000 0.928785
O O18 0.000000 0.500000 0.000000
O O19 0.353303 0.250000 0.930766
O O20 0.168929 0.048766 0.826937
O O21 0.921161 0.250000 0.198954
#
# Coordination Sequence:
#
# PCOD8073612 Si02
#       8
#     4   4   4   4   4   4   4   4
#     4  11  24  40  58  84 116 149 192 239 281 336
#     4  11  23  39  60  85 116 154 192 233 283 336
#     4   9  19  35  55  79 106 138 178 223 270 325
#     4   9  19  37  57  78 108 144 183 225 275 333
#     4   9  19  36  56  79 107 139 178 223 272 325
#     4  10  22  39  59  83 113 151 191 234 283 334
#     4  10  20  34  55  82 109 139 178 226 277 330
#     4  11  22  36  55  79 109 143 180 224 276 331
#
# _framework density 20.060842000000001
#
# number of rings (size 3 to 8) (size 9 to 14) (size 15 to 20)
#    0.000    2.000    0.000    3.000    0.000    9.000 
#    0.000    0.000    0.000    0.000    0.000    0.000 
#    0.000    0.000    0.000    0.000    0.000    0.000 
#
# Total GULP energy -396522.315827 kJ/mol
# GULP energy per Si atom -12391.322370 kJ/mol
# Density = 2.001518 g / cm^3
# Si number density = 20.060842 Si / 1000 Ang^3
#
#
#
# Elastic Constant Matrix: (Units=GPa)
#
#
# Indices 1 2 3 4 5 6 
#
# 1 140.6144 29.9108 49.9044 0.0000 15.9946 0.0000
# 2 29.9108 39.1258 23.1315 0.0000 0.1598 0.0000
# 3 49.9044 23.1315 101.6860 0.0000 11.7142 0.0000
# 4 0.0000 0.0000 0.0000 32.5603 0.0000 4.2036
# 5 15.9946 0.1598 11.7142 0.0000 33.8332 0.0000
# 6 0.0000 0.0000 0.0000 4.2036 0.0000 26.5437
#
#
#
# Elastic Compliance Matrix: (Units=1/GPa)
#
#
# Indices 1 2 3 4 5 6 
#
# 1 0.009826 -0.005646 -0.003131 0.000000 -0.003535 0.000000
# 2 -0.005646 0.032944 -0.005221 0.000000 0.004321 0.000000
# 3 -0.003131 -0.005221 0.012899 0.000000 -0.002962 0.000000
# 4 0.000000 0.000000 0.000000 0.031353 0.000000 -0.004965
# 5 -0.003535 0.004321 -0.002962 0.000000 0.032233 0.000000
# 6 0.000000 0.000000 0.000000 -0.004965 0.000000 0.038460
#
#
# Mechanical properties :
#
#
# Convention : Reuss Voigt Hill
#
# Bulk Modulus (GPa) = 36.13547 54.14663 45.14105
# Shear Modulus (GPa) = 25.64952 30.48607 28.06779
#
# Velocity S-wave (km/s) = 3.57961 3.90254 3.74456
# Velocity P-wave (km/s) = 5.92764 6.88158 6.42235
#
# Compressibility (1/GPa) = 0.02767364
#
# Stress axis : x y z
#
# Youngs Moduli (GPa) = 101.77266 30.35452 77.52289
#
# Poissons Ratio (x) = 0.17139 0.24269
# Poissons Ratio (y) = 0.57464 0.40474
# Poissons Ratio (z) = 0.31861 0.15848
#
# Static dielectric constant tensor:
#      x y z
#    x 4.198150 0.000000 0.043570 
#    y 0.000000 3.630740 0.000000 
#    z 0.043570 0.000000 3.511480 
# 
# 
# High freq. dielectric constant tensor:
#      x y z
#    x 1.805380 0.000000 0.005830 
#    y 0.000000 1.776650 0.000000 
#    z 0.005830 0.000000 1.771880 
# 
# From -- ./inp_files/64465.got.cif
#   From: 2010.06.25/outbox.cif.g09.slc.cpg/sg11_33_cif.got.tgz:64465.got - 2010.06.27 23:14:04.
