data_PCOD8073760
_publ_section_title
;
Structure prediction by ZEFSAII (Michael W. Deem and Ramdas Pophale) SiO2 
 PCOD8073760
Probable space group: P 21/M
;
_chemical_formula_sum "Si O2"
_cell_formula_units_Z 32
_cell_length_a 11.853026
_cell_length_b 14.116382
_cell_length_c 15.181002
_cell_angle_alpha 90.000000
_cell_angle_beta 41.224375
_cell_angle_gamma 90.000000
_cell_volume 1673.958740
_symmetry_space_group_name_H-M "P 21/M"
_symmetry_group_IT_number 11
_symmetry_cell_setting 'monoclinic'
loop_
_space_group_symop_operation_xyz
x,y,z
-x,1/2+y,-z
-x,-y,-z
x,1/2-y,z
loop_
_atom_site_type_symbol
_atom_site_label
_atom_site_fract_x
_atom_site_fract_y
_atom_site_fract_z
Si Si1 0.876777 0.862163 0.630606
Si Si2 0.298070 0.007638 0.608052
Si Si3 0.805385 0.513865 0.138890
Si Si4 0.473514 0.138258 0.783088
Si Si5 0.241274 0.353581 0.482934
Si Si6 0.603202 0.144593 0.175640
Si Si7 0.447912 0.019548 0.129641
Si Si8 0.218594 0.858030 0.527781
O O1 0.833036 0.750000 0.671461
O O2 0.891013 0.883092 0.516981
O O3 0.735939 0.928838 0.759769
O O4 0.058875 0.891946 0.563307
O O5 0.209470 0.040632 0.749778
O O6 0.239242 0.078287 0.566345
O O7 0.500000 0.000000 0.500000
O O8 0.224098 0.907223 0.619791
O O9 0.710829 0.595688 0.137494
O O10 0.724532 0.410840 0.171208
O O11 0.000000 0.500000 0.000000
O O12 0.456091 0.250000 0.815638
O O13 0.605231 0.119701 0.626324
O O14 0.549057 0.082057 0.822455
O O15 0.196899 0.250000 0.546432
O O16 0.420749 0.352882 0.328144
O O17 0.675697 0.250000 0.116412
O O18 0.588540 0.089058 0.091590
O O19 0.500000 0.000000 0.000000
O O20 0.198446 0.750000 0.563129
#
# Coordination Sequence:
#
# PCOD8073760 Si02
#       8
#     4   4   4   4   4   4   4   4
#     4   9  19  37  60  88 120 153 196 249 297 345
#     4  12  21  36  59  87 113 151 198 244 294 341
#     4  11  24  40  56  81 117 154 198 241 292 356
#     4  10  22  40  58  81 117 157 192 240 306 356
#     4   9  18  34  60  87 111 146 194 245 294 344
#     4   9  18  36  58  79 108 149 195 240 291 347
#     4  10  20  34  57  86 117 155 194 234 288 356
#     4  10  21  37  61  91 118 150 197 250 300 351
#
# _framework density 19.116361000000001
#
# number of rings (size 3 to 8) (size 9 to 14) (size 15 to 20)
#    0.000    2.000    2.500    2.625    0.000    7.000 
#    0.000    1.250    0.000    1.500    0.000    0.000 
#    0.000    0.000    0.000    0.000    0.000    0.000 
#
# Total GULP energy -396683.034690 kJ/mol
# GULP energy per Si atom -12396.344834 kJ/mol
# Density = 1.907285 g / cm^3
# Si number density = 19.116361 Si / 1000 Ang^3
#
#
#
# Elastic Constant Matrix: (Units=GPa)
#
#
# Indices 1 2 3 4 5 6 
#
# 1 118.0140 50.0127 41.0955 0.0000 -1.2330 0.0000
# 2 50.0127 122.8974 29.5613 0.0000 6.3928 0.0000
# 3 41.0955 29.5613 73.5512 0.0000 7.0717 0.0000
# 4 0.0000 0.0000 0.0000 10.3651 0.0000 -4.5348
# 5 -1.2330 6.3928 7.0717 0.0000 37.2094 0.0000
# 6 0.0000 0.0000 0.0000 -4.5348 0.0000 27.7080
#
#
#
# Elastic Compliance Matrix: (Units=1/GPa)
#
#
# Indices 1 2 3 4 5 6 
#
# 1 0.011923 -0.003663 -0.005387 0.000000 0.002048 0.000000
# 2 -0.003663 0.010161 -0.001892 0.000000 -0.001507 0.000000
# 3 -0.005387 -0.001892 0.017675 0.000000 -0.003213 0.000000
# 4 0.000000 0.000000 0.000000 0.103918 0.000000 0.017008
# 5 0.002048 -0.001507 -0.003213 0.000000 0.027812 0.000000
# 6 0.000000 0.000000 0.000000 0.017008 0.000000 0.038874
#
#
# Mechanical properties :
#
#
# Convention : Reuss Voigt Hill
#
# Bulk Modulus (GPa) = 55.94236 61.75571 58.84904
# Shear Modulus (GPa) = 20.99023 27.97604 24.48314
#
# Velocity S-wave (km/s) = 3.31724 3.82967 3.58263
# Velocity P-wave (km/s) = 6.63323 7.20628 6.92568
#
# Compressibility (1/GPa) = 0.01787554
#
# Stress axis : x y z
#
# Youngs Moduli (GPa) = 83.87166 98.41485 56.57700
#
# Poissons Ratio (x) = 0.36048 0.30475
# Poissons Ratio (y) = 0.30721 0.10706
# Poissons Ratio (z) = 0.45178 0.18624
#
# Static dielectric constant tensor:
#      x y z
#    x 3.432140 0.000000 0.014820 
#    y 0.000000 3.731380 0.000000 
#    z 0.014820 0.000000 3.236230 
# 
# 
# High freq. dielectric constant tensor:
#      x y z
#    x 1.755610 0.000000 0.001170 
#    y 0.000000 1.757300 0.000000 
#    z 0.001170 0.000000 1.707220 
# 
# From -- ./inp_files/50357.got.cif
#   From: 2010.06.25/outbox.cif.g09.slc.cpg/sg11_26_cif.got.tgz:50357.got - 2010.06.27 23:14:04.
