data_PCOD8073725
_publ_section_title
;
Structure prediction by ZEFSAII (Michael W. Deem and Ramdas Pophale) SiO2 
 PCOD8073725
Probable space group: P 21/M
;
_chemical_formula_sum "Si O2"
_cell_formula_units_Z 28
_cell_length_a 29.987265
_cell_length_b 9.010621
_cell_length_c 10.168723
_cell_angle_alpha 90.000000
_cell_angle_beta 33.287932
_cell_angle_gamma 90.000000
_cell_volume 1508.026956
_symmetry_space_group_name_H-M "P 21/M"
_symmetry_group_IT_number 11
_symmetry_cell_setting 'monoclinic'
loop_
_space_group_symop_operation_xyz
x,y,z
-x,1/2+y,-z
-x,-y,-z
x,1/2-y,z
loop_
_atom_site_type_symbol
_atom_site_label
_atom_site_fract_x
_atom_site_fract_y
_atom_site_fract_z
Si Si1 0.506281 0.578939 0.122577
Si Si2 0.914364 0.423285 0.858737
Si Si3 0.772053 0.577449 0.329555
Si Si4 0.329248 0.920946 0.642969
Si Si5 0.098668 0.076275 0.384324
Si Si6 0.751495 0.424134 0.883834
Si Si7 0.326999 0.077128 0.166175
O O1 0.520502 0.750000 0.054596
O O2 0.425820 0.551093 0.406804
O O3 0.500000 0.500000 0.000000
O O4 0.583462 0.520420 0.014078
O O5 0.896955 0.250000 0.887559
O O6 0.887489 0.497914 0.788982
O O7 0.008156 0.455842 0.661282
O O8 0.858373 0.492253 0.110674
O O9 0.787632 0.750000 0.267705
O O10 0.710670 0.521342 0.369857
O O11 0.735064 0.545361 0.562841
O O12 0.308804 0.750000 0.661183
O O13 0.296140 0.967400 0.866481
O O14 0.114358 0.250000 0.327966
O O15 0.161643 0.007539 0.332867
O O16 0.766878 0.250000 0.833843
O O17 0.698220 0.478797 0.894449
O O18 0.327026 0.250000 0.126840
#
# Coordination Sequence:
#
# PCOD8073725 Si02
#       7
#     4   4   4   4   4   4   4
#     4  10  20  37  59  84 115 149 189 239 288 336
#     4  10  20  34  56  87 117 147 189 236 283 336
#     4  11  21  35  58  87 114 149 195 236 283 340
#     4  10  21  36  58  85 115 148 189 240 286 337
#     4  10  20  35  57  84 116 152 188 233 285 336
#     4  11  23  38  57  85 117 153 194 235 288 344
#     4  10  23  40  57  82 117 154 193 236 287 345
#
# _framework density 18.567305999999999
#
# number of rings (size 3 to 8) (size 9 to 14) (size 15 to 20)
#    0.000    1.714    2.857    1.714    0.000    4.571 
#    0.000    0.714    0.000    0.000    0.000    0.000 
#    0.000    0.000    0.000    0.000    0.000    0.000 
#
# Total GULP energy -347311.918226 kJ/mol
# GULP energy per Si atom -12403.997079 kJ/mol
# Density = 1.852505 g / cm^3
# Si number density = 18.567306 Si / 1000 Ang^3
#
#
#
# Elastic Constant Matrix: (Units=GPa)
#
#
# Indices 1 2 3 4 5 6 
#
# 1 115.7430 47.9298 41.7571 0.0000 -10.7378 0.0000
# 2 47.9298 84.5711 39.0441 0.0000 -3.4396 0.0000
# 3 41.7571 39.0441 89.8099 0.0000 -16.2480 0.0000
# 4 0.0000 0.0000 0.0000 28.6193 0.0000 -0.8195
# 5 -10.7378 -3.4396 -16.2480 0.0000 30.2985 0.0000
# 6 0.0000 0.0000 0.0000 -0.8195 0.0000 34.6239
#
#
#
# Elastic Compliance Matrix: (Units=1/GPa)
#
#
# Indices 1 2 3 4 5 6 
#
# 1 0.012140 -0.005462 -0.002883 0.000000 0.002136 0.000000
# 2 -0.005462 0.017357 -0.005537 0.000000 -0.002935 0.000000
# 3 -0.002883 -0.005537 0.016151 0.000000 0.007011 0.000000
# 4 0.000000 0.000000 0.000000 0.034965 0.000000 0.000828
# 5 0.002136 -0.002935 0.007011 0.000000 0.037188 0.000000
# 6 0.000000 0.000000 0.000000 0.000828 0.000000 0.028901
#
#
# Mechanical properties :
#
#
# Convention : Reuss Voigt Hill
#
# Bulk Modulus (GPa) = 55.92074 60.84290 58.38182
# Shear Modulus (GPa) = 27.71164 29.46785 28.58974
#
# Velocity S-wave (km/s) = 3.86748 3.98814 3.92827
# Velocity P-wave (km/s) = 7.08000 7.35167 7.21711
#
# Compressibility (1/GPa) = 0.01788245
#
# Stress axis : x y z
#
# Youngs Moduli (GPa) = 82.37067 57.61355 61.91633
#
# Poissons Ratio (x) = 0.31470 0.17853
# Poissons Ratio (y) = 0.44993 0.34284
# Poissons Ratio (z) = 0.23751 0.31901
#
# Static dielectric constant tensor:
#      x y z
#    x 3.294620 0.000000 -0.237760 
#    y 0.000000 3.463720 0.000000 
#    z -0.237760 0.000000 3.690260 
# 
# 
# High freq. dielectric constant tensor:
#      x y z
#    x 1.707250 0.000000 -0.018320 
#    y 0.000000 1.728240 0.000000 
#    z -0.018320 0.000000 1.730590 
# 
# From -- ./inp_files/28305.got.cif
#   From: 2010.06.25/outbox.cif.g09.slc.cpg/sg11_15_cif.got.tgz:28305.got - 2010.06.27 23:14:04.
