data_PCOD8073128
_publ_section_title
;
Structure prediction by ZEFSAII (Michael W. Deem and Ramdas Pophale) SiO2 
 PCOD8073128
Probable space group: P 21/M
;
_chemical_formula_sum "Si O2"
_cell_formula_units_Z 32
_cell_length_a 14.224122
_cell_length_b 8.685714
_cell_length_c 25.943377
_cell_angle_alpha 90.000000
_cell_angle_beta 35.380819
_cell_angle_gamma 90.000000
_cell_volume 1855.847381
_symmetry_space_group_name_H-M "P 21/M"
_symmetry_group_IT_number 11
_symmetry_cell_setting 'monoclinic'
loop_
_space_group_symop_operation_xyz
x,y,z
-x,1/2+y,-z
-x,-y,-z
x,1/2-y,z
loop_
_atom_site_type_symbol
_atom_site_label
_atom_site_fract_x
_atom_site_fract_y
_atom_site_fract_z
Si Si1 0.415829 0.431360 0.588340
Si Si2 0.438664 0.070854 0.103757
Si Si3 0.726812 0.069813 0.728590
Si Si4 0.246557 0.928026 0.096763
Si Si5 0.969605 0.423196 0.358476
Si Si6 0.070889 0.577100 0.741197
Si Si7 0.328993 0.069409 0.459116
Si Si8 0.179848 0.430936 0.416653
O O1 0.500000 0.500000 0.500000
O O2 0.442353 0.250000 0.575794
O O3 0.225712 0.467934 0.676531
O O4 0.494047 0.504732 0.605119
O O5 0.394105 0.250000 0.119606
O O6 0.407382 0.011955 0.175612
O O7 0.323408 0.980669 0.116276
O O8 0.626947 0.040261 0.006071
O O9 0.693091 0.250000 0.742747
O O10 0.714797 0.003256 0.676446
O O11 0.907294 0.037484 0.668472
O O12 0.204776 0.750000 0.121218
O O13 0.079256 0.015354 0.157326
O O14 0.992130 0.250000 0.370341
O O15 0.000788 0.425111 0.284118
O O16 0.789728 0.483167 0.448536
O O17 0.118227 0.750000 0.737030
O O18 0.320405 0.250000 0.473359
O O19 0.281752 0.027773 0.422000
O O20 0.161971 0.250000 0.416787
O O21 0.000000 0.500000 0.500000
#
# Coordination Sequence:
#
# PCOD8073128 Si02
#       8
#     4   4   4   4   4   4   4   4
#     4  12  24  37  55  77 105 140 179 221 263 311
#     4  10  20  34  51  75 107 141 176 217 265 317
#     4  12  23  34  52  77 106 143 183 221 263 313
#     4  10  20  33  52  77 106 139 176 218 265 317
#     4  11  21  32  51  75 105 143 180 219 262 308
#     4  11  22  35  53  77 106 143 181 217 261 314
#     4  11  23  38  55  76 104 139 179 222 266 311
#     4  11  23  37  55  77 106 141 179 221 264 315
#
# _framework density 17.242796999999999
#
# number of rings (size 3 to 8) (size 9 to 14) (size 15 to 20)
#    0.000    1.000    3.750    4.500    0.000    4.000 
#    0.000    0.000    0.000    0.000    0.000    0.875 
#    0.000    0.000    0.000    0.000    0.000    0.000 
#
# Total GULP energy -396897.236551 kJ/mol
# GULP energy per Si atom -12403.038642 kJ/mol
# Density = 1.720355 g / cm^3
# Si number density = 17.242797 Si / 1000 Ang^3
#
#
#
# Elastic Constant Matrix: (Units=GPa)
#
#
# Indices 1 2 3 4 5 6 
#
# 1 75.9704 29.9952 33.3529 0.0000 -0.9577 0.0000
# 2 29.9952 83.3917 33.7591 0.0000 5.5733 0.0000
# 3 33.3529 33.7591 107.9526 0.0000 1.9002 0.0000
# 4 0.0000 0.0000 0.0000 30.0216 0.0000 -2.6919
# 5 -0.9577 5.5733 1.9002 0.0000 23.9230 0.0000
# 6 0.0000 0.0000 0.0000 -2.6919 0.0000 26.1719
#
#
#
# Elastic Compliance Matrix: (Units=1/GPa)
#
#
# Indices 1 2 3 4 5 6 
#
# 1 0.016651 -0.004612 -0.003738 0.000000 0.002038 0.000000
# 2 -0.004612 0.015206 -0.003269 0.000000 -0.003467 0.000000
# 3 -0.003738 -0.003269 0.011446 0.000000 -0.000297 0.000000
# 4 0.000000 0.000000 0.000000 0.033619 0.000000 0.003458
# 5 0.002038 -0.003467 -0.000297 0.000000 0.042714 0.000000
# 6 0.000000 0.000000 0.000000 0.003458 0.000000 0.038565
#
#
# Mechanical properties :
#
#
# Convention : Reuss Voigt Hill
#
# Bulk Modulus (GPa) = 49.84105 51.28099 50.56102
# Shear Modulus (GPa) = 26.57787 27.37046 26.97417
#
# Velocity S-wave (km/s) = 3.93031 3.98849 3.95951
# Velocity P-wave (km/s) = 7.04022 7.14253 7.09156
#
# Compressibility (1/GPa) = 0.02006378
#
# Stress axis : x y z
#
# Youngs Moduli (GPa) = 60.05736 65.76474 87.36852
#
# Poissons Ratio (x) = 0.30331 0.32658
# Poissons Ratio (y) = 0.27699 0.28562
# Poissons Ratio (z) = 0.22449 0.21500
#
# Static dielectric constant tensor:
#      x y z
#    x 3.133010 0.000000 0.063440 
#    y 0.000000 3.387850 0.000000 
#    z 0.063440 0.000000 3.303760 
# 
# 
# High freq. dielectric constant tensor:
#      x y z
#    x 1.634890 0.000000 -0.002440 
#    y 0.000000 1.687890 0.000000 
#    z -0.002440 0.000000 1.660910 
# 
# From -- ./inp_files/71617.got.cif
#   From: 2010.06.25/outbox.cif.g09.slc.cpg/sg11_36_cif.got.tgz:71617.got - 2010.06.27 23:14:04.
