data_PCOD8073570
_publ_section_title
;
Structure prediction by ZEFSAII (Michael W. Deem and Ramdas Pophale) SiO2 
 PCOD8073570
Probable space group: P 21/M
;
_chemical_formula_sum "Si O2"
_cell_formula_units_Z 28
_cell_length_a 21.191562
_cell_length_b 9.134197
_cell_length_c 14.760765
_cell_angle_alpha 90.000000
_cell_angle_beta 29.022372
_cell_angle_gamma 90.000000
_cell_volume 1386.178703
_symmetry_space_group_name_H-M "P 21/M"
_symmetry_group_IT_number 11
_symmetry_cell_setting 'monoclinic'
loop_
_space_group_symop_operation_xyz
x,y,z
-x,1/2+y,-z
-x,-y,-z
x,1/2-y,z
loop_
_atom_site_type_symbol
_atom_site_label
_atom_site_fract_x
_atom_site_fract_y
_atom_site_fract_z
Si Si1 0.537166 0.911670 0.365478
Si Si2 0.186983 0.420697 0.701000
Si Si3 0.422446 0.573983 0.013588
Si Si4 0.594477 0.083658 0.652840
Si Si5 0.135677 0.580725 0.311791
Si Si6 0.107666 0.585217 0.962182
Si Si7 0.229943 0.586086 0.996484
O O1 0.566611 0.750000 0.363712
O O2 0.426428 0.913328 0.428873
O O3 0.500000 0.000000 0.500000
O O4 0.658958 0.970924 0.158791
O O5 0.221300 0.250000 0.657107
O O6 0.267984 0.499328 0.518529
O O7 0.205122 0.482677 0.781162
O O8 0.040411 0.461221 0.861847
O O9 0.439786 0.750000 0.994798
O O10 0.486494 0.509261 0.842071
O O11 0.500000 0.500000 0.000000
O O12 0.266584 0.533868 0.205455
O O13 0.602315 0.250000 0.682244
O O14 0.110086 0.750000 0.363037
O O15 0.000000 0.500000 0.500000
O O16 0.159173 0.546251 0.177640
O O17 0.132487 0.750000 0.896552
O O18 0.129416 0.571067 0.041328
O O19 0.289405 0.750000 0.926898
#
# Coordination Sequence:
#
# PCOD8073570 Si02
#       7
#     4   4   4   4   4   4   4
#     4  11  23  36  56  87 122 159 199 244 299 361
#     4  10  20  34  54  83 120 161 203 246 300 366
#     4  11  24  44  68  95 126 164 211 266 327 389
#     4  11  23  39  59  86 120 158 202 253 308 368
#     4  10  23  42  66  94 125 162 208 266 328 388
#     4   9  19  35  55  81 116 158 202 248 303 365
#     4  10  20  38  60  83 115 152 196 249 303 363
#
# _framework density 20.199417
#
# number of rings (size 3 to 8) (size 9 to 14) (size 15 to 20)
#    0.000    1.714    1.429    2.571    0.000    9.143 
#    0.000    1.429    0.000    0.000    0.000    0.000 
#    0.000    0.000    0.000    0.000    0.000    0.000 
#
# Total GULP energy -346958.852352 kJ/mol
# GULP energy per Si atom -12391.387584 kJ/mol
# Density = 2.015344 g / cm^3
# Si number density = 20.199417 Si / 1000 Ang^3
#
#
#
# Elastic Constant Matrix: (Units=GPa)
#
#
# Indices 1 2 3 4 5 6 
#
# 1 86.1358 40.6952 45.6684 0.0000 -0.5043 0.0000
# 2 40.6952 129.8955 75.7249 0.0000 -0.9993 0.0000
# 3 45.6684 75.7249 135.3356 0.0000 -9.3083 0.0000
# 4 0.0000 0.0000 0.0000 42.1279 0.0000 4.2102
# 5 -0.5043 -0.9993 -9.3083 0.0000 24.4307 0.0000
# 6 0.0000 0.0000 0.0000 4.2102 0.0000 29.1838
#
#
#
# Elastic Compliance Matrix: (Units=1/GPa)
#
#
# Indices 1 2 3 4 5 6 
#
# 1 0.014716 -0.002489 -0.003655 0.000000 -0.001191 0.000000
# 2 -0.002489 0.011944 -0.005970 0.000000 -0.001837 0.000000
# 3 -0.003655 -0.005970 0.012262 0.000000 0.004352 0.000000
# 4 0.000000 0.000000 0.000000 0.024084 0.000000 -0.003475
# 5 -0.001191 -0.001837 0.004352 0.000000 0.042491 0.000000
# 6 0.000000 0.000000 0.000000 -0.003475 0.000000 0.034767
#
#
# Mechanical properties :
#
#
# Convention : Reuss Voigt Hill
#
# Bulk Modulus (GPa) = 68.04983 75.06042 71.55512
# Shear Modulus (GPa) = 29.51750 31.76705 30.64228
#
# Velocity S-wave (km/s) = 3.82685 3.96999 3.89908
# Velocity P-wave (km/s) = 7.29990 7.63249 7.46804
#
# Compressibility (1/GPa) = 0.01469511
#
# Stress axis : x y z
#
# Youngs Moduli (GPa) = 67.95114 83.72238 81.55164
#
# Poissons Ratio (x) = 0.20836 0.29810
# Poissons Ratio (y) = 0.16911 0.48684
# Poissons Ratio (z) = 0.24839 0.49980
#
# Static dielectric constant tensor:
#      x y z
#    x 4.434380 0.000000 -0.394430 
#    y 0.000000 3.845840 0.000000 
#    z -0.394430 0.000000 3.888120 
# 
# 
# High freq. dielectric constant tensor:
#      x y z
#    x 1.787630 0.000000 -0.002560 
#    y 0.000000 1.794670 0.000000 
#    z -0.002560 0.000000 1.792840 
# 
# From -- ./inp_files/54474.got.cif
#   From: 2010.06.25/outbox.cif.g09.slc.cpg/sg11_28_cif.got.tgz:54474.got - 2010.06.27 23:14:04.
