data_PCOD8073735
_publ_section_title
;
Structure prediction by ZEFSAII (Michael W. Deem and Ramdas Pophale) SiO2 
 PCOD8073735
Probable space group: P 21/M
;
_chemical_formula_sum "Si O2"
_cell_formula_units_Z 32
_cell_length_a 31.293727
_cell_length_b 8.957718
_cell_length_c 12.188974
_cell_angle_alpha 90.000000
_cell_angle_beta 151.745864
_cell_angle_gamma 90.000000
_cell_volume 1617.464351
_symmetry_space_group_name_H-M "P 21/M"
_symmetry_group_IT_number 11
_symmetry_cell_setting 'monoclinic'
loop_
_space_group_symop_operation_xyz
x,y,z
-x,1/2+y,-z
-x,-y,-z
x,1/2-y,z
loop_
_atom_site_type_symbol
_atom_site_label
_atom_site_fract_x
_atom_site_fract_y
_atom_site_fract_z
Si Si1 0.511236 0.581703 0.189940
Si Si2 0.768566 0.572422 0.009508
Si Si3 0.904159 0.425805 0.474069
Si Si4 0.188636 0.423328 0.310221
Si Si5 0.916261 0.425035 0.752382
Si Si6 0.103724 0.426384 0.894371
Si Si7 0.364906 0.917102 0.690388
Si Si8 0.439180 0.424049 0.454611
O O1 0.551341 0.750000 0.264000
O O2 0.565104 0.455048 0.247139
O O3 0.512095 0.540993 0.320032
O O4 0.409818 0.576480 0.912826
O O5 0.770650 0.750000 0.013536
O O6 0.820299 0.512954 0.232971
O O7 0.824421 0.507285 0.030687
O O8 0.664686 0.515125 0.775778
O O9 0.887459 0.250000 0.423816
O O10 0.907279 0.476071 0.607148
O O11 0.999912 0.472991 0.634116
O O12 0.172057 0.250000 0.297350
O O13 0.171168 0.520895 0.379154
O O14 0.291275 0.454411 0.511864
O O15 0.127049 0.480442 0.069981
O O16 0.928994 0.250000 0.788368
O O17 0.000000 0.500000 0.000000
O O18 0.113178 0.250000 0.913605
O O19 0.326867 0.750000 0.583525
O O20 0.500000 0.500000 0.500000
O O21 0.437088 0.250000 0.423153
#
# Coordination Sequence:
#
# PCOD8073735 Si02
#       8
#     4   4   4   4   4   4   4   4
#     4   9  19  38  60  80 111 152 188 231 294 350
#     4  10  21  37  59  86 112 143 192 241 281 337
#     4  10  21  38  58  82 116 153 189 230 284 339
#     4  11  21  36  58  83 116 157 193 228 282 339
#     4  11  22  38  57  80 112 149 190 232 276 332
#     4   9  18  36  59  82 113 152 190 230 280 339
#     4  10  20  34  56  89 118 143 187 239 285 340
#     4  10  22  40  60  82 111 151 195 238 289 346
#
# _framework density 19.784054000000001
#
# number of rings (size 3 to 8) (size 9 to 14) (size 15 to 20)
#    0.000    2.000    1.250    2.250    0.000    5.500 
#    0.000    6.250    0.000    0.000    0.000    0.000 
#    0.000    0.000    0.000    0.000    0.000    0.000 
#
# Total GULP energy -396705.661457 kJ/mol
# GULP energy per Si atom -12397.051921 kJ/mol
# Density = 1.973902 g / cm^3
# Si number density = 19.784054 Si / 1000 Ang^3
#
#
#
# Elastic Constant Matrix: (Units=GPa)
#
#
# Indices 1 2 3 4 5 6 
#
# 1 103.3596 28.9099 36.6978 0.0000 -13.1102 0.0000
# 2 28.9099 38.8276 27.7578 0.0000 -9.4144 0.0000
# 3 36.6978 27.7578 91.9391 0.0000 -8.9825 0.0000
# 4 0.0000 0.0000 0.0000 30.9750 0.0000 2.3074
# 5 -13.1102 -9.4144 -8.9825 0.0000 31.2361 0.0000
# 6 0.0000 0.0000 0.0000 2.3074 0.0000 32.4210
#
#
#
# Elastic Compliance Matrix: (Units=1/GPa)
#
#
# Indices 1 2 3 4 5 6 
#
# 1 0.012956 -0.007034 -0.002802 0.000000 0.002512 0.000000
# 2 -0.007034 0.038341 -0.008157 0.000000 0.006258 0.000000
# 3 -0.002802 -0.008157 0.014510 0.000000 0.000538 0.000000
# 4 0.000000 0.000000 0.000000 0.032456 0.000000 -0.002310
# 5 0.002512 0.006258 0.000538 0.000000 0.035109 0.000000
# 6 0.000000 0.000000 0.000000 -0.002310 0.000000 0.031009
#
#
# Mechanical properties :
#
#
# Convention : Reuss Voigt Hill
#
# Bulk Modulus (GPa) = 33.53328 46.76191 40.14759
# Shear Modulus (GPa) = 23.77465 28.31046 26.04256
#
# Velocity S-wave (km/s) = 3.47033 3.78693 3.63208
# Velocity P-wave (km/s) = 5.74839 6.54282 6.15843
#
# Compressibility (1/GPa) = 0.02982113
#
# Stress axis : x y z
#
# Youngs Moduli (GPa) = 77.18416 26.08187 68.91582
#
# Poissons Ratio (x) = 0.18347 0.19312
# Poissons Ratio (y) = 0.54294 0.56211
# Poissons Ratio (z) = 0.21629 0.21274
#
# Static dielectric constant tensor:
#      x y z
#    x 4.154840 0.000000 0.159840 
#    y 0.000000 3.476340 0.000000 
#    z 0.159840 0.000000 3.799700 
# 
# 
# High freq. dielectric constant tensor:
#      x y z
#    x 1.773290 0.000000 -0.002370 
#    y 0.000000 1.754180 0.000000 
#    z -0.002370 0.000000 1.776480 
# 
# From -- ./inp_files/45361.got.cif
#   From: 2010.06.25/outbox.cif.g09.slc.cpg/sg11_23_cif.got.tgz:45361.got - 2010.06.27 23:14:04.
