data_PCOD8073215
_publ_section_title
;
Structure prediction by ZEFSAII (Michael W. Deem and Ramdas Pophale) SiO2 
 PCOD8073215
Probable space group: P 21/M
;
_chemical_formula_sum "Si O2"
_cell_formula_units_Z 32
_cell_length_a 15.320824
_cell_length_b 9.021619
_cell_length_c 22.829358
_cell_angle_alpha 90.000000
_cell_angle_beta 31.128851
_cell_angle_gamma 90.000000
_cell_volume 1631.251667
_symmetry_space_group_name_H-M "P 21/M"
_symmetry_group_IT_number 11
_symmetry_cell_setting 'monoclinic'
loop_
_space_group_symop_operation_xyz
x,y,z
-x,1/2+y,-z
-x,-y,-z
x,1/2-y,z
loop_
_atom_site_type_symbol
_atom_site_label
_atom_site_fract_x
_atom_site_fract_y
_atom_site_fract_z
Si Si1 0.689478 0.923908 0.563228
Si Si2 0.010040 0.426960 0.430358
Si Si3 0.404734 0.083747 0.788996
Si Si4 0.469859 0.576601 0.578344
Si Si5 0.145112 0.081537 0.032250
Si Si6 0.335528 0.420810 0.034130
Si Si7 0.675664 0.575487 0.828019
Si Si8 0.182589 0.418346 0.806640
O O1 0.727247 0.750000 0.546962
O O2 0.613822 0.967226 0.543043
O O3 0.553293 0.967332 0.691203
O O4 0.858674 0.016372 0.476201
O O5 0.000451 0.250000 0.442076
O O6 0.181602 0.479797 0.299459
O O7 0.000000 0.500000 0.500000
O O8 0.480690 0.250000 0.740484
O O9 0.326430 0.053106 0.897508
O O10 0.248297 0.064577 0.834640
O O11 0.500000 0.500000 0.500000
O O12 0.465883 0.750000 0.570780
O O13 0.287205 0.524818 0.704263
O O14 0.084556 0.250000 0.054851
O O15 0.175006 0.053588 0.084116
O O16 0.011002 0.966947 0.084117
O O17 0.389920 0.250000 0.004321
O O18 0.280010 0.474994 0.130740
O O19 0.494714 0.508225 0.916114
O O20 0.662033 0.750000 0.831413
O O21 0.199053 0.250000 0.774833
#
# Coordination Sequence:
#
# PCOD8073215 Si02
#       8
#     4   4   4   4   4   4   4   4
#     4  10  22  39  58  85 116 150 192 237 291 350
#     4  11  24  40  60  86 117 154 198 246 297 351
#     4   9  19  35  54  78 113 152 187 226 277 337
#     4  10  21  38  60  84 114 151 192 237 286 344
#     4  10  20  33  53  82 111 143 186 230 279 337
#     4   9  19  36  58  83 110 144 183 228 285 343
#     4   9  20  39  58  79 110 144 182 230 285 343
#     4  10  20  34  52  78 112 149 188 228 276 331
#
# _framework density 19.616838999999999
#
# number of rings (size 3 to 8) (size 9 to 14) (size 15 to 20)
#    0.000    2.250    0.000    1.875    1.750    5.000 
#    0.000    1.250    0.000    0.000    0.000    0.000 
#    0.000    0.000    0.000    0.000    0.000    0.000 
#
# Total GULP energy -396809.660500 kJ/mol
# GULP energy per Si atom -12400.301891 kJ/mol
# Density = 1.957219 g / cm^3
# Si number density = 19.616839 Si / 1000 Ang^3
#
#
#
# Elastic Constant Matrix: (Units=GPa)
#
#
# Indices 1 2 3 4 5 6 
#
# 1 69.3851 34.1283 39.3223 0.0000 8.0461 0.0000
# 2 34.1283 67.2697 39.1833 0.0000 1.1175 0.0000
# 3 39.3223 39.1833 102.9156 0.0000 6.5146 0.0000
# 4 0.0000 0.0000 0.0000 37.3449 0.0000 -2.9385
# 5 8.0461 1.1175 6.5146 0.0000 29.4406 0.0000
# 6 0.0000 0.0000 0.0000 -2.9385 0.0000 31.7686
#
#
#
# Elastic Compliance Matrix: (Units=1/GPa)
#
#
# Indices 1 2 3 4 5 6 
#
# 1 0.021699 -0.008058 -0.004936 0.000000 -0.004532 0.000000
# 2 -0.008058 0.022118 -0.005505 0.000000 0.002581 0.000000
# 3 -0.004936 -0.005505 0.013793 0.000000 -0.001494 0.000000
# 4 0.000000 0.000000 0.000000 0.026974 0.000000 0.002495
# 5 -0.004532 0.002581 -0.001494 0.000000 0.035438 0.000000
# 6 0.000000 0.000000 0.000000 0.002495 0.000000 0.031708
#
#
# Mechanical properties :
#
#
# Convention : Reuss Voigt Hill
#
# Bulk Modulus (GPa) = 48.51820 51.64870 50.08345
# Shear Modulus (GPa) = 25.56253 28.17325 26.86789
#
# Velocity S-wave (km/s) = 3.61375 3.79380 3.70487
# Velocity P-wave (km/s) = 6.49607 6.75104 6.62478
#
# Compressibility (1/GPa) = 0.02061082
#
# Stress axis : x y z
#
# Youngs Moduli (GPa) = 46.08567 45.21279 72.49920
#
# Poissons Ratio (x) = 0.36433 0.35784
# Poissons Ratio (y) = 0.37137 0.39914
# Poissons Ratio (z) = 0.22747 0.24891
#
# Static dielectric constant tensor:
#      x y z
#    x 3.639870 0.000000 0.168810 
#    y 0.000000 3.392120 0.000000 
#    z 0.168810 0.000000 4.052790 
# 
# 
# High freq. dielectric constant tensor:
#      x y z
#    x 1.768640 0.000000 0.005250 
#    y 0.000000 1.765240 0.000000 
#    z 0.005250 0.000000 1.757350 
# 
# From -- ./inp_files/69006.got.cif
#   From: 2010.06.25/outbox.cif.g09.slc.cpg/sg11_35_cif.got.tgz:69006.got - 2010.06.27 23:14:04.
