data_PCOD8073334
_publ_section_title
;
Structure prediction by ZEFSAII (Michael W. Deem and Ramdas Pophale) SiO2 
 PCOD8073334
Probable space group: P 21/M
;
_chemical_formula_sum "Si O2"
_cell_formula_units_Z 24
_cell_length_a 22.469797
_cell_length_b 9.306937
_cell_length_c 16.344039
_cell_angle_alpha 90.000000
_cell_angle_beta 155.532507
_cell_angle_gamma 90.000000
_cell_volume 1415.634676
_symmetry_space_group_name_H-M "P 21/M"
_symmetry_group_IT_number 11
_symmetry_cell_setting 'monoclinic'
loop_
_space_group_symop_operation_xyz
x,y,z
-x,1/2+y,-z
-x,-y,-z
x,1/2-y,z
loop_
_atom_site_type_symbol
_atom_site_label
_atom_site_fract_x
_atom_site_fract_y
_atom_site_fract_z
Si Si1 0.046976 0.413351 0.951082
Si Si2 0.424165 0.417493 0.977665
Si Si3 0.214741 0.414506 0.308830
Si Si4 0.093011 0.080743 0.549796
Si Si5 0.641613 0.414755 0.383495
Si Si6 0.073358 0.912567 0.363618
O O1 0.990154 0.250000 0.898142
O O2 0.199213 0.435220 0.190041
O O3 0.057941 0.430974 0.866207
O O4 0.935114 0.530738 0.842298
O O5 0.448203 0.250000 0.990546
O O6 0.257859 0.458339 0.774291
O O7 0.500000 0.500000 0.000000
O O8 0.497667 0.462130 0.155621
O O9 0.236525 0.250000 0.360093
O O10 0.346544 0.499456 0.515699
O O11 0.064050 0.250000 0.517903
O O12 0.000000 0.000000 0.500000
O O13 0.048117 0.024393 0.404434
O O14 0.635211 0.250000 0.400606
O O15 0.777077 0.447542 0.494597
O O16 0.075966 0.750000 0.402120
#
# Coordination Sequence:
#
# PCOD8073334 Si02
#       6
#     4   4   4   4   4   4
#     4   8  15  26  39  59  92 128 156 189 239 286
#     4  10  20  34  52  73  97 128 165 202 245 294
#     4   9  15  23  38  63  93 124 158 193 230 282
#     4  11  23  36  51  72  98 129 166 204 244 291
#     4   9  17  29  45  67  97 128 155 193 244 289
#     4   9  16  29  48  67  93 128 160 195 242 287
#
# _framework density 16.953527000000001
#
# number of rings (size 3 to 8) (size 9 to 14) (size 15 to 20)
#    0.000    2.667    1.667    2.000    0.000    4.667 
#    0.000    0.000    0.000    0.000    0.000    1.167 
#    0.000    0.000    0.000    0.000    0.000    0.000 
#
# Total GULP energy -297380.350462 kJ/mol
# GULP energy per Si atom -12390.847936 kJ/mol
# Density = 1.691494 g / cm^3
# Si number density = 16.953527 Si / 1000 Ang^3
#
#
#
# Elastic Constant Matrix: (Units=GPa)
#
#
# Indices 1 2 3 4 5 6 
#
# 1 78.6349 51.4994 69.8864 0.0000 -26.3651 0.0000
# 2 51.4994 83.3930 56.5404 0.0000 -15.9444 0.0000
# 3 69.8864 56.5404 111.8957 0.0000 -35.1470 0.0000
# 4 0.0000 0.0000 0.0000 24.8340 0.0000 -8.9721
# 5 -26.3651 -15.9444 -35.1470 0.0000 33.5922 0.0000
# 6 0.0000 0.0000 0.0000 -8.9721 0.0000 26.2268
#
#
#
# Elastic Compliance Matrix: (Units=1/GPa)
#
#
# Indices 1 2 3 4 5 6 
#
# 1 0.034343 -0.010390 -0.013826 0.000000 0.007557 0.000000
# 2 -0.010390 0.021432 -0.005521 0.000000 -0.003758 0.000000
# 3 -0.013826 -0.005521 0.024026 0.000000 0.011667 0.000000
# 4 0.000000 0.000000 0.000000 0.045946 0.000000 0.015718
# 5 0.007557 -0.003758 0.011667 0.000000 0.046123 0.000000
# 6 0.000000 0.000000 0.000000 0.015718 0.000000 0.043506
#
#
# Mechanical properties :
#
#
# Convention : Reuss Voigt Hill
#
# Bulk Modulus (GPa) = 49.19257 69.97510 59.58383
# Shear Modulus (GPa) = 17.75409 23.33042 20.54225
#
# Velocity S-wave (km/s) = 3.23959 3.71366 3.48470
# Velocity P-wave (km/s) = 6.56296 7.72998 7.17025
#
# Compressibility (1/GPa) = 0.02032827
#
# Stress axis : x y z
#
# Youngs Moduli (GPa) = 29.11837 46.65865 41.62090
#
# Poissons Ratio (x) = 0.48476 0.57544
# Poissons Ratio (y) = 0.30253 0.22980
# Poissons Ratio (z) = 0.40258 0.25761
#
# Static dielectric constant tensor:
#      x y z
#    x 2.986590 0.000000 -0.523750 
#    y 0.000000 3.239710 0.000000 
#    z -0.523750 0.000000 3.342500 
# 
# 
# High freq. dielectric constant tensor:
#      x y z
#    x 1.615170 0.000000 -0.053220 
#    y 0.000000 1.661810 0.000000 
#    z -0.053220 0.000000 1.644610 
# 
# From -- ./inp_files/25761.got.cif
#   From: 2010.06.25/outbox.cif.g09.slc.cpg/sg11_13_cif.got.tgz:25761.got - 2010.06.27 23:14:04.
