data_PCOD8073430
_publ_section_title
;
Structure prediction by ZEFSAII (Michael W. Deem and Ramdas Pophale) SiO2 
 PCOD8073430
Probable space group: P 21/M
;
_chemical_formula_sum "Si O2"
_cell_formula_units_Z 32
_cell_length_a 15.669290
_cell_length_b 9.007279
_cell_length_c 14.055491
_cell_angle_alpha 90.000000
_cell_angle_beta 116.822246
_cell_angle_gamma 90.000000
_cell_volume 1770.327922
_symmetry_space_group_name_H-M "P 21/M"
_symmetry_group_IT_number 11
_symmetry_cell_setting 'monoclinic'
loop_
_space_group_symop_operation_xyz
x,y,z
-x,1/2+y,-z
-x,-y,-z
x,1/2-y,z
loop_
_atom_site_type_symbol
_atom_site_label
_atom_site_fract_x
_atom_site_fract_y
_atom_site_fract_z
Si Si1 0.014981 0.423961 0.608052
Si Si2 0.008677 0.076984 0.105081
Si Si3 0.148959 0.924150 0.819725
Si Si4 0.643771 0.423692 0.577769
Si Si5 0.860649 0.422014 0.686685
Si Si6 0.483933 0.922332 0.850222
Si Si7 0.348171 0.077738 0.920872
Si Si8 0.512166 0.575385 0.650727
O O1 0.033419 0.250000 0.603528
O O2 0.106748 0.494769 0.705750
O O3 0.000000 0.500000 0.500000
O O4 0.920367 0.456564 0.621933
O O5 0.022398 0.250000 0.095270
O O6 0.915059 0.040818 0.120247
O O7 0.101827 0.016137 0.205606
O O8 0.000000 0.000000 0.000000
O O9 0.153623 0.750000 0.800285
O O10 0.253090 0.986458 0.894751
O O11 0.634204 0.250000 0.590089
O O12 0.752280 0.470786 0.611403
O O13 0.607156 0.502467 0.654989
O O14 0.580808 0.474879 0.455901
O O15 0.868681 0.250000 0.718939
O O16 0.453857 0.750000 0.838298
O O17 0.498679 0.981036 0.751050
O O18 0.397935 0.017660 0.850578
O O19 0.582355 0.949690 0.955220
O O20 0.323310 0.250000 0.894728
O O21 0.527221 0.750000 0.655964
#
# Coordination Sequence:
#
# PCOD8073430 Si02
#       8
#     4   4   4   4   4   4   4   4
#     4  10  20  35  55  79 107 138 174 217 263 312
#     4  10  21  36  55  78 104 136 173 215 262 312
#     4  10  21  37  55  76 104 139 176 214 261 314
#     4   9  18  33  52  74 101 133 170 212 256 301
#     4   9  19  35  53  75 105 140 176 215 260 309
#     4   9  19  35  53  74 104 139 172 209 255 309
#     4  10  20  34  53  78 105 134 172 216 260 305
#     4   9  18  33  52  75 103 136 172 209 253 304
#
# _framework density 18.075747
#
# number of rings (size 3 to 8) (size 9 to 14) (size 15 to 20)
#    0.000    2.500    0.000    1.500    0.000    5.500 
#    0.000    5.000    0.000    0.000    0.000    0.000 
#    0.000    0.000    0.000    0.000    0.000    0.000 
#
# Total GULP energy -396911.262982 kJ/mol
# GULP energy per Si atom -12403.476968 kJ/mol
# Density = 1.803461 g / cm^3
# Si number density = 18.075747 Si / 1000 Ang^3
#
#
#
# Elastic Constant Matrix: (Units=GPa)
#
#
# Indices 1 2 3 4 5 6 
#
# 1 106.2809 47.8840 66.0530 0.0000 4.7170 0.0000
# 2 47.8840 78.7781 54.1207 0.0000 -3.8539 0.0000
# 3 66.0530 54.1207 113.7697 0.0000 -18.6549 0.0000
# 4 0.0000 0.0000 0.0000 32.9340 0.0000 -0.7206
# 5 4.7170 -3.8539 -18.6549 0.0000 33.6634 0.0000
# 6 0.0000 0.0000 0.0000 -0.7206 0.0000 34.4382
#
#
#
# Elastic Compliance Matrix: (Units=1/GPa)
#
#
# Indices 1 2 3 4 5 6 
#
# 1 0.017754 -0.004731 -0.009409 0.000000 -0.008243 0.000000
# 2 -0.004731 0.020414 -0.007120 0.000000 -0.000945 0.000000
# 3 -0.009409 -0.007120 0.019493 0.000000 0.011305 0.000000
# 4 0.000000 0.000000 0.000000 0.030378 0.000000 0.000636
# 5 -0.008243 -0.000945 0.011305 0.000000 0.037018 0.000000
# 6 0.000000 0.000000 0.000000 0.000636 0.000000 0.029051
#
#
# Mechanical properties :
#
#
# Convention : Reuss Voigt Hill
#
# Bulk Modulus (GPa) = 66.03842 70.54936 68.29389
# Shear Modulus (GPa) = 24.79260 28.92519 26.85889
#
# Velocity S-wave (km/s) = 3.70752 4.00462 3.85893
# Velocity P-wave (km/s) = 7.41223 7.77799 7.59731
#
# Compressibility (1/GPa) = 0.01514270
#
# Stress axis : x y z
#
# Youngs Moduli (GPa) = 56.32590 48.98522 51.30081
#
# Poissons Ratio (x) = 0.23174 0.48268
# Poissons Ratio (y) = 0.26647 0.36524
# Poissons Ratio (z) = 0.52996 0.34875
#
# Static dielectric constant tensor:
#      x y z
#    x 3.385260 0.000000 0.020690 
#    y 0.000000 3.393470 0.000000 
#    z 0.020690 0.000000 3.404720 
# 
# 
# High freq. dielectric constant tensor:
#      x y z
#    x 1.701400 0.000000 0.000230 
#    y 0.000000 1.705520 0.000000 
#    z 0.000230 0.000000 1.701130 
# 
# From -- ./inp_files/51767.got.cif
#   From: 2010.06.25/outbox.cif.g09.slc.cpg/sg11_26_cif.got.tgz:51767.got - 2010.06.27 23:14:04.
