data_PCOD8073901
_publ_section_title
;
Structure prediction by ZEFSAII (Michael W. Deem and Ramdas Pophale) SiO2 
 PCOD8073901
Probable space group: P 21/M
;
_chemical_formula_sum "Si O2"
_cell_formula_units_Z 32
_cell_length_a 15.938614
_cell_length_b 8.711141
_cell_length_c 25.823199
_cell_angle_alpha 90.000000
_cell_angle_beta 150.927825
_cell_angle_gamma 90.000000
_cell_volume 1742.177324
_symmetry_space_group_name_H-M "P 21/M"
_symmetry_group_IT_number 11
_symmetry_cell_setting 'monoclinic'
loop_
_space_group_symop_operation_xyz
x,y,z
-x,1/2+y,-z
-x,-y,-z
x,1/2-y,z
loop_
_atom_site_type_symbol
_atom_site_label
_atom_site_fract_x
_atom_site_fract_y
_atom_site_fract_z
Si Si1 0.658467 0.430995 0.149659
Si Si2 0.231841 0.427431 0.579574
Si Si3 0.470503 0.069323 0.325159
Si Si4 0.588549 0.430996 0.597635
Si Si5 0.114033 0.567509 0.106747
Si Si6 0.273905 0.068258 0.919490
Si Si7 0.971312 0.069651 0.826572
Si Si8 0.164062 0.928747 0.649538
O O1 0.674423 0.250000 0.152795
O O2 0.759089 0.505370 0.155840
O O3 0.745582 0.488586 0.249472
O O4 0.459151 0.485118 0.041405
O O5 0.283514 0.250000 0.601588
O O6 0.357653 0.531636 0.613731
O O7 0.246244 0.474612 0.647311
O O8 0.039415 0.459394 0.455120
O O9 0.442636 0.250000 0.312829
O O10 0.493348 0.003785 0.395165
O O11 0.308852 0.994094 0.208194
O O12 0.500000 0.500000 0.500000
O O13 0.558771 0.250000 0.584378
O O14 0.790361 0.473626 0.702308
O O15 0.120204 0.750000 0.106705
O O16 0.028348 0.509419 0.114230
O O17 0.000000 0.500000 0.000000
O O18 0.260214 0.250000 0.909903
O O19 0.128023 0.995905 0.878477
O O20 0.997166 0.250000 0.841716
O O21 0.202607 0.750000 0.660161
#
# Coordination Sequence:
#
# PCOD8073901 Si02
#       8
#     4   4   4   4   4   4   4   4
#     4   9  18  32  50  74 103 133 166 206 251 302
#     4  10  20  35  54  77 106 137 173 219 265 310
#     4  11  22  37  56  78 106 142 181 219 266 321
#     4  10  20  36  55  77 106 137 175 222 270 321
#     4  10  20  36  56  80 109 139 176 222 271 321
#     4   9  17  32  52  72  97 131 169 206 249 301
#     4   8  17  33  52  74 102 136 172 213 258 308
#     4   9  19  35  53  75 105 139 173 211 261 319
#
# _framework density 18.367820999999999
#
# number of rings (size 3 to 8) (size 9 to 14) (size 15 to 20)
#    0.000    2.500    0.000    3.000    0.000    3.000 
#    0.000    8.750    0.000    0.000    0.000    0.000 
#    0.000    0.000    0.000    0.000    0.000    0.000 
#
# Total GULP energy -396834.915371 kJ/mol
# GULP energy per Si atom -12401.091105 kJ/mol
# Density = 1.832602 g / cm^3
# Si number density = 18.367821 Si / 1000 Ang^3
#
#
#
# Elastic Constant Matrix: (Units=GPa)
#
#
# Indices 1 2 3 4 5 6 
#
# 1 132.3391 42.7326 78.4177 0.0000 3.2223 0.0000
# 2 42.7326 71.6725 41.8683 0.0000 -5.1016 0.0000
# 3 78.4177 41.8683 124.9946 0.0000 -24.6220 0.0000
# 4 0.0000 0.0000 0.0000 28.3565 0.0000 -3.8608
# 5 3.2223 -5.1016 -24.6220 0.0000 32.8326 0.0000
# 6 0.0000 0.0000 0.0000 -3.8608 0.0000 31.7583
#
#
#
# Elastic Compliance Matrix: (Units=1/GPa)
#
#
# Indices 1 2 3 4 5 6 
#
# 1 0.014907 -0.003738 -0.009976 0.000000 -0.009525 0.000000
# 2 -0.003738 0.018391 -0.003731 0.000000 0.000426 0.000000
# 3 -0.009976 -0.003731 0.018289 0.000000 0.014115 0.000000
# 4 0.000000 0.000000 0.000000 0.035859 0.000000 0.004359
# 5 -0.009525 0.000426 0.014115 0.000000 0.042044 0.000000
# 6 0.000000 0.000000 0.000000 0.004359 0.000000 0.032018
#
#
# Mechanical properties :
#
#
# Convention : Reuss Voigt Hill
#
# Bulk Modulus (GPa) = 59.89368 72.78261 66.33815
# Shear Modulus (GPa) = 24.75692 29.65530 27.20611
#
# Velocity S-wave (km/s) = 3.67528 4.02247 3.85279
# Velocity P-wave (km/s) = 7.11962 7.82846 7.48244
#
# Compressibility (1/GPa) = 0.01669625
#
# Stress axis : x y z
#
# Youngs Moduli (GPa) = 67.08389 54.37449 54.67659
#
# Poissons Ratio (x) = 0.20325 0.54547
# Poissons Ratio (y) = 0.25076 0.20401
# Poissons Ratio (z) = 0.66925 0.20288
#
# Static dielectric constant tensor:
#      x y z
#    x 3.601530 0.000000 0.020470 
#    y 0.000000 3.282040 0.000000 
#    z 0.020470 0.000000 3.467550 
# 
# 
# High freq. dielectric constant tensor:
#      x y z
#    x 1.718310 0.000000 -0.001860 
#    y 0.000000 1.705760 0.000000 
#    z -0.001860 0.000000 1.713160 
# 
# From -- ./inp_files/69150.got.cif
#   From: 2010.06.25/outbox.cif.g09.slc.cpg/sg11_35_cif.got.tgz:69150.got - 2010.06.27 23:14:04.
