data_PCOD8073571
_publ_section_title
;
Structure prediction by ZEFSAII (Michael W. Deem and Ramdas Pophale) SiO2 
 PCOD8073571
Probable space group: P 21/M
;
_chemical_formula_sum "Si O2"
_cell_formula_units_Z 32
_cell_length_a 18.397595
_cell_length_b 16.910449
_cell_length_c 12.040925
_cell_angle_alpha 90.000000
_cell_angle_beta 27.236313
_cell_angle_gamma 90.000000
_cell_volume 1714.432746
_symmetry_space_group_name_H-M "P 21/M"
_symmetry_group_IT_number 11
_symmetry_cell_setting 'monoclinic'
loop_
_space_group_symop_operation_xyz
x,y,z
-x,1/2+y,-z
-x,-y,-z
x,1/2-y,z
loop_
_atom_site_type_symbol
_atom_site_label
_atom_site_fract_x
_atom_site_fract_y
_atom_site_fract_z
Si Si1 0.836968 0.534592 0.680905
Si Si2 0.532731 0.157362 0.602539
Si Si3 0.138283 0.916263 0.531085
Si Si4 0.141935 0.448783 0.700421
Si Si5 0.561854 0.160970 0.811447
Si Si6 0.220855 0.077119 0.006463
Si Si7 0.259746 0.155777 0.350529
Si Si8 0.787408 0.036156 0.185424
O O1 0.772894 0.466871 0.685490
O O2 0.732180 0.547671 0.933062
O O3 0.859845 0.615778 0.577401
O O4 0.000000 0.500000 0.500000
O O5 0.574631 0.250000 0.533076
O O6 0.546522 0.124579 0.709683
O O7 0.656672 0.105001 0.364887
O O8 0.354230 0.142735 0.797158
O O9 0.257539 0.843795 0.389719
O O10 0.958794 0.886328 0.748018
O O11 0.133545 0.968603 0.647508
O O12 0.232289 0.379391 0.511031
O O13 0.231794 0.467203 0.694543
O O14 0.959282 0.422242 0.968420
O O15 0.508729 0.250000 0.870480
O O16 0.433935 0.125729 0.072354
O O17 0.230499 0.003559 0.910574
O O18 0.235061 0.250000 0.387643
#
# Coordination Sequence:
#
# PCOD8073571 Si02
#       8
#     4   4   4   4   4   4   4   4
#     4   9  18  33  54  83 110 139 183 228 272 329
#     4  11  22  36  55  81 114 149 188 229 280 339
#     4   9  18  34  56  82 111 141 184 235 276 327
#     4   9  19  35  58  84 107 143 190 233 277 324
#     4  10  20  34  54  84 114 142 183 233 284 332
#     4  10  20  35  56  81 111 149 188 227 274 333
#     4  10  20  35  57  83 115 146 182 230 284 338
#     4  10  20  37  57  80 114 146 190 238 270 323
#
# _framework density 18.665065999999999
#
# number of rings (size 3 to 8) (size 9 to 14) (size 15 to 20)
#    0.000    2.250    2.500    1.125    0.000    4.000 
#    0.000    2.500    0.000    2.250    0.000    0.000 
#    0.000    0.000    0.000    0.000    0.000    0.000 
#
# Total GULP energy -396440.193827 kJ/mol
# GULP energy per Si atom -12388.756057 kJ/mol
# Density = 1.862258 g / cm^3
# Si number density = 18.665066 Si / 1000 Ang^3
#
#
#
# Elastic Constant Matrix: (Units=GPa)
#
#
# Indices 1 2 3 4 5 6 
#
# 1 61.0802 25.8970 27.4122 0.0000 5.7541 0.0000
# 2 25.8970 69.8106 38.1392 0.0000 -2.4254 0.0000
# 3 27.4122 38.1392 92.7435 0.0000 -6.5254 0.0000
# 4 0.0000 0.0000 0.0000 26.1893 0.0000 -0.5217
# 5 5.7541 -2.4254 -6.5254 0.0000 38.3761 0.0000
# 6 0.0000 0.0000 0.0000 -0.5217 0.0000 24.3638
#
#
#
# Elastic Compliance Matrix: (Units=1/GPa)
#
#
# Indices 1 2 3 4 5 6 
#
# 1 0.021053 -0.005668 -0.004189 0.000000 -0.004227 0.000000
# 2 -0.005668 0.020002 -0.006479 0.000000 0.001012 0.000000
# 3 -0.004189 -0.006479 0.014878 0.000000 0.002749 0.000000
# 4 0.000000 0.000000 0.000000 0.038200 0.000000 0.000818
# 5 -0.004227 0.001012 0.002749 0.000000 0.027223 0.000000
# 6 0.000000 0.000000 0.000000 0.000818 0.000000 0.041062
#
#
# Mechanical properties :
#
#
# Convention : Reuss Voigt Hill
#
# Bulk Modulus (GPa) = 42.99026 45.17014 44.08020
# Shear Modulus (GPa) = 24.64938 26.59824 25.62381
#
# Velocity S-wave (km/s) = 3.63797 3.77905 3.70918
# Velocity P-wave (km/s) = 6.38192 6.57986 6.48164
#
# Compressibility (1/GPa) = 0.02326108
#
# Stress axis : x y z
#
# Youngs Moduli (GPa) = 47.49806 49.99536 67.21182
#
# Poissons Ratio (x) = 0.28338 0.28157
# Poissons Ratio (y) = 0.26923 0.43545
# Poissons Ratio (z) = 0.19898 0.32391
#
# Static dielectric constant tensor:
#      x y z
#    x 3.725210 0.000000 0.340360 
#    y 0.000000 3.179330 0.000000 
#    z 0.340360 0.000000 3.835720 
# 
# 
# High freq. dielectric constant tensor:
#      x y z
#    x 1.723540 0.000000 0.007520 
#    y 0.000000 1.693330 0.000000 
#    z 0.007520 0.000000 1.730580 
# 
# From -- ./inp_files/41813.got.cif
#   From: 2010.06.25/outbox.cif.g09.slc.cpg/sg11_21_cif.got.tgz:41813.got - 2010.06.27 23:14:04.
