data_PCOD8073862
_publ_section_title
;
Structure prediction by ZEFSAII (Michael W. Deem and Ramdas Pophale) SiO2 
 PCOD8073862
Probable space group: P 21/M
;
_chemical_formula_sum "Si O2"
_cell_formula_units_Z 24
_cell_length_a 8.803193
_cell_length_b 9.853423
_cell_length_c 18.559867
_cell_angle_alpha 90.000000
_cell_angle_beta 53.100539
_cell_angle_gamma 90.000000
_cell_volume 1287.431237
_symmetry_space_group_name_H-M "P 21/M"
_symmetry_group_IT_number 11
_symmetry_cell_setting 'monoclinic'
loop_
_space_group_symop_operation_xyz
x,y,z
-x,1/2+y,-z
-x,-y,-z
x,1/2-y,z
loop_
_atom_site_type_symbol
_atom_site_label
_atom_site_fract_x
_atom_site_fract_y
_atom_site_fract_z
Si Si1 0.122233 0.090845 0.411668
Si Si2 0.583796 0.465837 0.868300
Si Si3 0.127758 0.090804 0.790359
Si Si4 0.454319 0.599962 0.279870
Si Si5 0.041376 0.100082 0.272103
Si Si6 0.246830 0.897299 0.034116
O O1 0.142256 0.250000 0.430027
O O2 0.020668 0.081858 0.363534
O O3 0.328011 0.018789 0.350289
O O4 0.000000 0.000000 0.500000
O O5 0.577822 0.381611 0.796390
O O6 0.737788 0.586311 0.814529
O O7 0.649374 0.378294 0.917953
O O8 0.369373 0.515007 0.944030
O O9 0.102399 0.250000 0.780543
O O10 0.330321 0.056105 0.765955
O O11 0.964589 0.041583 0.893288
O O12 0.097529 0.009952 0.724450
O O13 0.410452 0.750000 0.325888
O O14 0.974780 0.250000 0.267864
O O15 0.228050 0.750000 0.003885
#
# Coordination Sequence:
#
# PCOD8073862 Si02
#       6
#     4   4   4   4   4   4
#     4  10  21  37  59  84 104 127 163 206 253 306
#     4   9  17  28  48  72  98 136 178 216 256 296
#     4   9  19  33  50  74 104 140 175 209 253 302
#     4  10  20  35  53  75 105 136 170 211 255 304
#     4   9  18  33  52  75 103 133 168 209 253 302
#     4   9  16  28  45  68 100 136 177 217 253 297
#
# _framework density 18.641772
#
# number of rings (size 3 to 8) (size 9 to 14) (size 15 to 20)
#    0.000    2.667    0.000    1.500    0.000    6.667 
#    0.000    1.667    0.000    0.000    0.000    0.000 
#    0.000    0.000    0.000    0.000    0.000    0.000 
#
# Total GULP energy -297396.873822 kJ/mol
# GULP energy per Si atom -12391.536409 kJ/mol
# Density = 1.859934 g / cm^3
# Si number density = 18.641772 Si / 1000 Ang^3
#
#
#
# Elastic Constant Matrix: (Units=GPa)
#
#
# Indices 1 2 3 4 5 6 
#
# 1 74.5882 29.7971 27.5774 0.0000 -18.1441 0.0000
# 2 29.7971 103.3017 46.2115 0.0000 -8.0284 0.0000
# 3 27.5774 46.2115 92.5325 0.0000 -9.2821 0.0000
# 4 0.0000 0.0000 0.0000 20.9597 0.0000 -2.0142
# 5 -18.1441 -8.0284 -9.2821 0.0000 22.1277 0.0000
# 6 0.0000 0.0000 0.0000 -2.0142 0.0000 26.7270
#
#
#
# Elastic Compliance Matrix: (Units=1/GPa)
#
#
# Indices 1 2 3 4 5 6 
#
# 1 0.018902 -0.003218 -0.002703 0.000000 0.013198 0.000000
# 2 -0.003218 0.013098 -0.005606 0.000000 -0.000238 0.000000
# 3 -0.002703 -0.005606 0.014600 0.000000 0.001874 0.000000
# 4 0.000000 0.000000 0.000000 0.048059 0.000000 0.003622
# 5 0.013198 -0.000238 0.001874 0.000000 0.056714 0.000000
# 6 0.000000 0.000000 0.000000 0.003622 0.000000 0.037688
#
#
# Mechanical properties :
#
#
# Convention : Reuss Voigt Hill
#
# Bulk Modulus (GPa) = 42.46700 53.06603 47.76652
# Shear Modulus (GPa) = 22.73107 25.08530 23.90819
#
# Velocity S-wave (km/s) = 3.49573 3.67229 3.58509
# Velocity P-wave (km/s) = 6.25488 6.81975 6.54341
#
# Compressibility (1/GPa) = 0.02354769
#
# Stress axis : x y z
#
# Youngs Moduli (GPa) = 52.90422 76.34836 68.49212
#
# Poissons Ratio (x) = 0.24565 0.18511
# Poissons Ratio (y) = 0.17022 0.38397
# Poissons Ratio (z) = 0.14298 0.42802
#
# Static dielectric constant tensor:
#      x y z
#    x 3.264650 0.000000 -0.081610 
#    y 0.000000 3.405820 0.000000 
#    z -0.081610 0.000000 3.370500 
# 
# 
# High freq. dielectric constant tensor:
#      x y z
#    x 1.705780 0.000000 -0.006480 
#    y 0.000000 1.724490 0.000000 
#    z -0.006480 0.000000 1.712280 
# 
# From -- ./inp_files/25945.got.cif
#   From: 2010.06.25/outbox.cif.g09.slc.cpg/sg11_13_cif.got.tgz:25945.got - 2010.06.27 23:14:04.
