data_PCOD8073936
_publ_section_title
;
Structure prediction by ZEFSAII (Michael W. Deem and Ramdas Pophale) SiO2 
 PCOD8073936
Probable space group: P 21/M
;
_chemical_formula_sum "Si O2"
_cell_formula_units_Z 28
_cell_length_a 20.801490
_cell_length_b 9.721145
_cell_length_c 14.476794
_cell_angle_alpha 90.000000
_cell_angle_beta 150.711840
_cell_angle_gamma 90.000000
_cell_volume 1432.097837
_symmetry_space_group_name_H-M "P 21/M"
_symmetry_group_IT_number 11
_symmetry_cell_setting 'monoclinic'
loop_
_space_group_symop_operation_xyz
x,y,z
-x,1/2+y,-z
-x,-y,-z
x,1/2-y,z
loop_
_atom_site_type_symbol
_atom_site_label
_atom_site_fract_x
_atom_site_fract_y
_atom_site_fract_z
Si Si1 0.483538 0.400743 0.760617
Si Si2 0.085564 0.098309 0.667950
Si Si3 0.995986 0.094585 0.751129
Si Si4 0.757048 0.598006 0.422566
Si Si5 0.886779 0.591075 0.907904
Si Si6 0.643798 0.904386 0.088889
Si Si7 0.419409 0.086118 0.476363
O O1 0.551259 0.250000 0.854147
O O2 0.331860 0.388027 0.598607
O O3 0.490121 0.450276 0.662608
O O4 0.538571 0.502270 0.906579
O O5 0.026109 0.250000 0.579468
O O6 0.234976 0.092458 0.827604
O O7 0.081224 0.053944 0.768905
O O8 0.000000 0.000000 0.500000
O O9 0.942329 0.250000 0.679022
O O10 0.872302 0.996780 0.601922
O O11 0.091516 0.073999 0.956316
O O12 0.810359 0.750000 0.460510
O O13 0.682758 0.536357 0.238799
O O14 0.903763 0.750000 0.896832
O O15 0.734692 0.542098 0.705380
O O16 0.000000 0.500000 0.000000
O O17 0.586807 0.750000 0.028318
O O18 0.427963 0.250000 0.465166
O O19 0.500000 0.000000 0.500000
#
# Coordination Sequence:
#
# PCOD8073936 Si02
#       7
#     4   4   4   4   4   4   4
#     4  10  22  38  57  82 113 149 190 234 283 334
#     4  10  20  35  54  81 114 147 186 229 276 333
#     4  10  21  35  57  86 115 148 186 230 284 339
#     4  10  20  37  58  84 117 150 185 228 278 338
#     4  10  22  41  64  89 118 153 196 247 300 353
#     4  10  21  35  56  84 113 150 190 225 275 337
#     4  10  23  42  62  86 118 157 199 247 299 350
#
# _framework density 19.551735999999998
#
# number of rings (size 3 to 8) (size 9 to 14) (size 15 to 20)
#    0.000    2.000    1.429    1.286    2.000    4.571 
#    0.000    0.000    0.000    0.000    0.000    0.000 
#    0.000    0.000    0.000    0.000    0.000    0.000 
#
# Total GULP energy -347006.465747 kJ/mol
# GULP energy per Si atom -12393.088062 kJ/mol
# Density = 1.950724 g / cm^3
# Si number density = 19.551736 Si / 1000 Ang^3
#
#
#
# Elastic Constant Matrix: (Units=GPa)
#
#
# Indices 1 2 3 4 5 6 
#
# 1 70.1953 9.6347 -3.7820 0.0000 8.2509 0.0000
# 2 9.6347 57.3144 25.9691 0.0000 6.6950 0.0000
# 3 -3.7820 25.9691 64.2061 0.0000 2.5181 0.0000
# 4 0.0000 0.0000 0.0000 31.3056 0.0000 0.3220
# 5 8.2509 6.6950 2.5181 0.0000 26.7941 0.0000
# 6 0.0000 0.0000 0.0000 0.3220 0.0000 32.8618
#
#
#
# Elastic Compliance Matrix: (Units=1/GPa)
#
#
# Indices 1 2 3 4 5 6 
#
# 1 0.015290 -0.003144 0.002335 0.000000 -0.004142 0.000000
# 2 -0.003144 0.022575 -0.009166 0.000000 -0.003811 0.000000
# 3 0.002335 -0.009166 0.019430 0.000000 -0.000255 0.000000
# 4 0.000000 0.000000 0.000000 0.031946 0.000000 -0.000313
# 5 -0.004142 -0.003811 -0.000255 0.000000 0.039573 0.000000
# 6 0.000000 0.000000 0.000000 -0.000313 0.000000 0.030434
#
#
# Mechanical properties :
#
#
# Convention : Reuss Voigt Hill
#
# Bulk Modulus (GPa) = 26.77884 28.37327 27.57605
# Shear Modulus (GPa) = 26.08955 28.85188 27.47071
#
# Velocity S-wave (km/s) = 3.65689 3.84561 3.75244
# Velocity P-wave (km/s) = 5.61752 5.85335 5.73665
#
# Compressibility (1/GPa) = 0.03734292
#
# Stress axis : x y z
#
# Youngs Moduli (GPa) = 65.40117 44.29740 51.46723
#
# Poissons Ratio (x) = 0.13929 -0.12017
# Poissons Ratio (y) = 0.20565 0.47177
# Poissons Ratio (z) = -0.15271 0.40605
#
# Static dielectric constant tensor:
#      x y z
#    x 3.817330 0.000000 -0.049840 
#    y 0.000000 3.455180 0.000000 
#    z -0.049840 0.000000 3.430770 
# 
# 
# High freq. dielectric constant tensor:
#      x y z
#    x 1.778410 0.000000 -0.011550 
#    y 0.000000 1.757290 0.000000 
#    z -0.011550 0.000000 1.751790 
# 
# From -- ./inp_files/37384.got.cif
#   From: 2010.06.25/outbox.cif.g09.slc.cpg/sg11_19_cif.got.tgz:37384.got - 2010.06.27 23:14:04.
