data_PCOD8073231
_publ_section_title
;
Structure prediction by ZEFSAII (Michael W. Deem and Ramdas Pophale) SiO2 
 PCOD8073231
Probable space group: P 21/M
;
_chemical_formula_sum "Si O2"
_cell_formula_units_Z 32
_cell_length_a 13.772661
_cell_length_b 9.300407
_cell_length_c 22.784988
_cell_angle_alpha 90.000000
_cell_angle_beta 32.018169
_cell_angle_gamma 90.000000
_cell_volume 1547.385926
_symmetry_space_group_name_H-M "P 21/M"
_symmetry_group_IT_number 11
_symmetry_cell_setting 'monoclinic'
loop_
_space_group_symop_operation_xyz
x,y,z
-x,1/2+y,-z
-x,-y,-z
x,1/2-y,z
loop_
_atom_site_type_symbol
_atom_site_label
_atom_site_fract_x
_atom_site_fract_y
_atom_site_fract_z
Si Si1 0.360527 0.087824 0.502853
Si Si2 0.864344 0.586852 0.493352
Si Si3 0.170535 0.416386 0.940169
Si Si4 0.688621 0.579936 0.894482
Si Si5 0.796091 0.914264 0.710989
Si Si6 0.465205 0.415986 0.256340
Si Si7 0.057999 0.086294 0.127699
Si Si8 0.292617 0.082071 0.669647
O O1 0.438646 0.250000 0.464756
O O2 0.190907 0.074318 0.546319
O O3 0.285094 0.041563 0.604832
O O4 0.523121 0.984593 0.397561
O O5 0.907773 0.750000 0.489653
O O6 0.698141 0.528198 0.618050
O O7 0.049423 0.496801 0.405628
O O8 0.162949 0.250000 0.923988
O O9 0.357882 0.487525 0.821392
O O10 0.173586 0.428673 0.009029
O O11 0.000000 0.500000 0.000000
O O12 0.652225 0.750000 0.913242
O O13 0.773647 0.528314 0.788841
O O14 0.822550 0.532779 0.878409
O O15 0.500000 0.500000 0.000000
O O16 0.859571 0.750000 0.679577
O O17 0.603174 0.932314 0.775841
O O18 0.514293 0.250000 0.245597
O O19 0.994246 0.250000 0.170646
O O20 0.881352 0.987148 0.209984
O O21 0.290845 0.250000 0.683314
#
# Coordination Sequence:
#
# PCOD8073231 Si02
#       8
#     4   4   4   4   4   4   4   4
#     4   9  19  35  52  77 114 152 189 234 289 341
#     4  10  21  36  58  84 115 157 199 236 287 350
#     4  11  25  43  63  86 114 152 196 245 297 353
#     4  10  21  37  59  87 117 153 193 236 290 346
#     4  10  21  37  59  89 124 156 193 244 292 338
#     4  10  22  40  60  86 120 156 196 243 293 345
#     4  10  22  39  58  81 113 149 186 230 290 352
#     4  10  20  33  54  82 110 144 190 240 286 338
#
# _framework density 20.680036999999999
#
# number of rings (size 3 to 8) (size 9 to 14) (size 15 to 20)
#    0.000    2.000    0.000    2.625    1.750    4.000 
#    0.000    0.000    0.000    0.000    0.000    0.000 
#    0.000    0.000    0.000    0.000    0.000    0.000 
#
# Total GULP energy -396903.763464 kJ/mol
# GULP energy per Si atom -12403.242608 kJ/mol
# Density = 2.063297 g / cm^3
# Si number density = 20.680037 Si / 1000 Ang^3
#
#
#
# Elastic Constant Matrix: (Units=GPa)
#
#
# Indices 1 2 3 4 5 6 
#
# 1 67.4722 23.5504 23.1403 0.0000 -3.3385 0.0000
# 2 23.5504 90.4217 58.7103 0.0000 -17.6205 0.0000
# 3 23.1403 58.7103 121.6339 0.0000 -14.7109 0.0000
# 4 0.0000 0.0000 0.0000 42.4103 0.0000 -7.1041
# 5 -3.3385 -17.6205 -14.7109 0.0000 33.1550 0.0000
# 6 0.0000 0.0000 0.0000 -7.1041 0.0000 27.3732
#
#
#
# Elastic Compliance Matrix: (Units=1/GPa)
#
#
# Indices 1 2 3 4 5 6 
#
# 1 0.016524 -0.003443 -0.001587 0.000000 -0.000870 0.000000
# 2 -0.003443 0.017795 -0.007220 0.000000 0.005907 0.000000
# 3 -0.001587 -0.007220 0.012178 0.000000 0.001407 0.000000
# 4 0.000000 0.000000 0.000000 0.024651 0.000000 0.006398
# 5 -0.000870 0.005907 0.001407 0.000000 0.033837 0.000000
# 6 0.000000 0.000000 0.000000 0.006398 0.000000 0.038192
#
#
# Mechanical properties :
#
#
# Convention : Reuss Voigt Hill
#
# Bulk Modulus (GPa) = 45.45915 54.48110 49.97012
# Shear Modulus (GPa) = 28.56988 32.19615 30.38302
#
# Velocity S-wave (km/s) = 3.72091 3.95000 3.83717
# Velocity P-wave (km/s) = 6.36318 6.87061 6.62176
#
# Compressibility (1/GPa) = 0.02199777
#
# Stress axis : x y z
#
# Youngs Moduli (GPa) = 60.51876 56.19595 82.11300
#
# Poissons Ratio (x) = 0.19346 0.13032
# Poissons Ratio (y) = 0.20835 0.59284
# Poissons Ratio (z) = 0.09605 0.40573
#
# Static dielectric constant tensor:
#      x y z
#    x 3.861870 0.000000 0.146070 
#    y 0.000000 3.665170 0.000000 
#    z 0.146070 0.000000 3.619200 
# 
# 
# High freq. dielectric constant tensor:
#      x y z
#    x 1.817320 0.000000 0.006110 
#    y 0.000000 1.801610 0.000000 
#    z 0.006110 0.000000 1.807870 
# 
# From -- ./inp_files/68992.got.cif
#   From: 2010.06.25/outbox.cif.g09.slc.cpg/sg11_35_cif.got.tgz:68992.got - 2010.06.27 23:14:04.
