data_PCOD8073460
_publ_section_title
;
Structure prediction by ZEFSAII (Michael W. Deem and Ramdas Pophale) SiO2 
 PCOD8073460
Probable space group: P 21/M
;
_chemical_formula_sum "Si O2"
_cell_formula_units_Z 28
_cell_length_a 18.537596
_cell_length_b 8.768535
_cell_length_c 18.436475
_cell_angle_alpha 90.000000
_cell_angle_beta 149.132013
_cell_angle_gamma 90.000000
_cell_volume 1537.545492
_symmetry_space_group_name_H-M "P 21/M"
_symmetry_group_IT_number 11
_symmetry_cell_setting 'monoclinic'
loop_
_space_group_symop_operation_xyz
x,y,z
-x,1/2+y,-z
-x,-y,-z
x,1/2-y,z
loop_
_atom_site_type_symbol
_atom_site_label
_atom_site_fract_x
_atom_site_fract_y
_atom_site_fract_z
Si Si1 0.508787 0.568936 0.289672
Si Si2 0.864092 0.426953 0.917533
Si Si3 0.062738 0.426950 0.721835
Si Si4 0.149671 0.429222 0.644920
Si Si5 0.243979 0.569116 0.589914
Si Si6 0.430000 0.430944 0.369132
Si Si7 0.794527 0.423658 0.019704
O O1 0.509737 0.750000 0.301725
O O2 0.638812 0.514459 0.355160
O O3 0.517002 0.490827 0.375151
O O4 0.365350 0.516755 0.125855
O O5 0.850720 0.250000 0.884499
O O6 0.730492 0.515339 0.771471
O O7 0.875372 0.446131 0.013791
O O8 0.000000 0.500000 0.000000
O O9 0.040960 0.250000 0.712240
O O10 0.173485 0.460728 0.751619
O O11 0.122131 0.486504 0.847827
O O12 0.906642 0.491390 0.569732
O O13 0.151062 0.250000 0.629045
O O14 0.261210 0.514807 0.689018
O O15 0.000000 0.500000 0.500000
O O16 0.262968 0.750000 0.601839
O O17 0.500000 0.500000 0.500000
O O18 0.436627 0.250000 0.377291
O O19 0.793540 0.250000 0.043790
#
# Coordination Sequence:
#
# PCOD8073460 Si02
#       7
#     4   4   4   4   4   4   4
#     4  10  21  38  56  78 108 141 176 219 266 317
#     4  10  21  38  57  81 110 142 180 223 268 320
#     4   9  19  33  52  78 106 134 173 218 261 311
#     4   9  17  31  50  75 105 137 173 219 267 313
#     4  10  20  34  53  80 107 138 179 220 263 316
#     4  11  22  38  59  82 108 142 180 222 270 322
#     4   9  20  36  54  76 105 138 174 213 261 315
#
# _framework density 18.210843000000001
#
# number of rings (size 3 to 8) (size 9 to 14) (size 15 to 20)
#    0.000    2.286    0.000    4.714    0.000    8.000 
#    0.000    3.571    0.000    0.000    0.000    0.000 
#    0.000    0.000    0.000    0.000    0.000    0.000 
#
# Total GULP energy -347106.500517 kJ/mol
# GULP energy per Si atom -12396.660733 kJ/mol
# Density = 1.816939 g / cm^3
# Si number density = 18.210843 Si / 1000 Ang^3
#
#
#
# Elastic Constant Matrix: (Units=GPa)
#
#
# Indices 1 2 3 4 5 6 
#
# 1 135.0784 44.9684 57.1590 0.0000 13.0299 0.0000
# 2 44.9684 82.7519 27.9727 0.0000 2.5734 0.0000
# 3 57.1590 27.9727 68.2337 0.0000 -2.5273 0.0000
# 4 0.0000 0.0000 0.0000 31.8781 0.0000 -1.7243
# 5 13.0299 2.5734 -2.5273 0.0000 24.3146 0.0000
# 6 0.0000 0.0000 0.0000 -1.7243 0.0000 38.6695
#
#
#
# Elastic Compliance Matrix: (Units=1/GPa)
#
#
# Indices 1 2 3 4 5 6 
#
# 1 0.013799 -0.003760 -0.010316 0.000000 -0.008069 0.000000
# 2 -0.003760 0.015160 -0.003061 0.000000 0.000092 0.000000
# 3 -0.010316 -0.003061 0.024865 0.000000 0.008437 0.000000
# 4 0.000000 0.000000 0.000000 0.031445 0.000000 0.001402
# 5 -0.008069 0.000092 0.008437 0.000000 0.046319 0.000000
# 6 0.000000 0.000000 0.000000 0.001402 0.000000 0.025923
#
#
# Mechanical properties :
#
#
# Convention : Reuss Voigt Hill
#
# Bulk Modulus (GPa) = 51.15805 60.69603 55.92704
# Shear Modulus (GPa) = 25.21404 29.37004 27.29204
#
# Velocity S-wave (km/s) = 3.72501 4.02030 3.87547
# Velocity P-wave (km/s) = 6.83037 7.41298 7.12763
#
# Compressibility (1/GPa) = 0.01954726
#
# Stress axis : x y z
#
# Youngs Moduli (GPa) = 72.47063 65.96466 40.21697
#
# Poissons Ratio (x) = 0.24804 0.41490
# Poissons Ratio (y) = 0.27250 0.12312
# Poissons Ratio (z) = 0.74764 0.20195
#
# Static dielectric constant tensor:
#      x y z
#    x 3.760630 0.000000 -0.191170 
#    y 0.000000 3.535550 0.000000 
#    z -0.191170 0.000000 3.425450 
# 
# 
# High freq. dielectric constant tensor:
#      x y z
#    x 1.719970 0.000000 -0.005610 
#    y 0.000000 1.717620 0.000000 
#    z -0.005610 0.000000 1.685450 
# 
# From -- ./inp_files/28227.got.cif
#   From: 2010.06.25/outbox.cif.g09.slc.cpg/sg11_15_cif.got.tgz:28227.got - 2010.06.27 23:14:04.
