data_PCOD8073983
_publ_section_title
;
Structure prediction by ZEFSAII (Michael W. Deem and Ramdas Pophale) SiO2 
 PCOD8073983
Probable space group: P 21/M
;
_chemical_formula_sum "Si O2"
_cell_formula_units_Z 32
_cell_length_a 15.731821
_cell_length_b 9.207608
_cell_length_c 23.301070
_cell_angle_alpha 90.000000
_cell_angle_beta 148.503905
_cell_angle_gamma 90.000000
_cell_volume 1763.349824
_symmetry_space_group_name_H-M "P 21/M"
_symmetry_group_IT_number 11
_symmetry_cell_setting 'monoclinic'
loop_
_space_group_symop_operation_xyz
x,y,z
-x,1/2+y,-z
-x,-y,-z
x,1/2-y,z
loop_
_atom_site_type_symbol
_atom_site_label
_atom_site_fract_x
_atom_site_fract_y
_atom_site_fract_z
Si Si1 0.247399 0.419942 0.651030
Si Si2 0.344720 0.593575 0.421609
Si Si3 0.150824 0.591181 0.196499
Si Si4 0.033416 0.576791 0.309425
Si Si5 0.582032 0.581658 0.854927
Si Si6 0.999076 0.079890 0.410133
Si Si7 0.169887 0.081638 0.104330
Si Si8 0.146798 0.078833 0.905644
O O1 0.246008 0.250000 0.665700
O O2 0.430343 0.478024 0.756510
O O3 0.165570 0.447066 0.541600
O O4 0.150789 0.506932 0.643671
O O5 0.500000 0.500000 0.500000
O O6 0.399894 0.750000 0.477856
O O7 0.268172 0.616475 0.316227
O O8 0.210216 0.527169 0.387414
O O9 0.113650 0.750000 0.146680
O O10 0.243081 0.485786 0.204921
O O11 0.982882 0.516837 0.122693
O O12 0.026518 0.750000 0.315678
O O13 0.893494 0.526597 0.182713
O O14 0.007988 0.492364 0.353372
O O15 0.526401 0.750000 0.822894
O O16 0.709329 0.550200 0.878028
O O17 0.670613 0.541507 0.966941
O O18 0.963047 0.250000 0.382661
O O19 0.139155 0.250000 0.095005
O O20 0.000000 0.000000 0.000000
O O21 0.116760 0.250000 0.889153
#
# Coordination Sequence:
#
# PCOD8073983 Si02
#       8
#     4   4   4   4   4   4   4   4
#     4  10  22  39  59  83 109 139 174 220 273 326
#     4   9  19  33  51  74 106 145 181 223 269 313
#     4   9  17  33  51  69 100 142 183 221 266 313
#     4   9  18  34  58  81 103 141 185 221 264 321
#     4  10  20  35  55  79 110 145 181 223 271 322
#     4  10  21  39  61  83 109 138 174 221 275 327
#     4  11  21  32  50  76 106 143 182 222 264 314
#     4   8  15  32  54  75 104 142 179 216 263 314
#
# _framework density 18.147276999999999
#
# number of rings (size 3 to 8) (size 9 to 14) (size 15 to 20)
#    0.000    2.500    1.250    2.625    0.000    4.500 
#    0.000    8.125    0.000    0.000    0.000    0.000 
#    0.000    0.000    0.000    0.000    0.000    0.000 
#
# Total GULP energy -396511.474108 kJ/mol
# GULP energy per Si atom -12390.983566 kJ/mol
# Density = 1.810597 g / cm^3
# Si number density = 18.147277 Si / 1000 Ang^3
#
#
#
# Elastic Constant Matrix: (Units=GPa)
#
#
# Indices 1 2 3 4 5 6 
#
# 1 115.0662 64.6982 55.1011 0.0000 -17.2811 0.0000
# 2 64.6982 92.8374 54.6818 0.0000 -0.3886 0.0000
# 3 55.1011 54.6818 97.7202 0.0000 2.4248 0.0000
# 4 0.0000 0.0000 0.0000 29.3596 0.0000 1.1589
# 5 -17.2811 -0.3886 2.4248 0.0000 23.4568 0.0000
# 6 0.0000 0.0000 0.0000 1.1589 0.0000 33.5567
#
#
#
# Elastic Compliance Matrix: (Units=1/GPa)
#
#
# Indices 1 2 3 4 5 6 
#
# 1 0.019174 -0.010025 -0.005562 0.000000 0.014535 0.000000
# 2 -0.010025 0.021343 -0.006131 0.000000 -0.006398 0.000000
# 3 -0.005562 -0.006131 0.016948 0.000000 -0.005952 0.000000
# 4 0.000000 0.000000 0.000000 0.034107 0.000000 -0.001178
# 5 0.014535 -0.006398 -0.005952 0.000000 0.053849 0.000000
# 6 0.000000 0.000000 0.000000 -0.001178 0.000000 0.029841
#
#
# Mechanical properties :
#
#
# Convention : Reuss Voigt Hill
#
# Bulk Modulus (GPa) = 71.28912 72.73177 72.01045
# Shear Modulus (GPa) = 22.38388 26.01746 24.20067
#
# Velocity S-wave (km/s) = 3.51587 3.79051 3.65577
# Velocity P-wave (km/s) = 7.47333 7.70214 7.58860
#
# Compressibility (1/GPa) = 0.01402739
#
# Stress axis : x y z
#
# Youngs Moduli (GPa) = 52.15375 46.85465 59.00314
#
# Poissons Ratio (x) = 0.46973 0.32820
# Poissons Ratio (y) = 0.52285 0.36176
# Poissons Ratio (z) = 0.29010 0.28727
#
# Static dielectric constant tensor:
#      x y z
#    x 3.389840 0.000000 -0.436170 
#    y 0.000000 3.299090 0.000000 
#    z -0.436170 0.000000 2.794440 
# 
# 
# High freq. dielectric constant tensor:
#      x y z
#    x 1.695500 0.000000 -0.012540 
#    y 0.000000 1.693190 0.000000 
#    z -0.012540 0.000000 1.704170 
# 
# From -- ./inp_files/69134.got.cif
#   From: 2010.06.25/outbox.cif.g09.slc.cpg/sg11_35_cif.got.tgz:69134.got - 2010.06.27 23:14:04.
