data_PCOD8073541
_publ_section_title
;
Structure prediction by ZEFSAII (Michael W. Deem and Ramdas Pophale) SiO2 
 PCOD8073541
Probable space group: P 21/M
;
_chemical_formula_sum "Si O2"
_cell_formula_units_Z 24
_cell_length_a 17.825983
_cell_length_b 8.862099
_cell_length_c 24.325065
_cell_angle_alpha 90.000000
_cell_angle_beta 160.623562
_cell_angle_gamma 90.000000
_cell_volume 1274.927298
_symmetry_space_group_name_H-M "P 21/M"
_symmetry_group_IT_number 11
_symmetry_cell_setting 'monoclinic'
loop_
_space_group_symop_operation_xyz
x,y,z
-x,1/2+y,-z
-x,-y,-z
x,1/2-y,z
loop_
_atom_site_type_symbol
_atom_site_label
_atom_site_fract_x
_atom_site_fract_y
_atom_site_fract_z
Si Si1 0.336087 0.070878 0.586299
Si Si2 0.441475 0.574402 0.545496
Si Si3 0.441474 0.926179 0.041475
Si Si4 0.349407 0.928308 0.099569
Si Si5 0.841038 0.926098 0.741400
Si Si6 0.857143 0.574318 0.253470
O O1 0.333416 0.250000 0.583823
O O2 0.494437 0.004535 0.744331
O O3 0.439103 0.013617 0.600700
O O4 0.085280 0.013031 0.424260
O O5 0.405552 0.750000 0.532157
O O6 0.238551 0.517900 0.366788
O O7 0.681563 0.539601 0.683058
O O8 0.380195 0.750000 0.994296
O O9 0.443503 0.982908 0.105647
O O10 0.686433 0.960704 0.185351
O O11 0.247380 0.017484 0.875883
O O12 0.359659 0.750000 0.109615
O O13 0.091528 0.982575 0.929913
O O14 0.835966 0.750000 0.722118
O O15 0.910710 0.750000 0.284725
#
# Coordination Sequence:
#
# PCOD8073541 Si02
#       6
#     4   4   4   4   4   4
#     4  11  22  35  52  74 104 143 180 213 256 310
#     4  10  20  34  54  81 108 134 171 218 264 310
#     4   9  18  35  58  80 104 136 173 215 262 312
#     4   9  19  35  54  76 102 137 178 213 254 314
#     4   9  18  35  58  80 104 136 173 215 262 312
#     4  10  20  34  54  81 108 134 171 218 264 310
#
# _framework density 18.824604000000001
#
# number of rings (size 3 to 8) (size 9 to 14) (size 15 to 20)
#    0.000    2.333    0.000    2.500    0.000    4.000 
#    0.000    3.333    0.000    0.000    0.000    0.000 
#    0.000    0.000    0.000    0.000    0.000    0.000 
#
# Total GULP energy -297660.201282 kJ/mol
# GULP energy per Si atom -12402.508387 kJ/mol
# Density = 1.878176 g / cm^3
# Si number density = 18.824604 Si / 1000 Ang^3
#
#
#
# Elastic Constant Matrix: (Units=GPa)
#
#
# Indices 1 2 3 4 5 6 
#
# 1 124.8358 44.1824 114.2472 0.0000 -1.1172 0.0000
# 2 44.1824 67.4116 52.2217 0.0000 -5.3487 0.0000
# 3 114.2472 52.2217 153.1607 0.0000 -17.0980 0.0000
# 4 0.0000 0.0000 0.0000 23.5273 0.0000 1.7839
# 5 -1.1172 -5.3487 -17.0980 0.0000 21.1998 0.0000
# 6 0.0000 0.0000 0.0000 1.7839 0.0000 25.4148
#
#
#
# Elastic Compliance Matrix: (Units=1/GPa)
#
#
# Indices 1 2 3 4 5 6 
#
# 1 0.031149 -0.003102 -0.024266 0.000000 -0.018712 0.000000
# 2 -0.003102 0.020473 -0.004515 0.000000 0.001361 0.000000
# 3 -0.024266 -0.004515 0.028462 0.000000 0.020537 0.000000
# 4 0.000000 0.000000 0.000000 0.042731 0.000000 -0.002999
# 5 -0.018712 0.001361 0.020537 0.000000 0.063091 0.000000
# 6 0.000000 0.000000 0.000000 -0.002999 0.000000 0.039558
#
#
# Mechanical properties :
#
#
# Convention : Reuss Voigt Hill
#
# Bulk Modulus (GPa) = 61.28215 85.19007 73.23611
# Shear Modulus (GPa) = 16.96827 23.01217 19.99022
#
# Velocity S-wave (km/s) = 3.00557 3.50015 3.26225
# Velocity P-wave (km/s) = 6.68353 7.85415 7.29237
#
# Compressibility (1/GPa) = 0.01631796
#
# Stress axis : x y z
#
# Youngs Moduli (GPa) = 32.10401 48.84588 35.13463
#
# Poissons Ratio (x) = 0.15151 0.85258
# Poissons Ratio (y) = 0.09958 0.15862
# Poissons Ratio (z) = 0.77904 0.22053
#
# Static dielectric constant tensor:
#      x y z
#    x 3.609300 0.000000 0.010500 
#    y 0.000000 3.337200 0.000000 
#    z 0.010500 0.000000 3.599780 
# 
# 
# High freq. dielectric constant tensor:
#      x y z
#    x 1.741570 0.000000 0.008160 
#    y 0.000000 1.720130 0.000000 
#    z 0.008160 0.000000 1.732560 
# 
# From -- ./inp_files/46469.got.cif
#   From: 2010.06.25/outbox.cif.g09.slc.cpg/sg11_24_cif.got.tgz:46469.got - 2010.06.27 23:14:04.
