data_PCOD8073538
_publ_section_title
;
Structure prediction by ZEFSAII (Michael W. Deem and Ramdas Pophale) SiO2 
 PCOD8073538
Probable space group: P 21/M
;
_chemical_formula_sum "Si O2"
_cell_formula_units_Z 32
_cell_length_a 29.832406
_cell_length_b 9.217015
_cell_length_c 11.782456
_cell_angle_alpha 90.000000
_cell_angle_beta 150.884727
_cell_angle_gamma 90.000000
_cell_volume 1576.370121
_symmetry_space_group_name_H-M "P 21/M"
_symmetry_group_IT_number 11
_symmetry_cell_setting 'monoclinic'
loop_
_space_group_symop_operation_xyz
x,y,z
-x,1/2+y,-z
-x,-y,-z
x,1/2-y,z
loop_
_atom_site_type_symbol
_atom_site_label
_atom_site_fract_x
_atom_site_fract_y
_atom_site_fract_z
Si Si1 0.489279 0.919726 0.096761
Si Si2 0.261139 0.078924 0.964584
Si Si3 0.941807 0.916065 0.022297
Si Si4 0.329317 0.416487 0.366950
Si Si5 0.135905 0.915686 0.348549
Si Si6 0.321928 0.579907 0.885000
Si Si7 0.834135 0.406046 0.937968
Si Si8 0.089427 0.911939 0.655808
O O1 0.485658 0.750000 0.060429
O O2 0.569729 0.956889 0.364579
O O3 0.397809 0.970452 0.961229
O O4 0.500000 0.000000 0.000000
O O5 0.247980 0.250000 0.915218
O O6 0.326941 0.010749 0.012874
O O7 0.158251 0.006117 0.728132
O O8 0.315461 0.049365 0.202761
O O9 0.917191 0.750000 0.980600
O O10 0.047518 0.946007 0.230571
O O11 0.870301 0.982671 0.774265
O O12 0.922429 0.998811 0.096255
O O13 0.305749 0.250000 0.338297
O O14 0.260524 0.509129 0.293506
O O15 0.138111 0.750000 0.312188
O O16 0.224301 0.958562 0.614580
O O17 0.332608 0.750000 0.937428
O O18 0.830497 0.250000 0.866523
O O19 0.845497 0.379563 0.094896
O O20 0.064074 0.750000 0.546994
O O21 0.000000 0.000000 0.500000
#
# Coordination Sequence:
#
# PCOD8073538 Si02
#       8
#     4   4   4   4   4   4   4   4
#     4  10  23  42  64  91 122 155 195 245 304 361
#     4  10  21  38  60  87 119 157 203 248 294 354
#     4  10  20  34  54  80 111 153 195 238 289 346
#     4   9  20  40  61  85 119 156 196 246 297 349
#     4   9  20  37  54  78 113 152 193 238 290 348
#     4  10  22  40  61  88 121 157 195 248 306 357
#     4  10  21  35  55  83 113 151 195 239 289 347
#     4  10  21  36  55  83 118 157 199 244 294 348
#
# _framework density 20.299800999999999
#
# number of rings (size 3 to 8) (size 9 to 14) (size 15 to 20)
#    0.000    2.250    0.000    1.500    3.500    4.500 
#    0.000    0.000    0.000    0.000    0.000    0.000 
#    0.000    0.000    0.000    0.000    0.000    0.000 
#
# Total GULP energy -396622.327152 kJ/mol
# GULP energy per Si atom -12394.447723 kJ/mol
# Density = 2.025360 g / cm^3
# Si number density = 20.299801 Si / 1000 Ang^3
#
#
#
# Elastic Constant Matrix: (Units=GPa)
#
#
# Indices 1 2 3 4 5 6 
#
# 1 124.9515 60.5492 42.2494 0.0000 12.8935 0.0000
# 2 60.5492 102.0943 42.0650 0.0000 10.8637 0.0000
# 3 42.2494 42.0650 94.5366 0.0000 6.8731 0.0000
# 4 0.0000 0.0000 0.0000 23.7981 0.0000 -0.0731
# 5 12.8935 10.8637 6.8731 0.0000 20.9012 0.0000
# 6 0.0000 0.0000 0.0000 -0.0731 0.0000 39.4422
#
#
#
# Elastic Compliance Matrix: (Units=1/GPa)
#
#
# Indices 1 2 3 4 5 6 
#
# 1 0.011992 -0.005668 -0.002576 0.000000 -0.003605 0.000000
# 2 -0.005668 0.015118 -0.003972 0.000000 -0.003055 0.000000
# 3 -0.002576 -0.003972 0.013555 0.000000 -0.000804 0.000000
# 4 0.000000 0.000000 0.000000 0.042020 0.000000 0.000078
# 5 -0.003605 -0.003055 -0.000804 0.000000 0.051921 0.000000
# 6 0.000000 0.000000 0.000000 0.000078 0.000000 0.025354
#
#
# Mechanical properties :
#
#
# Convention : Reuss Voigt Hill
#
# Bulk Modulus (GPa) = 61.59522 67.92330 64.75926
# Shear Modulus (GPa) = 26.34340 28.60954 27.47647
#
# Velocity S-wave (km/s) = 3.60629 3.75820 3.68303
# Velocity P-wave (km/s) = 6.91007 7.23636 7.07510
#
# Compressibility (1/GPa) = 0.01623503
#
# Stress axis : x y z
#
# Youngs Moduli (GPa) = 83.38652 66.14775 73.77508
#
# Poissons Ratio (x) = 0.37489 0.19001
# Poissons Ratio (y) = 0.47259 0.29302
# Poissons Ratio (z) = 0.21477 0.26272
#
# Static dielectric constant tensor:
#      x y z
#    x 3.778330 0.000000 0.007400 
#    y 0.000000 3.936190 0.000000 
#    z 0.007400 0.000000 3.603660 
# 
# 
# High freq. dielectric constant tensor:
#      x y z
#    x 1.794030 0.000000 0.000690 
#    y 0.000000 1.798240 0.000000 
#    z 0.000690 0.000000 1.784090 
# 
# From -- ./inp_files/45359.got.cif
#   From: 2010.06.25/outbox.cif.g09.slc.cpg/sg11_23_cif.got.tgz:45359.got - 2010.06.27 23:14:04.
