data_PCOD8073884
_publ_section_title
;
Structure prediction by ZEFSAII (Michael W. Deem and Ramdas Pophale) SiO2 
 PCOD8073884
Probable space group: P 21/M
;
_chemical_formula_sum "Si O2"
_cell_formula_units_Z 24
_cell_length_a 21.370699
_cell_length_b 12.597953
_cell_length_c 14.712084
_cell_angle_alpha 90.000000
_cell_angle_beta 161.146332
_cell_angle_gamma 90.000000
_cell_volume 1279.970942
_symmetry_space_group_name_H-M "P 21/M"
_symmetry_group_IT_number 11
_symmetry_cell_setting 'monoclinic'
loop_
_space_group_symop_operation_xyz
x,y,z
-x,1/2+y,-z
-x,-y,-z
x,1/2-y,z
loop_
_atom_site_type_symbol
_atom_site_label
_atom_site_fract_x
_atom_site_fract_y
_atom_site_fract_z
Si Si1 0.640982 0.630864 0.787700
Si Si2 0.292936 0.625494 0.544024
Si Si3 0.212619 0.872338 0.229194
Si Si4 0.031028 0.992156 0.827974
Si Si5 0.287219 0.061686 0.919029
Si Si6 0.941192 0.127486 0.320374
O O1 0.646401 0.750000 0.757653
O O2 0.423394 0.584727 0.487484
O O3 0.775453 0.561935 0.908224
O O4 0.720373 0.631059 0.000021
O O5 0.319347 0.750000 0.603831
O O6 0.187435 0.610593 0.302029
O O7 0.157383 0.568146 0.432159
O O8 0.498860 0.565753 0.829892
O O9 0.199418 0.750000 0.186391
O O10 0.042574 0.929518 0.939320
O O11 0.023670 0.911757 0.733828
O O12 0.142289 0.114946 0.649086
O O13 0.226264 0.940329 0.859062
O O14 0.875057 0.250000 0.228150
#
# Coordination Sequence:
#
# PCOD8073884 Si02
#       6
#     4   4   4   4   4   4
#     4   9  17  31  52  73  95 131 177 215 244 288
#     4  10  20  35  54  74 101 136 173 210 247 297
#     4   9  18  33  50  68  97 137 173 206 249 297
#     4  11  20  30  49  78 108 131 161 208 262 305
#     4   9  19  36  56  74  97 135 174 207 247 294
#     4  10  20  35  55  77 103 132 167 210 253 300
#
# _framework density 18.750425
#
# number of rings (size 3 to 8) (size 9 to 14) (size 15 to 20)
#    0.000    2.333    0.000    4.500    0.000    0.667 
#    0.000    2.500    0.000    6.000    0.000    0.000 
#    0.000    0.000    0.000    0.000    0.000    0.000 
#
# Total GULP energy -297566.025576 kJ/mol
# GULP energy per Si atom -12398.584399 kJ/mol
# Density = 1.870775 g / cm^3
# Si number density = 18.750425 Si / 1000 Ang^3
#
#
#
# Elastic Constant Matrix: (Units=GPa)
#
#
# Indices 1 2 3 4 5 6 
#
# 1 40.8768 39.9208 23.5633 0.0000 7.0107 0.0000
# 2 39.9208 111.8383 44.6899 0.0000 9.8581 0.0000
# 3 23.5633 44.6899 74.8174 0.0000 1.1021 0.0000
# 4 0.0000 0.0000 0.0000 24.8842 0.0000 0.2205
# 5 7.0107 9.8581 1.1021 0.0000 33.9008 0.0000
# 6 0.0000 0.0000 0.0000 0.2205 0.0000 23.2120
#
#
#
# Elastic Compliance Matrix: (Units=1/GPa)
#
#
# Indices 1 2 3 4 5 6 
#
# 1 0.039755 -0.011562 -0.005545 0.000000 -0.004679 0.000000
# 2 -0.011562 0.015462 -0.005566 0.000000 -0.001924 0.000000
# 3 -0.005545 -0.005566 0.018405 0.000000 0.002167 0.000000
# 4 0.000000 0.000000 0.000000 0.040190 0.000000 -0.000382
# 5 -0.004679 -0.001924 0.002167 0.000000 0.030955 0.000000
# 6 0.000000 0.000000 0.000000 -0.000382 0.000000 0.043085
#
#
# Mechanical properties :
#
#
# Convention : Reuss Voigt Hill
#
# Bulk Modulus (GPa) = 35.36701 49.32005 42.34353
# Shear Modulus (GPa) = 20.60806 24.35662 22.48234
#
# Velocity S-wave (km/s) = 3.31882 3.60806 3.46646
# Velocity P-wave (km/s) = 5.79560 6.61196 6.21720
#
# Compressibility (1/GPa) = 0.02827494
#
# Stress axis : x y z
#
# Youngs Moduli (GPa) = 25.15435 64.67267 54.33243
#
# Poissons Ratio (x) = 0.74776 0.30129
# Poissons Ratio (y) = 0.29084 0.30243
# Poissons Ratio (z) = 0.13949 0.35998
#
# Static dielectric constant tensor:
#      x y z
#    x 3.258140 0.000000 -0.011630 
#    y 0.000000 3.412720 0.000000 
#    z -0.011630 0.000000 3.403820 
# 
# 
# High freq. dielectric constant tensor:
#      x y z
#    x 1.715280 0.000000 -0.003700 
#    y 0.000000 1.728160 0.000000 
#    z -0.003700 0.000000 1.723210 
# 
# From -- ./inp_files/16906.got.cif
#   From: 2010.06.25/outbox.cif.g09.slc.cpg/sg11_9_cif.got.tgz:16906.got - 2010.06.27 23:14:04.
