data_PCOD8073822
_publ_section_title
;
Structure prediction by ZEFSAII (Michael W. Deem and Ramdas Pophale) SiO2 
 PCOD8073822
Probable space group: P 21/M
;
_chemical_formula_sum "Si O2"
_cell_formula_units_Z 28
_cell_length_a 15.857621
_cell_length_b 9.185968
_cell_length_c 11.877781
_cell_angle_alpha 90.000000
_cell_angle_beta 116.978872
_cell_angle_gamma 90.000000
_cell_volume 1541.916024
_symmetry_space_group_name_H-M "P 21/M"
_symmetry_group_IT_number 11
_symmetry_cell_setting 'monoclinic'
loop_
_space_group_symop_operation_xyz
x,y,z
-x,1/2+y,-z
-x,-y,-z
x,1/2-y,z
loop_
_atom_site_type_symbol
_atom_site_label
_atom_site_fract_x
_atom_site_fract_y
_atom_site_fract_z
Si Si1 0.912473 0.920048 0.814224
Si Si2 0.288066 0.918085 0.917621
Si Si3 0.670850 0.922066 0.279844
Si Si4 0.583050 0.922545 0.616245
Si Si5 0.876238 0.079472 0.017147
Si Si6 0.454649 0.918000 0.183601
Si Si7 0.751773 0.920646 0.560299
O O1 0.897670 0.750000 0.828636
O O2 0.856494 0.967075 0.666487
O O3 0.022590 0.959332 0.864920
O O4 0.866480 0.001327 0.891963
O O5 0.269923 0.750000 0.878674
O O6 0.206139 0.977162 0.950809
O O7 0.280646 0.006782 0.798446
O O8 0.390934 0.941788 0.034819
O O9 0.681423 0.750000 0.274952
O O10 0.560988 0.967480 0.220357
O O11 0.724980 0.987530 0.422423
O O12 0.566987 0.750000 0.606602
O O13 0.678956 0.969763 0.612383
O O14 0.500000 0.000000 0.500000
O O15 0.588555 0.981037 0.746014
O O16 0.865747 0.250000 0.988069
O O17 0.452211 0.750000 0.222230
O O18 0.743711 0.750000 0.538718
#
# Coordination Sequence:
#
# PCOD8073822 Si02
#       7
#     4   4   4   4   4   4   4
#     4   9  17  32  56  78  98 129 164 199 246 303
#     4  10  21  35  51  73 102 133 167 209 255 295
#     4  10  20  35  51  68  98 135 173 211 243 291
#     4  11  20  32  51  75 104 132 164 204 248 298
#     4   9  18  33  52  77 105 127 156 206 256 293
#     4  10  20  35  52  72 101 134 168 210 253 292
#     4   9  18  33  51  73 101 132 166 203 245 292
#
# _framework density 18.159223999999998
#
# number of rings (size 3 to 8) (size 9 to 14) (size 15 to 20)
#    0.000    2.286    1.429    1.714    0.000    1.714 
#    0.000    2.143    0.000    0.000    0.000    0.000 
#    0.000    0.000    0.000    0.000    0.000    0.000 
#
# Total GULP energy -347190.114867 kJ/mol
# GULP energy per Si atom -12399.646960 kJ/mol
# Density = 1.811789 g / cm^3
# Si number density = 18.159224 Si / 1000 Ang^3
#
#
#
# Elastic Constant Matrix: (Units=GPa)
#
#
# Indices 1 2 3 4 5 6 
#
# 1 98.1988 24.2363 68.7194 0.0000 -0.3019 0.0000
# 2 24.2363 38.9867 34.5272 0.0000 -5.6151 0.0000
# 3 68.7194 34.5272 131.1585 0.0000 0.7562 0.0000
# 4 0.0000 0.0000 0.0000 28.3261 0.0000 -8.6011
# 5 -0.3019 -5.6151 0.7562 0.0000 31.3461 0.0000
# 6 0.0000 0.0000 0.0000 -8.6011 0.0000 23.6219
#
#
#
# Elastic Compliance Matrix: (Units=1/GPa)
#
#
# Indices 1 2 3 4 5 6 
#
# 1 0.016414 -0.003427 -0.007697 0.000000 -0.000270 0.000000
# 2 -0.003427 0.035415 -0.007565 0.000000 0.006493 0.000000
# 3 -0.007697 -0.007565 0.013658 0.000000 -0.001759 0.000000
# 4 0.000000 0.000000 0.000000 0.039691 0.000000 0.014452
# 5 -0.000270 0.006493 -0.001759 0.000000 0.033105 0.000000
# 6 0.000000 0.000000 0.000000 0.014452 0.000000 0.047596
#
#
# Mechanical properties :
#
#
# Convention : Reuss Voigt Hill
#
# Bulk Modulus (GPa) = 35.57287 58.14552 46.85919
# Shear Modulus (GPa) = 21.49364 26.04955 23.77160
#
# Velocity S-wave (km/s) = 3.44411 3.79160 3.62202
# Velocity P-wave (km/s) = 5.95381 7.15944 6.58428
#
# Compressibility (1/GPa) = 0.02811131
#
# Stress axis : x y z
#
# Youngs Moduli (GPa) = 60.92221 28.23668 73.21468
#
# Poissons Ratio (x) = 0.09676 0.56350
# Poissons Ratio (y) = 0.20877 0.55386
# Poissons Ratio (z) = 0.46889 0.21361
#
# Static dielectric constant tensor:
#      x y z
#    x 3.602270 0.000000 0.061520 
#    y 0.000000 3.246270 0.000000 
#    z 0.061520 0.000000 3.533840 
# 
# 
# High freq. dielectric constant tensor:
#      x y z
#    x 1.698640 0.000000 0.008740 
#    y 0.000000 1.685270 0.000000 
#    z 0.008740 0.000000 1.710120 
# 
# From -- ./inp_files/37393.got.cif
#   From: 2010.06.25/outbox.cif.g09.slc.cpg/sg11_19_cif.got.tgz:37393.got - 2010.06.27 23:14:04.
