data_PCOD8073067
_publ_section_title
;
Structure prediction by ZEFSAII (Michael W. Deem and Ramdas Pophale) SiO2 
 PCOD8073067
Probable space group: P 21/M
;
_chemical_formula_sum "Si O2"
_cell_formula_units_Z 28
_cell_length_a 9.624469
_cell_length_b 9.210045
_cell_length_c 26.341474
_cell_angle_alpha 90.000000
_cell_angle_beta 41.572468
_cell_angle_gamma 90.000000
_cell_volume 1549.398935
_symmetry_space_group_name_H-M "P 21/M"
_symmetry_group_IT_number 11
_symmetry_cell_setting 'monoclinic'
loop_
_space_group_symop_operation_xyz
x,y,z
-x,1/2+y,-z
-x,-y,-z
x,1/2-y,z
loop_
_atom_site_type_symbol
_atom_site_label
_atom_site_fract_x
_atom_site_fract_y
_atom_site_fract_z
Si Si1 0.089886 0.920111 0.131869
Si Si2 0.944754 0.080526 0.589847
Si Si3 0.680124 0.580214 0.583834
Si Si4 0.099804 0.584941 0.283067
Si Si5 0.264271 0.413104 0.694700
Si Si6 0.624005 0.921175 0.869064
Si Si7 0.860925 0.419554 0.996571
O O1 0.144059 0.750000 0.122745
O O2 0.068285 0.966845 0.079289
O O3 0.869524 0.956726 0.218981
O O4 0.278349 0.006180 0.107358
O O5 0.899242 0.250000 0.595807
O O6 0.942688 0.031166 0.648522
O O7 0.168999 0.039169 0.504393
O O8 0.759373 0.994742 0.613335
O O9 0.672362 0.750000 0.595613
O O10 0.449518 0.524901 0.634775
O O11 0.185599 0.750000 0.258017
O O12 0.269465 0.480839 0.211052
O O13 0.879523 0.575125 0.315222
O O14 0.353343 0.250000 0.676430
O O15 0.659828 0.750000 0.863350
O O16 0.381053 0.962018 0.931244
O O17 0.896699 0.250000 0.995063
O O18 0.000000 0.500000 0.000000
#
# Coordination Sequence:
#
# PCOD8073067 Si02
#       7
#     4   4   4   4   4   4   4
#     4   9  19  37  57  75 100 139 178 205 244 309
#     4   9  19  36  54  72  99 137 176 209 247 303
#     4  10  20  33  51  76 104 134 169 210 257 303
#     4   9  19  36  56  76 100 135 175 208 247 306
#     4   9  18  33  53  76 101 131 170 211 249 299
#     4  10  20  34  54  81 107 130 165 215 262 299
#     4  10  22  37  53  77 107 137 172 212 253 300
#
# _framework density 18.071524
#
# number of rings (size 3 to 8) (size 9 to 14) (size 15 to 20)
#    0.000    2.571    0.000    2.143    0.000    6.857 
#    0.000    4.286    0.000    0.000    0.000    0.000 
#    0.000    0.000    0.000    0.000    0.000    0.000 
#
# Total GULP energy -347246.477103 kJ/mol
# GULP energy per Si atom -12401.659897 kJ/mol
# Density = 1.803039 g / cm^3
# Si number density = 18.071524 Si / 1000 Ang^3
#
#
#
# Elastic Constant Matrix: (Units=GPa)
#
#
# Indices 1 2 3 4 5 6 
#
# 1 95.1944 34.7751 52.3976 0.0000 24.0505 0.0000
# 2 34.7751 52.2957 29.3770 0.0000 3.2592 0.0000
# 3 52.3976 29.3770 76.4602 0.0000 16.8316 0.0000
# 4 0.0000 0.0000 0.0000 30.7502 0.0000 -4.0716
# 5 24.0505 3.2592 16.8316 0.0000 32.8624 0.0000
# 6 0.0000 0.0000 0.0000 -4.0716 0.0000 35.1804
#
#
#
# Elastic Compliance Matrix: (Units=1/GPa)
#
#
# Indices 1 2 3 4 5 6 
#
# 1 0.021008 -0.008278 -0.009030 0.000000 -0.009928 0.000000
# 2 -0.008278 0.027859 -0.006488 0.000000 0.006618 0.000000
# 3 -0.009030 -0.006488 0.022726 0.000000 -0.004387 0.000000
# 4 0.000000 0.000000 0.000000 0.033026 0.000000 0.003822
# 5 -0.009928 0.006618 -0.004387 0.000000 0.039287 0.000000
# 6 0.000000 0.000000 0.000000 0.003822 0.000000 0.028867
#
#
# Mechanical properties :
#
#
# Convention : Reuss Voigt Hill
#
# Bulk Modulus (GPa) = 41.66685 50.78330 46.22507
# Shear Modulus (GPa) = 21.89484 26.91865 24.40675
#
# Velocity S-wave (km/s) = 3.48453 3.86367 3.67899
# Velocity P-wave (km/s) = 6.26865 6.93298 6.60917
#
# Compressibility (1/GPa) = 0.02399989
#
# Stress axis : x y z
#
# Youngs Moduli (GPa) = 47.60153 35.89547 44.00329
#
# Poissons Ratio (x) = 0.29714 0.39736
# Poissons Ratio (y) = 0.39404 0.28548
# Poissons Ratio (z) = 0.42986 0.23288
#
# Static dielectric constant tensor:
#      x y z
#    x 3.287720 0.000000 0.129140 
#    y 0.000000 3.312490 0.000000 
#    z 0.129140 0.000000 3.450280 
# 
# 
# High freq. dielectric constant tensor:
#      x y z
#    x 1.697300 0.000000 0.005200 
#    y 0.000000 1.698620 0.000000 
#    z 0.005200 0.000000 1.706320 
# 
# From -- ./inp_files/28580.got.cif
#   From: 2010.06.25/outbox.cif.g09.slc.cpg/sg11_15_cif.got.tgz:28580.got - 2010.06.27 23:14:04.
