data_PCOD8073869
_publ_section_title
;
Structure prediction by ZEFSAII (Michael W. Deem and Ramdas Pophale) SiO2 
 PCOD8073869
Probable space group: P 21/M
;
_chemical_formula_sum "Si O2"
_cell_formula_units_Z 32
_cell_length_a 14.360952
_cell_length_b 8.705830
_cell_length_c 14.136739
_cell_angle_alpha 90.000000
_cell_angle_beta 72.906621
_cell_angle_gamma 90.000000
_cell_volume 1689.358967
_symmetry_space_group_name_H-M "P 21/M"
_symmetry_group_IT_number 11
_symmetry_cell_setting 'monoclinic'
loop_
_space_group_symop_operation_xyz
x,y,z
-x,1/2+y,-z
-x,-y,-z
x,1/2-y,z
loop_
_atom_site_type_symbol
_atom_site_label
_atom_site_fract_x
_atom_site_fract_y
_atom_site_fract_z
Si Si1 0.763764 0.569895 0.313093
Si Si2 0.915585 0.071216 0.398169
Si Si3 0.559408 0.921776 0.682968
Si Si4 0.603443 0.071468 0.491578
Si Si5 0.396835 0.069213 0.000475
Si Si6 0.349016 0.929052 0.815364
Si Si7 0.882845 0.428605 0.620311
Si Si8 0.714670 0.923316 0.786765
O O1 0.761993 0.750000 0.297003
O O2 0.867274 0.520056 0.325587
O O3 0.684776 0.520732 0.412935
O O4 0.742675 0.490426 0.217985
O O5 0.902684 0.250000 0.380738
O O6 0.865907 0.029223 0.514546
O O7 0.028759 0.028459 0.365693
O O8 0.569742 0.750000 0.637031
O O9 0.445574 0.963566 0.724957
O O10 0.608412 0.930555 0.770378
O O11 0.616162 0.043494 0.599855
O O12 0.611106 0.250000 0.463090
O O13 0.500000 0.000000 0.500000
O O14 0.412163 0.250000 0.994505
O O15 0.357457 0.014308 0.911860
O O16 0.309633 0.023855 0.099341
O O17 0.500000 0.000000 0.000000
O O18 0.336153 0.750000 0.839573
O O19 0.909585 0.250000 0.621412
O O20 0.788883 0.464475 0.711710
O O21 0.756882 0.750000 0.770051
#
# Coordination Sequence:
#
# PCOD8073869 Si02
#       8
#     4   4   4   4   4   4   4   4
#     4  12  24  38  57  82 113 154 195 237 287 346
#     4  10  21  39  62  88 119 154 190 235 288 345
#     4  10  20  35  53  76 110 150 190 233 281 339
#     4  12  23  34  49  74 109 149 190 231 276 334
#     4  11  22  38  58  83 115 154 200 246 295 346
#     4  11  22  38  57  80 112 151 194 240 288 343
#     4  10  21  37  60  91 119 149 191 238 287 343
#     4  10  21  37  57  82 114 151 189 237 292 342
#
# _framework density 18.942095999999999
#
# number of rings (size 3 to 8) (size 9 to 14) (size 15 to 20)
#    0.000    1.250    2.500    4.500    0.000    5.500 
#    0.000    0.000    0.000    0.750    0.000    0.000 
#    0.000    0.000    0.000    0.000    0.000    0.000 
#
# Total GULP energy -396809.817769 kJ/mol
# GULP energy per Si atom -12400.306805 kJ/mol
# Density = 1.889898 g / cm^3
# Si number density = 18.942096 Si / 1000 Ang^3
#
#
#
# Elastic Constant Matrix: (Units=GPa)
#
#
# Indices 1 2 3 4 5 6 
#
# 1 84.6235 27.6777 39.1416 0.0000 14.5697 0.0000
# 2 27.6777 75.2177 36.2577 0.0000 0.4660 0.0000
# 3 39.1416 36.2577 89.7966 0.0000 14.8531 0.0000
# 4 0.0000 0.0000 0.0000 31.1217 0.0000 2.5655
# 5 14.5697 0.4660 14.8531 0.0000 27.5063 0.0000
# 6 0.0000 0.0000 0.0000 2.5655 0.0000 33.0396
#
#
#
# Elastic Compliance Matrix: (Units=1/GPa)
#
#
# Indices 1 2 3 4 5 6 
#
# 1 0.016181 -0.003724 -0.004548 0.000000 -0.006052 0.000000
# 2 -0.003724 0.017705 -0.006371 0.000000 0.005113 0.000000
# 3 -0.004548 -0.006371 0.016773 0.000000 -0.006540 0.000000
# 4 0.000000 0.000000 0.000000 0.032339 0.000000 -0.002511
# 5 -0.006052 0.005113 -0.006540 0.000000 0.043006 0.000000
# 6 0.000000 0.000000 0.000000 -0.002511 0.000000 0.030462
#
#
# Mechanical properties :
#
#
# Convention : Reuss Voigt Hill
#
# Bulk Modulus (GPa) = 46.79153 50.64353 48.71753
# Shear Modulus (GPa) = 25.92343 28.10424 27.01383
#
# Velocity S-wave (km/s) = 3.70342 3.85605 3.78051
# Velocity P-wave (km/s) = 6.56073 6.82785 6.69562
#
# Compressibility (1/GPa) = 0.02137139
#
# Stress axis : x y z
#
# Youngs Moduli (GPa) = 61.80170 56.48281 59.61886
#
# Poissons Ratio (x) = 0.21034 0.27117
# Poissons Ratio (y) = 0.23015 0.37984
# Poissons Ratio (z) = 0.28110 0.35986
#
# Static dielectric constant tensor:
#      x y z
#    x 3.382600 0.000000 0.175880 
#    y 0.000000 4.006900 0.000000 
#    z 0.175880 0.000000 3.580240 
# 
# 
# High freq. dielectric constant tensor:
#      x y z
#    x 1.729050 0.000000 0.016530 
#    y 0.000000 1.744990 0.000000 
#    z 0.016530 0.000000 1.722970 
# 
# From -- ./inp_files/51612.got.cif
#   From: 2010.06.25/outbox.cif.g09.slc.cpg/sg11_26_cif.got.tgz:51612.got - 2010.06.27 23:14:04.
