data_PCOD8073148
_publ_section_title
;
Structure prediction by ZEFSAII (Michael W. Deem and Ramdas Pophale) SiO2 
 PCOD8073148
Probable space group: P 21/M
;
_chemical_formula_sum "Si O2"
_cell_formula_units_Z 32
_cell_length_a 11.318561
_cell_length_b 9.771707
_cell_length_c 20.995695
_cell_angle_alpha 90.000000
_cell_angle_beta 127.848982
_cell_angle_gamma 90.000000
_cell_volume 1833.647963
_symmetry_space_group_name_H-M "P 21/M"
_symmetry_group_IT_number 11
_symmetry_cell_setting 'monoclinic'
loop_
_space_group_symop_operation_xyz
x,y,z
-x,1/2+y,-z
-x,-y,-z
x,1/2-y,z
loop_
_atom_site_type_symbol
_atom_site_label
_atom_site_fract_x
_atom_site_fract_y
_atom_site_fract_z
Si Si1 0.321677 0.906134 0.723751
Si Si2 0.603029 0.404209 0.114226
Si Si3 0.593745 0.407631 0.617507
Si Si4 0.001877 0.909073 0.562281
Si Si5 0.860334 0.403287 0.947371
Si Si6 0.283765 0.091500 0.449756
Si Si7 0.406925 0.910575 0.234855
Si Si8 0.656489 0.098742 0.994079
O O1 0.368224 0.750000 0.722663
O O2 0.295489 0.926211 0.790605
O O3 0.160778 0.943832 0.644597
O O4 0.447524 0.005689 0.737862
O O5 0.543196 0.250000 0.090737
O O6 0.693568 0.442941 0.079646
O O7 0.458933 0.496810 0.075837
O O8 0.633611 0.250000 0.616379
O O9 0.699144 0.501982 0.608553
O O10 0.419952 0.437034 0.543665
O O11 0.625260 0.443026 0.701728
O O12 0.984405 0.750000 0.538269
O O13 0.869148 0.952685 0.566144
O O14 0.000000 0.000000 0.500000
O O15 0.910022 0.250000 0.944086
O O16 0.736023 0.455259 0.855292
O O17 0.803896 0.404600 0.001102
O O18 0.000000 0.500000 0.000000
O O19 0.279274 0.250000 0.427636
O O20 0.441173 0.750000 0.235759
O O21 0.584252 0.250000 0.968374
#
# Coordination Sequence:
#
# PCOD8073148 Si02
#       8
#     4   4   4   4   4   4   4   4
#     4  10  20  33  52  79 107 135 171 217 260 306
#     4   9  17  30  51  76 101 130 166 210 255 302
#     4   9  18  33  55  77 100 136 177 215 254 297
#     4  10  21  36  53  78 110 141 174 212 260 311
#     4  10  21  36  53  75 104 137 173 215 260 308
#     4   9  18  34  53  76 106 138 173 211 254 304
#     4  10  20  36  56  77 104 136 174 216 258 311
#     4   9  17  32  52  74 100 131 168 207 255 309
#
# _framework density 17.451550999999998
#
# number of rings (size 3 to 8) (size 9 to 14) (size 15 to 20)
#    0.000    2.500    1.250    0.750    0.000    3.500 
#    2.250    2.500    0.000    0.000    0.000    0.000 
#    0.000    0.000    0.000    0.000    0.000    0.000 
#
# Total GULP energy -396642.840542 kJ/mol
# GULP energy per Si atom -12395.088767 kJ/mol
# Density = 1.741183 g / cm^3
# Si number density = 17.451551 Si / 1000 Ang^3
#
#
#
# Elastic Constant Matrix: (Units=GPa)
#
#
# Indices 1 2 3 4 5 6 
#
# 1 120.7323 65.2865 75.6516 0.0000 0.4137 0.0000
# 2 65.2865 75.2748 61.5564 0.0000 1.6235 0.0000
# 3 75.6516 61.5564 124.2680 0.0000 -3.4333 0.0000
# 4 0.0000 0.0000 0.0000 27.3437 0.0000 -0.8916
# 5 0.4137 1.6235 -3.4333 0.0000 25.8582 0.0000
# 6 0.0000 0.0000 0.0000 -0.8916 0.0000 33.3755
#
#
#
# Elastic Compliance Matrix: (Units=1/GPa)
#
#
# Indices 1 2 3 4 5 6 
#
# 1 0.017423 -0.010798 -0.005266 0.000000 -0.000300 0.000000
# 2 -0.010798 0.029238 -0.007985 0.000000 -0.002723 0.000000
# 3 -0.005266 -0.007985 0.015280 0.000000 0.002614 0.000000
# 4 0.000000 0.000000 0.000000 0.036603 0.000000 0.000978
# 5 -0.000300 -0.002723 0.002614 0.000000 0.039195 0.000000
# 6 0.000000 0.000000 0.000000 0.000978 0.000000 0.029988
#
#
# Mechanical properties :
#
#
# Convention : Reuss Voigt Hill
#
# Bulk Modulus (GPa) = 72.23536 80.58492 76.41014
# Shear Modulus (GPa) = 22.68187 25.16753 23.92470
#
# Velocity S-wave (km/s) = 3.60905 3.80167 3.70661
# Velocity P-wave (km/s) = 7.67130 8.09610 7.88656
#
# Compressibility (1/GPa) = 0.01384364
#
# Stress axis : x y z
#
# Youngs Moduli (GPa) = 57.39679 34.20172 65.44307
#
# Poissons Ratio (x) = 0.36931 0.34462
# Poissons Ratio (y) = 0.61977 0.52255
# Poissons Ratio (z) = 0.30225 0.27310
#
# Static dielectric constant tensor:
#      x y z
#    x 3.143520 0.000000 -0.214910 
#    y 0.000000 3.349620 0.000000 
#    z -0.214910 0.000000 3.433390 
# 
# 
# High freq. dielectric constant tensor:
#      x y z
#    x 1.666010 0.000000 -0.017360 
#    y 0.000000 1.677870 0.000000 
#    z -0.017360 0.000000 1.675780 
# 
# From -- ./inp_files/64414.got.cif
#   From: 2010.06.25/outbox.cif.g09.slc.cpg/sg11_33_cif.got.tgz:64414.got - 2010.06.27 23:14:04.
