data_PCOD8073345
_publ_section_title
;
Structure prediction by ZEFSAII (Michael W. Deem and Ramdas Pophale) SiO2 
 PCOD8073345
Probable space group: P 21/M
;
_chemical_formula_sum "Si O2"
_cell_formula_units_Z 28
_cell_length_a 23.209072
_cell_length_b 9.130720
_cell_length_c 21.970783
_cell_angle_alpha 90.000000
_cell_angle_beta 18.830360
_cell_angle_gamma 90.000000
_cell_volume 1502.788331
_symmetry_space_group_name_H-M "P 21/M"
_symmetry_group_IT_number 11
_symmetry_cell_setting 'monoclinic'
loop_
_space_group_symop_operation_xyz
x,y,z
-x,1/2+y,-z
-x,-y,-z
x,1/2-y,z
loop_
_atom_site_type_symbol
_atom_site_label
_atom_site_fract_x
_atom_site_fract_y
_atom_site_fract_z
Si Si1 0.215980 0.421501 0.158330
Si Si2 0.199599 0.078153 0.862907
Si Si3 0.163039 0.422707 0.474775
Si Si4 0.501266 0.923317 0.346056
Si Si5 0.205964 0.921988 0.733607
Si Si6 0.819751 0.583082 0.674337
Si Si7 0.461571 0.924089 0.249336
O O1 0.173267 0.250000 0.190943
O O2 0.291388 0.449860 0.152507
O O3 0.037058 0.512671 0.323803
O O4 0.370594 0.475621 0.958750
O O5 0.223319 0.250000 0.828349
O O6 0.319014 0.022769 0.799951
O O7 0.266474 0.999615 0.735052
O O8 0.996284 0.035867 0.081474
O O9 0.152987 0.250000 0.498247
O O10 0.262332 0.456160 0.309952
O O11 0.279700 0.501351 0.409145
O O12 0.498769 0.750000 0.345255
O O13 0.329335 0.979563 0.555404
O O14 0.496701 0.984340 0.282193
O O15 0.229302 0.750000 0.720650
O O16 0.876476 0.750000 0.616174
O O17 0.000000 0.500000 0.500000
O O18 0.436088 0.750000 0.271912
#
# Coordination Sequence:
#
# PCOD8073345 Si02
#       7
#     4   4   4   4   4   4   4
#     4   9  18  34  55  76  99 130 171 215 253 296
#     4   9  17  30  49  72  96 122 155 194 236 282
#     4  10  20  34  52  74 103 135 166 208 261 309
#     4   9  18  32  49  70  96 127 162 197 235 283
#     4   9  17  30  50  74  97 121 152 193 240 286
#     4   8  15  29  49  73  98 126 163 207 256 303
#     4  10  21  35  52  75 101 134 176 212 245 294
#
# _framework density 18.632033
#
# number of rings (size 3 to 8) (size 9 to 14) (size 15 to 20)
#    0.000    2.857    0.000    0.857    0.000    2.857 
#    0.000    5.714    0.000    3.429    0.000    0.000 
#    0.000    0.000    0.000    0.000    0.000    0.000 
#
# Total GULP energy -346955.780939 kJ/mol
# GULP energy per Si atom -12391.277891 kJ/mol
# Density = 1.858963 g / cm^3
# Si number density = 18.632033 Si / 1000 Ang^3
#
#
#
# Elastic Constant Matrix: (Units=GPa)
#
#
# Indices 1 2 3 4 5 6 
#
# 1 123.8769 21.5245 40.1004 0.0000 5.4216 0.0000
# 2 21.5245 30.3371 14.5310 0.0000 -1.0194 0.0000
# 3 40.1004 14.5310 76.3417 0.0000 6.3443 0.0000
# 4 0.0000 0.0000 0.0000 18.1584 0.0000 2.1817
# 5 5.4216 -1.0194 6.3443 0.0000 28.3980 0.0000
# 6 0.0000 0.0000 0.0000 2.1817 0.0000 21.6000
#
#
#
# Elastic Compliance Matrix: (Units=1/GPa)
#
#
# Indices 1 2 3 4 5 6 
#
# 1 0.010478 -0.005377 -0.004379 0.000000 -0.001215 0.000000
# 2 -0.005377 0.039265 -0.004943 0.000000 0.003540 0.000000
# 3 -0.004379 -0.004943 0.016594 0.000000 -0.003048 0.000000
# 4 0.000000 0.000000 0.000000 0.055748 0.000000 -0.005631
# 5 -0.001215 0.003540 -0.003048 0.000000 0.036254 0.000000
# 6 0.000000 0.000000 0.000000 -0.005631 0.000000 0.046865
#
#
# Mechanical properties :
#
#
# Convention : Reuss Voigt Hill
#
# Bulk Modulus (GPa) = 27.07352 42.54081 34.80716
# Shear Modulus (GPa) = 20.24994 23.92461 22.08728
#
# Velocity S-wave (km/s) = 3.30029 3.58726 3.44677
# Velocity P-wave (km/s) = 5.39303 6.32768 5.87896
#
# Compressibility (1/GPa) = 0.03693647
#
# Stress axis : x y z
#
# Youngs Moduli (GPa) = 95.44141 25.46799 60.26447
#
# Poissons Ratio (x) = 0.13695 0.26391
# Poissons Ratio (y) = 0.51322 0.29791
# Poissons Ratio (z) = 0.41795 0.12590
#
# Static dielectric constant tensor:
#      x y z
#    x 3.877430 0.000000 0.351010 
#    y 0.000000 3.193920 0.000000 
#    z 0.351010 0.000000 3.515530 
# 
# 
# High freq. dielectric constant tensor:
#      x y z
#    x 1.728100 0.000000 0.007330 
#    y 0.000000 1.702430 0.000000 
#    z 0.007330 0.000000 1.717840 
# 
# From -- ./inp_files/66679.got.cif
#   From: 2010.06.25/outbox.cif.g09.slc.cpg/sg11_34_cif.got.tgz:66679.got - 2010.06.27 23:14:04.
