data_PCOD8073581
_publ_section_title
;
Structure prediction by ZEFSAII (Michael W. Deem and Ramdas Pophale) SiO2 
 PCOD8073581
Probable space group: P 21/M
;
_chemical_formula_sum "Si O2"
_cell_formula_units_Z 28
_cell_length_a 17.698151
_cell_length_b 11.348604
_cell_length_c 21.026458
_cell_angle_alpha 90.000000
_cell_angle_beta 20.076648
_cell_angle_gamma 90.000000
_cell_volume 1449.709761
_symmetry_space_group_name_H-M "P 21/M"
_symmetry_group_IT_number 11
_symmetry_cell_setting 'monoclinic'
loop_
_space_group_symop_operation_xyz
x,y,z
-x,1/2+y,-z
-x,-y,-z
x,1/2-y,z
loop_
_atom_site_type_symbol
_atom_site_label
_atom_site_fract_x
_atom_site_fract_y
_atom_site_fract_z
Si Si1 0.770703 0.384856 0.892367
Si Si2 0.931011 0.384203 0.632214
Si Si3 0.658510 0.470095 0.737894
Si Si4 0.898190 0.884465 0.116592
Si Si5 0.413140 0.615298 0.456814
Si Si6 0.997537 0.972035 0.171847
Si Si7 0.429104 0.382883 0.801386
O O1 0.709255 0.250000 0.929690
O O2 0.868347 0.439528 0.750110
O O3 0.948493 0.396101 0.808195
O O4 0.547792 0.450001 0.084140
O O5 0.999444 0.250000 0.587054
O O6 0.724047 0.393777 0.747635
O O7 0.139840 0.448643 0.439569
O O8 0.598337 0.386400 0.726377
O O9 0.966165 0.750000 0.037712
O O10 0.636157 0.896700 0.320676
O O11 0.967900 0.886995 0.135098
O O12 0.000000 0.000000 0.000000
O O13 0.332460 0.750000 0.516027
O O14 0.225216 0.543525 0.641022
O O15 0.456077 0.561718 0.352083
O O16 0.199654 0.057588 0.998605
O O17 0.368663 0.250000 0.831977
#
# Coordination Sequence:
#
# PCOD8073581 Si02
#       7
#     4   4   4   4   4   4   4
#     4  10  21  36  54  78 111 145 183 231 281 339
#     4  10  20  35  54  78 108 143 185 229 280 336
#     4  10  20  34  55  79 107 146 186 229 281 336
#     4  11  23  41  63  89 121 155 198 244 294 353
#     4  10  21  37  59  86 116 152 193 240 292 347
#     4  11  21  37  60  83 115 151 193 234 293 343
#     4  10  20  35  56  84 116 149 191 240 286 340
#
# _framework density 19.314212000000001
#
# number of rings (size 3 to 8) (size 9 to 14) (size 15 to 20)
#    0.000    1.714    1.429    3.429    0.000    0.571 
#    0.000    1.429    0.000   13.714    0.000    0.000 
#    0.000    0.000    0.000    0.000    0.000    0.000 
#
# Total GULP energy -347106.530706 kJ/mol
# GULP energy per Si atom -12396.661811 kJ/mol
# Density = 1.927025 g / cm^3
# Si number density = 19.314212 Si / 1000 Ang^3
#
#
#
# Elastic Constant Matrix: (Units=GPa)
#
#
# Indices 1 2 3 4 5 6 
#
# 1 143.8959 18.8102 34.1963 0.0000 6.6354 0.0000
# 2 18.8102 76.3845 32.5351 0.0000 2.5164 0.0000
# 3 34.1963 32.5351 78.3111 0.0000 -3.8020 0.0000
# 4 0.0000 0.0000 0.0000 23.1166 0.0000 3.3288
# 5 6.6354 2.5164 -3.8020 0.0000 27.9944 0.0000
# 6 0.0000 0.0000 0.0000 3.3288 0.0000 27.7632
#
#
#
# Elastic Compliance Matrix: (Units=1/GPa)
#
#
# Indices 1 2 3 4 5 6 
#
# 1 0.007917 -0.000430 -0.003390 0.000000 -0.002298 0.000000
# 2 -0.000430 0.016084 -0.006603 0.000000 -0.002241 0.000000
# 3 -0.003390 -0.006603 0.017174 0.000000 0.003730 0.000000
# 4 0.000000 0.000000 0.000000 0.044019 0.000000 -0.005278
# 5 -0.002298 -0.002241 0.003730 0.000000 0.036974 0.000000
# 6 0.000000 0.000000 0.000000 -0.005278 0.000000 0.036652
#
#
# Mechanical properties :
#
#
# Convention : Reuss Voigt Hill
#
# Bulk Modulus (GPa) = 49.19120 52.18607 50.68864
# Shear Modulus (GPa) = 26.81772 29.97815 28.39793
#
# Velocity S-wave (km/s) = 3.73030 3.94398 3.83863
# Velocity P-wave (km/s) = 6.63910 6.91507 6.77849
#
# Compressibility (1/GPa) = 0.02032884
#
# Stress axis : x y z
#
# Youngs Moduli (GPa) = 126.30516 62.17382 58.22603
#
# Poissons Ratio (x) = 0.02673 0.19740
# Poissons Ratio (y) = 0.05431 0.38448
# Poissons Ratio (z) = 0.42820 0.41055
#
# Static dielectric constant tensor:
#      x y z
#    x 4.080080 0.000000 0.048460 
#    y 0.000000 3.452350 0.000000 
#    z 0.048460 0.000000 3.432280 
# 
# 
# High freq. dielectric constant tensor:
#      x y z
#    x 1.774010 0.000000 0.000030 
#    y 0.000000 1.744130 0.000000 
#    z 0.000030 0.000000 1.749690 
# 
# From -- ./inp_files/61478.got.cif
#   From: 2010.06.25/outbox.cif.g09.slc.cpg/sg11_31_cif.got.tgz:61478.got - 2010.06.27 23:14:04.
