data_PCOD8073135
_publ_section_title
;
Structure prediction by ZEFSAII (Michael W. Deem and Ramdas Pophale) SiO2 
 PCOD8073135
Probable space group: P 21/M
;
_chemical_formula_sum "Si O2"
_cell_formula_units_Z 28
_cell_length_a 6.555488
_cell_length_b 13.742594
_cell_length_c 17.009303
_cell_angle_alpha 90.000000
_cell_angle_beta 110.438657
_cell_angle_gamma 90.000000
_cell_volume 1435.890918
_symmetry_space_group_name_H-M "P 21/M"
_symmetry_group_IT_number 11
_symmetry_cell_setting 'monoclinic'
loop_
_space_group_symop_operation_xyz
x,y,z
-x,1/2+y,-z
-x,-y,-z
x,1/2-y,z
loop_
_atom_site_type_symbol
_atom_site_label
_atom_site_fract_x
_atom_site_fract_y
_atom_site_fract_z
Si Si1 0.030232 0.474665 0.816639
Si Si2 0.836414 0.859939 0.879451
Si Si3 0.507516 0.507052 0.908165
Si Si4 0.131887 0.860063 0.066333
Si Si5 0.080215 0.639295 0.507263
Si Si6 0.360840 0.467245 0.555263
Si Si7 0.772560 0.137652 0.652665
O O1 0.884419 0.571464 0.811149
O O2 0.036399 0.407310 0.895146
O O3 0.944168 0.416061 0.730808
O O4 0.276521 0.506128 0.833904
O O5 0.805824 0.750000 0.845766
O O6 0.620696 0.892420 0.896900
O O7 0.040648 0.870054 0.966086
O O8 0.640640 0.414973 0.893937
O O9 0.500000 0.500000 0.000000
O O10 0.173251 0.750000 0.096296
O O11 0.118046 0.750000 0.541473
O O12 0.244677 0.564948 0.575355
O O13 0.132730 0.628663 0.422133
O O14 0.831111 0.609226 0.491974
O O15 0.500000 0.500000 0.500000
O O16 0.535584 0.413037 0.634509
O O17 0.749263 0.250000 0.674292
#
# Coordination Sequence:
#
# PCOD8073135 Si02
#       7
#     4   4   4   4   4   4   4
#     4  11  21  36  53  77 112 145 184 231 281 334
#     4  10  21  36  54  74 100 140 190 239 285 333
#     4  11  19  34  52  75 102 135 184 238 284 330
#     4  10  20  33  52  78 104 135 181 235 286 334
#     4   9  18  34  59  90 117 146 188 224 264 323
#     4   9  18  35  59  85 116 150 183 219 266 322
#     4  10  21  35  55  84 118 151 177 218 281 335
#
# _framework density 19.500088999999999
#
# number of rings (size 3 to 8) (size 9 to 14) (size 15 to 20)
#    0.000    2.000    2.857    1.714    0.000    5.143 
#    0.000    2.143    0.000    4.286    0.000    0.000 
#    0.000    0.000    0.000    0.000    0.000    0.000 
#
# Total GULP energy -347095.030198 kJ/mol
# GULP energy per Si atom -12396.251079 kJ/mol
# Density = 1.945571 g / cm^3
# Si number density = 19.500089 Si / 1000 Ang^3
#
#
#
# Elastic Constant Matrix: (Units=GPa)
#
#
# Indices 1 2 3 4 5 6 
#
# 1 103.8043 44.8277 25.2495 0.0000 25.0156 0.0000
# 2 44.8277 163.3831 35.5124 0.0000 10.1819 0.0000
# 3 25.2495 35.5124 53.8773 0.0000 18.9216 0.0000
# 4 0.0000 0.0000 0.0000 31.1121 0.0000 2.7481
# 5 25.0156 10.1819 18.9216 0.0000 26.9132 0.0000
# 6 0.0000 0.0000 0.0000 2.7481 0.0000 24.4787
#
#
#
# Elastic Compliance Matrix: (Units=1/GPa)
#
#
# Indices 1 2 3 4 5 6 
#
# 1 0.013763 -0.002956 -0.000533 0.000000 -0.011299 0.000000
# 2 -0.002956 0.007792 -0.004887 0.000000 0.003236 0.000000
# 3 -0.000533 -0.004887 0.028162 0.000000 -0.017455 0.000000
# 4 0.000000 0.000000 0.000000 0.032464 0.000000 -0.003645
# 5 -0.011299 0.003236 -0.017455 0.000000 0.058707 0.000000
# 6 0.000000 0.000000 0.000000 -0.003645 0.000000 0.041261
#
#
# Mechanical properties :
#
#
# Convention : Reuss Voigt Hill
#
# Bulk Modulus (GPa) = 30.33591 59.13822 44.73707
# Shear Modulus (GPa) = 23.82206 30.86580 27.34393
#
# Velocity S-wave (km/s) = 3.49899 3.98283 3.74872
# Velocity P-wave (km/s) = 5.64929 7.17938 6.45980
#
# Compressibility (1/GPa) = 0.03296424
#
# Stress axis : x y z
#
# Youngs Moduli (GPa) = 72.65999 128.33256 35.50880
#
# Poissons Ratio (x) = 0.37936 0.01893
# Poissons Ratio (y) = 0.21479 0.17354
# Poissons Ratio (z) = 0.03874 0.62718
#
# Static dielectric constant tensor:
#      x y z
#    x 3.809140 0.000000 0.161240 
#    y 0.000000 3.874570 0.000000 
#    z 0.161240 0.000000 3.203130 
# 
# 
# High freq. dielectric constant tensor:
#      x y z
#    x 1.768130 0.000000 0.012320 
#    y 0.000000 1.773480 0.000000 
#    z 0.012320 0.000000 1.715730 
# 
# From -- ./inp_files/7946.got.cif
#   From: 2010.06.25/outbox.cif.g09.slc.cpg/sg11_4_cif.got.tgz:7946.got - 2010.06.27 23:14:04.
