data_PCOD8073780
_publ_section_title
;
Structure prediction by ZEFSAII (Michael W. Deem and Ramdas Pophale) SiO2 
 PCOD8073780
Probable space group: P 21/M
;
_chemical_formula_sum "Si O2"
_cell_formula_units_Z 28
_cell_length_a 17.194749
_cell_length_b 8.546249
_cell_length_c 22.204551
_cell_angle_alpha 90.000000
_cell_angle_beta 153.542709
_cell_angle_gamma 90.000000
_cell_volume 1453.753958
_symmetry_space_group_name_H-M "P 21/M"
_symmetry_group_IT_number 11
_symmetry_cell_setting 'monoclinic'
loop_
_space_group_symop_operation_xyz
x,y,z
-x,1/2+y,-z
-x,-y,-z
x,1/2-y,z
loop_
_atom_site_type_symbol
_atom_site_label
_atom_site_fract_x
_atom_site_fract_y
_atom_site_fract_z
Si Si1 0.598445 0.566115 0.371913
Si Si2 0.262484 0.432549 0.190723
Si Si3 0.524988 0.935564 0.187010
Si Si4 0.865317 0.934607 0.359135
Si Si5 0.143988 0.566549 0.886912
Si Si6 0.000106 0.431981 0.904033
Si Si7 0.029793 0.933179 0.349404
O O1 0.564420 0.750000 0.351493
O O2 0.463000 0.480723 0.322228
O O3 0.572435 0.499949 0.286252
O O4 0.790863 0.528258 0.528537
O O5 0.244442 0.250000 0.191645
O O6 0.184157 0.525779 0.193160
O O7 0.157315 0.480103 0.057622
O O8 0.520872 0.750000 0.186853
O O9 0.671348 0.996043 0.241410
O O10 0.337361 0.998328 0.035939
O O11 0.870363 0.750000 0.367650
O O12 0.915789 0.991121 0.327391
O O13 0.000000 0.000000 0.500000
O O14 0.142526 0.750000 0.871093
O O15 0.018613 0.532498 0.856357
O O16 0.080545 0.469597 0.785960
O O17 0.004784 0.250000 0.890838
O O18 0.071829 0.750000 0.382780
#
# Coordination Sequence:
#
# PCOD8073780 Si02
#       7
#     4   4   4   4   4   4   4
#     4  11  20  36  61  87 116 153 197 242 289 344
#     4  10  20  34  57  89 121 151 192 240 288 341
#     4   9  19  35  59  86 114 148 194 243 287 340
#     4  10  20  37  59  85 116 150 193 244 292 341
#     4  11  22  39  60  84 117 158 197 238 293 350
#     4  10  20  35  57  86 120 154 192 238 289 342
#     4  11  24  39  57  85 121 156 193 242 296 351
#
# _framework density 19.260480999999999
#
# number of rings (size 3 to 8) (size 9 to 14) (size 15 to 20)
#    0.000    1.714    2.857    2.143    0.000    2.286 
#    0.000    2.143    0.000    0.000    0.000    0.000 
#    0.000    0.000    0.000    0.000    0.000    0.000 
#
# Total GULP energy -347320.907299 kJ/mol
# GULP energy per Si atom -12404.318118 kJ/mol
# Density = 1.921664 g / cm^3
# Si number density = 19.260481 Si / 1000 Ang^3
#
#
#
# Elastic Constant Matrix: (Units=GPa)
#
#
# Indices 1 2 3 4 5 6 
#
# 1 131.4499 15.8467 56.6661 0.0000 12.0959 0.0000
# 2 15.8467 36.3845 7.9712 0.0000 1.9956 0.0000
# 3 56.6661 7.9712 105.8374 0.0000 5.9898 0.0000
# 4 0.0000 0.0000 0.0000 27.6086 0.0000 -1.4130
# 5 12.0959 1.9956 5.9898 0.0000 36.7230 0.0000
# 6 0.0000 0.0000 0.0000 -1.4130 0.0000 25.6626
#
#
#
# Elastic Compliance Matrix: (Units=1/GPa)
#
#
# Indices 1 2 3 4 5 6 
#
# 1 0.010479 -0.003286 -0.005226 0.000000 -0.002421 0.000000
# 2 -0.003286 0.029027 -0.000402 0.000000 -0.000429 0.000000
# 3 -0.005226 -0.000402 0.012292 0.000000 -0.000262 0.000000
# 4 0.000000 0.000000 0.000000 0.036323 0.000000 0.002000
# 5 -0.002421 -0.000429 -0.000262 0.000000 0.028094 0.000000
# 6 0.000000 0.000000 0.000000 0.002000 0.000000 0.039077
#
#
# Mechanical properties :
#
#
# Convention : Reuss Voigt Hill
#
# Bulk Modulus (GPa) = 29.43907 48.29329 38.86618
# Shear Modulus (GPa) = 27.10828 30.87802 28.99315
#
# Velocity S-wave (km/s) = 3.75568 4.00832 3.88405
# Velocity P-wave (km/s) = 5.84164 6.82278 6.35118
#
# Compressibility (1/GPa) = 0.03396847
#
# Stress axis : x y z
#
# Youngs Moduli (GPa) = 95.42595 34.45035 81.35565
#
# Poissons Ratio (x) = 0.11322 0.42518
# Poissons Ratio (y) = 0.31361 0.03273
# Poissons Ratio (z) = 0.49871 0.01386
#
# Static dielectric constant tensor:
#      x y z
#    x 3.702700 0.000000 0.193960 
#    y 0.000000 3.343090 0.000000 
#    z 0.193960 0.000000 3.432470 
# 
# 
# High freq. dielectric constant tensor:
#      x y z
#    x 1.757780 0.000000 0.015410 
#    y 0.000000 1.742890 0.000000 
#    z 0.015410 0.000000 1.737880 
# 
# From -- ./inp_files/60842.got.cif
#   From: 2010.06.25/outbox.cif.g09.slc.cpg/sg11_31_cif.got.tgz:60842.got - 2010.06.27 23:14:04.
