data_PCOD8073655
_publ_section_title
;
Structure prediction by ZEFSAII (Michael W. Deem and Ramdas Pophale) SiO2 
 PCOD8073655
Probable space group: P 21/M
;
_chemical_formula_sum "Si O2"
_cell_formula_units_Z 28
_cell_length_a 15.998249
_cell_length_b 8.737770
_cell_length_c 20.989166
_cell_angle_alpha 90.000000
_cell_angle_beta 151.932180
_cell_angle_gamma 90.000000
_cell_volume 1380.520864
_symmetry_space_group_name_H-M "P 21/M"
_symmetry_group_IT_number 11
_symmetry_cell_setting 'monoclinic'
loop_
_space_group_symop_operation_xyz
x,y,z
-x,1/2+y,-z
-x,-y,-z
x,1/2-y,z
loop_
_atom_site_type_symbol
_atom_site_label
_atom_site_fract_x
_atom_site_fract_y
_atom_site_fract_z
Si Si1 0.344349 0.930675 0.580179
Si Si2 0.827302 0.569988 0.416534
Si Si3 0.105659 0.930488 0.306924
Si Si4 0.387086 0.573596 0.831916
Si Si5 0.953480 0.069148 0.873230
Si Si6 0.270888 0.930060 0.156659
Si Si7 0.241607 0.428393 0.856249
O O1 0.347418 0.750000 0.591202
O O2 0.278248 0.977240 0.464486
O O3 0.201420 0.999662 0.532966
O O4 0.538257 0.995312 0.723189
O O5 0.849317 0.750000 0.437359
O O6 0.655986 0.527551 0.258811
O O7 0.000000 0.500000 0.500000
O O8 0.086922 0.750000 0.291107
O O9 0.119015 0.992740 0.243555
O O10 0.928587 0.994313 0.221438
O O11 0.349646 0.750000 0.790923
O O12 0.259764 0.524473 0.804075
O O13 0.591208 0.543051 0.985613
O O14 0.985515 0.250000 0.894986
O O15 0.808492 0.021036 0.828240
O O16 0.141935 0.990204 0.014412
O O17 0.291665 0.750000 0.164292
O O18 0.223952 0.250000 0.826013
#
# Coordination Sequence:
#
# PCOD8073655 Si02
#       7
#     4   4   4   4   4   4   4
#     4  11  23  39  61  88 121 160 202 246 299 359
#     4  12  25  41  60  84 118 157 200 248 299 355
#     4   9  19  36  59  86 112 151 200 248 297 351
#     4  10  20  34  55  84 114 153 198 244 301 354
#     4   9  19  38  64  88 117 157 199 249 304 358
#     4  10  21  38  59  90 124 155 198 248 299 359
#     4   9  18  34  56  82 115 151 196 249 299 352
#
# _framework density 20.2822
#
# number of rings (size 3 to 8) (size 9 to 14) (size 15 to 20)
#    0.000    2.000    0.000    3.429    2.000    2.857 
#    0.000    2.857    0.000    0.000    0.000    0.000 
#    0.000    0.000    0.000    0.000    0.000    0.000 
#
# Total GULP energy -347265.941813 kJ/mol
# GULP energy per Si atom -12402.355065 kJ/mol
# Density = 2.023604 g / cm^3
# Si number density = 20.282200 Si / 1000 Ang^3
#
#
#
# Elastic Constant Matrix: (Units=GPa)
#
#
# Indices 1 2 3 4 5 6 
#
# 1 95.8415 29.3213 52.8863 0.0000 -9.2198 0.0000
# 2 29.3213 66.9709 37.2307 0.0000 -1.1336 0.0000
# 3 52.8863 37.2307 101.3283 0.0000 -6.2224 0.0000
# 4 0.0000 0.0000 0.0000 26.6618 0.0000 -0.7588
# 5 -9.2198 -1.1336 -6.2224 0.0000 38.2022 0.0000
# 6 0.0000 0.0000 0.0000 -0.7588 0.0000 29.2790
#
#
#
# Elastic Compliance Matrix: (Units=1/GPa)
#
#
# Indices 1 2 3 4 5 6 
#
# 1 0.015293 -0.002892 -0.006765 0.000000 0.002503 0.000000
# 2 -0.002892 0.019324 -0.005655 0.000000 -0.001046 0.000000
# 3 -0.006765 -0.005655 0.015522 0.000000 0.000728 0.000000
# 4 0.000000 0.000000 0.000000 0.037535 0.000000 0.000973
# 5 0.002503 -0.001046 0.000728 0.000000 0.026868 0.000000
# 6 0.000000 0.000000 0.000000 0.000973 0.000000 0.034179
#
#
# Mechanical properties :
#
#
# Convention : Reuss Voigt Hill
#
# Bulk Modulus (GPa) = 51.24413 55.89080 53.56747
# Shear Modulus (GPa) = 26.90330 28.47541 27.68936
#
# Velocity S-wave (km/s) = 3.64600 3.75101 3.69888
# Velocity P-wave (km/s) = 6.56085 6.81003 6.68660
#
# Compressibility (1/GPa) = 0.01951443
#
# Stress axis : x y z
#
# Youngs Moduli (GPa) = 65.39075 51.74891 64.42289
#
# Poissons Ratio (x) = 0.14966 0.43585
# Poissons Ratio (y) = 0.18911 0.36431
# Poissons Ratio (z) = 0.44239 0.29264
#
# Static dielectric constant tensor:
#      x y z
#    x 3.855240 0.000000 -0.216280 
#    y 0.000000 3.556680 0.000000 
#    z -0.216280 0.000000 4.000950 
# 
# 
# High freq. dielectric constant tensor:
#      x y z
#    x 1.793120 0.000000 -0.007300 
#    y 0.000000 1.780000 0.000000 
#    z -0.007300 0.000000 1.802150 
# 
# From -- ./inp_files/54606.got.cif
#   From: 2010.06.25/outbox.cif.g09.slc.cpg/sg11_28_cif.got.tgz:54606.got - 2010.06.27 23:14:04.
