data_PCOD8073206
_publ_section_title
;
Structure prediction by ZEFSAII (Michael W. Deem and Ramdas Pophale) SiO2 
 PCOD8073206
Probable space group: P 21/M
;
_chemical_formula_sum "Si O2"
_cell_formula_units_Z 32
_cell_length_a 21.505713
_cell_length_b 8.711711
_cell_length_c 11.886518
_cell_angle_alpha 90.000000
_cell_angle_beta 128.484016
_cell_angle_gamma 90.000000
_cell_volume 1743.221898
_symmetry_space_group_name_H-M "P 21/M"
_symmetry_group_IT_number 11
_symmetry_cell_setting 'monoclinic'
loop_
_space_group_symop_operation_xyz
x,y,z
-x,1/2+y,-z
-x,-y,-z
x,1/2-y,z
loop_
_atom_site_type_symbol
_atom_site_label
_atom_site_fract_x
_atom_site_fract_y
_atom_site_fract_z
Si Si1 0.230705 0.069101 0.877575
Si Si2 0.851978 0.927350 0.793614
Si Si3 0.401966 0.069575 0.997072
Si Si4 0.960202 0.428604 0.731702
Si Si5 0.830510 0.426784 0.408629
Si Si6 0.724653 0.573808 0.470932
Si Si7 0.441389 0.427715 0.792169
Si Si8 0.126744 0.929469 0.945147
O O1 0.228424 0.250000 0.897019
O O2 0.174713 0.030267 0.708298
O O3 0.201178 0.981423 0.954619
O O4 0.319730 0.005617 0.954994
O O5 0.862881 0.750000 0.840318
O O6 0.767239 0.956448 0.637782
O O7 0.923652 0.972660 0.791987
O O8 0.853751 0.033271 0.904220
O O9 0.397370 0.250000 0.995301
O O10 0.478139 0.013766 0.155517
O O11 0.411990 0.010258 0.880580
O O12 0.954191 0.250000 0.757331
O O13 0.914064 0.462650 0.563713
O O14 0.050481 0.477823 0.815437
O O15 0.823915 0.250000 0.365590
O O16 0.759741 0.464775 0.414831
O O17 0.738099 0.750000 0.446809
O O18 0.630268 0.540147 0.376610
O O19 0.462853 0.250000 0.823447
O O20 0.110946 0.750000 0.913758
#
# Coordination Sequence:
#
# PCOD8073206 Si02
#       8
#     4   4   4   4   4   4   4   4
#     4  11  22  38  56  74 107 146 180 216 260 319
#     4  10  20  36  59  82 106 138 177 222 269 310
#     4   9  18  31  49  76 108 141 172 209 256 309
#     4  10  21  38  58  81 108 137 174 221 268 313
#     4  10  20  33  53  81 109 138 174 216 264 313
#     4   9  17  32  54  80 109 141 175 214 262 314
#     4   9  16  29  50  79 110 138 171 210 255 307
#     4  12  25  39  55  77 104 138 182 223 266 317
#
# _framework density 18.356814
#
# number of rings (size 3 to 8) (size 9 to 14) (size 15 to 20)
#    0.000    2.000    1.250    3.000    0.000    4.000 
#    0.000    0.000    0.000    0.750    0.000    0.000 
#    0.000    0.000    0.000    0.000    0.000    0.000 
#
# Total GULP energy -396846.445941 kJ/mol
# GULP energy per Si atom -12401.451436 kJ/mol
# Density = 1.831503 g / cm^3
# Si number density = 18.356814 Si / 1000 Ang^3
#
#
#
# Elastic Constant Matrix: (Units=GPa)
#
#
# Indices 1 2 3 4 5 6 
#
# 1 89.6415 18.2266 43.7435 0.0000 16.6283 0.0000
# 2 18.2266 42.4486 21.4437 0.0000 4.0017 0.0000
# 3 43.7435 21.4437 70.3333 0.0000 24.9333 0.0000
# 4 0.0000 0.0000 0.0000 28.8205 0.0000 -0.5661
# 5 16.6283 4.0017 24.9333 0.0000 25.2909 0.0000
# 6 0.0000 0.0000 0.0000 -0.5661 0.0000 28.0857
#
#
#
# Elastic Compliance Matrix: (Units=1/GPa)
#
#
# Indices 1 2 3 4 5 6 
#
# 1 0.016232 -0.002373 -0.008795 0.000000 -0.001625 0.000000
# 2 -0.002373 0.028818 -0.009603 0.000000 0.006468 0.000000
# 3 -0.008795 -0.009603 0.030787 0.000000 -0.023050 0.000000
# 4 0.000000 0.000000 0.000000 0.034711 0.000000 0.000700
# 5 -0.001625 0.006468 -0.023050 0.000000 0.062309 0.000000
# 6 0.000000 0.000000 0.000000 0.000700 0.000000 0.035619
#
#
# Mechanical properties :
#
#
# Convention : Reuss Voigt Hill
#
# Bulk Modulus (GPa) = 29.15986 41.02787 35.09387
# Shear Modulus (GPa) = 19.12396 24.37341 21.74868
#
# Velocity S-wave (km/s) = 3.23118 3.64779 3.44579
# Velocity P-wave (km/s) = 5.46262 6.33566 5.91527
#
# Compressibility (1/GPa) = 0.03429372
#
# Stress axis : x y z
#
# Youngs Moduli (GPa) = 61.60832 34.70005 32.48080
#
# Poissons Ratio (x) = 0.08235 0.28568
# Poissons Ratio (y) = 0.14620 0.31192
# Poissons Ratio (z) = 0.54187 0.33324
#
# Static dielectric constant tensor:
#      x y z
#    x 3.244600 0.000000 0.233230 
#    y 0.000000 3.371170 0.000000 
#    z 0.233230 0.000000 3.506630 
# 
# 
# High freq. dielectric constant tensor:
#      x y z
#    x 1.686060 0.000000 0.020640 
#    y 0.000000 1.716440 0.000000 
#    z 0.020640 0.000000 1.711790 
# 
# From -- ./inp_files/42905.got.cif
#   From: 2010.06.25/outbox.cif.g09.slc.cpg/sg11_22_cif.got.tgz:42905.got - 2010.06.27 23:14:04.
