data_PCOD8073515
_publ_section_title
;
Structure prediction by ZEFSAII (Michael W. Deem and Ramdas Pophale) SiO2 
 PCOD8073515
Probable space group: P 21/M
;
_chemical_formula_sum "Si O2"
_cell_formula_units_Z 32
_cell_length_a 15.770608
_cell_length_b 8.818821
_cell_length_c 25.603726
_cell_angle_alpha 90.000000
_cell_angle_beta 29.216557
_cell_angle_gamma 90.000000
_cell_volume 1738.127068
_symmetry_space_group_name_H-M "P 21/M"
_symmetry_group_IT_number 11
_symmetry_cell_setting 'monoclinic'
loop_
_space_group_symop_operation_xyz
x,y,z
-x,1/2+y,-z
-x,-y,-z
x,1/2-y,z
loop_
_atom_site_type_symbol
_atom_site_label
_atom_site_fract_x
_atom_site_fract_y
_atom_site_fract_z
Si Si1 0.166102 0.425213 0.849547
Si Si2 0.337938 0.074565 0.649411
Si Si3 0.480270 0.927822 0.165342
Si Si4 0.604445 0.929518 0.896632
Si Si5 0.232433 0.924624 0.919867
Si Si6 0.735099 0.075164 0.416765
Si Si7 0.101522 0.925681 0.398684
Si Si8 0.036666 0.928398 0.317590
O O1 0.207265 0.250000 0.839644
O O2 0.254480 0.478688 0.748517
O O3 0.247613 0.526046 0.851528
O O4 0.960946 0.452772 0.954970
O O5 0.296626 0.250000 0.659868
O O6 0.543155 0.045586 0.542048
O O7 0.251659 0.974383 0.650571
O O8 0.484095 0.750000 0.150389
O O9 0.304697 0.970879 0.290963
O O10 0.486632 0.017627 0.107752
O O11 0.643437 0.972208 0.112348
O O12 0.598479 0.750000 0.903325
O O13 0.802461 0.985028 0.794851
O O14 0.500000 0.000000 0.000000
O O15 0.288016 0.750000 0.894815
O O16 0.789400 0.250000 0.392195
O O17 0.860651 0.972801 0.383672
O O18 0.077074 0.750000 0.419986
O O19 0.020278 0.976856 0.386999
O O20 0.000000 0.000000 0.500000
O O21 0.071797 0.750000 0.293615
#
# Coordination Sequence:
#
# PCOD8073515 Si02
#       8
#     4   4   4   4   4   4   4   4
#     4   9  19  36  55  76 105 140 177 218 266 317
#     4   9  19  36  55  75 105 143 179 220 270 323
#     4  10  21  38  56  78 110 145 180 220 268 319
#     4  11  22  38  59  83 110 141 179 222 267 317
#     4  10  20  34  54  80 107 138 178 222 268 316
#     4  10  20  34  54  80 106 137 179 223 269 320
#     4   9  20  36  55  78 105 139 177 220 268 317
#     4  10  21  38  56  78 110 145 179 219 269 321
#
# _framework density 18.410622
#
# number of rings (size 3 to 8) (size 9 to 14) (size 15 to 20)
#    0.000    2.250    0.000    3.375    0.000    6.500 
#    0.000    7.500    0.000    0.000    0.000    0.000 
#    0.000    0.000    0.000    0.000    0.000    0.000 
#
# Total GULP energy -396908.067453 kJ/mol
# GULP energy per Si atom -12403.377108 kJ/mol
# Density = 1.836872 g / cm^3
# Si number density = 18.410622 Si / 1000 Ang^3
#
#
#
# Elastic Constant Matrix: (Units=GPa)
#
#
# Indices 1 2 3 4 5 6 
#
# 1 102.7329 46.8488 69.4421 0.0000 -3.0023 0.0000
# 2 46.8488 95.5595 51.8801 0.0000 5.2348 0.0000
# 3 69.4421 51.8801 123.0777 0.0000 27.4872 0.0000
# 4 0.0000 0.0000 0.0000 31.9863 0.0000 0.4404
# 5 -3.0023 5.2348 27.4872 0.0000 29.8882 0.0000
# 6 0.0000 0.0000 0.0000 0.4404 0.0000 37.9127
#
#
#
# Elastic Compliance Matrix: (Units=1/GPa)
#
#
# Indices 1 2 3 4 5 6 
#
# 1 0.021317 -0.003739 -0.013939 0.000000 0.015615 0.000000
# 2 -0.003739 0.014546 -0.004240 0.000000 0.000976 0.000000
# 3 -0.013939 -0.004240 0.022557 0.000000 -0.021402 0.000000
# 4 0.000000 0.000000 0.000000 0.031268 0.000000 -0.000363
# 5 0.015615 0.000976 -0.021402 0.000000 0.054538 0.000000
# 6 0.000000 0.000000 0.000000 -0.000363 0.000000 0.026381
#
#
# Mechanical properties :
#
#
# Convention : Reuss Voigt Hill
#
# Bulk Modulus (GPa) = 68.56649 73.07910 70.82280
# Shear Modulus (GPa) = 22.79935 30.17072 26.48504
#
# Velocity S-wave (km/s) = 3.52288 4.05256 3.79697
# Velocity P-wave (km/s) = 7.33971 7.85352 7.60096
#
# Compressibility (1/GPa) = 0.01458438
#
# Stress axis : x y z
#
# Youngs Moduli (GPa) = 46.91019 68.74663 44.33306
#
# Poissons Ratio (x) = 0.25703 0.61796
# Poissons Ratio (y) = 0.17539 0.18797
# Poissons Ratio (z) = 0.65388 0.29149
#
# Static dielectric constant tensor:
#      x y z
#    x 3.239620 0.000000 -0.091930 
#    y 0.000000 3.385300 0.000000 
#    z -0.091930 0.000000 3.133650 
# 
# 
# High freq. dielectric constant tensor:
#      x y z
#    x 1.717040 0.000000 0.001870 
#    y 0.000000 1.722490 0.000000 
#    z 0.001870 0.000000 1.715390 
# 
# From -- ./inp_files/69023.got.cif
#   From: 2010.06.25/outbox.cif.g09.slc.cpg/sg11_35_cif.got.tgz:69023.got - 2010.06.27 23:14:04.
