data_PCOD8073653
_publ_section_title
;
Structure prediction by ZEFSAII (Michael W. Deem and Ramdas Pophale) SiO2 
 PCOD8073653
Probable space group: P 21/M
;
_chemical_formula_sum "Si O2"
_cell_formula_units_Z 32
_cell_length_a 31.495119
_cell_length_b 8.721137
_cell_length_c 12.135266
_cell_angle_alpha 90.000000
_cell_angle_beta 150.283428
_cell_angle_gamma 90.000000
_cell_volume 1652.316516
_symmetry_space_group_name_H-M "P 21/M"
_symmetry_group_IT_number 11
_symmetry_cell_setting 'monoclinic'
loop_
_space_group_symop_operation_xyz
x,y,z
-x,1/2+y,-z
-x,-y,-z
x,1/2-y,z
loop_
_atom_site_type_symbol
_atom_site_label
_atom_site_fract_x
_atom_site_fract_y
_atom_site_fract_z
Si Si1 0.738949 0.069327 0.660837
Si Si2 0.521231 0.067775 0.430432
Si Si3 0.891748 0.430554 0.849395
Si Si4 0.916425 0.930163 0.677635
Si Si5 0.779396 0.431639 0.223643
Si Si6 0.405940 0.431518 0.803777
Si Si7 0.713491 0.070470 0.845519
Si Si8 0.372864 0.568114 0.958013
O O1 0.721390 0.250000 0.607255
O O2 0.820944 0.014107 0.776557
O O3 0.760418 0.028623 0.836778
O O4 0.653848 0.979389 0.433077
O O5 0.510468 0.250000 0.406773
O O6 0.616521 0.012481 0.616958
O O7 0.500000 0.000000 0.500000
O O8 0.461981 0.995018 0.204066
O O9 0.888165 0.250000 0.822250
O O10 0.871574 0.508842 0.687434
O O11 0.984510 0.482655 0.103370
O O12 0.907437 0.750000 0.654152
O O13 0.869457 0.999812 0.465886
O O14 0.786892 0.250000 0.240278
O O15 0.703693 0.485642 0.134668
O O16 0.760925 0.500134 0.059634
O O17 0.413768 0.250000 0.829258
O O18 0.359070 0.497759 0.806382
O O19 0.500000 0.500000 0.000000
O O20 0.711352 0.250000 0.861778
O O21 0.376831 0.750000 0.957833
#
# Coordination Sequence:
#
# PCOD8073653 Si02
#       8
#     4   4   4   4   4   4   4   4
#     4  10  20  38  62  82 108 148 190 232 279 333
#     4  11  20  34  54  79 110 147 190 233 278 332
#     4   9  19  36  58  84 111 144 181 223 282 339
#     4  10  20  34  55  84 114 141 179 230 278 333
#     4  10  20  36  55  79 111 146 182 224 280 337
#     4  12  25  40  57  82 115 149 187 231 280 335
#     4   9  19  36  56  78 106 145 189 227 269 331
#     4  11  22  37  57  82 112 145 187 237 285 336
#
# _framework density 19.36675
#
# number of rings (size 3 to 8) (size 9 to 14) (size 15 to 20)
#    0.000    1.750    1.250    3.750    0.000    6.000 
#    0.000    1.875    0.000    0.000    0.000    0.000 
#    0.000    0.000    0.000    0.000    0.000    0.000 
#
# Total GULP energy -396866.312573 kJ/mol
# GULP energy per Si atom -12402.072268 kJ/mol
# Density = 1.932267 g / cm^3
# Si number density = 19.366750 Si / 1000 Ang^3
#
#
#
# Elastic Constant Matrix: (Units=GPa)
#
#
# Indices 1 2 3 4 5 6 
#
# 1 121.9358 31.7095 54.1360 0.0000 -3.9563 0.0000
# 2 31.7095 57.9590 28.9772 0.0000 -2.0229 0.0000
# 3 54.1360 28.9772 126.3044 0.0000 -12.1971 0.0000
# 4 0.0000 0.0000 0.0000 33.8584 0.0000 -4.0171
# 5 -3.9563 -2.0229 -12.1971 0.0000 32.4028 0.0000
# 6 0.0000 0.0000 0.0000 -4.0171 0.0000 23.1340
#
#
#
# Elastic Compliance Matrix: (Units=1/GPa)
#
#
# Indices 1 2 3 4 5 6 
#
# 1 0.010935 -0.004106 -0.003778 0.000000 -0.000343 0.000000
# 2 -0.004106 0.021038 -0.003101 0.000000 -0.000355 0.000000
# 3 -0.003778 -0.003101 0.010569 0.000000 0.003324 0.000000
# 4 0.000000 0.000000 0.000000 0.030156 0.000000 0.005236
# 5 -0.000343 -0.000355 0.003324 0.000000 0.032049 0.000000
# 6 0.000000 0.000000 0.000000 0.005236 0.000000 0.044136
#
#
# Mechanical properties :
#
#
# Convention : Reuss Voigt Hill
#
# Bulk Modulus (GPa) = 48.60932 59.53827 54.07379
# Shear Modulus (GPa) = 28.13584 30.63747 29.38666
#
# Velocity S-wave (km/s) = 3.81568 3.98170 3.89958
# Velocity P-wave (km/s) = 6.67581 7.20749 6.94674
#
# Compressibility (1/GPa) = 0.02057219
#
# Stress axis : x y z
#
# Youngs Moduli (GPa) = 91.44997 47.53340 94.61482
#
# Poissons Ratio (x) = 0.19515 0.35747
# Poissons Ratio (y) = 0.37546 0.29342
# Poissons Ratio (z) = 0.34551 0.14741
#
# Static dielectric constant tensor:
#      x y z
#    x 3.669430 0.000000 -0.084020 
#    y 0.000000 3.214800 0.000000 
#    z -0.084020 0.000000 3.461850 
# 
# 
# High freq. dielectric constant tensor:
#      x y z
#    x 1.754950 0.000000 -0.008110 
#    y 0.000000 1.741070 0.000000 
#    z -0.008110 0.000000 1.759110 
# 
# From -- ./inp_files/45336.got.cif
#   From: 2010.06.25/outbox.cif.g09.slc.cpg/sg11_23_cif.got.tgz:45336.got - 2010.06.27 23:14:04.
