data_PCOD8073910
_publ_section_title
;
Structure prediction by ZEFSAII (Michael W. Deem and Ramdas Pophale) SiO2 
 PCOD8073910
Probable space group: P 21/M
;
_chemical_formula_sum "Si O2"
_cell_formula_units_Z 32
_cell_length_a 12.715944
_cell_length_b 9.299177
_cell_length_c 32.988295
_cell_angle_alpha 90.000000
_cell_angle_beta 25.851961
_cell_angle_gamma 90.000000
_cell_volume 1700.931024
_symmetry_space_group_name_H-M "P 21/M"
_symmetry_group_IT_number 11
_symmetry_cell_setting 'monoclinic'
loop_
_space_group_symop_operation_xyz
x,y,z
-x,1/2+y,-z
-x,-y,-z
x,1/2-y,z
loop_
_atom_site_type_symbol
_atom_site_label
_atom_site_fract_x
_atom_site_fract_y
_atom_site_fract_z
Si Si1 0.588998 0.085607 0.812293
Si Si2 0.665915 0.088916 0.299711
Si Si3 0.860222 0.422205 0.011604
Si Si4 0.810212 0.594398 0.587939
Si Si5 0.595475 0.402883 0.720494
Si Si6 0.508528 0.581663 0.433635
Si Si7 0.143905 0.416357 0.612592
Si Si8 0.886074 0.907939 0.158565
O O1 0.564231 0.250000 0.836881
O O2 0.485374 0.069832 0.802731
O O3 0.867621 0.035557 0.716031
O O4 0.416670 0.977435 0.896602
O O5 0.748587 0.250000 0.284145
O O6 0.434484 0.102809 0.351889
O O7 0.601045 0.993122 0.360852
O O8 0.884877 0.015052 0.197841
O O9 0.872144 0.250000 0.013907
O O10 0.000000 0.500000 0.000000
O O11 0.968986 0.468896 0.930377
O O12 0.925361 0.750000 0.554370
O O13 0.773968 0.529452 0.645422
O O14 0.000000 0.500000 0.500000
O O15 0.739167 0.250000 0.671749
O O16 0.388633 0.389690 0.759279
O O17 0.462134 0.750000 0.441535
O O18 0.261289 0.509735 0.535659
O O19 0.717482 0.556259 0.393828
O O20 0.156809 0.250000 0.594872
O O21 0.986840 0.750000 0.136524
#
# Coordination Sequence:
#
# PCOD8073910 Si02
#       8
#     4   4   4   4   4   4   4   4
#     4  10  20  35  54  78 108 143 177 219 270 317
#     4  10  21  35  53  76 101 136 177 219 266 317
#     4  11  21  34  54  80 111 147 183 220 265 316
#     4  10  21  33  45  67  99 135 174 213 257 310
#     4   9  17  31  48  68 100 138 172 207 254 304
#     4  10  20  36  58  82 107 140 179 223 273 323
#     4   9  20  37  57  81 110 141 178 223 271 322
#     4   9  18  34  52  74 104 138 176 214 255 307
#
# _framework density 18.813226
#
# number of rings (size 3 to 8) (size 9 to 14) (size 15 to 20)
#    0.000    2.250    1.250    1.500    1.750    4.000 
#    0.000    0.000    0.000    0.750    0.000    0.000 
#    0.000    0.000    0.000    0.000    0.000    0.000 
#
# Total GULP energy -396541.912983 kJ/mol
# GULP energy per Si atom -12391.934781 kJ/mol
# Density = 1.877041 g / cm^3
# Si number density = 18.813226 Si / 1000 Ang^3
#
#
#
# Elastic Constant Matrix: (Units=GPa)
#
#
# Indices 1 2 3 4 5 6 
#
# 1 38.1822 30.5888 31.9509 0.0000 9.4550 0.0000
# 2 30.5888 140.8399 82.8931 0.0000 20.6286 0.0000
# 3 31.9509 82.8931 137.3980 0.0000 20.5406 0.0000
# 4 0.0000 0.0000 0.0000 37.4307 0.0000 4.9452
# 5 9.4550 20.6286 20.5406 0.0000 28.7770 0.0000
# 6 0.0000 0.0000 0.0000 4.9452 0.0000 22.5580
#
#
#
# Elastic Compliance Matrix: (Units=1/GPa)
#
#
# Indices 1 2 3 4 5 6 
#
# 1 0.034712 -0.003863 -0.004982 0.000000 -0.005080 0.000000
# 2 -0.003863 0.011769 -0.005743 0.000000 -0.003068 0.000000
# 3 -0.004982 -0.005743 0.012360 0.000000 -0.003069 0.000000
# 4 0.000000 0.000000 0.000000 0.027513 0.000000 -0.006031
# 5 -0.005080 -0.003068 -0.003069 0.000000 0.040809 0.000000
# 6 0.000000 0.000000 0.000000 -0.006031 0.000000 0.045652
#
#
# Mechanical properties :
#
#
# Convention : Reuss Voigt Hill
#
# Bulk Modulus (GPa) = 33.71016 67.47619 50.59317
# Shear Modulus (GPa) = 23.59834 29.15229 26.37532
#
# Velocity S-wave (km/s) = 3.54552 3.94072 3.74833
# Velocity P-wave (km/s) = 5.89221 7.52661 6.75900
#
# Compressibility (1/GPa) = 0.02966465
#
# Stress axis : x y z
#
# Youngs Moduli (GPa) = 28.80873 84.97009 80.90312
#
# Poissons Ratio (x) = 0.32821 0.40307
# Poissons Ratio (y) = 0.11128 0.46466
# Poissons Ratio (z) = 0.14353 0.48802
#
# Static dielectric constant tensor:
#      x y z
#    x 3.245200 0.000000 0.081240 
#    y 0.000000 3.828030 0.000000 
#    z 0.081240 0.000000 3.575140 
# 
# 
# High freq. dielectric constant tensor:
#      x y z
#    x 1.697700 0.000000 0.016010 
#    y 0.000000 1.741280 0.000000 
#    z 0.016010 0.000000 1.728510 
# 
# From -- ./inp_files/56481.got.cif
#   From: 2010.06.25/outbox.cif.g09.slc.cpg/sg11_29_cif.got.tgz:56481.got - 2010.06.27 23:14:04.
