data_PCOD8073055
_publ_section_title
;
Structure prediction by ZEFSAII (Michael W. Deem and Ramdas Pophale) SiO2 
 PCOD8073055
Probable space group: P 21/M
;
_chemical_formula_sum "Si O2"
_cell_formula_units_Z 28
_cell_length_a 9.664947
_cell_length_b 8.974633
_cell_length_c 26.734063
_cell_angle_alpha 90.000000
_cell_angle_beta 141.120990
_cell_angle_gamma 90.000000
_cell_volume 1455.519362
_symmetry_space_group_name_H-M "P 21/M"
_symmetry_group_IT_number 11
_symmetry_cell_setting 'monoclinic'
loop_
_space_group_symop_operation_xyz
x,y,z
-x,1/2+y,-z
-x,-y,-z
x,1/2-y,z
loop_
_atom_site_type_symbol
_atom_site_label
_atom_site_fract_x
_atom_site_fract_y
_atom_site_fract_z
Si Si1 0.886621 0.922867 0.230675
Si Si2 0.333441 0.425915 0.729806
Si Si3 0.249832 0.082614 0.182372
Si Si4 0.858924 0.420519 0.001893
Si Si5 0.798605 0.577365 0.416868
Si Si6 0.545880 0.427810 0.066530
Si Si7 0.681557 0.419829 0.698775
O O1 0.820513 0.750000 0.205048
O O2 0.814173 0.981395 0.265059
O O3 0.153169 0.943432 0.301605
O O4 0.775868 0.017678 0.155004
O O5 0.351849 0.250000 0.734549
O O6 0.580789 0.489546 0.804610
O O7 0.229310 0.482486 0.647965
O O8 0.340387 0.250000 0.208435
O O9 0.001520 0.075559 0.092464
O O10 0.232137 0.022924 0.233026
O O11 0.800075 0.250000 0.970522
O O12 0.639061 0.515903 0.947008
O O13 0.000000 0.500000 0.000000
O O14 0.854246 0.750000 0.431644
O O15 0.574387 0.542897 0.385473
O O16 0.000000 0.500000 0.500000
O O17 0.544221 0.250000 0.060961
O O18 0.500000 0.500000 0.000000
O O19 0.692427 0.250000 0.721376
#
# Coordination Sequence:
#
# PCOD8073055 Si02
#       7
#     4   4   4   4   4   4   4
#     4  10  20  37  59  80 105 140 181 227 276 326
#     4   9  19  35  56  80 107 140 177 217 267 324
#     4  10  20  33  51  75 102 134 177 223 264 311
#     4  11  23  37  53  77 107 141 183 232 282 330
#     4   9  18  34  55  81 110 140 174 212 256 314
#     4  12  25  39  55  78 110 148 189 234 281 331
#     4   9  19  35  56  79 103 135 174 213 261 320
#
# _framework density 19.237117999999999
#
# number of rings (size 3 to 8) (size 9 to 14) (size 15 to 20)
#    0.000    2.000    0.000    4.714    0.000   10.286 
#    0.000    0.714    0.000    0.000    0.000    0.000 
#    0.000    0.000    0.000    0.000    0.000    0.000 
#
# Total GULP energy -347149.126506 kJ/mol
# GULP energy per Si atom -12398.183089 kJ/mol
# Density = 1.919333 g / cm^3
# Si number density = 19.237118 Si / 1000 Ang^3
#
#
#
# Elastic Constant Matrix: (Units=GPa)
#
#
# Indices 1 2 3 4 5 6 
#
# 1 117.0587 22.6225 33.0814 0.0000 16.0535 0.0000
# 2 22.6225 73.1268 32.4775 0.0000 3.3644 0.0000
# 3 33.0814 32.4775 88.3507 0.0000 14.9773 0.0000
# 4 0.0000 0.0000 0.0000 32.3843 0.0000 1.5800
# 5 16.0535 3.3644 14.9773 0.0000 24.8216 0.0000
# 6 0.0000 0.0000 0.0000 1.5800 0.0000 24.1371
#
#
#
# Elastic Compliance Matrix: (Units=1/GPa)
#
#
# Indices 1 2 3 4 5 6 
#
# 1 0.010244 -0.001926 -0.002282 0.000000 -0.004987 0.000000
# 2 -0.001926 0.016760 -0.005866 0.000000 0.002513 0.000000
# 3 -0.002282 -0.005866 0.015533 0.000000 -0.007102 0.000000
# 4 0.000000 0.000000 0.000000 0.030978 0.000000 -0.002028
# 5 -0.004987 0.002513 -0.007102 0.000000 0.047457 0.000000
# 6 0.000000 0.000000 0.000000 -0.002028 0.000000 0.041563
#
#
# Mechanical properties :
#
#
# Convention : Reuss Voigt Hill
#
# Bulk Modulus (GPa) = 44.66470 50.54430 47.60450
# Shear Modulus (GPa) = 26.29545 28.95891 27.62718
#
# Velocity S-wave (km/s) = 3.70119 3.88411 3.79375
# Velocity P-wave (km/s) = 6.44464 6.81517 6.63249
#
# Compressibility (1/GPa) = 0.02238905
#
# Stress axis : x y z
#
# Youngs Moduli (GPa) = 97.61966 59.66487 64.37807
#
# Poissons Ratio (x) = 0.11491 0.14692
# Poissons Ratio (y) = 0.18801 0.37764
# Poissons Ratio (z) = 0.22279 0.34999
#
# Static dielectric constant tensor:
#      x y z
#    x 3.103490 0.000000 -0.476730 
#    y 0.000000 3.545790 0.000000 
#    z -0.476730 0.000000 2.921020 
# 
# 
# High freq. dielectric constant tensor:
#      x y z
#    x 1.757060 0.000000 0.013190 
#    y 0.000000 1.747000 0.000000 
#    z 0.013190 0.000000 1.728440 
# 
# From -- ./inp_files/28289.got.cif
#   From: 2010.06.25/outbox.cif.g09.slc.cpg/sg11_15_cif.got.tgz:28289.got - 2010.06.27 23:14:04.
