data_PCOD8073852
_publ_section_title
;
Structure prediction by ZEFSAII (Michael W. Deem and Ramdas Pophale) SiO2 
 PCOD8073852
Probable space group: P 21/M
;
_chemical_formula_sum "Si O2"
_cell_formula_units_Z 28
_cell_length_a 10.086493
_cell_length_b 9.093481
_cell_length_c 30.737550
_cell_angle_alpha 90.000000
_cell_angle_beta 145.122555
_cell_angle_gamma 90.000000
_cell_volume 1612.134230
_symmetry_space_group_name_H-M "P 21/M"
_symmetry_group_IT_number 11
_symmetry_cell_setting 'monoclinic'
loop_
_space_group_symop_operation_xyz
x,y,z
-x,1/2+y,-z
-x,-y,-z
x,1/2-y,z
loop_
_atom_site_type_symbol
_atom_site_label
_atom_site_fract_x
_atom_site_fract_y
_atom_site_fract_z
Si Si1 0.004487 0.422705 0.547263
Si Si2 0.635747 0.918648 0.000003
Si Si3 0.174285 0.920665 0.723300
Si Si4 0.731834 0.922709 0.547266
Si Si5 0.946672 0.422717 0.835110
Si Si6 0.771078 0.077281 0.164882
Si Si7 0.442227 0.420661 0.723299
O O1 0.948757 0.250000 0.528134
O O2 0.256406 0.451046 0.635580
O O3 0.000000 0.500000 0.500000
O O4 0.808513 0.500002 0.523405
O O5 0.597738 0.750000 0.999994
O O6 0.504666 0.956821 0.919287
O O7 0.908246 0.956807 0.080724
O O8 0.500000 0.000000 0.000000
O O9 0.237372 0.750000 0.739913
O O10 0.177067 0.983905 0.773044
O O11 0.921504 0.951067 0.635582
O O12 0.372005 0.999992 0.748797
O O13 0.691933 0.750000 0.528144
O O14 0.500000 0.000000 0.500000
O O15 0.940854 0.250000 0.823374
O O16 0.688153 0.483898 0.773031
O O17 0.058560 0.500006 0.823420
O O18 0.823928 0.250000 0.176619
O O19 0.462221 0.250000 0.739923
#
# Coordination Sequence:
#
# PCOD8073852 Si02
#       7
#     4   4   4   4   4   4   4
#     4  10  20  35  53  73  97 127 161 199 241 287
#     4   8  14  26  45  66  92 122 152 190 233 272
#     4   9  19  34  50  69  96 127 158 191 233 281
#     4  10  20  35  53  73  97 127 161 199 241 287
#     4   9  17  30  48  71  95 122 157 195 233 276
#     4   9  17  30  48  71  95 122 157 195 233 276
#     4   9  19  34  50  69  96 127 158 191 233 281
#
# _framework density 17.368279999999999
#
# number of rings (size 3 to 8) (size 9 to 14) (size 15 to 20)
#    0.000    2.857    0.000    0.857    0.000    3.429 
#    0.000    3.571    0.000    0.000    0.000    0.000 
#    0.000    0.000    0.000    0.000    0.000    0.000 
#
# Total GULP energy -346972.732057 kJ/mol
# GULP energy per Si atom -12391.883288 kJ/mol
# Density = 1.732875 g / cm^3
# Si number density = 17.368280 Si / 1000 Ang^3
#
#
#
# Elastic Constant Matrix: (Units=GPa)
#
#
# Indices 1 2 3 4 5 6 
#
# 1 141.5492 57.8173 93.6635 0.0000 -0.2181 0.0000
# 2 57.8173 63.7066 50.0333 0.0000 0.1015 0.0000
# 3 93.6635 50.0333 108.8764 0.0000 0.6488 0.0000
# 4 0.0000 0.0000 0.0000 21.7703 0.0000 0.1394
# 5 -0.2181 0.1015 0.6488 0.0000 31.5276 0.0000
# 6 0.0000 0.0000 0.0000 0.1394 0.0000 31.8787
#
#
#
# Elastic Compliance Matrix: (Units=1/GPa)
#
#
# Indices 1 2 3 4 5 6 
#
# 1 0.017987 -0.006525 -0.012478 0.000000 0.000402 0.000000
# 2 -0.006525 0.026930 -0.006762 0.000000 0.000007 0.000000
# 3 -0.012478 -0.006762 0.023029 0.000000 -0.000538 0.000000
# 4 0.000000 0.000000 0.000000 0.045935 0.000000 -0.000201
# 5 0.000402 0.000007 -0.000538 0.000000 0.031732 0.000000
# 6 0.000000 0.000000 0.000000 -0.000201 0.000000 0.031370
#
#
# Mechanical properties :
#
#
# Convention : Reuss Voigt Hill
#
# Bulk Modulus (GPa) = 60.91348 79.68448 70.29898
# Shear Modulus (GPa) = 21.36893 24.54320 22.95606
#
# Velocity S-wave (km/s) = 3.51143 3.76321 3.63950
# Velocity P-wave (km/s) = 7.18248 8.05365 7.63050
#
# Compressibility (1/GPa) = 0.01641673
#
# Stress axis : x y z
#
# Youngs Moduli (GPa) = 55.59537 37.13396 43.42304
#
# Poissons Ratio (x) = 0.24232 0.54181
# Poissons Ratio (y) = 0.36279 0.29361
# Poissons Ratio (z) = 0.69369 0.25109
#
# Static dielectric constant tensor:
#      x y z
#    x 3.080680 0.000000 -0.011570 
#    y 0.000000 3.235720 0.000000 
#    z -0.011570 0.000000 3.921180 
# 
# 
# High freq. dielectric constant tensor:
#      x y z
#    x 1.651730 0.000000 -0.000440 
#    y 0.000000 1.672980 0.000000 
#    z -0.000440 0.000000 1.683830 
# 
# From -- ./inp_files/28970.got.cif
#   From: 2010.06.25/outbox.cif.g09.slc.cpg/sg11_15_cif.got.tgz:28970.got - 2010.06.27 23:14:04.
