data_PCOD8073197
_publ_section_title
;
Structure prediction by ZEFSAII (Michael W. Deem and Ramdas Pophale) SiO2 
 PCOD8073197
Probable space group: P 21/M
;
_chemical_formula_sum "Si O2"
_cell_formula_units_Z 28
_cell_length_a 15.262544
_cell_length_b 9.329163
_cell_length_c 20.778819
_cell_angle_alpha 90.000000
_cell_angle_beta 150.828896
_cell_angle_gamma 90.000000
_cell_volume 1442.092910
_symmetry_space_group_name_H-M "P 21/M"
_symmetry_group_IT_number 11
_symmetry_cell_setting 'monoclinic'
loop_
_space_group_symop_operation_xyz
x,y,z
-x,1/2+y,-z
-x,-y,-z
x,1/2-y,z
loop_
_atom_site_type_symbol
_atom_site_label
_atom_site_fract_x
_atom_site_fract_y
_atom_site_fract_z
Si Si1 0.064983 0.417203 0.478891
Si Si2 0.421176 0.415132 0.633989
Si Si3 0.549690 0.578419 0.597947
Si Si4 0.395780 0.084985 0.022419
Si Si5 0.690371 0.090731 0.914444
Si Si6 0.236856 0.914362 0.812727
Si Si7 0.934722 0.911942 0.897504
O O1 0.047910 0.250000 0.484277
O O2 0.265283 0.459140 0.584763
O O3 0.000000 0.500000 0.500000
O O4 0.938992 0.460303 0.338550
O O5 0.394141 0.250000 0.594354
O O6 0.418786 0.517689 0.570043
O O7 0.610868 0.436827 0.792092
O O8 0.500000 0.500000 0.500000
O O9 0.526261 0.750000 0.576130
O O10 0.753286 0.532772 0.747044
O O11 0.346031 0.250000 0.991248
O O12 0.245647 0.007006 0.883058
O O13 0.593346 0.053014 0.123163
O O14 0.392786 0.026597 0.092348
O O15 0.631762 0.250000 0.899842
O O16 0.905818 0.078394 0.052463
O O17 0.230927 0.750000 0.830490
O O18 0.904396 0.750000 0.902008
O O19 0.000000 0.000000 0.000000
#
# Coordination Sequence:
#
# PCOD8073197 Si02
#       7
#     4   4   4   4   4   4   4
#     4  10  21  36  57  84 114 151 190 233 287 346
#     4  10  21  38  60  85 115 152 194 240 292 352
#     4  11  24  41  62  88 120 159 199 244 300 357
#     4  10  20  33  53  80 107 142 187 232 276 330
#     4  10  20  35  57  83 112 144 181 230 287 342
#     4   9  19  36  53  73 109 148 183 228 280 331
#     4  10  21  38  61  86 112 147 189 234 287 344
#
# _framework density 19.416222999999999
#
# number of rings (size 3 to 8) (size 9 to 14) (size 15 to 20)
#    0.000    2.000    1.429    1.714    0.000    4.571 
#    0.000    5.714    0.000    0.000    0.000    0.000 
#    0.000    0.000    0.000    0.000    0.000    0.000 
#
# Total GULP energy -347226.252103 kJ/mol
# GULP energy per Si atom -12400.937575 kJ/mol
# Density = 1.937203 g / cm^3
# Si number density = 19.416223 Si / 1000 Ang^3
#
#
#
# Elastic Constant Matrix: (Units=GPa)
#
#
# Indices 1 2 3 4 5 6 
#
# 1 99.4317 59.1142 40.6923 0.0000 -13.1481 0.0000
# 2 59.1142 84.4257 44.6350 0.0000 -8.7019 0.0000
# 3 40.6923 44.6350 109.6481 0.0000 -2.0340 0.0000
# 4 0.0000 0.0000 0.0000 29.4907 0.0000 -8.2582
# 5 -13.1481 -8.7019 -2.0340 0.0000 23.2101 0.0000
# 6 0.0000 0.0000 0.0000 -8.2582 0.0000 40.5066
#
#
#
# Elastic Compliance Matrix: (Units=1/GPa)
#
#
# Indices 1 2 3 4 5 6 
#
# 1 0.018320 -0.011047 -0.002190 0.000000 0.006044 0.000000
# 2 -0.011047 0.022389 -0.004983 0.000000 0.001700 0.000000
# 3 -0.002190 -0.004983 0.011923 0.000000 -0.002064 0.000000
# 4 0.000000 0.000000 0.000000 0.035962 0.000000 0.007332
# 5 0.006044 0.001700 -0.002064 0.000000 0.046965 0.000000
# 6 0.000000 0.000000 0.000000 0.007332 0.000000 0.026182
#
#
# Mechanical properties :
#
#
# Convention : Reuss Voigt Hill
#
# Bulk Modulus (GPa) = 61.75490 64.70982 63.23236
# Shear Modulus (GPa) = 24.56052 28.57908 26.56980
#
# Velocity S-wave (km/s) = 3.56047 3.84072 3.70325
# Velocity P-wave (km/s) = 6.98409 7.28479 7.13602
#
# Compressibility (1/GPa) = 0.01619305
#
# Stress axis : x y z
#
# Youngs Moduli (GPa) = 54.58445 44.66428 83.87199
#
# Poissons Ratio (x) = 0.49340 0.18367
# Poissons Ratio (y) = 0.60299 0.41793
# Poissons Ratio (z) = 0.11954 0.22256
#
# Static dielectric constant tensor:
#      x y z
#    x 3.467560 0.000000 -0.002740 
#    y 0.000000 3.696860 0.000000 
#    z -0.002740 0.000000 3.800070 
# 
# 
# High freq. dielectric constant tensor:
#      x y z
#    x 1.749960 0.000000 0.001160 
#    y 0.000000 1.754190 0.000000 
#    z 0.001160 0.000000 1.761130 
# 
# From -- ./inp_files/54470.got.cif
#   From: 2010.06.25/outbox.cif.g09.slc.cpg/sg11_28_cif.got.tgz:54470.got - 2010.06.27 23:14:04.
