data_PCOD8073738
_publ_section_title
;
Structure prediction by ZEFSAII (Michael W. Deem and Ramdas Pophale) SiO2 
 PCOD8073738
Probable space group: P 21/M
;
_chemical_formula_sum "Si O2"
_cell_formula_units_Z 32
_cell_length_a 16.727666
_cell_length_b 17.424826
_cell_length_c 12.588793
_cell_angle_alpha 90.000000
_cell_angle_beta 25.910240
_cell_angle_gamma 90.000000
_cell_volume 1603.363932
_symmetry_space_group_name_H-M "P 21/M"
_symmetry_group_IT_number 11
_symmetry_cell_setting 'monoclinic'
loop_
_space_group_symop_operation_xyz
x,y,z
-x,1/2+y,-z
-x,-y,-z
x,1/2-y,z
loop_
_atom_site_type_symbol
_atom_site_label
_atom_site_fract_x
_atom_site_fract_y
_atom_site_fract_z
Si Si1 0.779258 0.583619 0.289387
Si Si2 0.821462 0.338149 0.899731
Si Si3 0.815500 0.095827 0.254985
Si Si4 0.771547 0.838162 0.513128
Si Si5 0.277152 0.841358 0.409810
Si Si6 0.941590 0.341597 0.533809
Si Si7 0.444376 0.659855 0.605734
Si Si8 0.668356 0.658914 0.865152
O O1 0.775269 0.492854 0.284192
O O2 0.709186 0.610349 0.488834
O O3 0.639976 0.617551 0.368101
O O4 0.980626 0.617396 0.026487
O O5 0.769282 0.250000 0.949535
O O6 0.832161 0.374283 0.768167
O O7 0.012983 0.347743 0.729823
O O8 0.667995 0.375445 0.159142
O O9 0.801881 0.116036 0.394524
O O10 0.666725 0.145119 0.369368
O O11 0.718854 0.750000 0.551965
O O12 0.669058 0.868829 0.741463
O O13 0.264620 0.750000 0.438478
O O14 0.154932 0.870822 0.457234
O O15 0.485550 0.869089 0.142150
O O16 0.939633 0.250000 0.541939
O O17 0.152051 0.371542 0.286592
O O18 0.477890 0.750000 0.575616
O O19 0.677053 0.750000 0.850995
#
# Coordination Sequence:
#
# PCOD8073738 Si02
#       8
#     4   4   4   4   4   4   4   4
#     4  11  24  40  60  82 114 164 198 233 293 350
#     4   8  15  29  54  86 116 137 172 244 298 322
#     4  11  25  43  55  80 124 162 194 234 287 352
#     4   9  16  32  59  87 113 140 189 248 291 334
#     4  10  20  34  57  81 111 152 190 230 281 346
#     4   8  15  29  50  81 113 141 176 225 287 338
#     4  11  22  37  63  91 111 142 197 253 294 336
#     4   8  16  30  52  83 113 142 180 239 295 331
#
# _framework density 19.958037999999998
#
# number of rings (size 3 to 8) (size 9 to 14) (size 15 to 20)
#    0.000    2.500    1.250    2.625    1.750    2.500 
#    0.000    1.875    0.000    1.500    0.000    0.000 
#    0.000    0.000    0.000    0.000    0.000    0.000 
#
# Total GULP energy -396708.439238 kJ/mol
# GULP energy per Si atom -12397.138726 kJ/mol
# Density = 1.991261 g / cm^3
# Si number density = 19.958038 Si / 1000 Ang^3
#
#
#
# Elastic Constant Matrix: (Units=GPa)
#
#
# Indices 1 2 3 4 5 6 
#
# 1 113.8188 7.6376 45.3117 0.0000 -1.3773 0.0000
# 2 7.6376 26.6687 21.8921 0.0000 -2.8902 0.0000
# 3 45.3117 21.8921 76.7430 0.0000 0.4560 0.0000
# 4 0.0000 0.0000 0.0000 14.7062 0.0000 -1.2432
# 5 -1.3773 -2.8902 0.4560 0.0000 31.0233 0.0000
# 6 0.0000 0.0000 0.0000 -1.2432 0.0000 1.3600
#
#
#
# Elastic Compliance Matrix: (Units=1/GPa)
#
#
# Indices 1 2 3 4 5 6 
#
# 1 0.011696 0.003166 -0.007814 0.000000 0.000929 0.000000
# 2 0.003166 0.050535 -0.016315 0.000000 0.005088 0.000000
# 3 -0.007814 -0.016315 0.022311 0.000000 -0.002195 0.000000
# 4 0.000000 0.000000 0.000000 0.073693 0.000000 0.067362
# 5 0.000929 0.005088 -0.002195 0.000000 0.032781 0.000000
# 6 0.000000 0.000000 0.000000 0.067362 0.000000 0.796847
#
#
# Mechanical properties :
#
#
# Convention : Reuss Voigt Hill
#
# Bulk Modulus (GPa) = 23.46604 40.76815 32.11710
# Shear Modulus (GPa) = 4.78929 18.91051 11.84990
#
# Velocity S-wave (km/s) = 1.55077 3.08151 2.43932
# Velocity P-wave (km/s) = 3.87166 5.75606 4.90520
#
# Compressibility (1/GPa) = 0.04261477
#
# Stress axis : x y z
#
# Youngs Moduli (GPa) = 85.50296 19.78825 44.82020
#
# Poissons Ratio (x) = -0.06264 0.35023
# Poissons Ratio (y) = -0.27067 0.73125
# Poissons Ratio (z) = 0.66812 0.32285
#
# Static dielectric constant tensor:
#      x y z
#    x 3.719320 0.000000 -0.040150 
#    y 0.000000 3.091650 0.000000 
#    z -0.040150 0.000000 3.870440 
# 
# 
# High freq. dielectric constant tensor:
#      x y z
#    x 1.786680 0.000000 -0.003480 
#    y 0.000000 1.726390 0.000000 
#    z -0.003480 0.000000 1.784810 
# 
# From -- ./inp_files/39979.got.cif
#   From: 2010.06.25/outbox.cif.g09.slc.cpg/sg11_20_cif.got.tgz:39979.got - 2010.06.27 23:14:04.
