data_PCOD8073768
_publ_section_title
;
Structure prediction by ZEFSAII (Michael W. Deem and Ramdas Pophale) SiO2 
 PCOD8073768
Probable space group: P 21/M
;
_chemical_formula_sum "Si O2"
_cell_formula_units_Z 32
_cell_length_a 19.222614
_cell_length_b 9.171794
_cell_length_c 11.129897
_cell_angle_alpha 90.000000
_cell_angle_beta 58.040508
_cell_angle_gamma 90.000000
_cell_volume 1664.830709
_symmetry_space_group_name_H-M "P 21/M"
_symmetry_group_IT_number 11
_symmetry_cell_setting 'monoclinic'
loop_
_space_group_symop_operation_xyz
x,y,z
-x,1/2+y,-z
-x,-y,-z
x,1/2-y,z
loop_
_atom_site_type_symbol
_atom_site_label
_atom_site_fract_x
_atom_site_fract_y
_atom_site_fract_z
Si Si1 0.613396 0.920221 0.312408
Si Si2 0.164637 0.413894 0.620907
Si Si3 0.762547 0.416918 0.075785
Si Si4 0.234569 0.579056 0.204158
Si Si5 0.464164 0.418062 0.364400
Si Si6 0.918081 0.915528 0.550282
Si Si7 0.085993 0.580674 0.907947
Si Si8 0.319851 0.419750 0.326164
O O1 0.615949 0.750000 0.286491
O O2 0.588575 0.960793 0.470551
O O3 0.547194 0.988705 0.280894
O O4 0.703464 0.983132 0.209109
O O5 0.170945 0.250000 0.668814
O O6 0.097386 0.417832 0.577555
O O7 0.137100 0.525462 0.747388
O O8 0.252399 0.463654 0.487784
O O9 0.739853 0.250000 0.123795
O O10 0.747809 0.454180 0.950489
O O11 0.857196 0.446508 0.026601
O O12 0.223703 0.750000 0.238839
O O13 0.152713 0.495637 0.313003
O O14 0.309379 0.516337 0.215883
O O15 0.490007 0.250000 0.346513
O O16 0.409853 0.450999 0.296493
O O17 0.924571 0.750000 0.591470
O O18 0.000000 0.000000 0.500000
O O19 0.066409 0.750000 0.908085
O O20 0.000000 0.500000 0.000000
O O21 0.307189 0.250000 0.304337
#
# Coordination Sequence:
#
# PCOD8073768 Si02
#       8
#     4   4   4   4   4   4   4   4
#     4  10  20  34  57  88 114 145 187 226 270 329
#     4   9  19  36  55  78 110 140 174 224 276 324
#     4  10  23  41  57  76 112 152 183 225 282 332
#     4  10  21  37  56  79 108 146 188 229 279 332
#     4   9  18  34  57  85 119 148 178 225 281 330
#     4  10  21  36  56  80 107 139 180 230 279 327
#     4  11  24  39  56  80 108 143 185 227 276 333
#     4   9  18  35  58  83 111 146 183 226 278 326
#
# _framework density 19.221173
#
# number of rings (size 3 to 8) (size 9 to 14) (size 15 to 20)
#    0.000    2.250    0.000    3.000    1.750    6.500 
#    0.000    0.625    0.000    0.000    0.000    0.000 
#    0.000    0.000    0.000    0.000    0.000    0.000 
#
# Total GULP energy -396866.288723 kJ/mol
# GULP energy per Si atom -12402.071523 kJ/mol
# Density = 1.917742 g / cm^3
# Si number density = 19.221173 Si / 1000 Ang^3
#
#
#
# Elastic Constant Matrix: (Units=GPa)
#
#
# Indices 1 2 3 4 5 6 
#
# 1 107.1159 51.6395 28.5342 0.0000 -5.4158 0.0000
# 2 51.6395 105.3643 41.7018 0.0000 0.6899 0.0000
# 3 28.5342 41.7018 56.1420 0.0000 2.6639 0.0000
# 4 0.0000 0.0000 0.0000 33.3205 0.0000 -2.6811
# 5 -5.4158 0.6899 2.6639 0.0000 22.0742 0.0000
# 6 0.0000 0.0000 0.0000 -2.6811 0.0000 36.7741
#
#
#
# Elastic Compliance Matrix: (Units=1/GPa)
#
#
# Indices 1 2 3 4 5 6 
#
# 1 0.012759 -0.005159 -0.002825 0.000000 0.003633 0.000000
# 2 -0.005159 0.015542 -0.008891 0.000000 -0.000679 0.000000
# 3 -0.002825 -0.008891 0.026020 0.000000 -0.003555 0.000000
# 4 0.000000 0.000000 0.000000 0.030189 0.000000 0.002201
# 5 0.003633 -0.000679 -0.003555 0.000000 0.046643 0.000000
# 6 0.000000 0.000000 0.000000 0.002201 0.000000 0.027353
#
#
# Mechanical properties :
#
#
# Convention : Reuss Voigt Hill
#
# Bulk Modulus (GPa) = 48.60832 56.93036 52.76934
# Shear Modulus (GPa) = 25.11120 28.21687 26.66404
#
# Velocity S-wave (km/s) = 3.61838 3.83562 3.72858
# Velocity P-wave (km/s) = 6.54223 7.02131 6.78600
#
# Compressibility (1/GPa) = 0.02057261
#
# Stress axis : x y z
#
# Youngs Moduli (GPa) = 78.37628 64.33972 38.43125
#
# Poissons Ratio (x) = 0.33192 0.10857
# Poissons Ratio (y) = 0.40433 0.34168
# Poissons Ratio (z) = 0.22143 0.57202
#
# Static dielectric constant tensor:
#      x y z
#    x 3.560490 0.000000 0.096110 
#    y 0.000000 3.601870 0.000000 
#    z 0.096110 0.000000 3.251980 
# 
# 
# High freq. dielectric constant tensor:
#      x y z
#    x 1.760410 0.000000 -0.000050 
#    y 0.000000 1.753630 0.000000 
#    z -0.000050 0.000000 1.725630 
# 
# From -- ./inp_files/42803.got.cif
#   From: 2010.06.25/outbox.cif.g09.slc.cpg/sg11_22_cif.got.tgz:42803.got - 2010.06.27 23:14:04.
