data_PCOD8073134
_publ_section_title
;
Structure prediction by ZEFSAII (Michael W. Deem and Ramdas Pophale) SiO2 
 PCOD8073134
Probable space group: P 21/M
;
_chemical_formula_sum "Si O2"
_cell_formula_units_Z 32
_cell_length_a 28.259645
_cell_length_b 9.178381
_cell_length_c 22.757653
_cell_angle_alpha 90.000000
_cell_angle_beta 17.217723
_cell_angle_gamma 90.000000
_cell_volume 1747.258415
_symmetry_space_group_name_H-M "P 21/M"
_symmetry_group_IT_number 11
_symmetry_cell_setting 'monoclinic'
loop_
_space_group_symop_operation_xyz
x,y,z
-x,1/2+y,-z
-x,-y,-z
x,1/2-y,z
loop_
_atom_site_type_symbol
_atom_site_label
_atom_site_fract_x
_atom_site_fract_y
_atom_site_fract_z
Si Si1 0.875919 0.585584 0.069703
Si Si2 0.008877 0.920463 0.174514
Si Si3 0.716215 0.580777 0.704093
Si Si4 0.336708 0.081369 0.464578
Si Si5 0.418536 0.419374 0.010080
Si Si6 0.652640 0.421881 0.020529
Si Si7 0.048883 0.577439 0.258503
Si Si8 0.231974 0.914266 0.696967
O O1 0.813529 0.750000 0.135598
O O2 0.756657 0.501247 0.255154
O O3 0.876375 0.505413 0.006472
O O4 0.051959 0.583900 0.887608
O O5 0.045873 0.750000 0.123832
O O6 0.822978 0.953090 0.382510
O O7 0.047888 0.981192 0.193007
O O8 0.692594 0.750000 0.715442
O O9 0.591879 0.490075 0.812990
O O10 0.892160 0.523226 0.479160
O O11 0.690853 0.553891 0.803153
O O12 0.345820 0.250000 0.471662
O O13 0.484841 0.034771 0.248722
O O14 0.345056 0.990477 0.514869
O O15 0.441823 0.250000 0.968959
O O16 0.328024 0.496104 0.063929
O O17 0.665613 0.250000 0.993849
O O18 0.794078 0.479836 0.894680
O O19 0.048473 0.750000 0.256919
O O20 0.292060 0.750000 0.636092
#
# Coordination Sequence:
#
# PCOD8073134 Si02
#       8
#     4   4   4   4   4   4   4   4
#     4   9  16  26  42  67  97 124 153 194 244 294
#     4   9  16  28  47  69  93 123 161 202 242 287
#     4   9  18  35  56  76 100 131 167 206 249 297
#     4   9  17  29  47  70  95 126 162 200 243 291
#     4  10  20  33  52  78 104 130 164 207 251 295
#     4  10  20  34  52  73 100 135 170 203 245 298
#     4   9  18  33  53  74  97 131 172 208 244 294
#     4   9  16  26  43  68  96 124 155 196 244 290
#
# _framework density 18.314405000000001
#
# number of rings (size 3 to 8) (size 9 to 14) (size 15 to 20)
#    0.000    2.750    0.000    1.875    0.000    6.500 
#    0.000    4.375    0.000    0.750    0.000    0.000 
#    0.000    0.000    0.000    0.000    0.000    0.000 
#
# Total GULP energy -396839.637077 kJ/mol
# GULP energy per Si atom -12401.238659 kJ/mol
# Density = 1.827272 g / cm^3
# Si number density = 18.314405 Si / 1000 Ang^3
#
#
#
# Elastic Constant Matrix: (Units=GPa)
#
#
# Indices 1 2 3 4 5 6 
#
# 1 142.8702 58.9939 67.8752 0.0000 16.4525 0.0000
# 2 58.9939 83.3064 38.5175 0.0000 12.2783 0.0000
# 3 67.8752 38.5175 49.5456 0.0000 12.4952 0.0000
# 4 0.0000 0.0000 0.0000 19.1647 0.0000 9.7023
# 5 16.4525 12.2783 12.4952 0.0000 23.7812 0.0000
# 6 0.0000 0.0000 0.0000 9.7023 0.0000 29.2107
#
#
#
# Elastic Compliance Matrix: (Units=1/GPa)
#
#
# Indices 1 2 3 4 5 6 
#
# 1 0.020361 -0.002422 -0.026253 0.000000 0.000958 0.000000
# 2 -0.002422 0.019141 -0.010942 0.000000 -0.002457 0.000000
# 3 -0.026253 -0.010942 0.067609 0.000000 -0.011711 0.000000
# 4 0.000000 0.000000 0.000000 0.062727 0.000000 -0.020835
# 5 0.000958 -0.002457 -0.011711 0.000000 0.048809 0.000000
# 6 0.000000 0.000000 0.000000 -0.020835 0.000000 0.041154
#
#
# Mechanical properties :
#
#
# Convention : Reuss Voigt Hill
#
# Bulk Modulus (GPa) = 35.87266 67.38838 51.63052
# Shear Modulus (GPa) = 14.35426 21.78703 18.07065
#
# Velocity S-wave (km/s) = 2.80262 3.45282 3.14457
# Velocity P-wave (km/s) = 5.48658 7.26437 6.43715
#
# Compressibility (1/GPa) = 0.02787638
#
# Stress axis : x y z
#
# Youngs Moduli (GPa) = 49.11242 52.24514 14.79092
#
# Poissons Ratio (x) = 0.12654 0.38830
# Poissons Ratio (y) = 0.11895 0.16185
# Poissons Ratio (z) = 1.28934 0.57169
#
# Static dielectric constant tensor:
#      x y z
#    x 3.378480 0.000000 0.194170 
#    y 0.000000 3.298180 0.000000 
#    z 0.194170 0.000000 3.289140 
# 
# 
# High freq. dielectric constant tensor:
#      x y z
#    x 1.703730 0.000000 0.025110 
#    y 0.000000 1.697700 0.000000 
#    z 0.025110 0.000000 1.695150 
# 
# From -- ./inp_files/66984.got.cif
#   From: 2010.06.25/outbox.cif.g09.slc.cpg/sg11_34_cif.got.tgz:66984.got - 2010.06.27 23:14:04.
