data_PCOD8073937
_publ_section_title
;
Structure prediction by ZEFSAII (Michael W. Deem and Ramdas Pophale) SiO2 
 PCOD8073937
Probable space group: P 21/M
;
_chemical_formula_sum "Si O2"
_cell_formula_units_Z 32
_cell_length_a 15.039271
_cell_length_b 9.030926
_cell_length_c 22.482835
_cell_angle_alpha 90.000000
_cell_angle_beta 32.387785
_cell_angle_gamma 90.000000
_cell_volume 1635.643453
_symmetry_space_group_name_H-M "P 21/M"
_symmetry_group_IT_number 11
_symmetry_cell_setting 'monoclinic'
loop_
_space_group_symop_operation_xyz
x,y,z
-x,1/2+y,-z
-x,-y,-z
x,1/2-y,z
loop_
_atom_site_type_symbol
_atom_site_label
_atom_site_fract_x
_atom_site_fract_y
_atom_site_fract_z
Si Si1 0.148677 0.424838 0.261744
Si Si2 0.493057 0.423467 0.122410
Si Si3 0.628858 0.581420 0.466668
Si Si4 0.620785 0.080134 0.298974
Si Si5 0.439216 0.421172 0.287858
Si Si6 0.116164 0.423839 0.767599
Si Si7 0.903072 0.074199 0.500930
Si Si8 0.187862 0.425682 0.106411
O O1 0.154351 0.250000 0.256917
O O2 0.316064 0.481307 0.198997
O O3 0.140065 0.484956 0.199294
O O4 0.989746 0.477646 0.390012
O O5 0.520962 0.250000 0.093803
O O6 0.504098 0.459465 0.185943
O O7 0.629376 0.518060 0.011251
O O8 0.500000 0.500000 0.500000
O O9 0.610850 0.750000 0.459060
O O10 0.568582 0.551449 0.568145
O O11 0.810654 0.533506 0.340039
O O12 0.673539 0.250000 0.281034
O O13 0.595935 0.047129 0.243159
O O14 0.761969 0.977710 0.248237
O O15 0.381851 0.250000 0.324556
O O16 0.286365 0.523844 0.392625
O O17 0.086649 0.250000 0.793153
O O18 0.940101 0.506366 0.869524
O O19 0.914163 0.250000 0.502141
O O20 0.000000 0.000000 0.500000
O O21 0.182954 0.250000 0.104670
#
# Coordination Sequence:
#
# PCOD8073937 Si02
#       8
#     4   4   4   4   4   4   4   4
#     4   9  20  38  59  84 117 151 185 232 290 340
#     4  10  20  40  61  80 113 151 189 236 290 341
#     4   8  15  28  47  72 104 138 176 217 265 324
#     4   9  18  34  56  82 113 151 189 229 279 340
#     4  10  21  37  60  87 119 155 190 232 286 343
#     4  10  20  35  54  81 114 149 189 237 287 335
#     4  11  21  37  59  87 121 155 189 231 284 342
#     4  11  23  38  58  84 112 148 196 242 285 337
#
# _framework density 19.564167000000001
#
# number of rings (size 3 to 8) (size 9 to 14) (size 15 to 20)
#    0.000    2.250    1.250    1.500    1.750    1.500 
#    0.000    3.125    0.000    0.000    0.000    0.000 
#    0.000    0.000    0.000    0.000    0.000    0.000 
#
# Total GULP energy -396542.088910 kJ/mol
# GULP energy per Si atom -12391.940278 kJ/mol
# Density = 1.951964 g / cm^3
# Si number density = 19.564167 Si / 1000 Ang^3
#
#
#
# Elastic Constant Matrix: (Units=GPa)
#
#
# Indices 1 2 3 4 5 6 
#
# 1 100.8443 31.8719 33.5638 0.0000 7.7196 0.0000
# 2 31.8719 64.5811 35.3473 0.0000 3.6457 0.0000
# 3 33.5638 35.3473 82.7382 0.0000 9.7054 0.0000
# 4 0.0000 0.0000 0.0000 32.7732 0.0000 -4.1448
# 5 7.7196 3.6457 9.7054 0.0000 23.7132 0.0000
# 6 0.0000 0.0000 0.0000 -4.1448 0.0000 23.3184
#
#
#
# Elastic Compliance Matrix: (Units=1/GPa)
#
#
# Indices 1 2 3 4 5 6 
#
# 1 0.012450 -0.004434 -0.002900 0.000000 -0.002184 0.000000
# 2 -0.004434 0.021794 -0.007656 0.000000 0.001226 0.000000
# 3 -0.002900 -0.007656 0.017106 0.000000 -0.004880 0.000000
# 4 0.000000 0.000000 0.000000 0.031214 0.000000 0.005548
# 5 -0.002184 0.001226 -0.004880 0.000000 0.044690 0.000000
# 6 0.000000 0.000000 0.000000 0.005548 0.000000 0.043871
#
#
# Mechanical properties :
#
#
# Convention : Reuss Voigt Hill
#
# Bulk Modulus (GPa) = 46.79409 49.96993 48.38201
# Shear Modulus (GPa) = 24.01215 25.78635 24.89925
#
# Velocity S-wave (km/s) = 3.50716 3.63442 3.57136
# Velocity P-wave (km/s) = 6.35377 6.57336 6.46450
#
# Compressibility (1/GPa) = 0.02137022
#
# Stress axis : x y z
#
# Youngs Moduli (GPa) = 80.32144 45.88505 58.45916
#
# Poissons Ratio (x) = 0.20344 0.16954
# Poissons Ratio (y) = 0.35612 0.44756
# Poissons Ratio (z) = 0.23294 0.35129
#
# Static dielectric constant tensor:
#      x y z
#    x 3.312610 0.000000 -0.184870 
#    y 0.000000 3.404350 0.000000 
#    z -0.184870 0.000000 3.198220 
# 
# 
# High freq. dielectric constant tensor:
#      x y z
#    x 1.761670 0.000000 0.002520 
#    y 0.000000 1.750610 0.000000 
#    z 0.002520 0.000000 1.756910 
# 
# From -- ./inp_files/68961.got.cif
#   From: 2010.06.25/outbox.cif.g09.slc.cpg/sg11_35_cif.got.tgz:68961.got - 2010.06.27 23:14:04.
