data_PCOD8073796
_publ_section_title
;
Structure prediction by ZEFSAII (Michael W. Deem and Ramdas Pophale) SiO2 
 PCOD8073796
Probable space group: P 21/M
;
_chemical_formula_sum "Si O2"
_cell_formula_units_Z 32
_cell_length_a 15.499350
_cell_length_b 14.109444
_cell_length_c 22.030440
_cell_angle_alpha 90.000000
_cell_angle_beta 161.583511
_cell_angle_gamma 90.000000
_cell_volume 1522.041738
_symmetry_space_group_name_H-M "P 21/M"
_symmetry_group_IT_number 11
_symmetry_cell_setting 'monoclinic'
loop_
_space_group_symop_operation_xyz
x,y,z
-x,1/2+y,-z
-x,-y,-z
x,1/2-y,z
loop_
_atom_site_type_symbol
_atom_site_label
_atom_site_fract_x
_atom_site_fract_y
_atom_site_fract_z
Si Si1 0.323877 0.493060 0.725774
Si Si2 0.070250 0.359649 0.044975
Si Si3 0.244549 0.449130 0.437382
Si Si4 0.894130 0.351927 0.679119
Si Si5 0.520003 0.146917 0.076618
Si Si6 0.289505 0.855338 0.312708
Si Si7 0.659341 0.137060 0.036587
Si Si8 0.401733 0.527332 0.221417
O O1 0.389617 0.587869 0.805529
O O2 0.482072 0.491190 0.767695
O O3 0.000000 0.500000 0.500000
O O4 0.433041 0.404907 0.839184
O O5 0.147997 0.250000 0.113663
O O6 0.922617 0.365350 0.882471
O O7 0.868238 0.404897 0.961477
O O8 0.332165 0.428087 0.210260
O O9 0.235975 0.561744 0.443529
O O10 0.456745 0.426048 0.525431
O O11 0.367314 0.415462 0.584593
O O12 0.961144 0.403637 0.226293
O O13 0.746087 0.250000 0.567500
O O14 0.879470 0.379450 0.740085
O O15 0.199872 0.341657 0.862345
O O16 0.660779 0.250000 0.176825
O O17 0.597007 0.101876 0.063182
O O18 0.414535 0.750000 0.398224
O O19 0.652153 0.250000 0.024712
#
# Coordination Sequence:
#
# PCOD8073796 Si02
#       8
#     4   4   4   4   4   4   4   4
#     4  12  25  41  66  94 130 165 206 261 318 380
#     4   9  19  39  63  86 129 173 210 260 311 368
#     4  11  21  38  63  88 127 166 204 257 310 374
#     4  10  20  34  58  89 120 156 203 259 310 362
#     4  10  22  42  66  89 119 163 209 255 312 368
#     4   9  18  34  58  89 119 160 211 255 309 367
#     4  11  25  44  66  91 123 163 211 261 312 375
#     4  10  23  38  61  98 126 168 218 252 312 384
#
# _framework density 21.024391000000001
#
# number of rings (size 3 to 8) (size 9 to 14) (size 15 to 20)
#    0.000    1.750    1.250    2.625    1.750    3.500 
#    2.250    0.000    0.000    0.000    0.000    0.000 
#    0.000    0.000    0.000    0.000    0.000    0.000 
#
# Total GULP energy -396480.555834 kJ/mol
# GULP energy per Si atom -12390.017370 kJ/mol
# Density = 2.097654 g / cm^3
# Si number density = 21.024391 Si / 1000 Ang^3
#
#
#
# Elastic Constant Matrix: (Units=GPa)
#
#
# Indices 1 2 3 4 5 6 
#
# 1 67.8825 -7.0666 4.0024 0.0000 10.9658 0.0000
# 2 -7.0666 99.4080 16.4994 0.0000 2.6315 0.0000
# 3 4.0024 16.4994 76.2296 0.0000 1.9664 0.0000
# 4 0.0000 0.0000 0.0000 29.6718 0.0000 -3.1627
# 5 10.9658 2.6315 1.9664 0.0000 23.6836 0.0000
# 6 0.0000 0.0000 0.0000 -3.1627 0.0000 30.1779
#
#
#
# Elastic Compliance Matrix: (Units=1/GPa)
#
#
# Indices 1 2 3 4 5 6 
#
# 1 0.016170 0.001513 -0.000981 0.000000 -0.007574 0.000000
# 2 0.001513 0.010598 -0.002330 0.000000 -0.001685 0.000000
# 3 -0.000981 -0.002330 0.013685 0.000000 -0.000423 0.000000
# 4 0.000000 0.000000 0.000000 0.034083 0.000000 0.003572
# 5 -0.007574 -0.001685 -0.000423 0.000000 0.045952 0.000000
# 6 0.000000 0.000000 0.000000 0.003572 0.000000 0.033511
#
#
# Mechanical properties :
#
#
# Convention : Reuss Voigt Hill
#
# Bulk Modulus (GPa) = 27.13181 30.04339 28.58760
# Shear Modulus (GPa) = 29.43223 32.04565 30.73894
#
# Velocity S-wave (km/s) = 3.74559 3.90835 3.82784
# Velocity P-wave (km/s) = 5.62485 5.88963 5.75876
#
# Compressibility (1/GPa) = 0.03685711
#
# Stress axis : x y z
#
# Youngs Moduli (GPa) = 61.84250 94.35382 73.07280
#
# Poissons Ratio (x) = -0.14274 0.07169
# Poissons Ratio (y) = -0.09356 0.17025
# Poissons Ratio (z) = 0.06067 0.21984
#
# Static dielectric constant tensor:
#      x y z
#    x 3.804610 0.000000 0.114370 
#    y 0.000000 4.501180 0.000000 
#    z 0.114370 0.000000 3.977200 
# 
# 
# High freq. dielectric constant tensor:
#      x y z
#    x 1.824220 0.000000 0.009320 
#    y 0.000000 1.833690 0.000000 
#    z 0.009320 0.000000 1.815290 
# 
# From -- ./inp_files/31883.got.cif
#   From: 2010.06.25/outbox.cif.g09.slc.cpg/sg11_16_cif.got.tgz:31883.got - 2010.06.27 23:14:04.
