data_PCOD8073876
_publ_section_title
;
Structure prediction by ZEFSAII (Michael W. Deem and Ramdas Pophale) SiO2 
 PCOD8073876
Probable space group: P 21/M
;
_chemical_formula_sum "Si O2"
_cell_formula_units_Z 28
_cell_length_a 14.546304
_cell_length_b 9.144274
_cell_length_c 11.804673
_cell_angle_alpha 90.000000
_cell_angle_beta 109.935931
_cell_angle_gamma 90.000000
_cell_volume 1476.107943
_symmetry_space_group_name_H-M "P 21/M"
_symmetry_group_IT_number 11
_symmetry_cell_setting 'monoclinic'
loop_
_space_group_symop_operation_xyz
x,y,z
-x,1/2+y,-z
-x,-y,-z
x,1/2-y,z
loop_
_atom_site_type_symbol
_atom_site_label
_atom_site_fract_x
_atom_site_fract_y
_atom_site_fract_z
Si Si1 0.603811 0.076150 0.044733
Si Si2 0.863827 0.915961 0.912772
Si Si3 0.699875 0.077107 0.316992
Si Si4 0.522545 0.077213 0.392644
Si Si5 0.080604 0.923824 0.609888
Si Si6 0.045628 0.578445 0.849317
Si Si7 0.350566 0.417231 0.154136
O O1 0.591667 0.250000 0.038488
O O2 0.662740 0.020657 0.179605
O O3 0.500000 0.000000 0.000000
O O4 0.660953 0.022000 0.958447
O O5 0.889061 0.750000 0.956542
O O6 0.752383 0.930789 0.822130
O O7 0.935759 0.966752 0.841902
O O8 0.877221 0.009334 0.031984
O O9 0.696598 0.250000 0.312286
O O10 0.626878 0.022499 0.386001
O O11 0.811175 0.024581 0.385333
O O12 0.521424 0.250000 0.411880
O O13 0.438203 0.028844 0.270158
O O14 0.500000 0.000000 0.500000
O O15 0.068438 0.750000 0.595487
O O16 0.064182 0.980018 0.730974
O O17 0.000000 0.000000 0.500000
O O18 0.063688 0.750000 0.859276
O O19 0.369879 0.250000 0.123323
#
# Coordination Sequence:
#
# PCOD8073876 Si02
#       7
#     4   4   4   4   4   4   4
#     4  11  20  34  58  85 112 142 178 219 270 328
#     4   9  18  32  54  80 107 139 176 223 274 321
#     4   9  19  37  57  78 110 146 174 219 281 328
#     4  10  21  38  55  74 106 144 182 221 268 322
#     4  10  21  37  57  79 106 143 186 226 269 320
#     4   9  18  34  53  77 108 141 178 222 275 329
#     4  10  20  35  53  78 111 144 177 221 274 323
#
# _framework density 18.968802
#
# number of rings (size 3 to 8) (size 9 to 14) (size 15 to 20)
#    0.000    2.286    1.429    1.286    0.000    4.000 
#    0.000    3.571    0.000    0.000    0.000    0.000 
#    0.000    0.000    0.000    0.000    0.000    0.000 
#
# Total GULP energy -347133.802379 kJ/mol
# GULP energy per Si atom -12397.635799 kJ/mol
# Density = 1.892563 g / cm^3
# Si number density = 18.968802 Si / 1000 Ang^3
#
#
#
# Elastic Constant Matrix: (Units=GPa)
#
#
# Indices 1 2 3 4 5 6 
#
# 1 167.1925 31.7954 83.7064 0.0000 5.0685 0.0000
# 2 31.7954 37.9065 33.5296 0.0000 -1.1903 0.0000
# 3 83.7064 33.5296 119.5715 0.0000 -7.1203 0.0000
# 4 0.0000 0.0000 0.0000 33.2727 0.0000 -1.3221
# 5 5.0685 -1.1903 -7.1203 0.0000 35.8099 0.0000
# 6 0.0000 0.0000 0.0000 -1.3221 0.0000 24.8202
#
#
#
# Elastic Compliance Matrix: (Units=1/GPa)
#
#
# Indices 1 2 3 4 5 6 
#
# 1 0.009668 -0.002747 -0.006157 0.000000 -0.002684 0.000000
# 2 -0.002747 0.035886 -0.008142 0.000000 -0.000037 0.000000
# 3 -0.006157 -0.008142 0.015172 0.000000 0.003618 0.000000
# 4 0.000000 0.000000 0.000000 0.030118 0.000000 0.001604
# 5 -0.002684 -0.000037 0.003618 0.000000 0.029023 0.000000
# 6 0.000000 0.000000 0.000000 0.001604 0.000000 0.040375
#
#
# Mechanical properties :
#
#
# Convention : Reuss Voigt Hill
#
# Bulk Modulus (GPa) = 37.54784 69.19258 53.37021
# Shear Modulus (GPa) = 24.60477 30.48984 27.54731
#
# Velocity S-wave (km/s) = 3.60546 4.01355 3.81496
# Velocity P-wave (km/s) = 6.09672 7.61803 6.89943
#
# Compressibility (1/GPa) = 0.02663269
#
# Stress axis : x y z
#
# Youngs Moduli (GPa) = 103.43781 27.86638 65.90964
#
# Poissons Ratio (x) = 0.07655 0.40583
# Poissons Ratio (y) = 0.28414 0.53664
# Poissons Ratio (z) = 0.63691 0.22689
#
# Static dielectric constant tensor:
#      x y z
#    x 3.965940 0.000000 -0.114350 
#    y 0.000000 3.382380 0.000000 
#    z -0.114350 0.000000 3.447040 
# 
# 
# High freq. dielectric constant tensor:
#      x y z
#    x 1.760460 0.000000 -0.000020 
#    y 0.000000 1.714960 0.000000 
#    z -0.000020 0.000000 1.723070 
# 
# From -- ./inp_files/37652.got.cif
#   From: 2010.06.25/outbox.cif.g09.slc.cpg/sg11_19_cif.got.tgz:37652.got - 2010.06.27 23:14:04.
