data_PCOD8073599
_publ_section_title
;
Structure prediction by ZEFSAII (Michael W. Deem and Ramdas Pophale) SiO2 
 PCOD8073599
Probable space group: P 21/M
;
_chemical_formula_sum "Si O2"
_cell_formula_units_Z 32
_cell_length_a 16.355421
_cell_length_b 8.929272
_cell_length_c 11.217660
_cell_angle_alpha 90.000000
_cell_angle_beta 95.212610
_cell_angle_gamma 90.000000
_cell_volume 1631.474433
_symmetry_space_group_name_H-M "P 21/M"
_symmetry_group_IT_number 11
_symmetry_cell_setting 'monoclinic'
loop_
_space_group_symop_operation_xyz
x,y,z
-x,1/2+y,-z
-x,-y,-z
x,1/2-y,z
loop_
_atom_site_type_symbol
_atom_site_label
_atom_site_fract_x
_atom_site_fract_y
_atom_site_fract_z
Si Si1 0.947519 0.577233 0.833117
Si Si2 0.411981 0.425004 0.003062
Si Si3 0.268020 0.574193 0.580806
Si Si4 0.739210 0.575271 0.174806
Si Si5 0.414674 0.079826 0.480363
Si Si6 0.825347 0.425718 0.667278
Si Si7 0.679184 0.578442 0.773518
Si Si8 0.878581 0.422480 0.054269
O O1 0.923703 0.750000 0.850976
O O2 0.909747 0.515520 0.704024
O O3 0.045848 0.557946 0.842886
O O4 0.908150 0.474424 0.929429
O O5 0.427846 0.250000 0.019338
O O6 0.353386 0.460128 0.882185
O O7 0.500000 0.500000 0.000000
O O8 0.366020 0.485014 0.115294
O O9 0.281344 0.750000 0.588033
O O10 0.237426 0.515358 0.703596
O O11 0.354444 0.498700 0.564998
O O12 0.202504 0.530682 0.469962
O O13 0.750382 0.750000 0.201147
O O14 0.802758 0.525056 0.082050
O O15 0.423594 0.250000 0.523170
O O16 0.385008 0.066076 0.341683
O O17 0.500000 0.000000 0.500000
O O18 0.839974 0.250000 0.682068
O O19 0.757843 0.476658 0.755660
O O20 0.708515 0.750000 0.795835
O O21 0.850588 0.250000 0.044091
#
# Coordination Sequence:
#
# PCOD8073599 Si02
#       8
#     4   4   4   4   4   4   4   4
#     4  10  20  35  59  89 121 151 187 235 283 336
#     4  10  23  39  55  80 109 143 184 227 278 337
#     4  10  22  39  57  80 111 151 195 238 285 344
#     4  11  23  39  59  84 116 152 190 236 290 345
#     4  10  20  34  55  81 108 141 183 234 287 339
#     4  10  20  35  58  86 112 145 190 237 286 336
#     4   9  19  36  55  77 108 143 181 226 283 341
#     4  10  21  37  59  89 119 154 192 229 281 340
#
# _framework density 19.614160999999999
#
# number of rings (size 3 to 8) (size 9 to 14) (size 15 to 20)
#    0.000    2.000    0.000    3.000    1.750    6.000 
#    0.000    0.625    0.000    0.000    0.000    0.000 
#    0.000    0.000    0.000    0.000    0.000    0.000 
#
# Total GULP energy -396886.378882 kJ/mol
# GULP energy per Si atom -12402.699340 kJ/mol
# Density = 1.956952 g / cm^3
# Si number density = 19.614161 Si / 1000 Ang^3
#
#
#
# Elastic Constant Matrix: (Units=GPa)
#
#
# Indices 1 2 3 4 5 6 
#
# 1 81.7716 38.0882 16.1408 0.0000 17.8862 0.0000
# 2 38.0882 84.0788 24.1090 0.0000 13.6079 0.0000
# 3 16.1408 24.1090 65.2102 0.0000 0.1818 0.0000
# 4 0.0000 0.0000 0.0000 32.7227 0.0000 0.4278
# 5 17.8862 13.6079 0.1818 0.0000 25.8034 0.0000
# 6 0.0000 0.0000 0.0000 0.4278 0.0000 36.7625
#
#
#
# Elastic Compliance Matrix: (Units=1/GPa)
#
#
# Indices 1 2 3 4 5 6 
#
# 1 0.017292 -0.005782 -0.002117 0.000000 -0.008922 0.000000
# 2 -0.005782 0.016626 -0.004703 0.000000 -0.004727 0.000000
# 3 -0.002117 -0.004703 0.017587 0.000000 0.003824 0.000000
# 4 0.000000 0.000000 0.000000 0.030564 0.000000 -0.000356
# 5 -0.008922 -0.004727 0.003824 0.000000 0.047405 0.000000
# 6 0.000000 0.000000 0.000000 -0.000356 0.000000 0.027206
#
#
# Mechanical properties :
#
#
# Convention : Reuss Voigt Hill
#
# Bulk Modulus (GPa) = 38.02142 43.08184 40.55163
# Shear Modulus (GPa) = 26.22570 29.23921 27.73246
#
# Velocity S-wave (km/s) = 3.66058 3.86517 3.76427
# Velocity P-wave (km/s) = 6.10682 6.47547 6.29384
#
# Compressibility (1/GPa) = 0.02630096
#
# Stress axis : x y z
#
# Youngs Moduli (GPa) = 57.83025 60.14495 56.85977
#
# Poissons Ratio (x) = 0.34777 0.12040
# Poissons Ratio (y) = 0.33439 0.26739
# Poissons Ratio (z) = 0.12246 0.28284
#
# Static dielectric constant tensor:
#      x y z
#    x 3.575760 0.000000 0.209340 
#    y 0.000000 3.546010 0.000000 
#    z 0.209340 0.000000 3.778230 
# 
# 
# High freq. dielectric constant tensor:
#      x y z
#    x 1.760980 0.000000 0.017330 
#    y 0.000000 1.772820 0.000000 
#    z 0.017330 0.000000 1.760840 
# 
# From -- ./inp_files/38068.got.cif
#   From: 2010.06.25/outbox.cif.g09.slc.cpg/sg11_20_cif.got.tgz:38068.got - 2010.06.27 23:14:04.
