data_PCOD8073943
_publ_section_title
;
Structure prediction by ZEFSAII (Michael W. Deem and Ramdas Pophale) SiO2 
 PCOD8073943
Probable space group: P 21/M
;
_chemical_formula_sum "Si O2"
_cell_formula_units_Z 32
_cell_length_a 23.318048
_cell_length_b 8.960027
_cell_length_c 18.826114
_cell_angle_alpha 90.000000
_cell_angle_beta 155.139392
_cell_angle_gamma 90.000000
_cell_volume 1653.626428
_symmetry_space_group_name_H-M "P 21/M"
_symmetry_group_IT_number 11
_symmetry_cell_setting 'monoclinic'
loop_
_space_group_symop_operation_xyz
x,y,z
-x,1/2+y,-z
-x,-y,-z
x,1/2-y,z
loop_
_atom_site_type_symbol
_atom_site_label
_atom_site_fract_x
_atom_site_fract_y
_atom_site_fract_z
Si Si1 0.141494 0.921646 0.156937
Si Si2 0.310977 0.926252 0.063729
Si Si3 0.568860 0.422015 0.144022
Si Si4 0.412491 0.426399 0.689326
Si Si5 0.129475 0.925904 0.733749
Si Si6 0.139386 0.580528 0.586176
Si Si7 0.163130 0.573727 0.335051
Si Si8 0.866574 0.426297 0.006166
O O1 0.106400 0.750000 0.121004
O O2 0.219577 0.964147 0.317981
O O3 0.206970 0.960442 0.153403
O O4 0.000000 0.000000 0.000000
O O5 0.294740 0.750000 0.045278
O O6 0.471372 0.967620 0.238733
O O7 0.240491 0.989255 0.056132
O O8 0.233348 0.994677 0.908007
O O9 0.521176 0.250000 0.095011
O O10 0.531213 0.509979 0.173044
O O11 0.730958 0.433130 0.318013
O O12 0.500000 0.500000 0.000000
O O13 0.392826 0.250000 0.674558
O O14 0.269283 0.500111 0.508165
O O15 0.130446 0.750000 0.741225
O O16 0.173416 0.978736 0.704133
O O17 0.978078 0.982684 0.581769
O O18 0.086977 0.750000 0.532825
O O19 0.158662 0.750000 0.344702
O O20 0.011928 0.508356 0.177654
O O21 0.893589 0.250000 0.045750
#
# Coordination Sequence:
#
# PCOD8073943 Si02
#       8
#     4   4   4   4   4   4   4   4
#     4   8  15  29  52  79 110 143 178 224 275 328
#     4   9  19  35  55  78 106 140 184 233 277 324
#     4  11  23  39  58  80 109 144 186 230 274 328
#     4  11  23  39  57  79 111 150 188 230 278 328
#     4   9  17  32  53  75 101 133 170 217 268 319
#     4   9  19  34  51  74 103 134 172 219 267 315
#     4  10  20  35  54  82 116 146 180 229 280 329
#     4   9  17  33  58  85 108 142 189 229 276 334
#
# _framework density 19.351409
#
# number of rings (size 3 to 8) (size 9 to 14) (size 15 to 20)
#    0.000    2.500    0.000    1.875    1.750    3.500 
#    0.000    5.625    0.000    0.000    0.000    0.000 
#    0.000    0.000    0.000    0.000    0.000    0.000 
#
# Total GULP energy -396513.858646 kJ/mol
# GULP energy per Si atom -12391.058083 kJ/mol
# Density = 1.930736 g / cm^3
# Si number density = 19.351409 Si / 1000 Ang^3
#
#
#
# Elastic Constant Matrix: (Units=GPa)
#
#
# Indices 1 2 3 4 5 6 
#
# 1 118.6626 34.2493 36.2404 0.0000 -1.0389 0.0000
# 2 34.2493 58.8462 27.1685 0.0000 -2.0586 0.0000
# 3 36.2404 27.1685 61.8474 0.0000 -5.1164 0.0000
# 4 0.0000 0.0000 0.0000 22.8629 0.0000 -0.9424
# 5 -1.0389 -2.0586 -5.1164 0.0000 27.9058 0.0000
# 6 0.0000 0.0000 0.0000 -0.9424 0.0000 23.0940
#
#
#
# Elastic Compliance Matrix: (Units=1/GPa)
#
#
# Indices 1 2 3 4 5 6 
#
# 1 0.011094 -0.004332 -0.004661 0.000000 -0.000761 0.000000
# 2 -0.004332 0.023009 -0.007557 0.000000 0.000151 0.000000
# 3 -0.004661 -0.007557 0.022500 0.000000 0.003394 0.000000
# 4 0.000000 0.000000 0.000000 0.043813 0.000000 0.001788
# 5 -0.000761 0.000151 0.003394 0.000000 0.036440 0.000000
# 6 0.000000 0.000000 0.000000 0.001788 0.000000 0.043374
#
#
# Mechanical properties :
#
#
# Convention : Reuss Voigt Hill
#
# Bulk Modulus (GPa) = 42.54487 48.29696 45.42092
# Shear Modulus (GPa) = 22.60771 24.21909 23.41340
#
# Velocity S-wave (km/s) = 3.42171 3.54155 3.48214
# Velocity P-wave (km/s) = 6.13546 6.46030 6.29998
#
# Compressibility (1/GPa) = 0.02350460
#
# Stress axis : x y z
#
# Youngs Moduli (GPa) = 90.13581 43.46194 44.44386
#
# Poissons Ratio (x) = 0.18827 0.20715
# Poissons Ratio (y) = 0.39045 0.33584
# Poissons Ratio (z) = 0.42012 0.32842
#
# Static dielectric constant tensor:
#      x y z
#    x 4.287510 0.000000 -0.362940 
#    y 0.000000 3.418920 0.000000 
#    z -0.362940 0.000000 3.527140 
# 
# 
# High freq. dielectric constant tensor:
#      x y z
#    x 1.762400 0.000000 -0.011880 
#    y 0.000000 1.740740 0.000000 
#    z -0.011880 0.000000 1.736680 
# 
# From -- ./inp_files/67130.got.cif
#   From: 2010.06.25/outbox.cif.g09.slc.cpg/sg11_34_cif.got.tgz:67130.got - 2010.06.27 23:14:04.
