data_PCOD8073440
_publ_section_title
;
Structure prediction by ZEFSAII (Michael W. Deem and Ramdas Pophale) SiO2 
 PCOD8073440
Probable space group: P 21/M
;
_chemical_formula_sum "Si O2"
_cell_formula_units_Z 24
_cell_length_a 22.002860
_cell_length_b 8.997278
_cell_length_c 6.978230
_cell_angle_alpha 90.000000
_cell_angle_beta 72.681363
_cell_angle_gamma 90.000000
_cell_volume 1318.821776
_symmetry_space_group_name_H-M "P 21/M"
_symmetry_group_IT_number 11
_symmetry_cell_setting 'monoclinic'
loop_
_space_group_symop_operation_xyz
x,y,z
-x,1/2+y,-z
-x,-y,-z
x,1/2-y,z
loop_
_atom_site_type_symbol
_atom_site_label
_atom_site_fract_x
_atom_site_fract_y
_atom_site_fract_z
Si Si1 0.740524 0.921603 0.259645
Si Si2 0.156052 0.076548 0.526784
Si Si3 0.507428 0.423553 0.194766
Si Si4 0.933802 0.422705 0.102358
Si Si5 0.172752 0.922010 0.109173
Si Si6 0.594950 0.922240 0.396661
O O1 0.748173 0.750000 0.192048
O O2 0.779552 0.955940 0.415893
O O3 0.667784 0.963893 0.370462
O O4 0.765162 0.021711 0.061898
O O5 0.140102 0.250000 0.533385
O O6 0.096735 0.994363 0.680035
O O7 0.165311 0.016098 0.306708
O O8 0.515375 0.250000 0.155483
O O9 0.445075 0.463605 0.377206
O O10 0.570573 0.483662 0.239272
O O11 0.500000 0.500000 0.000000
O O12 0.944729 0.250000 0.133276
O O13 0.889317 0.449666 0.961042
O O14 0.000000 0.500000 0.000000
O O15 0.181916 0.750000 0.152180
O O16 0.586568 0.750000 0.351812
#
# Coordination Sequence:
#
# PCOD8073440 Si02
#       6
#     4   4   4   4   4   4
#     4   9  19  36  56  77 102 136 177 217 258 307
#     4  10  20  35  56  80 106 139 177 215 259 313
#     4  10  20  34  53  78 107 139 175 216 263 313
#     4  10  21  37  56  78 106 139 176 219 264 311
#     4  10  21  36  54  79 109 138 170 214 265 312
#     4   9  19  36  55  75 103 138 176 218 260 306
#
# _framework density 18.198060000000002
#
# number of rings (size 3 to 8) (size 9 to 14) (size 15 to 20)
#    0.000    2.333    0.000    2.000    0.000    6.000 
#    0.000    3.333    0.000    0.000    0.000    0.000 
#    0.000    0.000    0.000    0.000    0.000    0.000 
#
# Total GULP energy -297700.632913 kJ/mol
# GULP energy per Si atom -12404.193038 kJ/mol
# Density = 1.815664 g / cm^3
# Si number density = 18.198060 Si / 1000 Ang^3
#
#
#
# Elastic Constant Matrix: (Units=GPa)
#
#
# Indices 1 2 3 4 5 6 
#
# 1 105.2991 49.6632 49.8998 0.0000 -18.4661 0.0000
# 2 49.6632 100.4100 64.1035 0.0000 1.0664 0.0000
# 3 49.8998 64.1035 123.0031 0.0000 7.1822 0.0000
# 4 0.0000 0.0000 0.0000 39.4409 0.0000 0.9956
# 5 -18.4661 1.0664 7.1822 0.0000 23.2521 0.0000
# 6 0.0000 0.0000 0.0000 0.9956 0.0000 31.4003
#
#
#
# Elastic Compliance Matrix: (Units=1/GPa)
#
#
# Indices 1 2 3 4 5 6 
#
# 1 0.017144 -0.005438 -0.005021 0.000000 0.015416 0.000000
# 2 -0.005438 0.016720 -0.006325 0.000000 -0.003132 0.000000
# 3 -0.005021 -0.006325 0.013930 0.000000 -0.008001 0.000000
# 4 0.000000 0.000000 0.000000 0.025375 0.000000 -0.000805
# 5 0.015416 -0.003132 -0.008001 0.000000 0.057865 0.000000
# 6 0.000000 0.000000 0.000000 -0.000805 0.000000 0.031872
#
#
# Mechanical properties :
#
#
# Convention : Reuss Voigt Hill
#
# Bulk Modulus (GPa) = 70.28993 72.89391 71.59192
# Shear Modulus (GPa) = 24.84887 29.82170 27.33529
#
# Velocity S-wave (km/s) = 3.69923 4.05251 3.87990
# Velocity P-wave (km/s) = 7.54683 7.87655 7.71345
#
# Compressibility (1/GPa) = 0.01422679
#
# Stress axis : x y z
#
# Youngs Moduli (GPa) = 58.32785 59.80953 71.78599
#
# Poissons Ratio (x) = 0.32522 0.36047
# Poissons Ratio (y) = 0.31717 0.45403
# Poissons Ratio (z) = 0.29289 0.37828
#
# Static dielectric constant tensor:
#      x y z
#    x 3.459850 0.000000 -0.062150 
#    y 0.000000 3.510570 0.000000 
#    z -0.062150 0.000000 3.379360 
# 
# 
# High freq. dielectric constant tensor:
#      x y z
#    x 1.705370 0.000000 -0.002240 
#    y 0.000000 1.717170 0.000000 
#    z -0.002240 0.000000 1.707400 
# 
# From -- ./inp_files/9234.got.cif
#   From: 2010.06.25/outbox.cif.g09.slc.cpg/sg11_5_cif.got.tgz:9234.got - 2010.06.27 23:14:04.
