data_PCOD8073647
_publ_section_title
;
Structure prediction by ZEFSAII (Michael W. Deem and Ramdas Pophale) SiO2 
 PCOD8073647
Probable space group: P 21/M
;
_chemical_formula_sum "Si O2"
_cell_formula_units_Z 32
_cell_length_a 9.658494
_cell_length_b 11.647619
_cell_length_c 28.459321
_cell_angle_alpha 90.000000
_cell_angle_beta 149.690743
_cell_angle_gamma 90.000000
_cell_volume 1615.757231
_symmetry_space_group_name_H-M "P 21/M"
_symmetry_group_IT_number 11
_symmetry_cell_setting 'monoclinic'
loop_
_space_group_symop_operation_xyz
x,y,z
-x,1/2+y,-z
-x,-y,-z
x,1/2-y,z
loop_
_atom_site_type_symbol
_atom_site_label
_atom_site_fract_x
_atom_site_fract_y
_atom_site_fract_z
Si Si1 0.792089 0.948528 0.230794
Si Si2 0.461550 0.129162 0.934818
Si Si3 0.626334 0.116096 0.563124
Si Si4 0.610249 0.499240 0.424150
Si Si5 0.911857 0.980989 0.106291
Si Si6 0.577863 0.120535 0.798968
Si Si7 0.943577 0.617388 0.758626
Si Si8 0.854650 0.622863 0.408321
O O1 0.707035 0.867403 0.162960
O O2 0.528662 0.955645 0.188284
O O3 0.046804 0.896396 0.334885
O O4 0.864894 0.069580 0.227528
O O5 0.615089 0.250000 0.985065
O O6 0.239856 0.123128 0.912182
O O7 0.694712 0.032695 0.005599
O O8 0.566977 0.250000 0.526701
O O9 0.500000 0.000000 0.500000
O O10 0.487373 0.108212 0.573846
O O11 0.368720 0.408645 0.345856
O O12 0.706850 0.542770 0.402339
O O13 0.853932 0.430767 0.521664
O O14 0.990106 0.069769 0.170309
O O15 0.169064 0.941206 0.151551
O O16 0.659715 0.250000 0.838889
O O17 0.326529 0.128609 0.690346
O O18 0.001456 0.750000 0.777102
O O19 0.901604 0.750000 0.443122
#
# Coordination Sequence:
#
# PCOD8073647 Si02
#       8
#     4   4   4   4   4   4   4   4
#     4  10  23  39  60  88 118 158 204 243 296 361
#     4  10  20  38  61  84 114 152 195 246 293 354
#     4  11  23  39  61  87 120 161 208 251 298 358
#     4  10  20  35  56  83 116 156 203 248 292 354
#     4  10  21  36  59  90 115 148 199 243 303 361
#     4  11  21  37  59  86 120 152 192 249 301 355
#     4  10  20  38  59  84 120 161 203 252 301 357
#     4  10  20  34  55  83 116 154 195 246 300 350
#
# _framework density 19.804953999999999
#
# number of rings (size 3 to 8) (size 9 to 14) (size 15 to 20)
#    0.000    1.750    1.250    3.375    0.000    4.000 
#    0.000    1.875    0.000    0.000    0.000    0.000 
#    0.000    0.000    0.000    0.000    0.000    0.000 
#
# Total GULP energy -396455.147165 kJ/mol
# GULP energy per Si atom -12389.223349 kJ/mol
# Density = 1.975988 g / cm^3
# Si number density = 19.804954 Si / 1000 Ang^3
#
#
#
# Elastic Constant Matrix: (Units=GPa)
#
#
# Indices 1 2 3 4 5 6 
#
# 1 97.9888 43.7551 45.7698 0.0000 21.5607 0.0000
# 2 43.7551 126.7793 40.7349 0.0000 7.3243 0.0000
# 3 45.7698 40.7349 91.1661 0.0000 5.8088 0.0000
# 4 0.0000 0.0000 0.0000 -2.4086 0.0000 12.1705
# 5 21.5607 7.3243 5.8088 0.0000 30.4166 0.0000
# 6 0.0000 0.0000 0.0000 12.1705 0.0000 10.5345
#
#
#
# Elastic Compliance Matrix: (Units=1/GPa)
#
#
# Indices 1 2 3 4 5 6 
#
# 1 0.016780 -0.003170 -0.006377 0.000000 -0.009914 0.000000
# 2 -0.003170 0.009872 -0.002846 0.000000 0.000413 0.000000
# 3 -0.006377 -0.002846 0.015297 0.000000 0.002284 0.000000
# 4 0.000000 0.000000 0.000000 -0.060719 0.000000 0.070149
# 5 -0.009914 0.000413 0.002284 0.000000 0.039368 0.000000
# 6 0.000000 0.000000 0.000000 0.070149 0.000000 0.013883
#
#
# Mechanical properties :
#
#
# Convention : Reuss Voigt Hill
#
# Bulk Modulus (GPa) = 58.26056 64.05043 61.15550
# Shear Modulus (GPa) = 76.93781 20.08679 48.51230
#
# Velocity S-wave (km/s) = 6.23956 3.18815 4.95461
# Velocity P-wave (km/s) = 9.02167 6.77962 7.97978
#
# Compressibility (1/GPa) = 0.01716427
#
# Stress axis : x y z
#
# Youngs Moduli (GPa) = 59.59299 101.29337 65.37442
#
# Poissons Ratio (x) = 0.32108 0.41687
# Poissons Ratio (y) = 0.18890 0.18606
# Poissons Ratio (z) = 0.38000 0.28829
#
# Static dielectric constant tensor:
#      x y z
#    x 3.621740 0.000000 0.027700 
#    y 0.000000 3.709870 0.000000 
#    z 0.027700 0.000000 3.696550 
# 
# 
# High freq. dielectric constant tensor:
#      x y z
#    x 1.776140 0.000000 0.001750 
#    y 0.000000 1.765200 0.000000 
#    z 0.001750 0.000000 1.774050 
# 
# From -- ./inp_files/72854.got.cif
#   From: 2010.06.25/outbox.cif.g09.slc.cpg/sg11_37_cif.got.tgz:72854.got - 2010.06.27 23:14:04.
