data_PCOD8073446
_publ_section_title
;
Structure prediction by ZEFSAII (Michael W. Deem and Ramdas Pophale) SiO2 
 PCOD8073446
Probable space group: P 21/M
;
_chemical_formula_sum "Si O2"
_cell_formula_units_Z 28
_cell_length_a 20.623183
_cell_length_b 8.871239
_cell_length_c 24.124041
_cell_angle_alpha 90.000000
_cell_angle_beta 17.444423
_cell_angle_gamma 90.000000
_cell_volume 1323.102490
_symmetry_space_group_name_H-M "P 21/M"
_symmetry_group_IT_number 11
_symmetry_cell_setting 'monoclinic'
loop_
_space_group_symop_operation_xyz
x,y,z
-x,1/2+y,-z
-x,-y,-z
x,1/2-y,z
loop_
_atom_site_type_symbol
_atom_site_label
_atom_site_fract_x
_atom_site_fract_y
_atom_site_fract_z
Si Si1 0.259920 0.574698 0.554556
Si Si2 0.322246 0.086556 0.722017
Si Si3 0.945021 0.076623 0.390847
Si Si4 0.139686 0.574061 0.067065
Si Si5 0.990013 0.413726 0.087241
Si Si6 0.626331 0.572591 0.026836
Si Si7 0.825412 0.928518 0.602321
O O1 0.205296 0.750000 0.611679
O O2 0.490244 0.523175 0.390909
O O3 0.241185 0.550640 0.503605
O O4 0.096337 0.463518 0.717801
O O5 0.390535 0.250000 0.642338
O O6 0.252065 0.980500 0.727556
O O7 0.109335 0.107670 0.932248
O O8 0.948438 0.250000 0.407984
O O9 0.180122 0.032153 0.173709
O O10 0.884880 0.970976 0.490930
O O11 0.191399 0.750000 0.028815
O O12 0.138496 0.520383 0.004449
O O13 0.317977 0.484143 0.956829
O O14 0.957158 0.250000 0.142777
O O15 0.585888 0.750000 0.062206
O O16 0.406594 0.490431 0.188097
O O17 0.826115 0.750000 0.607905
O O18 0.000000 0.000000 0.500000
#
# Coordination Sequence:
#
# PCOD8073446 Si02
#       7
#     4   4   4   4   4   4   4
#     4   9  19  37  59  83 111 151 197 242 299 358
#     4   9  19  35  54  78 108 147 195 246 297 354
#     4   9  20  40  66  94 125 164 207 257 310 365
#     4  11  22  36  56  85 116 150 194 245 297 356
#     4  10  20  34  53  78 110 152 194 243 301 356
#     4  10  22  43  68  93 126 166 207 255 308 364
#     4  12  26  43  66  98 131 167 207 250 300 365
#
# _framework density 21.162381
#
# number of rings (size 3 to 8) (size 9 to 14) (size 15 to 20)
#    0.000    2.000    0.000    4.286    2.000    5.143 
#    0.000    0.000    0.000    0.000    0.000    0.000 
#    0.000    0.000    0.000    0.000    0.000    0.000 
#
# Total GULP energy -347090.975722 kJ/mol
# GULP energy per Si atom -12396.106276 kJ/mol
# Density = 2.111421 g / cm^3
# Si number density = 21.162381 Si / 1000 Ang^3
#
#
#
# Elastic Constant Matrix: (Units=GPa)
#
#
# Indices 1 2 3 4 5 6 
#
# 1 74.8309 26.2686 20.8237 0.0000 -23.0719 0.0000
# 2 26.2686 117.5603 25.3124 0.0000 -8.9321 0.0000
# 3 20.8237 25.3124 62.5100 0.0000 -27.0203 0.0000
# 4 0.0000 0.0000 0.0000 30.2622 0.0000 -2.6948
# 5 -23.0719 -8.9321 -27.0203 0.0000 41.1085 0.0000
# 6 0.0000 0.0000 0.0000 -2.6948 0.0000 39.1707
#
#
#
# Elastic Compliance Matrix: (Units=1/GPa)
#
#
# Indices 1 2 3 4 5 6 
#
# 1 0.017280 -0.003031 -0.000868 0.000000 0.008469 0.000000
# 2 -0.003031 0.009862 -0.003901 0.000000 -0.002122 0.000000
# 3 -0.000868 -0.003901 0.024151 0.000000 0.014539 0.000000
# 4 0.000000 0.000000 0.000000 0.033248 0.000000 0.002287
# 5 0.008469 -0.002122 0.014539 0.000000 0.038175 0.000000
# 6 0.000000 0.000000 0.000000 0.002287 0.000000 0.025687
#
#
# Mechanical properties :
#
#
# Convention : Reuss Voigt Hill
#
# Bulk Modulus (GPa) = 28.01700 44.41229 36.21464
# Shear Modulus (GPa) = 28.42497 34.27473 31.34985
#
# Velocity S-wave (km/s) = 3.66892 4.02880 3.85307
# Velocity P-wave (km/s) = 5.58711 6.53251 6.07822
#
# Compressibility (1/GPa) = 0.03569261
#
# Stress axis : x y z
#
# Youngs Moduli (GPa) = 57.86956 101.39676 41.40578
#
# Poissons Ratio (x) = 0.30731 0.03596
# Poissons Ratio (y) = 0.17539 0.16154
# Poissons Ratio (z) = 0.05025 0.39559
#
# Static dielectric constant tensor:
#      x y z
#    x 3.927960 0.000000 -0.202260 
#    y 0.000000 4.008850 0.000000 
#    z -0.202260 0.000000 3.719610 
# 
# 
# High freq. dielectric constant tensor:
#      x y z
#    x 1.832330 0.000000 -0.011230 
#    y 0.000000 1.827880 0.000000 
#    z -0.011230 0.000000 1.821110 
# 
# From -- ./inp_files/69761.got.cif
#   From: 2010.06.25/outbox.cif.g09.slc.cpg/sg11_35_cif.got.tgz:69761.got - 2010.06.27 23:14:04.
