data_PCOD8073898
_publ_section_title
;
Structure prediction by ZEFSAII (Michael W. Deem and Ramdas Pophale) SiO2 
 PCOD8073898
Probable space group: P 21/M
;
_chemical_formula_sum "Si O2"
_cell_formula_units_Z 32
_cell_length_a 27.521896
_cell_length_b 9.220460
_cell_length_c 19.511748
_cell_angle_alpha 90.000000
_cell_angle_beta 159.661394
_cell_angle_gamma 90.000000
_cell_volume 1720.942286
_symmetry_space_group_name_H-M "P 21/M"
_symmetry_group_IT_number 11
_symmetry_cell_setting 'monoclinic'
loop_
_space_group_symop_operation_xyz
x,y,z
-x,1/2+y,-z
-x,-y,-z
x,1/2-y,z
loop_
_atom_site_type_symbol
_atom_site_label
_atom_site_fract_x
_atom_site_fract_y
_atom_site_fract_z
Si Si1 0.301995 0.911378 0.034509
Si Si2 0.863823 0.417434 0.058922
Si Si3 0.087235 0.584013 0.026174
Si Si4 0.468290 0.922036 0.743195
Si Si5 0.000815 0.414035 0.431650
Si Si6 0.184803 0.920294 0.301072
Si Si7 0.109406 0.581382 0.452498
Si Si8 0.572687 0.417353 0.158110
O O1 0.367307 0.750000 0.116960
O O2 0.403586 0.022963 0.132443
O O3 0.271440 0.957873 0.073356
O O4 0.154057 0.915379 0.802052
O O5 0.905466 0.250000 0.129785
O O6 0.824703 0.439815 0.927271
O O7 0.996516 0.517425 0.250768
O O8 0.039557 0.750000 0.970939
O O9 0.947282 0.490319 0.836387
O O10 0.183165 0.539423 0.217810
O O11 0.468774 0.750000 0.740730
O O12 0.325882 0.983116 0.521129
O O13 0.482658 0.974490 0.841176
O O14 0.054885 0.250000 0.514499
O O15 0.000000 0.500000 0.500000
O O16 0.105884 0.495856 0.519521
O O17 0.174763 0.750000 0.300414
O O18 0.076345 0.750000 0.421981
O O19 0.261429 0.558896 0.621321
O O20 0.534753 0.250000 0.097925
O O21 0.500000 0.500000 0.000000
#
# Coordination Sequence:
#
# PCOD8073898 Si02
#       8
#     4   4   4   4   4   4   4   4
#     4   9  20  36  52  73 102 138 176 216 259 308
#     4   9  18  34  54  78 106 137 175 216 263 312
#     4   9  17  31  55  82 108 138 175 216 261 316
#     4  10  21  37  54  74 105 141 176 214 264 319
#     4  10  21  36  55  78 104 134 173 221 269 313
#     4   9  18  33  53  80 111 140 171 215 266 314
#     4  10  20  35  54  77 104 133 172 217 266 316
#     4  10  23  38  52  74 102 135 173 216 263 316
#
# _framework density 18.594463999999999
#
# number of rings (size 3 to 8) (size 9 to 14) (size 15 to 20)
#    0.000    2.500    0.000    2.250    1.750    6.000 
#    0.000    0.625    0.000    0.000    0.000    0.000 
#    0.000    0.000    0.000    0.000    0.000    0.000 
#
# Total GULP energy -396742.709087 kJ/mol
# GULP energy per Si atom -12398.209659 kJ/mol
# Density = 1.855214 g / cm^3
# Si number density = 18.594464 Si / 1000 Ang^3
#
#
#
# Elastic Constant Matrix: (Units=GPa)
#
#
# Indices 1 2 3 4 5 6 
#
# 1 165.6974 46.5717 45.6988 0.0000 1.3974 0.0000
# 2 46.5717 68.0349 27.9614 0.0000 2.0590 0.0000
# 3 45.6988 27.9614 59.3676 0.0000 4.1790 0.0000
# 4 0.0000 0.0000 0.0000 28.0542 0.0000 3.6429
# 5 1.3974 2.0590 4.1790 0.0000 24.0255 0.0000
# 6 0.0000 0.0000 0.0000 3.6429 0.0000 29.5962
#
#
#
# Elastic Compliance Matrix: (Units=1/GPa)
#
#
# Indices 1 2 3 4 5 6 
#
# 1 0.008408 -0.003840 -0.004710 0.000000 0.000659 0.000000
# 2 -0.003840 0.019980 -0.006429 0.000000 -0.000371 0.000000
# 3 -0.004710 -0.006429 0.023730 0.000000 -0.003303 0.000000
# 4 0.000000 0.000000 0.000000 0.036224 0.000000 -0.004459
# 5 0.000659 -0.000371 -0.003303 0.000000 0.042190 0.000000
# 6 0.000000 0.000000 0.000000 -0.004459 0.000000 0.034337
#
#
# Mechanical properties :
#
#
# Convention : Reuss Voigt Hill
#
# Bulk Modulus (GPa) = 45.12358 59.28484 52.20421
# Shear Modulus (GPa) = 24.72646 27.85972 26.29309
#
# Velocity S-wave (km/s) = 3.65056 3.87496 3.76444
# Velocity P-wave (km/s) = 6.48758 7.20921 6.85789
#
# Compressibility (1/GPa) = 0.02216136
#
# Stress axis : x y z
#
# Youngs Moduli (GPa) = 118.93906 50.05023 42.14065
#
# Poissons Ratio (x) = 0.19217 0.19848
# Poissons Ratio (y) = 0.45667 0.27091
# Poissons Ratio (z) = 0.56019 0.32176
#
# Static dielectric constant tensor:
#      x y z
#    x 2.065830 0.000000 -0.243030 
#    y 0.000000 3.511850 0.000000 
#    z -0.243030 0.000000 3.190260 
# 
# 
# High freq. dielectric constant tensor:
#      x y z
#    x 1.740850 0.000000 -0.002370 
#    y 0.000000 1.719940 0.000000 
#    z -0.002370 0.000000 1.696020 
# 
# From -- ./inp_files/67296.got.cif
#   From: 2010.06.25/outbox.cif.g09.slc.cpg/sg11_34_cif.got.tgz:67296.got - 2010.06.27 23:14:04.
