data_PCOD8073944
_publ_section_title
;
Structure prediction by ZEFSAII (Michael W. Deem and Ramdas Pophale) SiO2 
 PCOD8073944
Probable space group: P 21/M
;
_chemical_formula_sum "Si O2"
_cell_formula_units_Z 24
_cell_length_a 11.203916
_cell_length_b 8.927977
_cell_length_c 21.703892
_cell_angle_alpha 90.000000
_cell_angle_beta 32.062826
_cell_angle_gamma 90.000000
_cell_volume 1152.474714
_symmetry_space_group_name_H-M "P 21/M"
_symmetry_group_IT_number 11
_symmetry_cell_setting 'monoclinic'
loop_
_space_group_symop_operation_xyz
x,y,z
-x,1/2+y,-z
-x,-y,-z
x,1/2-y,z
loop_
_atom_site_type_symbol
_atom_site_label
_atom_site_fract_x
_atom_site_fract_y
_atom_site_fract_z
Si Si1 0.027298 0.421350 0.770239
Si Si2 0.653000 0.422598 0.178499
Si Si3 0.997100 0.574193 0.653827
Si Si4 0.517322 0.079905 0.555741
Si Si5 0.195099 0.927058 0.374555
Si Si6 0.064875 0.578039 0.058639
O O1 0.008015 0.250000 0.755219
O O2 0.974325 0.527888 0.735744
O O3 0.276741 0.448638 0.693225
O O4 0.866908 0.453384 0.899302
O O5 0.593938 0.250000 0.217273
O O6 0.439579 0.522091 0.291683
O O7 0.867549 0.467019 0.124868
O O8 0.714323 0.449687 0.079529
O O9 0.942474 0.750000 0.672142
O O10 0.246165 0.531218 0.516216
O O11 0.823414 0.481880 0.688256
O O12 0.554349 0.250000 0.522418
O O13 0.500000 0.000000 0.500000
O O14 0.176439 0.750000 0.388078
O O15 0.000000 0.000000 0.500000
O O16 0.982049 0.750000 0.087267
#
# Coordination Sequence:
#
# PCOD8073944 Si02
#       6
#     4   4   4   4   4   4
#     4   9  17  32  55  84 115 153 193 235 288 341
#     4  10  21  39  60  88 120 154 199 247 292 345
#     4  10  20  35  54  83 118 153 191 238 289 345
#     4   8  15  27  46  73 108 145 180 221 272 327
#     4  12  26  43  62  84 114 155 197 240 294 356
#     4   9  19  36  62  90 120 156 197 245 293 342
#
# _framework density 20.824750000000002
#
# number of rings (size 3 to 8) (size 9 to 14) (size 15 to 20)
#    0.000    2.333    0.000    2.500    2.333    2.000 
#    0.000    0.833    0.000    0.000    0.000    0.000 
#    0.000    0.000    0.000    0.000    0.000    0.000 
#
# Total GULP energy -297320.566954 kJ/mol
# GULP energy per Si atom -12388.356956 kJ/mol
# Density = 2.077735 g / cm^3
# Si number density = 20.824750 Si / 1000 Ang^3
#
#
#
# Elastic Constant Matrix: (Units=GPa)
#
#
# Indices 1 2 3 4 5 6 
#
# 1 47.7978 28.4847 19.6989 0.0000 6.7479 0.0000
# 2 28.4847 109.5046 41.1791 0.0000 0.3135 0.0000
# 3 19.6989 41.1791 83.0213 0.0000 9.0275 0.0000
# 4 0.0000 0.0000 0.0000 27.4478 0.0000 -1.5886
# 5 6.7479 0.3135 9.0275 0.0000 30.9087 0.0000
# 6 0.0000 0.0000 0.0000 -1.5886 0.0000 31.5139
#
#
#
# Elastic Compliance Matrix: (Units=1/GPa)
#
#
# Indices 1 2 3 4 5 6 
#
# 1 0.026190 -0.005728 -0.002848 0.000000 -0.004828 0.000000
# 2 -0.005728 0.012552 -0.005153 0.000000 0.002628 0.000000
# 3 -0.002848 -0.005153 0.015702 0.000000 -0.003912 0.000000
# 4 0.000000 0.000000 0.000000 0.036539 0.000000 0.001842
# 5 -0.004828 0.002628 -0.003912 0.000000 0.034523 0.000000
# 6 0.000000 0.000000 0.000000 0.001842 0.000000 0.031825
#
#
# Mechanical properties :
#
#
# Convention : Reuss Voigt Hill
#
# Bulk Modulus (GPa) = 37.05490 46.56102 41.80796
# Shear Modulus (GPa) = 25.80176 28.03813 26.91995
#
# Velocity S-wave (km/s) = 3.52375 3.67329 3.59930
# Velocity P-wave (km/s) = 5.86414 6.35593 6.11498
#
# Compressibility (1/GPa) = 0.02698699
#
# Stress axis : x y z
#
# Youngs Moduli (GPa) = 38.18200 79.66802 63.68594
#
# Poissons Ratio (x) = 0.45632 0.18140
# Poissons Ratio (y) = 0.21870 0.32815
# Poissons Ratio (z) = 0.10876 0.41050
#
# Static dielectric constant tensor:
#      x y z
#    x 3.534000 0.000000 0.438580 
#    y 0.000000 3.720180 0.000000 
#    z 0.438580 0.000000 1.864820 
# 
# 
# High freq. dielectric constant tensor:
#      x y z
#    x 1.800830 0.000000 0.011120 
#    y 0.000000 1.814320 0.000000 
#    z 0.011120 0.000000 1.809960 
# 
# From -- ./inp_files/68362.got.cif
#   From: 2010.06.25/outbox.cif.g09.slc.cpg/sg11_35_cif.got.tgz:68362.got - 2010.06.27 23:14:04.
