data_PCOD8073918
_publ_section_title
;
Structure prediction by ZEFSAII (Michael W. Deem and Ramdas Pophale) SiO2 
 PCOD8073918
Probable space group: P 21/M
;
_chemical_formula_sum "Si O2"
_cell_formula_units_Z 28
_cell_length_a 22.161223
_cell_length_b 8.751198
_cell_length_c 24.452230
_cell_angle_alpha 90.000000
_cell_angle_beta 17.424156
_cell_angle_gamma 90.000000
_cell_volume 1420.018427
_symmetry_space_group_name_H-M "P 21/M"
_symmetry_group_IT_number 11
_symmetry_cell_setting 'monoclinic'
loop_
_space_group_symop_operation_xyz
x,y,z
-x,1/2+y,-z
-x,-y,-z
x,1/2-y,z
loop_
_atom_site_type_symbol
_atom_site_label
_atom_site_fract_x
_atom_site_fract_y
_atom_site_fract_z
Si Si1 0.879900 0.429142 0.031760
Si Si2 0.291913 0.930306 0.703123
Si Si3 0.837172 0.925561 0.854384
Si Si4 0.049012 0.073175 0.515297
Si Si5 0.328284 0.073659 0.112579
Si Si6 0.227841 0.572177 0.456392
Si Si7 0.669115 0.929166 0.112006
O O1 0.922018 0.250000 0.996500
O O2 0.751288 0.478924 0.196556
O O3 0.746288 0.474284 0.095887
O O4 0.096702 0.511531 0.838559
O O5 0.309346 0.750000 0.681192
O O6 0.500000 0.000000 0.500000
O O7 0.878822 0.750000 0.831101
O O8 0.650593 0.937476 0.971692
O O9 0.046451 0.996422 0.650650
O O10 0.772233 0.999168 0.968087
O O11 0.084095 0.250000 0.475375
O O12 0.861107 0.033746 0.715101
O O13 0.000000 0.000000 0.500000
O O14 0.236361 0.005859 0.388359
O O15 0.297278 0.250000 0.157711
O O16 0.500000 0.000000 0.000000
O O17 0.189520 0.750000 0.477946
O O18 0.431481 0.541484 0.312875
O O19 0.714650 0.750000 0.081221
#
# Coordination Sequence:
#
# PCOD8073918 Si02
#       7
#     4   4   4   4   4   4   4
#     4  10  22  39  58  89 127 159 198 245 288 343
#     4  10  21  39  64  91 123 161 200 243 292 342
#     4   8  17  34  52  75 107 142 185 234 283 343
#     4  11  22  36  54  77 105 139 182 236 294 353
#     4  10  20  35  54  79 107 139 181 232 290 351
#     4   9  19  36  55  76 107 144 187 238 290 348
#     4  10  20  35  58  83 112 156 197 235 288 347
#
# _framework density 19.718053000000001
#
# number of rings (size 3 to 8) (size 9 to 14) (size 15 to 20)
#    0.000    2.286    0.000    3.429    2.000    3.429 
#    0.000    5.000    0.000    0.000    0.000    0.000 
#    0.000    0.000    0.000    0.000    0.000    0.000 
#
# Total GULP energy -346911.480606 kJ/mol
# GULP energy per Si atom -12389.695736 kJ/mol
# Density = 1.967317 g / cm^3
# Si number density = 19.718053 Si / 1000 Ang^3
#
#
#
# Elastic Constant Matrix: (Units=GPa)
#
#
# Indices 1 2 3 4 5 6 
#
# 1 137.9077 39.6310 54.6453 0.0000 -7.9612 0.0000
# 2 39.6310 75.0764 37.2563 0.0000 -4.4697 0.0000
# 3 54.6453 37.2563 113.4799 0.0000 -0.9689 0.0000
# 4 0.0000 0.0000 0.0000 26.1971 0.0000 -5.2311
# 5 -7.9612 -4.4697 -0.9689 0.0000 27.7852 0.0000
# 6 0.0000 0.0000 0.0000 -5.2311 0.0000 35.2075
#
#
#
# Elastic Compliance Matrix: (Units=1/GPa)
#
#
# Indices 1 2 3 4 5 6 
#
# 1 0.009730 -0.003217 -0.003611 0.000000 0.002145 0.000000
# 2 -0.003217 0.017134 -0.004062 0.000000 0.001693 0.000000
# 3 -0.003611 -0.004062 0.011874 0.000000 -0.001274 0.000000
# 4 0.000000 0.000000 0.000000 0.039339 0.000000 0.005845
# 5 0.002145 0.001693 -0.001274 0.000000 0.036833 0.000000
# 6 0.000000 0.000000 0.000000 0.005845 0.000000 0.029271
#
#
# Mechanical properties :
#
#
# Convention : Reuss Voigt Hill
#
# Bulk Modulus (GPa) = 58.96639 65.50326 62.23482
# Shear Modulus (GPa) = 29.13510 30.83339 29.98425
#
# Velocity S-wave (km/s) = 3.84811 3.95867 3.90378
# Velocity P-wave (km/s) = 7.05079 7.36117 7.20765
#
# Compressibility (1/GPa) = 0.01695881
#
# Stress axis : x y z
#
# Youngs Moduli (GPa) = 102.77131 58.36259 84.21940
#
# Poissons Ratio (x) = 0.18773 0.30413
# Poissons Ratio (y) = 0.33058 0.34209
# Poissons Ratio (z) = 0.37113 0.23706
#
# Static dielectric constant tensor:
#      x y z
#    x 3.841270 0.000000 0.257720 
#    y 0.000000 1.957360 0.000000 
#    z 0.257720 0.000000 3.622530 
# 
# 
# High freq. dielectric constant tensor:
#      x y z
#    x 1.777030 0.000000 -0.002220 
#    y 0.000000 1.752570 0.000000 
#    z -0.002220 0.000000 1.764190 
# 
# From -- ./inp_files/69785.got.cif
#   From: 2010.06.25/outbox.cif.g09.slc.cpg/sg11_35_cif.got.tgz:69785.got - 2010.06.27 23:14:04.
