data_PCOD8073728
_publ_section_title
;
Structure prediction by ZEFSAII (Michael W. Deem and Ramdas Pophale) SiO2 
 PCOD8073728
Probable space group: P 21/M
;
_chemical_formula_sum "Si O2"
_cell_formula_units_Z 32
_cell_length_a 21.241193
_cell_length_b 13.879386
_cell_length_c 15.038165
_cell_angle_alpha 90.000000
_cell_angle_beta 160.460582
_cell_angle_gamma 90.000000
_cell_volume 1482.798295
_symmetry_space_group_name_H-M "P 21/M"
_symmetry_group_IT_number 11
_symmetry_cell_setting 'monoclinic'
loop_
_space_group_symop_operation_xyz
x,y,z
-x,1/2+y,-z
-x,-y,-z
x,1/2-y,z
loop_
_atom_site_type_symbol
_atom_site_label
_atom_site_fract_x
_atom_site_fract_y
_atom_site_fract_z
Si Si1 0.649199 0.637631 0.027335
Si Si2 0.728327 0.011027 0.494032
Si Si3 0.273526 0.646708 0.791984
Si Si4 0.350835 0.141329 0.461753
Si Si5 0.234878 0.641768 0.943582
Si Si6 0.635956 0.914092 0.201846
Si Si7 0.921512 0.860923 0.058008
Si Si8 0.069932 0.053919 0.743458
O O1 0.609054 0.750000 0.953116
O O2 0.461013 0.574807 0.764147
O O3 0.729229 0.626954 0.235338
O O4 0.811094 0.596763 0.179476
O O5 0.900429 0.081502 0.742265
O O6 0.722727 0.935619 0.566123
O O7 0.775581 0.950619 0.466222
O O8 0.169151 0.750000 0.644461
O O9 0.152484 0.569997 0.573306
O O10 0.286813 0.614585 0.911566
O O11 0.486675 0.662836 0.042691
O O12 0.299783 0.250000 0.426375
O O13 0.574805 0.132918 0.745889
O O14 0.257349 0.119256 0.242409
O O15 0.148818 0.750000 0.838061
O O16 0.089786 0.561125 0.783845
O O17 0.500000 0.000000 0.000000
O O18 0.980563 0.750000 0.137731
O O19 0.863406 0.892384 0.079486
#
# Coordination Sequence:
#
# PCOD8073728 Si02
#       8
#     4   4   4   4   4   4   4   4
#     4  11  22  36  58  91 132 165 205 252 308 369
#     4  11  21  41  63  95 120 160 207 265 314 365
#     4  11  21  36  61  88 124 163 204 249 311 379
#     4  10  21  42  68  93 120 163 213 258 310 369
#     4  10  21  39  63  90 121 162 207 259 311 368
#     4  10  20  34  56  87 121 162 200 248 304 364
#     4  11  25  42  65  91 125 165 209 257 312 372
#     4  12  23  40  60  89 128 169 209 248 306 371
#
# _framework density 21.580817
#
# number of rings (size 3 to 8) (size 9 to 14) (size 15 to 20)
#    0.000    1.250    2.500    4.875    0.000    2.000 
#    0.000    0.625    0.000    3.750    0.000    0.000 
#    0.000    0.000    0.000    0.000    0.000    0.000 
#
# Total GULP energy -396698.500793 kJ/mol
# GULP energy per Si atom -12396.828150 kJ/mol
# Density = 2.153170 g / cm^3
# Si number density = 21.580817 Si / 1000 Ang^3
#
#
#
# Elastic Constant Matrix: (Units=GPa)
#
#
# Indices 1 2 3 4 5 6 
#
# 1 72.4220 39.3486 30.6001 0.0000 -12.0460 0.0000
# 2 39.3486 144.3440 52.1931 0.0000 -10.3460 0.0000
# 3 30.6001 52.1931 91.8003 0.0000 -25.6883 0.0000
# 4 0.0000 0.0000 0.0000 33.3057 0.0000 -2.4435
# 5 -12.0460 -10.3460 -25.6883 0.0000 30.8540 0.0000
# 6 0.0000 0.0000 0.0000 -2.4435 0.0000 28.5474
#
#
#
# Elastic Compliance Matrix: (Units=1/GPa)
#
#
# Indices 1 2 3 4 5 6 
#
# 1 0.017472 -0.003463 -0.002961 0.000000 0.003195 0.000000
# 2 -0.003463 0.009466 -0.004847 0.000000 -0.002213 0.000000
# 3 -0.002961 -0.004847 0.018067 0.000000 0.012261 0.000000
# 4 0.000000 0.000000 0.000000 0.030215 0.000000 0.002586
# 5 0.003195 -0.002213 0.012261 0.000000 0.043124 0.000000
# 6 0.000000 0.000000 0.000000 0.002586 0.000000 0.035251
#
#
# Mechanical properties :
#
#
# Convention : Reuss Voigt Hill
#
# Bulk Modulus (GPa) = 44.51819 61.42776 52.97297
# Shear Modulus (GPa) = 27.22961 30.96972 29.09967
#
# Velocity S-wave (km/s) = 3.55597 3.79233 3.67605
# Velocity P-wave (km/s) = 6.12644 6.90663 6.52820
#
# Compressibility (1/GPa) = 0.02246273
#
# Stress axis : x y z
#
# Youngs Moduli (GPa) = 57.23399 105.64250 55.35044
#
# Poissons Ratio (x) = 0.36587 0.16389
# Poissons Ratio (y) = 0.19822 0.26827
# Poissons Ratio (z) = 0.16947 0.51202
#
# Static dielectric constant tensor:
#      x y z
#    x 3.136930 0.000000 -0.871580 
#    y 0.000000 4.175250 0.000000 
#    z -0.871580 0.000000 3.341890 
# 
# 
# High freq. dielectric constant tensor:
#      x y z
#    x 1.837590 0.000000 -0.001030 
#    y 0.000000 1.871720 0.000000 
#    z -0.001030 0.000000 1.838500 
# 
# From -- ./inp_files/55017.got.cif
#   From: 2010.06.25/outbox.cif.g09.slc.cpg/sg11_28_cif.got.tgz:55017.got - 2010.06.27 23:14:04.
