data_PCOD8073980
_publ_section_title
;
Structure prediction by ZEFSAII (Michael W. Deem and Ramdas Pophale) SiO2 
 PCOD8073980
Probable space group: P 21/M
;
_chemical_formula_sum "Si O2"
_cell_formula_units_Z 28
_cell_length_a 20.197369
_cell_length_b 8.635646
_cell_length_c 17.597164
_cell_angle_alpha 90.000000
_cell_angle_beta 28.485545
_cell_angle_gamma 90.000000
_cell_volume 1463.839143
_symmetry_space_group_name_H-M "P 21/M"
_symmetry_group_IT_number 11
_symmetry_cell_setting 'monoclinic'
loop_
_space_group_symop_operation_xyz
x,y,z
-x,1/2+y,-z
-x,-y,-z
x,1/2-y,z
loop_
_atom_site_type_symbol
_atom_site_label
_atom_site_fract_x
_atom_site_fract_y
_atom_site_fract_z
Si Si1 0.851041 0.568559 0.858386
Si Si2 0.353119 0.429039 0.067843
Si Si3 0.141639 0.432349 0.978971
Si Si4 0.673128 0.428340 0.749056
Si Si5 0.347883 0.067141 0.643819
Si Si6 0.830135 0.067861 0.305466
Si Si7 0.858608 0.929356 0.436591
O O1 0.887630 0.750000 0.818262
O O2 0.726134 0.523348 0.928846
O O3 0.985801 0.474509 0.696593
O O4 0.807276 0.520675 0.988166
O O5 0.329922 0.250000 0.111975
O O6 0.294065 0.530390 0.196647
O O7 0.513583 0.465037 0.891311
O O8 0.141503 0.250000 0.969588
O O9 0.246799 0.504526 0.811109
O O10 0.983665 0.491560 0.125411
O O11 0.711229 0.250000 0.696122
O O12 0.762171 0.537300 0.605447
O O13 0.357591 0.250000 0.640899
O O14 0.500000 0.000000 0.500000
O O15 0.286453 0.020662 0.624513
O O16 0.812616 0.250000 0.310762
O O17 0.806575 0.029535 0.417528
O O18 0.851086 0.750000 0.422523
#
# Coordination Sequence:
#
# PCOD8073980 Si02
#       7
#     4   4   4   4   4   4   4
#     4   9  18  36  58  80 105 137 179 224 270 318
#     4   9  19  35  56  80 107 142 184 226 268 318
#     4   8  17  34  57  80 105 139 179 222 269 321
#     4  10  20  35  55  79 109 146 183 221 270 324
#     4  11  22  36  54  82 115 146 181 222 267 317
#     4  10  20  38  60  80 104 140 182 224 272 322
#     4  11  22  36  55  82 111 139 176 222 270 323
#
# _framework density 19.127783999999998
#
# number of rings (size 3 to 8) (size 9 to 14) (size 15 to 20)
#    0.000    2.286    0.000    3.857    0.000    2.857 
#    0.000    9.286    0.000    0.000    0.000    0.000 
#    0.000    0.000    0.000    0.000    0.000    0.000 
#
# Total GULP energy -347259.517436 kJ/mol
# GULP energy per Si atom -12402.125623 kJ/mol
# Density = 1.908425 g / cm^3
# Si number density = 19.127784 Si / 1000 Ang^3
#
#
#
# Elastic Constant Matrix: (Units=GPa)
#
#
# Indices 1 2 3 4 5 6 
#
# 1 116.3511 20.9151 24.3933 0.0000 -14.4748 0.0000
# 2 20.9151 56.8888 24.2024 0.0000 -2.0899 0.0000
# 3 24.3933 24.2024 63.5527 0.0000 1.7417 0.0000
# 4 0.0000 0.0000 0.0000 22.9669 0.0000 -0.3462
# 5 -14.4748 -2.0899 1.7417 0.0000 22.2498 0.0000
# 6 0.0000 0.0000 0.0000 -0.3462 0.0000 30.9373
#
#
#
# Elastic Compliance Matrix: (Units=1/GPa)
#
#
# Indices 1 2 3 4 5 6 
#
# 1 0.010565 -0.002176 -0.003417 0.000000 0.006936 0.000000
# 2 -0.002176 0.021576 -0.007414 0.000000 0.001192 0.000000
# 3 -0.003417 -0.007414 0.019993 0.000000 -0.004484 0.000000
# 4 0.000000 0.000000 0.000000 0.043548 0.000000 0.000487
# 5 0.006936 0.001192 -0.004484 0.000000 0.049920 0.000000
# 6 0.000000 0.000000 0.000000 0.000487 0.000000 0.032329
#
#
# Mechanical properties :
#
#
# Convention : Reuss Voigt Hill
#
# Bulk Modulus (GPa) = 38.28407 41.75716 40.02061
# Shear Modulus (GPa) = 23.51270 26.38291 24.94780
#
# Velocity S-wave (km/s) = 3.50986 3.71792 3.61539
# Velocity P-wave (km/s) = 6.04019 6.34890 6.19647
#
# Compressibility (1/GPa) = 0.02612053
#
# Stress axis : x y z
#
# Youngs Moduli (GPa) = 94.65191 46.34750 50.01806
#
# Poissons Ratio (x) = 0.10085 0.17089
# Poissons Ratio (y) = 0.20595 0.37085
# Poissons Ratio (z) = 0.32339 0.34363
#
# Static dielectric constant tensor:
#      x y z
#    x 3.578760 0.000000 0.040240 
#    y 0.000000 3.361750 0.000000 
#    z 0.040240 0.000000 3.584810 
# 
# 
# High freq. dielectric constant tensor:
#      x y z
#    x 1.749950 0.000000 0.003750 
#    y 0.000000 1.733960 0.000000 
#    z 0.003750 0.000000 1.740770 
# 
# From -- ./inp_files/61232.got.cif
#   From: 2010.06.25/outbox.cif.g09.slc.cpg/sg11_31_cif.got.tgz:61232.got - 2010.06.27 23:14:04.
