data_PCOD8073475
_publ_section_title
;
Structure prediction by ZEFSAII (Michael W. Deem and Ramdas Pophale) SiO2 
 PCOD8073475
Probable space group: P 21/M
;
_chemical_formula_sum "Si O2"
_cell_formula_units_Z 32
_cell_length_a 21.615830
_cell_length_b 9.068212
_cell_length_c 27.742928
_cell_angle_alpha 90.000000
_cell_angle_beta 162.625049
_cell_angle_gamma 90.000000
_cell_volume 1623.939987
_symmetry_space_group_name_H-M "P 21/M"
_symmetry_group_IT_number 11
_symmetry_cell_setting 'monoclinic'
loop_
_space_group_symop_operation_xyz
x,y,z
-x,1/2+y,-z
-x,-y,-z
x,1/2-y,z
loop_
_atom_site_type_symbol
_atom_site_label
_atom_site_fract_x
_atom_site_fract_y
_atom_site_fract_z
Si Si1 0.522159 0.079266 0.259827
Si Si2 0.097016 0.077513 0.406084
Si Si3 0.177976 0.580146 0.063322
Si Si4 0.382630 0.911456 0.452379
Si Si5 0.765375 0.911948 0.799837
Si Si6 0.658978 0.579612 0.083678
Si Si7 0.345087 0.415673 0.027911
Si Si8 0.935965 0.582355 0.727722
O O1 0.546023 0.250000 0.292634
O O2 0.718325 0.988901 0.424785
O O3 0.304991 0.019057 0.119994
O O4 0.516887 0.062149 0.197524
O O5 0.069444 0.250000 0.397984
O O6 0.156472 0.055338 0.394285
O O7 0.883181 0.994104 0.257537
O O8 0.237432 0.750000 0.097662
O O9 0.235129 0.538408 0.160609
O O10 0.927497 0.552675 0.876013
O O11 0.327491 0.750000 0.391380
O O12 0.531889 0.903113 0.608973
O O13 0.500000 0.000000 0.500000
O O14 0.173007 0.987323 0.312675
O O15 0.828411 0.750000 0.867872
O O16 0.679901 0.750000 0.114022
O O17 0.567177 0.563812 0.961039
O O18 0.500000 0.500000 0.000000
O O19 0.249824 0.250000 0.961417
O O20 0.174552 0.540192 0.907837
O O21 0.912409 0.750000 0.726038
#
# Coordination Sequence:
#
# PCOD8073475 Si02
#       8
#     4   4   4   4   4   4   4   4
#     4  11  22  36  56  84 116 150 188 232 286 338
#     4  10  21  38  61  90 118 151 192 232 278 334
#     4  10  20  34  54  77 103 139 182 231 284 340
#     4  11  23  36  51  73 103 140 186 237 289 341
#     4   9  20  37  52  71 100 137 184 234 287 343
#     4  10  20  39  66  93 123 156 192 232 275 331
#     4   9  21  39  59  86 118 153 191 233 283 340
#     4  10  21  37  57  80 109 146 191 240 288 343
#
# _framework density 19.705162999999999
#
# number of rings (size 3 to 8) (size 9 to 14) (size 15 to 20)
#    0.000    2.000    0.000    3.000    1.750    6.500 
#    0.000    0.625    0.000    0.000    0.000    0.000 
#    0.000    0.000    0.000    0.000    0.000    0.000 
#
# Total GULP energy -396665.780110 kJ/mol
# GULP energy per Si atom -12395.805628 kJ/mol
# Density = 1.966031 g / cm^3
# Si number density = 19.705163 Si / 1000 Ang^3
#
#
#
# Elastic Constant Matrix: (Units=GPa)
#
#
# Indices 1 2 3 4 5 6 
#
# 1 106.4266 60.7034 33.6782 0.0000 8.7824 0.0000
# 2 60.7034 139.2038 34.2297 0.0000 6.4807 0.0000
# 3 33.6782 34.2297 52.0185 0.0000 -4.3667 0.0000
# 4 0.0000 0.0000 0.0000 31.7773 0.0000 5.9818
# 5 8.7824 6.4807 -4.3667 0.0000 30.0638 0.0000
# 6 0.0000 0.0000 0.0000 5.9818 0.0000 34.2618
#
#
#
# Elastic Compliance Matrix: (Units=1/GPa)
#
#
# Indices 1 2 3 4 5 6 
#
# 1 0.014413 -0.004421 -0.006778 0.000000 -0.004242 0.000000
# 2 -0.004421 0.010148 -0.003939 0.000000 -0.001468 0.000000
# 3 -0.006778 -0.003939 0.026768 0.000000 0.006717 0.000000
# 4 0.000000 0.000000 0.000000 0.032538 0.000000 -0.005681
# 5 -0.004242 -0.001468 0.006717 0.000000 0.035794 0.000000
# 6 0.000000 0.000000 0.000000 -0.005681 0.000000 0.030179
#
#
# Mechanical properties :
#
#
# Convention : Reuss Voigt Hill
#
# Bulk Modulus (GPa) = 47.49884 61.65240 54.57562
# Shear Modulus (GPa) = 26.71874 30.48974 28.60424
#
# Velocity S-wave (km/s) = 3.68628 3.93784 3.81414
# Velocity P-wave (km/s) = 6.50195 7.21324 6.86681
#
# Compressibility (1/GPa) = 0.02105314
#
# Stress axis : x y z
#
# Youngs Moduli (GPa) = 69.38352 98.53680 37.35766
#
# Poissons Ratio (x) = 0.43561 0.25322
# Poissons Ratio (y) = 0.30673 0.14716
# Poissons Ratio (z) = 0.47030 0.38815
#
# Static dielectric constant tensor:
#      x y z
#    x 2.524350 0.000000 -0.407270 
#    y 0.000000 3.467330 0.000000 
#    z -0.407270 0.000000 3.588230 
# 
# 
# High freq. dielectric constant tensor:
#      x y z
#    x 1.756460 0.000000 -0.005320 
#    y 0.000000 1.786190 0.000000 
#    z -0.005320 0.000000 1.754720 
# 
# From -- ./inp_files/72214.got.cif
#   From: 2010.06.25/outbox.cif.g09.slc.cpg/sg11_37_cif.got.tgz:72214.got - 2010.06.27 23:14:04.
