data_PCOD8073592
_publ_section_title
;
Structure prediction by ZEFSAII (Michael W. Deem and Ramdas Pophale) SiO2 
 PCOD8073592
Probable space group: P 21/M
;
_chemical_formula_sum "Si O2"
_cell_formula_units_Z 32
_cell_length_a 12.946947
_cell_length_b 9.129720
_cell_length_c 14.705077
_cell_angle_alpha 90.000000
_cell_angle_beta 99.011310
_cell_angle_gamma 90.000000
_cell_volume 1716.716067
_symmetry_space_group_name_H-M "P 21/M"
_symmetry_group_IT_number 11
_symmetry_cell_setting 'monoclinic'
loop_
_space_group_symop_operation_xyz
x,y,z
-x,1/2+y,-z
-x,-y,-z
x,1/2-y,z
loop_
_atom_site_type_symbol
_atom_site_label
_atom_site_fract_x
_atom_site_fract_y
_atom_site_fract_z
Si Si1 0.119540 0.075798 0.154833
Si Si2 0.017475 0.085999 0.411613
Si Si3 0.693693 0.575481 0.137055
Si Si4 0.775064 0.583567 0.654220
Si Si5 0.550981 0.921330 0.591132
Si Si6 0.308947 0.423129 0.068255
Si Si7 0.910672 0.424028 0.209385
Si Si8 0.493464 0.578033 0.787280
O O1 0.118199 0.250000 0.163198
O O2 0.177977 0.006681 0.250122
O O3 0.190892 0.021430 0.079775
O O4 0.996959 0.027943 0.143439
O O5 0.980091 0.250000 0.424396
O O6 0.141737 0.076678 0.414900
O O7 0.955314 0.028573 0.314407
O O8 0.000000 0.000000 0.500000
O O9 0.695352 0.750000 0.146664
O O10 0.806060 0.513767 0.179856
O O11 0.605397 0.509794 0.189155
O O12 0.668134 0.523868 0.030650
O O13 0.746483 0.750000 0.677178
O O14 0.667355 0.509390 0.609378
O O15 0.549323 0.750000 0.569891
O O16 0.496818 0.955210 0.680386
O O17 0.500000 0.000000 0.500000
O O18 0.307308 0.250000 0.073701
O O19 0.400431 0.479906 0.148395
O O20 0.889046 0.250000 0.202200
O O21 0.477828 0.750000 0.804508
#
# Coordination Sequence:
#
# PCOD8073592 Si02
#       8
#     4   4   4   4   4   4   4   4
#     4   8  13  28  56  80  98 129 177 224 259 309
#     4   9  18  32  53  78 101 132 175 217 259 314
#     4  11  23  35  51  79 115 147 178 225 277 319
#     4   8  14  29  51  73  96 127 169 211 253 306
#     4  10  20  34  55  81 105 134 174 219 268 319
#     4   9  17  32  56  83 105 136 184 229 271 322
#     4   9  19  35  54  77 107 142 181 220 265 328
#     4  10  20  37  59  78 104 144 188 225 264 326
#
# _framework density 18.640238
#
# number of rings (size 3 to 8) (size 9 to 14) (size 15 to 20)
#    0.000    2.750    1.250    2.250    0.000    2.500 
#    0.000    3.750    0.000    2.250    0.000    0.000 
#    0.000    0.000    0.000    0.000    0.000    0.000 
#
# Total GULP energy -396451.498398 kJ/mol
# GULP energy per Si atom -12389.109325 kJ/mol
# Density = 1.859781 g / cm^3
# Si number density = 18.640238 Si / 1000 Ang^3
#
#
#
# Elastic Constant Matrix: (Units=GPa)
#
#
# Indices 1 2 3 4 5 6 
#
# 1 142.3048 41.8117 62.6801 0.0000 -2.7802 0.0000
# 2 41.8117 43.2780 40.2517 0.0000 -3.6989 0.0000
# 3 62.6801 40.2517 114.8781 0.0000 -4.9082 0.0000
# 4 0.0000 0.0000 0.0000 25.3898 0.0000 1.8934
# 5 -2.7802 -3.6989 -4.9082 0.0000 24.7540 0.0000
# 6 0.0000 0.0000 0.0000 1.8934 0.0000 20.2920
#
#
#
# Elastic Compliance Matrix: (Units=1/GPa)
#
#
# Indices 1 2 3 4 5 6 
#
# 1 0.010578 -0.007234 -0.003260 0.000000 -0.000539 0.000000
# 2 -0.007234 0.039412 -0.009728 0.000000 0.003148 0.000000
# 3 -0.003260 -0.009728 0.013933 0.000000 0.000943 0.000000
# 4 0.000000 0.000000 0.000000 0.039662 0.000000 -0.003701
# 5 -0.000539 0.003148 0.000943 0.000000 0.040994 0.000000
# 6 0.000000 0.000000 0.000000 -0.003701 0.000000 0.049626
#
#
# Mechanical properties :
#
#
# Convention : Reuss Voigt Hill
#
# Bulk Modulus (GPa) = 42.59150 65.54977 54.07063
# Shear Modulus (GPa) = 20.62078 24.46831 22.54455
#
# Velocity S-wave (km/s) = 3.32964 3.62700 3.48150
# Velocity P-wave (km/s) = 6.13847 7.26514 6.72544
#
# Compressibility (1/GPa) = 0.02347887
#
# Stress axis : x y z
#
# Youngs Moduli (GPa) = 94.53659 25.37311 71.77457
#
# Poissons Ratio (x) = 0.18354 0.23399
# Poissons Ratio (y) = 0.68383 0.69823
# Poissons Ratio (z) = 0.30819 0.24683
#
# Static dielectric constant tensor:
#      x y z
#    x 3.870620 0.000000 0.016700 
#    y 0.000000 3.009270 0.000000 
#    z 0.016700 0.000000 3.506890 
# 
# 
# High freq. dielectric constant tensor:
#      x y z
#    x 1.739800 0.000000 -0.007050 
#    y 0.000000 1.676490 0.000000 
#    z -0.007050 0.000000 1.723930 
# 
# From -- ./inp_files/49380.got.cif
#   From: 2010.06.25/outbox.cif.g09.slc.cpg/sg11_25_cif.got.tgz:49380.got - 2010.06.27 23:14:04.
