data_PCOD8073948
_publ_section_title
;
Structure prediction by ZEFSAII (Michael W. Deem and Ramdas Pophale) SiO2 
 PCOD8073948
Probable space group: P 21/M
;
_chemical_formula_sum "Si O2"
_cell_formula_units_Z 20
_cell_length_a 14.077772
_cell_length_b 13.298367
_cell_length_c 9.178326
_cell_angle_alpha 90.000000
_cell_angle_beta 40.666198
_cell_angle_gamma 90.000000
_cell_volume 1119.723525
_symmetry_space_group_name_H-M "P 21/M"
_symmetry_group_IT_number 11
_symmetry_cell_setting 'monoclinic'
loop_
_space_group_symop_operation_xyz
x,y,z
-x,1/2+y,-z
-x,-y,-z
x,1/2-y,z
loop_
_atom_site_type_symbol
_atom_site_label
_atom_site_fract_x
_atom_site_fract_y
_atom_site_fract_z
Si Si1 0.900356 0.635632 0.217867
Si Si2 0.676356 0.017454 0.948538
Si Si3 0.912375 0.543522 0.891637
Si Si4 0.645325 0.547300 0.676404
Si Si5 0.189038 0.864921 0.443904
O O1 0.956261 0.750000 0.159151
O O2 0.744749 0.629339 0.480737
O O3 0.020880 0.566500 0.155358
O O4 0.877309 0.602630 0.079041
O O5 0.770349 0.110500 0.772103
O O6 0.760786 0.967128 0.983109
O O7 0.649154 0.936544 0.848556
O O8 0.519818 0.055944 0.189528
O O9 0.019922 0.609301 0.666293
O O10 0.712227 0.435437 0.564543
O O11 0.221960 0.750000 0.443230
#
# Coordination Sequence:
#
# PCOD8073948 Si02
#       5
#     4   4   4   4   4
#     4  10  21  36  53  77 105 142 179 214 259 309
#     4   9  18  36  53  78 106 140 168 216 268 300
#     4  10  20  35  55  76 110 137 173 220 260 306
#     4   8  19  36  53  77 108 137 167 221 257 310
#     4   9  17  31  53  78 105 136 169 211 260 311
#
# _framework density 17.861552
#
# number of rings (size 3 to 8) (size 9 to 14) (size 15 to 20)
#    1.200    1.600    0.000    1.200    0.000    2.400 
#    0.000    3.000    0.000    0.000    0.000    0.000 
#    0.000    0.000    0.000    0.000    0.000    0.000 
#
# Total GULP energy -247855.318628 kJ/mol
# GULP energy per Si atom -12392.765931 kJ/mol
# Density = 1.782090 g / cm^3
# Si number density = 17.861552 Si / 1000 Ang^3
#
#
#
# Elastic Constant Matrix: (Units=GPa)
#
#
# Indices 1 2 3 4 5 6 
#
# 1 91.4700 16.8039 30.8694 0.0000 -14.9937 0.0000
# 2 16.8039 89.7425 14.7034 0.0000 5.8870 0.0000
# 3 30.8694 14.7034 66.5122 0.0000 -13.2138 0.0000
# 4 0.0000 0.0000 0.0000 13.2839 0.0000 2.1060
# 5 -14.9937 5.8870 -13.2138 0.0000 16.2189 0.0000
# 6 0.0000 0.0000 0.0000 2.1060 0.0000 12.1567
#
#
#
# Elastic Compliance Matrix: (Units=1/GPa)
#
#
# Indices 1 2 3 4 5 6 
#
# 1 0.014640 -0.002849 -0.003902 0.000000 0.011389 0.000000
# 2 -0.002849 0.012933 -0.003571 0.000000 -0.010237 0.000000
# 3 -0.003902 -0.003571 0.020493 0.000000 0.014385 0.000000
# 4 0.000000 0.000000 0.000000 0.077405 0.000000 -0.013410
# 5 0.011389 -0.010237 0.014385 0.000000 0.087620 0.000000
# 6 0.000000 0.000000 0.000000 -0.013410 0.000000 0.084582
#
#
# Mechanical properties :
#
#
# Convention : Reuss Voigt Hill
#
# Bulk Modulus (GPa) = 36.46663 41.38646 38.92654
# Shear Modulus (GPa) = 15.26918 20.68844 17.97881
#
# Velocity S-wave (km/s) = 2.92698 3.40702 3.17608
# Velocity P-wave (km/s) = 5.64655 6.22078 5.94061
#
# Compressibility (1/GPa) = 0.02742233
#
# Stress axis : x y z
#
# Youngs Moduli (GPa) = 68.30755 77.32161 48.79732
#
# Poissons Ratio (x) = 0.22029 0.19041
# Poissons Ratio (y) = 0.19461 0.17423
# Poissons Ratio (z) = 0.26654 0.27608
#
# Static dielectric constant tensor:
#      x y z
#    x 2.940370 0.000000 -0.011320 
#    y 0.000000 3.000180 0.000000 
#    z -0.011320 0.000000 3.407630 
# 
# 
# High freq. dielectric constant tensor:
#      x y z
#    x 1.662800 0.000000 -0.006700 
#    y 0.000000 1.665200 0.000000 
#    z -0.006700 0.000000 1.702640 
# 
# From -- ./inp_files/17146.got.cif
#   From: 2010.06.25/outbox.cif.g09.slc.cpg/sg11_9_cif.got.tgz:17146.got - 2010.06.27 23:14:04.
