data_PCOD8073573
_publ_section_title
;
Structure prediction by ZEFSAII (Michael W. Deem and Ramdas Pophale) SiO2 
 PCOD8073573
Probable space group: P 21/M
;
_chemical_formula_sum "Si O2"
_cell_formula_units_Z 28
_cell_length_a 15.386925
_cell_length_b 14.265248
_cell_length_c 7.973767
_cell_angle_alpha 90.000000
_cell_angle_beta 130.617710
_cell_angle_gamma 90.000000
_cell_volume 1328.546010
_symmetry_space_group_name_H-M "P 21/M"
_symmetry_group_IT_number 11
_symmetry_cell_setting 'monoclinic'
loop_
_space_group_symop_operation_xyz
x,y,z
-x,1/2+y,-z
-x,-y,-z
x,1/2-y,z
loop_
_atom_site_type_symbol
_atom_site_label
_atom_site_fract_x
_atom_site_fract_y
_atom_site_fract_z
Si Si1 0.622305 0.467833 0.949833
Si Si2 0.444376 0.354024 0.527644
Si Si3 0.501111 0.646576 0.784737
Si Si4 0.268903 0.642834 0.626026
Si Si5 0.184332 0.144004 0.222139
Si Si6 0.852450 0.953152 0.158539
Si Si7 0.097854 0.473907 0.413760
O O1 0.527840 0.431641 0.703522
O O2 0.568929 0.563238 0.969115
O O3 0.649633 0.387680 0.117793
O O4 0.737673 0.486487 0.988928
O O5 0.480200 0.250000 0.633583
O O6 0.444002 0.358586 0.328238
O O7 0.316327 0.377787 0.425076
O O8 0.526875 0.750000 0.897316
O O9 0.362383 0.634113 0.593564
O O10 0.224570 0.750000 0.591498
O O11 0.159525 0.575491 0.470296
O O12 0.152672 0.250000 0.222201
O O13 0.112615 0.082232 0.261455
O O14 0.148560 0.127867 0.982528
O O15 0.853808 0.920666 0.357984
O O16 0.962480 0.017502 0.266265
#
# Coordination Sequence:
#
# PCOD8073573 Si02
#       7
#     4   4   4   4   4   4   4
#     4  11  20  36  61  86 120 166 198 255 317 367
#     4  10  21  36  56  89 126 158 202 252 309 377
#     4  10  20  34  54  84 120 157 199 242 304 376
#     4  10  22  38  59  88 120 159 210 259 310 374
#     4  11  23  41  65  94 126 163 211 258 308 377
#     4  10  23  41  64  90 123 166 212 257 310 370
#     4  10  23  44  64  90 126 166 210 263 315 366
#
# _framework density 21.075671
#
# number of rings (size 3 to 8) (size 9 to 14) (size 15 to 20)
#    0.000    1.714    1.429    2.571    2.000    2.286 
#    0.000   11.429    0.000    0.000    0.000    0.000 
#    0.000    0.000    0.000    0.000    0.000    0.000 
#
# Total GULP energy -346992.804819 kJ/mol
# GULP energy per Si atom -12392.600172 kJ/mol
# Density = 2.102770 g / cm^3
# Si number density = 21.075671 Si / 1000 Ang^3
#
#
#
# Elastic Constant Matrix: (Units=GPa)
#
#
# Indices 1 2 3 4 5 6 
#
# 1 83.5335 39.5109 14.8664 0.0000 7.6168 0.0000
# 2 39.5109 117.2198 46.0113 0.0000 4.9068 0.0000
# 3 14.8664 46.0113 67.7777 0.0000 7.5181 0.0000
# 4 0.0000 0.0000 0.0000 24.9708 0.0000 -4.6534
# 5 7.6168 4.9068 7.5181 0.0000 33.5012 0.0000
# 6 0.0000 0.0000 0.0000 -4.6534 0.0000 19.7180
#
#
#
# Elastic Compliance Matrix: (Units=1/GPa)
#
#
# Indices 1 2 3 4 5 6 
#
# 1 0.014473 -0.004958 0.000488 0.000000 -0.002674 0.000000
# 2 -0.004958 0.013329 -0.008070 0.000000 0.000986 0.000000
# 3 0.000488 -0.008070 0.020517 0.000000 -0.003533 0.000000
# 4 0.000000 0.000000 0.000000 0.041889 0.000000 0.009886
# 5 -0.002674 0.000986 -0.003533 0.000000 0.031106 0.000000
# 6 0.000000 0.000000 0.000000 0.009886 0.000000 0.053048
#
#
# Mechanical properties :
#
#
# Convention : Reuss Voigt Hill
#
# Bulk Modulus (GPa) = 43.03148 52.14535 47.58842
# Shear Modulus (GPa) = 24.13250 26.84749 25.48999
#
# Velocity S-wave (km/s) = 3.38752 3.57299 3.48149
# Velocity P-wave (km/s) = 5.98016 6.46664 6.22815
#
# Compressibility (1/GPa) = 0.02323880
#
# Stress axis : x y z
#
# Youngs Moduli (GPa) = 69.09238 75.02684 48.73897
#
# Poissons Ratio (x) = 0.37199 -0.02377
# Poissons Ratio (y) = 0.34256 0.39333
# Poissons Ratio (z) = -0.03370 0.60547
#
# Static dielectric constant tensor:
#      x y z
#    x 4.002020 0.000000 0.045170 
#    y 0.000000 4.016280 0.000000 
#    z 0.045170 0.000000 3.625970 
# 
# 
# High freq. dielectric constant tensor:
#      x y z
#    x 1.842670 0.000000 0.008510 
#    y 0.000000 1.819020 0.000000 
#    z 0.008510 0.000000 1.807170 
# 
# From -- ./inp_files/22270.got.cif
#   From: 2010.06.25/outbox.cif.g09.slc.cpg/sg11_12_cif.got.tgz:22270.got - 2010.06.27 23:14:04.
