data_PCOD8073803
_publ_section_title
;
Structure prediction by ZEFSAII (Michael W. Deem and Ramdas Pophale) SiO2 
 PCOD8073803
Probable space group: P 21/M
;
_chemical_formula_sum "Si O2"
_cell_formula_units_Z 28
_cell_length_a 17.106739
_cell_length_b 8.498913
_cell_length_c 22.118250
_cell_angle_alpha 90.000000
_cell_angle_beta 153.802829
_cell_angle_gamma 90.000000
_cell_volume 1419.627027
_symmetry_space_group_name_H-M "P 21/M"
_symmetry_group_IT_number 11
_symmetry_cell_setting 'monoclinic'
loop_
_space_group_symop_operation_xyz
x,y,z
-x,1/2+y,-z
-x,-y,-z
x,1/2-y,z
loop_
_atom_site_type_symbol
_atom_site_label
_atom_site_fract_x
_atom_site_fract_y
_atom_site_fract_z
Si Si1 0.956400 0.434234 0.802692
Si Si2 0.519956 0.932031 0.343898
Si Si3 0.105138 0.932999 0.376823
Si Si4 0.644963 0.567958 0.886900
Si Si5 0.763741 0.067003 0.191151
Si Si6 0.631720 0.934083 0.641403
Si Si7 0.501637 0.932921 0.097678
O O1 0.916750 0.250000 0.783079
O O2 0.913453 0.490412 0.705052
O O3 0.833085 0.532042 0.762402
O O4 0.156762 0.478161 0.956888
O O5 0.570938 0.750000 0.384459
O O6 0.698441 0.033393 0.463766
O O7 0.405910 0.961955 0.205148
O O8 0.402172 0.981132 0.318967
O O9 0.060426 0.750000 0.351242
O O10 0.969089 0.026891 0.324802
O O11 0.628712 0.750000 0.857848
O O12 0.515543 0.531580 0.852919
O O13 0.737251 0.250000 0.185693
O O14 0.689861 0.972537 0.197665
O O15 0.656009 0.014512 0.056706
O O16 0.597956 0.750000 0.625935
O O17 0.500000 0.000000 0.500000
O O18 0.491274 0.750000 0.106438
#
# Coordination Sequence:
#
# PCOD8073803 Si02
#       7
#     4   4   4   4   4   4   4
#     4  10  22  39  64  92 122 159 203 251 302 362
#     4  12  26  43  63  89 124 164 204 249 304 366
#     4  11  21  38  63  92 123 159 204 252 303 361
#     4  11  23  42  64  90 125 163 202 249 308 365
#     4  10  20  34  58  91 125 160 205 253 300 354
#     4  12  24  40  64  92 123 159 203 254 305 357
#     4  10  20  35  58  89 125 162 203 250 302 358
#
# _framework density 19.723490000000002
#
# number of rings (size 3 to 8) (size 9 to 14) (size 15 to 20)
#    0.000    1.143    2.857    4.286    0.000    3.429 
#    0.000    0.714    0.000    0.000    0.000    0.000 
#    0.000    0.000    0.000    0.000    0.000    0.000 
#
# Total GULP energy -347429.640743 kJ/mol
# GULP energy per Si atom -12408.201455 kJ/mol
# Density = 1.967860 g / cm^3
# Si number density = 19.723490 Si / 1000 Ang^3
#
#
#
# Elastic Constant Matrix: (Units=GPa)
#
#
# Indices 1 2 3 4 5 6 
#
# 1 121.4602 24.7992 39.8210 0.0000 5.3908 0.0000
# 2 24.7992 64.8463 17.9777 0.0000 -2.6192 0.0000
# 3 39.8210 17.9777 77.4754 0.0000 0.9688 0.0000
# 4 0.0000 0.0000 0.0000 30.8048 0.0000 2.3432
# 5 5.3908 -2.6192 0.9688 0.0000 34.8814 0.0000
# 6 0.0000 0.0000 0.0000 2.3432 0.0000 35.0090
#
#
#
# Elastic Compliance Matrix: (Units=1/GPa)
#
#
# Indices 1 2 3 4 5 6 
#
# 1 0.010407 -0.002748 -0.004690 0.000000 -0.001684 0.000000
# 2 -0.002748 0.017270 -0.002618 0.000000 0.001794 0.000000
# 3 -0.004690 -0.002618 0.015924 0.000000 0.000086 0.000000
# 4 0.000000 0.000000 0.000000 0.032629 0.000000 -0.002184
# 5 -0.001684 0.001794 0.000086 0.000000 0.029061 0.000000
# 6 0.000000 0.000000 0.000000 -0.002184 0.000000 0.028710
#
#
# Mechanical properties :
#
#
# Convention : Reuss Voigt Hill
#
# Bulk Modulus (GPa) = 42.57101 47.66418 45.11760
# Shear Modulus (GPa) = 30.87529 32.21796 31.54662
#
# Velocity S-wave (km/s) = 3.96081 4.04602 4.00364
# Velocity P-wave (km/s) = 6.52290 6.78570 6.65559
#
# Compressibility (1/GPa) = 0.02349016
#
# Stress axis : x y z
#
# Youngs Moduli (GPa) = 96.09308 57.90385 62.79699
#
# Poissons Ratio (x) = 0.15909 0.29453
# Poissons Ratio (y) = 0.26402 0.16438
# Poissons Ratio (z) = 0.45069 0.15157
#
# Static dielectric constant tensor:
#      x y z
#    x 3.658480 0.000000 0.117040 
#    y 0.000000 3.599720 0.000000 
#    z 0.117040 0.000000 3.424380 
# 
# 
# High freq. dielectric constant tensor:
#      x y z
#    x 1.776000 0.000000 0.013380 
#    y 0.000000 1.777480 0.000000 
#    z 0.013380 0.000000 1.755420 
# 
# From -- ./inp_files/28617.got.cif
#   From: 2010.06.25/outbox.cif.g09.slc.cpg/sg11_15_cif.got.tgz:28617.got - 2010.06.27 23:14:04.
