data_PCOD8073437
_publ_section_title
;
Structure prediction by ZEFSAII (Michael W. Deem and Ramdas Pophale) SiO2 
 PCOD8073437
Probable space group: P 21/M
;
_chemical_formula_sum "Si O2"
_cell_formula_units_Z 32
_cell_length_a 21.695830
_cell_length_b 13.927204
_cell_length_c 16.276254
_cell_angle_alpha 90.000000
_cell_angle_beta 160.418146
_cell_angle_gamma 90.000000
_cell_volume 1648.306725
_symmetry_space_group_name_H-M "P 21/M"
_symmetry_group_IT_number 11
_symmetry_cell_setting 'monoclinic'
loop_
_space_group_symop_operation_xyz
x,y,z
-x,1/2+y,-z
-x,-y,-z
x,1/2-y,z
loop_
_atom_site_type_symbol
_atom_site_label
_atom_site_fract_x
_atom_site_fract_y
_atom_site_fract_z
Si Si1 0.642082 0.858338 0.012991
Si Si2 0.185910 0.974222 0.689063
Si Si3 0.929183 0.537437 0.082213
Si Si4 0.265988 0.643758 0.089930
Si Si5 0.605465 0.141125 0.922061
Si Si6 0.346151 0.976684 0.553134
Si Si7 0.613690 0.548994 0.571800
Si Si8 0.975706 0.640779 0.305209
O O1 0.619448 0.750000 0.018242
O O2 0.458068 0.888251 0.733260
O O3 0.807320 0.866452 0.156259
O O4 0.683686 0.930255 0.142620
O O5 0.139133 0.932748 0.539355
O O6 0.283950 0.886126 0.857802
O O7 0.000000 0.000000 0.500000
O O8 0.137304 0.532373 0.316597
O O9 0.903948 0.609471 0.126250
O O10 0.857695 0.431441 0.016155
O O11 0.811056 0.579368 0.857166
O O12 0.196227 0.750000 0.026008
O O13 0.251089 0.625084 0.973297
O O14 0.486403 0.638396 0.384955
O O15 0.537409 0.250000 0.842335
O O16 0.424352 0.076481 0.686068
O O17 0.359972 0.975617 0.471421
O O18 0.500000 0.500000 0.500000
O O19 0.049967 0.750000 0.394369
#
# Coordination Sequence:
#
# PCOD8073437 Si02
#       8
#     4   4   4   4   4   4   4   4
#     4   9  18  34  55  79 108 141 180 224 269 317
#     4   9  16  30  53  80 105 132 178 228 269 308
#     4  11  21  34  52  76 110 141 173 216 264 319
#     4   9  18  33  54  78 103 134 173 216 262 312
#     4   9  17  32  54  76 101 135 174 216 261 311
#     4  10  20  34  53  78 107 139 171 213 266 319
#     4   9  18  35  56  76 100 134 175 217 260 310
#     4  10  20  34  54  79 107 142 183 226 268 314
#
# _framework density 19.413862999999999
#
# number of rings (size 3 to 8) (size 9 to 14) (size 15 to 20)
#    0.000    2.500    0.000    4.500    0.000    2.000 
#    0.000    6.875    0.000    6.000    0.000    0.000 
#    0.000    0.000    0.000    0.000    0.000    0.000 
#
# Total GULP energy -396571.234719 kJ/mol
# GULP energy per Si atom -12392.851085 kJ/mol
# Density = 1.936968 g / cm^3
# Si number density = 19.413863 Si / 1000 Ang^3
#
#
#
# Elastic Constant Matrix: (Units=GPa)
#
#
# Indices 1 2 3 4 5 6 
#
# 1 27.7967 28.6309 27.4480 0.0000 -3.0550 0.0000
# 2 28.6309 123.1311 47.1157 0.0000 -5.8799 0.0000
# 3 27.4480 47.1157 117.6678 0.0000 -13.5364 0.0000
# 4 0.0000 0.0000 0.0000 18.2108 0.0000 -1.5883
# 5 -3.0550 -5.8799 -13.5364 0.0000 30.4676 0.0000
# 6 0.0000 0.0000 0.0000 -1.5883 0.0000 16.3669
#
#
#
# Elastic Compliance Matrix: (Units=1/GPa)
#
#
# Indices 1 2 3 4 5 6 
#
# 1 0.054323 -0.009192 -0.009030 0.000000 -0.000339 0.000000
# 2 -0.009192 0.011147 -0.002295 0.000000 0.000210 0.000000
# 3 -0.009030 -0.002295 0.011981 0.000000 0.003975 0.000000
# 4 0.000000 0.000000 0.000000 0.055381 0.000000 0.005374
# 5 -0.000339 0.000210 0.003975 0.000000 0.034594 0.000000
# 6 0.000000 0.000000 0.000000 0.005374 0.000000 0.061620
#
#
# Mechanical properties :
#
#
# Convention : Reuss Voigt Hill
#
# Bulk Modulus (GPa) = 27.46002 52.77606 40.11804
# Shear Modulus (GPa) = 17.71664 24.03581 20.87622
#
# Velocity S-wave (km/s) = 3.02417 3.52245 3.28277
# Velocity P-wave (km/s) = 5.13511 6.61719 5.92269
#
# Compressibility (1/GPa) = 0.03641657
#
# Stress axis : x y z
#
# Youngs Moduli (GPa) = 18.40837 89.70982 83.46462
#
# Poissons Ratio (x) = 0.82464 0.75369
# Poissons Ratio (y) = 0.16921 0.19155
# Poissons Ratio (z) = 0.16623 0.20589
#
# Static dielectric constant tensor:
#      x y z
#    x 3.380030 0.000000 -0.425840 
#    y 0.000000 3.664760 0.000000 
#    z -0.425840 0.000000 4.052940 
# 
# 
# High freq. dielectric constant tensor:
#      x y z
#    x 1.728890 0.000000 -0.016970 
#    y 0.000000 1.748640 0.000000 
#    z -0.016970 0.000000 1.764780 
# 
# From -- ./inp_files/47617.got.cif
#   From: 2010.06.25/outbox.cif.g09.slc.cpg/sg11_24_cif.got.tgz:47617.got - 2010.06.27 23:14:04.
