data_PCOD8073874
_publ_section_title
;
Structure prediction by ZEFSAII (Michael W. Deem and Ramdas Pophale) SiO2 
 PCOD8073874
Probable space group: P 21/M
;
_chemical_formula_sum "Si O2"
_cell_formula_units_Z 32
_cell_length_a 14.531322
_cell_length_b 9.005783
_cell_length_c 14.679459
_cell_angle_alpha 90.000000
_cell_angle_beta 62.449858
_cell_angle_gamma 90.000000
_cell_volume 1703.207323
_symmetry_space_group_name_H-M "P 21/M"
_symmetry_group_IT_number 11
_symmetry_cell_setting 'monoclinic'
loop_
_space_group_symop_operation_xyz
x,y,z
-x,1/2+y,-z
-x,-y,-z
x,1/2-y,z
loop_
_atom_site_type_symbol
_atom_site_label
_atom_site_fract_x
_atom_site_fract_y
_atom_site_fract_z
Si Si1 0.695324 0.073498 0.734476
Si Si2 0.757105 0.574990 0.231863
Si Si3 0.223529 0.920132 0.497311
Si Si4 0.498279 0.575611 0.902686
Si Si5 0.731183 0.076539 0.058089
Si Si6 0.845478 0.426163 0.825510
Si Si7 0.605957 0.078677 0.429418
Si Si8 0.076664 0.075195 0.694965
O O1 0.676836 0.250000 0.745943
O O2 0.744792 0.021434 0.616581
O O3 0.773379 0.017139 0.776644
O O4 0.585575 0.993059 0.797565
O O5 0.739508 0.750000 0.239334
O O6 0.775297 0.515952 0.122349
O O7 0.654650 0.497612 0.318410
O O8 0.856245 0.529425 0.247471
O O9 0.189052 0.750000 0.508482
O O10 0.321581 0.943960 0.516943
O O11 0.125306 0.010138 0.580200
O O12 0.516290 0.750000 0.908136
O O13 0.389439 0.543188 0.903591
O O14 0.500000 0.500000 0.000000
O O15 0.750433 0.250000 0.067207
O O16 0.796881 0.017823 0.942111
O O17 0.848248 0.250000 0.823135
O O18 0.961376 0.490846 0.760978
O O19 0.586459 0.250000 0.415446
O O20 0.500000 0.000000 0.500000
O O21 0.073437 0.250000 0.684123
#
# Coordination Sequence:
#
# PCOD8073874 Si02
#       8
#     4   4   4   4   4   4   4   4
#     4  10  20  37  58  82 112 149 184 222 274 330
#     4  10  21  36  54  80 110 143 185 231 277 323
#     4   9  20  36  55  80 111 143 179 225 277 325
#     4  11  22  37  57  82 112 148 184 225 275 327
#     4  10  21  37  56  81 111 148 186 223 275 333
#     4   9  18  36  59  80 108 147 186 222 275 334
#     4  10  20  35  53  78 109 144 184 227 277 330
#     4   9  19  37  59  80 108 146 185 228 274 326
#
# _framework density 18.788083
#
# number of rings (size 3 to 8) (size 9 to 14) (size 15 to 20)
#    0.000    2.250    1.250    1.125    1.750    3.500 
#    0.000    1.250    0.000    0.000    0.000    0.000 
#    0.000    0.000    0.000    0.000    0.000    0.000 
#
# Total GULP energy -396894.577157 kJ/mol
# GULP energy per Si atom -12402.955536 kJ/mol
# Density = 1.874532 g / cm^3
# Si number density = 18.788083 Si / 1000 Ang^3
#
#
#
# Elastic Constant Matrix: (Units=GPa)
#
#
# Indices 1 2 3 4 5 6 
#
# 1 82.1119 37.6456 74.8929 0.0000 -22.7242 0.0000
# 2 37.6456 59.2684 48.6443 0.0000 -6.3346 0.0000
# 3 74.8929 48.6443 177.1870 0.0000 -6.7557 0.0000
# 4 0.0000 0.0000 0.0000 34.6754 0.0000 -0.6571
# 5 -22.7242 -6.3346 -6.7557 0.0000 38.3928 0.0000
# 6 0.0000 0.0000 0.0000 -0.6571 0.0000 22.0281
#
#
#
# Elastic Compliance Matrix: (Units=1/GPa)
#
#
# Indices 1 2 3 4 5 6 
#
# 1 0.028320 -0.009204 -0.008922 0.000000 0.013674 0.000000
# 2 -0.009204 0.025024 -0.003050 0.000000 -0.001856 0.000000
# 3 -0.008922 -0.003050 0.010100 0.000000 -0.004007 0.000000
# 4 0.000000 0.000000 0.000000 0.028855 0.000000 0.000861
# 5 0.013674 -0.001856 -0.004007 0.000000 0.033129 0.000000
# 6 0.000000 0.000000 0.000000 0.000861 0.000000 0.045422
#
#
# Mechanical properties :
#
#
# Convention : Reuss Voigt Hill
#
# Bulk Modulus (GPa) = 47.41444 71.21474 59.31459
# Shear Modulus (GPa) = 22.70332 29.51156 26.10744
#
# Velocity S-wave (km/s) = 3.47996 3.96758 3.73174
# Velocity P-wave (km/s) = 6.43724 7.67955 7.08567
#
# Compressibility (1/GPa) = 0.02109062
#
# Stress axis : x y z
#
# Youngs Moduli (GPa) = 35.31072 39.96217 99.01395
#
# Poissons Ratio (x) = 0.36780 0.88341
# Poissons Ratio (y) = 0.32499 0.30203
# Poissons Ratio (z) = 0.31505 0.12190
#
# Static dielectric constant tensor:
#      x y z
#    x 3.496150 0.000000 -0.052500 
#    y 0.000000 3.341560 0.000000 
#    z -0.052500 0.000000 3.744630 
# 
# 
# High freq. dielectric constant tensor:
#      x y z
#    x 1.729960 0.000000 -0.001500 
#    y 0.000000 1.716400 0.000000 
#    z -0.001500 0.000000 1.741790 
# 
# From -- ./inp_files/51632.got.cif
#   From: 2010.06.25/outbox.cif.g09.slc.cpg/sg11_26_cif.got.tgz:51632.got - 2010.06.27 23:14:04.
