data_PCOD8073534
_publ_section_title
;
Structure prediction by ZEFSAII (Michael W. Deem and Ramdas Pophale) SiO2 
 PCOD8073534
Probable space group: P 21/M
;
_chemical_formula_sum "Si O2"
_cell_formula_units_Z 28
_cell_length_a 8.055017
_cell_length_b 9.326050
_cell_length_c 28.032973
_cell_angle_alpha 90.000000
_cell_angle_beta 44.081385
_cell_angle_gamma 90.000000
_cell_volume 1465.016552
_symmetry_space_group_name_H-M "P 21/M"
_symmetry_group_IT_number 11
_symmetry_cell_setting 'monoclinic'
loop_
_space_group_symop_operation_xyz
x,y,z
-x,1/2+y,-z
-x,-y,-z
x,1/2-y,z
loop_
_atom_site_type_symbol
_atom_site_label
_atom_site_fract_x
_atom_site_fract_y
_atom_site_fract_z
Si Si1 0.024100 0.411277 0.313284
Si Si2 0.213608 0.579843 0.840839
Si Si3 0.582195 0.579843 0.840839
Si Si4 0.409476 0.411277 0.313285
Si Si5 0.216875 0.906885 0.437023
Si Si6 0.320709 0.078702 0.071717
Si Si7 0.401988 0.093115 0.562977
O O1 0.934364 0.250000 0.320186
O O2 0.187096 0.471837 0.236537
O O3 0.170189 0.409651 0.331924
O O4 0.802971 0.515399 0.364881
O O5 0.219230 0.750000 0.840583
O O6 0.338442 0.523497 0.864623
O O7 0.369782 0.528164 0.763463
O O8 0.943487 0.525262 0.889310
O O9 0.577855 0.750000 0.840583
O O10 0.609960 0.525262 0.889311
O O11 0.464702 0.250000 0.320187
O O12 0.372622 0.515400 0.364881
O O13 0.129272 0.750000 0.436492
O O14 0.378542 0.880598 0.448583
O O15 0.000000 0.000000 0.500000
O O16 0.343965 0.250000 0.062414
O O17 0.500000 0.000000 0.000000
O O18 0.311733 0.250000 0.563508
O O19 0.500000 0.000000 0.500000
#
# Coordination Sequence:
#
# PCOD8073534 Si02
#       7
#     4   4   4   4   4   4   4
#     4   9  18  34  57  82 104 131 174 225 270 319
#     4   8  16  32  54  80 108 139 180 224 266 322
#     4   8  16  32  54  80 108 139 180 224 266 322
#     4   9  18  34  57  82 104 131 174 225 270 319
#     4  11  24  38  52  75 106 140 178 220 266 319
#     4  10  20  34  54  80 110 146 182 222 272 322
#     4  11  24  38  52  75 106 140 178 220 266 319
#
# _framework density 19.112411000000002
#
# number of rings (size 3 to 8) (size 9 to 14) (size 15 to 20)
#    0.000    2.571    0.000    3.429    2.000    6.857 
#    0.000    1.429    0.000    1.714    0.000    0.000 
#    0.000    0.000    0.000    0.000    0.000    0.000 
#
# Total GULP energy -347031.355850 kJ/mol
# GULP energy per Si atom -12393.976995 kJ/mol
# Density = 1.906891 g / cm^3
# Si number density = 19.112411 Si / 1000 Ang^3
#
#
#
# Elastic Constant Matrix: (Units=GPa)
#
#
# Indices 1 2 3 4 5 6 
#
# 1 113.6232 36.4346 74.4068 0.0000 0.4008 0.0000
# 2 36.4346 86.3169 52.3958 0.0000 0.1872 0.0000
# 3 74.4068 52.3958 142.0409 0.0000 -0.0674 0.0000
# 4 0.0000 0.0000 0.0000 32.6416 0.0000 0.1783
# 5 0.4008 0.1872 -0.0674 0.0000 36.6946 0.0000
# 6 0.0000 0.0000 0.0000 0.1783 0.0000 17.4369
#
#
#
# Elastic Compliance Matrix: (Units=1/GPa)
#
#
# Indices 1 2 3 4 5 6 
#
# 1 0.013617 -0.001826 -0.006460 0.000000 -0.000151 0.000000
# 2 -0.001826 0.015173 -0.004640 0.000000 -0.000066 0.000000
# 3 -0.006460 -0.004640 0.012136 0.000000 0.000117 0.000000
# 4 0.000000 0.000000 0.000000 0.030637 0.000000 -0.000313
# 5 -0.000151 -0.000066 0.000117 0.000000 0.027254 0.000000
# 6 0.000000 0.000000 0.000000 -0.000313 0.000000 0.057353
#
#
# Mechanical properties :
#
#
# Convention : Reuss Voigt Hill
#
# Bulk Modulus (GPa) = 66.34192 74.27284 70.30738
# Shear Modulus (GPa) = 26.73110 29.27087 28.00099
#
# Velocity S-wave (km/s) = 3.74388 3.91770 3.83177
# Velocity P-wave (km/s) = 7.31270 7.70778 7.51284
#
# Compressibility (1/GPa) = 0.01507342
#
# Stress axis : x y z
#
# Youngs Moduli (GPa) = 73.43557 65.90644 82.40088
#
# Poissons Ratio (x) = 0.12038 0.53228
# Poissons Ratio (y) = 0.13413 0.38236
# Poissons Ratio (z) = 0.47437 0.30582
#
# Static dielectric constant tensor:
#      x y z
#    x 3.800930 0.000000 -0.003450 
#    y 0.000000 3.150110 0.000000 
#    z -0.003450 0.000000 3.506910 
# 
# 
# High freq. dielectric constant tensor:
#      x y z
#    x 1.750100 0.000000 -0.000070 
#    y 0.000000 1.712670 0.000000 
#    z -0.000070 0.000000 1.744250 
# 
# From -- ./inp_files/72718.got.cif
#   From: 2010.06.25/outbox.cif.g09.slc.cpg/sg11_37_cif.got.tgz:72718.got - 2010.06.27 23:14:04.
