data_PCOD8073459
_publ_section_title
;
Structure prediction by ZEFSAII (Michael W. Deem and Ramdas Pophale) SiO2 
 PCOD8073459
Probable space group: P 21/M
;
_chemical_formula_sum "Si O2"
_cell_formula_units_Z 32
_cell_length_a 13.789566
_cell_length_b 9.143339
_cell_length_c 12.637190
_cell_angle_alpha 90.000000
_cell_angle_beta 90.829204
_cell_angle_gamma 90.000000
_cell_volume 1593.163882
_symmetry_space_group_name_H-M "P 21/M"
_symmetry_group_IT_number 11
_symmetry_cell_setting 'monoclinic'
loop_
_space_group_symop_operation_xyz
x,y,z
-x,1/2+y,-z
-x,-y,-z
x,1/2-y,z
loop_
_atom_site_type_symbol
_atom_site_label
_atom_site_fract_x
_atom_site_fract_y
_atom_site_fract_z
Si Si1 0.864506 0.918584 0.993601
Si Si2 0.660525 0.080529 0.643954
Si Si3 0.937429 0.424672 0.406227
Si Si4 0.557008 0.917875 0.297455
Si Si5 0.705873 0.590359 0.837385
Si Si6 0.262064 0.078047 0.553590
Si Si7 0.511279 0.408387 0.103897
Si Si8 0.029904 0.579728 0.833247
O O1 0.879688 0.750000 0.021998
O O2 0.756955 0.955121 0.948642
O O3 0.934287 0.966654 0.897075
O O4 0.880531 0.004068 0.103580
O O5 0.679580 0.250000 0.617484
O O6 0.545570 0.046060 0.647919
O O7 0.717762 0.038597 0.752210
O O8 0.710005 0.973878 0.561792
O O9 0.938035 0.250000 0.423860
O O10 0.828616 0.485778 0.406407
O O11 0.979414 0.467368 0.290345
O O12 0.000000 0.500000 0.500000
O O13 0.558125 0.750000 0.263162
O O14 0.644696 0.958919 0.374761
O O15 0.575991 0.009255 0.191503
O O16 0.749990 0.750000 0.801810
O O17 0.593638 0.614491 0.850383
O O18 0.236788 0.250000 0.552501
O O19 0.558443 0.250000 0.080002
O O20 0.500000 0.500000 0.000000
O O21 0.050726 0.750000 0.838761
#
# Coordination Sequence:
#
# PCOD8073459 Si02
#       8
#     4   4   4   4   4   4   4   4
#     4   9  18  35  60  85 109 144 186 234 287 344
#     4  10  20  35  57  87 118 148 190 243 289 343
#     4  11  25  43  61  87 120 156 199 245 296 354
#     4   9  20  38  58  82 114 150 192 239 289 346
#     4   9  19  34  54  81 111 146 189 232 283 345
#     4  11  23  39  60  84 113 156 196 235 291 349
#     4  10  20  34  53  79 112 150 187 231 286 344
#     4   9  20  38  58  82 113 145 183 236 292 344
#
# _framework density 20.085819000000001
#
# number of rings (size 3 to 8) (size 9 to 14) (size 15 to 20)
#    0.000    2.250    0.000    1.875    1.750    4.500 
#    0.000    3.750    0.000    0.000    0.000    0.000 
#    0.000    0.000    0.000    0.000    0.000    0.000 
#
# Total GULP energy -396638.986276 kJ/mol
# GULP energy per Si atom -12394.968321 kJ/mol
# Density = 2.004010 g / cm^3
# Si number density = 20.085819 Si / 1000 Ang^3
#
#
#
# Elastic Constant Matrix: (Units=GPa)
#
#
# Indices 1 2 3 4 5 6 
#
# 1 47.6719 22.6704 22.3401 0.0000 16.4594 0.0000
# 2 22.6704 81.3678 53.4203 0.0000 2.9051 0.0000
# 3 22.3401 53.4203 131.6173 0.0000 11.6886 0.0000
# 4 0.0000 0.0000 0.0000 39.2111 0.0000 3.4990
# 5 16.4594 2.9051 11.6886 0.0000 28.3081 0.0000
# 6 0.0000 0.0000 0.0000 3.4990 0.0000 29.1909
#
#
#
# Elastic Compliance Matrix: (Units=1/GPa)
#
#
# Indices 1 2 3 4 5 6 
#
# 1 0.030649 -0.007502 -0.000668 0.000000 -0.016775 0.000000
# 2 -0.007502 0.018626 -0.006752 0.000000 0.005238 0.000000
# 3 -0.000668 -0.006752 0.010750 0.000000 -0.003358 0.000000
# 4 0.000000 0.000000 0.000000 0.025779 0.000000 -0.003090
# 5 -0.016775 0.005238 -0.003358 0.000000 0.045928 0.000000
# 6 0.000000 0.000000 0.000000 -0.003090 0.000000 0.034628
#
#
# Mechanical properties :
#
#
# Convention : Reuss Voigt Hill
#
# Bulk Modulus (GPa) = 33.13253 50.83540 41.98396
# Shear Modulus (GPa) = 24.24107 30.15709 27.19908
#
# Velocity S-wave (km/s) = 3.47778 3.87901 3.68386
# Velocity P-wave (km/s) = 5.71471 6.73991 6.24837
#
# Compressibility (1/GPa) = 0.03018182
#
# Stress axis : x y z
#
# Youngs Moduli (GPa) = 32.62748 53.68946 93.02712
#
# Poissons Ratio (x) = 0.40279 0.06210
# Poissons Ratio (y) = 0.24478 0.62808
# Poissons Ratio (z) = 0.02178 0.36249
#
# Static dielectric constant tensor:
#      x y z
#    x 3.687720 0.000000 0.143660 
#    y 0.000000 3.855820 0.000000 
#    z 0.143660 0.000000 3.631500 
# 
# 
# High freq. dielectric constant tensor:
#      x y z
#    x 1.773180 0.000000 0.012960 
#    y 0.000000 1.789240 0.000000 
#    z 0.012960 0.000000 1.786950 
# 
# From -- ./inp_files/38247.got.cif
#   From: 2010.06.25/outbox.cif.g09.slc.cpg/sg11_20_cif.got.tgz:38247.got - 2010.06.27 23:14:04.
