data_PCOD8073263
_publ_section_title
;
Structure prediction by ZEFSAII (Michael W. Deem and Ramdas Pophale) SiO2 
 PCOD8073263
Probable space group: P 21/M
;
_chemical_formula_sum "Si O2"
_cell_formula_units_Z 32
_cell_length_a 24.916708
_cell_length_b 16.340074
_cell_length_c 12.146662
_cell_angle_alpha 90.000000
_cell_angle_beta 20.592383
_cell_angle_gamma 90.000000
_cell_volume 1739.383077
_symmetry_space_group_name_H-M "P 21/M"
_symmetry_group_IT_number 11
_symmetry_cell_setting 'monoclinic'
loop_
_space_group_symop_operation_xyz
x,y,z
-x,1/2+y,-z
-x,-y,-z
x,1/2-y,z
loop_
_atom_site_type_symbol
_atom_site_label
_atom_site_fract_x
_atom_site_fract_y
_atom_site_fract_z
Si Si1 0.838564 0.997777 0.255397
Si Si2 0.348586 0.842521 0.427366
Si Si3 0.386248 0.057031 0.154032
Si Si4 0.742002 0.482998 0.821352
Si Si5 0.911270 0.506324 0.871679
Si Si6 0.401148 0.841827 0.771649
Si Si7 0.790498 0.159790 0.077040
Si Si8 0.646867 0.940868 0.215090
O O1 0.763513 0.088877 0.409246
O O2 0.746811 0.928221 0.500780
O O3 0.851359 0.966320 0.106211
O O4 0.000000 0.000000 0.000000
O O5 0.307503 0.750000 0.465364
O O6 0.337005 0.847156 0.582232
O O7 0.524484 0.861607 0.056214
O O8 0.314362 0.010111 0.188835
O O9 0.500000 0.000000 0.000000
O O10 0.921160 0.459029 0.475061
O O11 0.647418 0.402132 0.036780
O O12 0.712208 0.556809 0.965533
O O13 0.922334 0.406992 0.844782
O O14 0.786459 0.536400 0.025450
O O15 0.387815 0.750000 0.842068
O O16 0.288300 0.858839 0.887135
O O17 0.575956 0.854971 0.392894
O O18 0.866277 0.250000 0.932447
O O19 0.500000 0.000000 0.500000
#
# Coordination Sequence:
#
# PCOD8073263 Si02
#       8
#     4   4   4   4   4   4   4   4
#     4  10  20  37  58  81 112 153 192 228 285 342
#     4   9  19  35  59  85 112 144 191 245 289 327
#     4  10  21  35  59  83 109 146 194 233 275 334
#     4  11  21  35  59  87 110 147 192 229 282 341
#     4  11  20  35  58  83 114 148 189 231 276 345
#     4  10  21  36  55  80 115 151 188 231 284 338
#     4   9  17  32  54  82 113 147 178 229 291 336
#     4  10  20  33  57  82 108 143 190 228 275 333
#
# _framework density 18.397328000000002
#
# number of rings (size 3 to 8) (size 9 to 14) (size 15 to 20)
#    0.000    2.000    3.750    1.125    8.750    0.000 
#    0.000    5.000    0.000    1.500    0.000    0.000 
#    0.000    0.000    0.000    0.000    0.000    0.000 
#
# Total GULP energy -396475.675984 kJ/mol
# GULP energy per Si atom -12389.864875 kJ/mol
# Density = 1.835545 g / cm^3
# Si number density = 18.397328 Si / 1000 Ang^3
#
#
#
# Elastic Constant Matrix: (Units=GPa)
#
#
# Indices 1 2 3 4 5 6 
#
# 1 97.6222 9.8826 31.6244 0.0000 0.5672 0.0000
# 2 9.8826 63.1204 23.3028 0.0000 4.7730 0.0000
# 3 31.6244 23.3028 105.9257 0.0000 4.7206 0.0000
# 4 0.0000 0.0000 0.0000 20.3122 0.0000 1.3715
# 5 0.5672 4.7730 4.7206 0.0000 33.9052 0.0000
# 6 0.0000 0.0000 0.0000 1.3715 0.0000 16.2256
#
#
#
# Elastic Compliance Matrix: (Units=1/GPa)
#
#
# Indices 1 2 3 4 5 6 
#
# 1 0.011363 -0.000596 -0.003277 0.000000 0.000350 0.000000
# 2 -0.000596 0.017398 -0.003563 0.000000 -0.001943 0.000000
# 3 -0.003277 -0.003563 0.011248 0.000000 -0.001010 0.000000
# 4 0.000000 0.000000 0.000000 0.049514 0.000000 -0.004185
# 5 0.000350 -0.001943 -0.001010 0.000000 0.029902 0.000000
# 6 0.000000 0.000000 0.000000 -0.004185 0.000000 0.061985
#
#
# Mechanical properties :
#
#
# Convention : Reuss Voigt Hill
#
# Bulk Modulus (GPa) = 39.78078 44.03200 41.90639
# Shear Modulus (GPa) = 24.43055 27.54584 25.98819
#
# Velocity S-wave (km/s) = 3.64804 3.87366 3.76254
# Velocity P-wave (km/s) = 6.27809 6.63271 6.45783
#
# Compressibility (1/GPa) = 0.02513777
#
# Stress axis : x y z
#
# Youngs Moduli (GPa) = 88.00134 57.47672 88.90626
#
# Poissons Ratio (x) = 0.03424 0.29136
# Poissons Ratio (y) = 0.05243 0.31678
# Poissons Ratio (z) = 0.28839 0.20479
#
# Static dielectric constant tensor:
#      x y z
#    x 3.392320 0.000000 0.186730 
#    y 0.000000 3.463720 0.000000 
#    z 0.186730 0.000000 3.743880 
# 
# 
# High freq. dielectric constant tensor:
#      x y z
#    x 1.718810 0.000000 0.009600 
#    y 0.000000 1.682220 0.000000 
#    z 0.009600 0.000000 1.716490 
# 
# From -- ./inp_files/44346.got.cif
#   From: 2010.06.25/outbox.cif.g09.slc.cpg/sg11_23_cif.got.tgz:44346.got - 2010.06.27 23:14:04.
