data_PCOD8073166
_publ_section_title
;
Structure prediction by ZEFSAII (Michael W. Deem and Ramdas Pophale) SiO2 
 PCOD8073166
Probable space group: P 21/M
;
_chemical_formula_sum "Si O2"
_cell_formula_units_Z 28
_cell_length_a 13.710238
_cell_length_b 8.815408
_cell_length_c 20.796232
_cell_angle_alpha 90.000000
_cell_angle_beta 32.925207
_cell_angle_gamma 90.000000
_cell_volume 1366.175833
_symmetry_space_group_name_H-M "P 21/M"
_symmetry_group_IT_number 11
_symmetry_cell_setting 'monoclinic'
loop_
_space_group_symop_operation_xyz
x,y,z
-x,1/2+y,-z
-x,-y,-z
x,1/2-y,z
loop_
_atom_site_type_symbol
_atom_site_label
_atom_site_fract_x
_atom_site_fract_y
_atom_site_fract_z
Si Si1 0.869717 0.426774 0.625406
Si Si2 0.029431 0.427521 0.158164
Si Si3 0.999534 0.427470 0.317512
Si Si4 0.849508 0.071337 0.036207
Si Si5 0.635222 0.082947 0.379895
Si Si6 0.528444 0.075665 0.740229
Si Si7 0.334563 0.419829 0.453037
O O1 0.916716 0.250000 0.600122
O O2 0.655869 0.450767 0.731559
O O3 0.000000 0.500000 0.500000
O O4 0.896224 0.495643 0.681598
O O5 0.039210 0.250000 0.134616
O O6 0.097638 0.455281 0.193917
O O7 0.827383 0.494471 0.264355
O O8 0.139745 0.518781 0.044040
O O9 0.981415 0.250000 0.341233
O O10 0.801455 0.502556 0.420771
O O11 0.872667 0.250000 0.028459
O O12 0.647755 0.027212 0.167045
O O13 0.000000 0.000000 0.000000
O O14 0.669914 0.250000 0.389659
O O15 0.538030 0.089590 0.365140
O O16 0.500000 0.000000 0.500000
O O17 0.468710 0.250000 0.766595
O O18 0.665970 0.027917 0.608101
O O19 0.265742 0.250000 0.474303
#
# Coordination Sequence:
#
# PCOD8073166 Si02
#       7
#     4   4   4   4   4   4   4
#     4  11  23  39  63  94 130 168 212 266 321 384
#     4  10  22  41  62  88 126 169 213 263 318 376
#     4  11  22  37  60  90 127 168 207 256 318 378
#     4  12  26  45  70  96 126 167 214 264 316 380
#     4  10  20  33  52  82 119 157 197 245 305 370
#     4  11  24  42  65  92 124 166 214 265 320 377
#     4  11  21  33  56  89 125 164 205 256 314 378
#
# _framework density 20.495165
#
# number of rings (size 3 to 8) (size 9 to 14) (size 15 to 20)
#    0.000    1.143    2.857    3.857    0.000    5.143 
#    0.000    0.714    0.000    0.000    0.000    0.000 
#    0.000    0.000    0.000    0.000    0.000    0.000 
#
# Total GULP energy -347031.968877 kJ/mol
# GULP energy per Si atom -12393.998888 kJ/mol
# Density = 2.044852 g / cm^3
# Si number density = 20.495165 Si / 1000 Ang^3
#
#
#
# Elastic Constant Matrix: (Units=GPa)
#
#
# Indices 1 2 3 4 5 6 
#
# 1 109.7676 52.8257 30.3133 0.0000 6.0545 0.0000
# 2 52.8257 127.0097 39.0912 0.0000 6.5793 0.0000
# 3 30.3133 39.0912 75.5425 0.0000 11.2813 0.0000
# 4 0.0000 0.0000 0.0000 34.9151 0.0000 2.1790
# 5 6.0545 6.5793 11.2813 0.0000 35.2245 0.0000
# 6 0.0000 0.0000 0.0000 2.1790 0.0000 33.0630
#
#
#
# Elastic Compliance Matrix: (Units=1/GPa)
#
#
# Indices 1 2 3 4 5 6 
#
# 1 0.011815 -0.004106 -0.002549 0.000000 -0.000447 0.000000
# 2 -0.004106 0.010794 -0.003930 0.000000 -0.000052 0.000000
# 3 -0.002549 -0.003930 0.016929 0.000000 -0.004250 0.000000
# 4 0.000000 0.000000 0.000000 0.028759 0.000000 -0.001895
# 5 -0.000447 -0.000052 -0.004250 0.000000 0.029837 0.000000
# 6 0.000000 0.000000 0.000000 -0.001895 0.000000 0.030370
#
#
# Mechanical properties :
#
#
# Convention : Reuss Voigt Hill
#
# Bulk Modulus (GPa) = 54.44772 61.86447 58.15609
# Shear Modulus (GPa) = 32.09311 33.31317 32.70314
#
# Velocity S-wave (km/s) = 3.96142 4.03602 3.99889
# Velocity P-wave (km/s) = 6.89548 7.20900 7.05398
#
# Compressibility (1/GPa) = 0.01836624
#
# Stress axis : x y z
#
# Youngs Moduli (GPa) = 84.63823 92.64828 59.07085
#
# Poissons Ratio (x) = 0.38044 0.15059
# Poissons Ratio (y) = 0.34755 0.23214
# Poissons Ratio (z) = 0.21577 0.36410
#
# Static dielectric constant tensor:
#      x y z
#    x 4.082890 0.000000 -0.034420 
#    y 0.000000 3.725920 0.000000 
#    z -0.034420 0.000000 3.602840 
# 
# 
# High freq. dielectric constant tensor:
#      x y z
#    x 1.814490 0.000000 0.004110 
#    y 0.000000 1.805950 0.000000 
#    z 0.004110 0.000000 1.783100 
# 
# From -- ./inp_files/65385.got.cif
#   From: 2010.06.25/outbox.cif.g09.slc.cpg/sg11_33_cif.got.tgz:65385.got - 2010.06.27 23:14:04.
