data_PCOD8073548
_publ_section_title
;
Structure prediction by ZEFSAII (Michael W. Deem and Ramdas Pophale) SiO2 
 PCOD8073548
Probable space group: P 21/M
;
_chemical_formula_sum "Si O2"
_cell_formula_units_Z 28
_cell_length_a 11.596729
_cell_length_b 8.979831
_cell_length_c 15.461874
_cell_angle_alpha 90.000000
_cell_angle_beta 63.971883
_cell_angle_gamma 90.000000
_cell_volume 1446.844896
_symmetry_space_group_name_H-M "P 21/M"
_symmetry_group_IT_number 11
_symmetry_cell_setting 'monoclinic'
loop_
_space_group_symop_operation_xyz
x,y,z
-x,1/2+y,-z
-x,-y,-z
x,1/2-y,z
loop_
_atom_site_type_symbol
_atom_site_label
_atom_site_fract_x
_atom_site_fract_y
_atom_site_fract_z
Si Si1 0.026512 0.076254 0.119965
Si Si2 0.800519 0.075381 0.068656
Si Si3 0.425342 0.422753 0.771324
Si Si4 0.278195 0.924293 0.329023
Si Si5 0.606698 0.920619 0.409773
Si Si6 0.827439 0.922838 0.467216
Si Si7 0.059691 0.074092 0.305950
O O1 0.053708 0.250000 0.099081
O O2 0.017078 0.031452 0.223296
O O3 0.893966 0.029339 0.117254
O O4 0.145215 0.989573 0.038549
O O5 0.789070 0.250000 0.061978
O O6 0.659435 0.010263 0.131143
O O7 0.389435 0.250000 0.789525
O O8 0.573854 0.451599 0.743193
O O9 0.390539 0.486973 0.687716
O O10 0.245797 0.750000 0.345708
O O11 0.247872 0.000097 0.430354
O O12 0.197857 0.001961 0.279197
O O13 0.563774 0.750000 0.418794
O O14 0.745236 0.941374 0.407062
O O15 0.500000 0.000000 0.500000
O O16 0.851312 0.750000 0.481995
O O17 0.962141 0.004276 0.407539
O O18 0.065529 0.250000 0.318182
#
# Coordination Sequence:
#
# PCOD8073548 Si02
#       7
#     4   4   4   4   4   4   4
#     4   9  20  39  60  85 115 145 178 226 283 332
#     4  10  20  35  61  91 114 141 179 226 278 336
#     4  10  21  37  56  81 115 152 184 224 282 334
#     4  11  23  39  57  78 112 153 193 234 276 328
#     4  10  20  34  54  81 112 146 183 226 275 327
#     4  11  22  36  57  84 113 148 190 234 281 333
#     4  11  23  39  59  81 110 148 191 234 279 331
#
# _framework density 19.352456
#
# number of rings (size 3 to 8) (size 9 to 14) (size 15 to 20)
#    0.000    1.714    1.429    3.000    0.000    4.000 
#    0.000    0.714    0.000    0.000    0.000    0.000 
#    0.000    0.000    0.000    0.000    0.000    0.000 
#
# Total GULP energy -347333.990262 kJ/mol
# GULP energy per Si atom -12404.785366 kJ/mol
# Density = 1.930841 g / cm^3
# Si number density = 19.352456 Si / 1000 Ang^3
#
#
#
# Elastic Constant Matrix: (Units=GPa)
#
#
# Indices 1 2 3 4 5 6 
#
# 1 74.3519 39.5178 27.8725 0.0000 -11.3615 0.0000
# 2 39.5178 91.2844 47.1697 0.0000 -12.9095 0.0000
# 3 27.8725 47.1697 88.5245 0.0000 -22.5927 0.0000
# 4 0.0000 0.0000 0.0000 34.7287 0.0000 -3.7227
# 5 -11.3615 -12.9095 -22.5927 0.0000 32.0047 0.0000
# 6 0.0000 0.0000 0.0000 -3.7227 0.0000 32.1374
#
#
#
# Elastic Compliance Matrix: (Units=1/GPa)
#
#
# Indices 1 2 3 4 5 6 
#
# 1 0.017924 -0.006648 -0.001417 0.000000 0.002681 0.000000
# 2 -0.006648 0.017590 -0.007405 0.000000 -0.000492 0.000000
# 3 -0.001417 -0.007405 0.018049 0.000000 0.009251 0.000000
# 4 0.000000 0.000000 0.000000 0.029157 0.000000 0.003377
# 5 0.002681 -0.000492 0.009251 0.000000 0.038529 0.000000
# 6 0.000000 0.000000 0.000000 0.003377 0.000000 0.031508
#
#
# Mechanical properties :
#
#
# Convention : Reuss Voigt Hill
#
# Bulk Modulus (GPa) = 44.20299 53.69786 48.95043
# Shear Modulus (GPa) = 26.14564 29.08090 27.61327
#
# Velocity S-wave (km/s) = 3.67962 3.88067 3.78148
# Velocity P-wave (km/s) = 6.39870 6.92004 6.66447
#
# Compressibility (1/GPa) = 0.02262290
#
# Stress axis : x y z
#
# Youngs Moduli (GPa) = 55.79177 56.85199 55.40437
#
# Poissons Ratio (x) = 0.37796 0.07849
# Poissons Ratio (y) = 0.37091 0.41027
# Poissons Ratio (z) = 0.07904 0.42098
#
# Static dielectric constant tensor:
#      x y z
#    x 3.629480 0.000000 0.068300 
#    y 0.000000 3.970730 0.000000 
#    z 0.068300 0.000000 3.448840 
# 
# 
# High freq. dielectric constant tensor:
#      x y z
#    x 1.754010 0.000000 -0.004410 
#    y 0.000000 1.758720 0.000000 
#    z -0.004410 0.000000 1.747490 
# 
# From -- ./inp_files/37871.got.cif
#   From: 2010.06.25/outbox.cif.g09.slc.cpg/sg11_19_cif.got.tgz:37871.got - 2010.06.27 23:14:04.
