data_PCOD8073146
_publ_section_title
;
Structure prediction by ZEFSAII (Michael W. Deem and Ramdas Pophale) SiO2 
 PCOD8073146
Probable space group: P 21/M
;
_chemical_formula_sum "Si O2"
_cell_formula_units_Z 32
_cell_length_a 7.990765
_cell_length_b 14.190069
_cell_length_c 15.685529
_cell_angle_alpha 90.000000
_cell_angle_beta 122.560062
_cell_angle_gamma 90.000000
_cell_volume 1499.031843
_symmetry_space_group_name_H-M "P 21/M"
_symmetry_group_IT_number 11
_symmetry_cell_setting 'monoclinic'
loop_
_space_group_symop_operation_xyz
x,y,z
-x,1/2+y,-z
-x,-y,-z
x,1/2-y,z
loop_
_atom_site_type_symbol
_atom_site_label
_atom_site_fract_x
_atom_site_fract_y
_atom_site_fract_z
Si Si1 0.589213 0.139784 0.130718
Si Si2 0.561600 0.358940 0.452045
Si Si3 0.273746 0.354254 0.707426
Si Si4 0.018845 0.525248 0.801247
Si Si5 0.296453 0.357788 0.901293
Si Si6 0.318056 0.140194 0.214708
Si Si7 0.295019 0.355584 0.530911
Si Si8 0.912379 0.015726 0.593424
O O1 0.633901 0.250000 0.151942
O O2 0.798745 0.087467 0.184895
O O3 0.450892 0.105519 0.171306
O O4 0.474201 0.114474 0.012200
O O5 0.607149 0.250000 0.478170
O O6 0.445474 0.377764 0.333638
O O7 0.443678 0.398320 0.502035
O O8 0.767524 0.411764 0.507844
O O9 0.170842 0.250000 0.682670
O O10 0.384623 0.369254 0.828306
O O11 0.400624 0.358474 0.654009
O O12 0.127255 0.439616 0.652642
O O13 0.107030 0.426771 0.862824
O O14 0.888000 0.580220 0.836636
O O15 0.868877 0.506084 0.681364
O O16 0.225981 0.250000 0.899286
O O17 0.259647 0.250000 0.188481
O O18 0.229993 0.250000 0.488779
O O19 0.096639 0.420224 0.466628
#
# Coordination Sequence:
#
# PCOD8073146 Si02
#       8
#     4   4   4   4   4   4   4   4
#     4  10  22  41  66  89 118 158 197 248 310 358
#     4  10  21  38  56  80 120 155 191 239 290 348
#     4   9  19  35  56  82 110 147 194 240 288 344
#     4  11  22  38  64  92 120 158 201 248 296 358
#     4   9  20  40  61  86 121 156 199 253 301 352
#     4  10  22  40  62  91 124 156 197 248 297 355
#     4  10  20  33  52  78 112 152 188 232 284 340
#     4  11  21  35  55  84 115 156 192 234 292 345
#
# _framework density 21.347113
#
# number of rings (size 3 to 8) (size 9 to 14) (size 15 to 20)
#    0.000    2.000    1.250    1.875    0.000    4.500 
#    0.000    2.500    2.750    0.750    0.000    0.000 
#    0.000    0.000    0.000    0.000    0.000    0.000 
#
# Total GULP energy -396457.113137 kJ/mol
# GULP energy per Si atom -12389.284786 kJ/mol
# Density = 2.129853 g / cm^3
# Si number density = 21.347113 Si / 1000 Ang^3
#
#
#
# Elastic Constant Matrix: (Units=GPa)
#
#
# Indices 1 2 3 4 5 6 
#
# 1 91.0034 41.8210 42.1689 0.0000 -13.1365 0.0000
# 2 41.8210 81.2595 36.5060 0.0000 2.5113 0.0000
# 3 42.1689 36.5060 103.2247 0.0000 -16.6057 0.0000
# 4 0.0000 0.0000 0.0000 26.5559 0.0000 3.3809
# 5 -13.1365 2.5113 -16.6057 0.0000 28.5398 0.0000
# 6 0.0000 0.0000 0.0000 3.3809 0.0000 21.5082
#
#
#
# Elastic Compliance Matrix: (Units=1/GPa)
#
#
# Indices 1 2 3 4 5 6 
#
# 1 0.016826 -0.007426 -0.003195 0.000000 0.006539 0.000000
# 2 -0.007426 0.018514 -0.004773 0.000000 -0.007824 0.000000
# 3 -0.003195 -0.004773 0.013804 0.000000 0.006981 0.000000
# 4 0.000000 0.000000 0.000000 0.038425 0.000000 -0.006040
# 5 0.006539 -0.007824 0.006981 0.000000 0.042799 0.000000
# 6 0.000000 0.000000 0.000000 -0.006040 0.000000 0.047443
#
#
# Mechanical properties :
#
#
# Convention : Reuss Voigt Hill
#
# Bulk Modulus (GPa) = 54.47956 57.38662 55.93309
# Shear Modulus (GPa) = 23.28631 25.65353 24.46992
#
# Velocity S-wave (km/s) = 3.30637 3.47036 3.38936
# Velocity P-wave (km/s) = 6.33659 6.55735 6.44791
#
# Compressibility (1/GPa) = 0.01835551
#
# Stress axis : x y z
#
# Youngs Moduli (GPa) = 59.43209 54.01289 72.44358
#
# Poissons Ratio (x) = 0.40111 0.23149
# Poissons Ratio (y) = 0.44135 0.34574
# Poissons Ratio (z) = 0.18991 0.25778
#
# Static dielectric constant tensor:
#      x y z
#    x 3.552700 0.000000 -0.337450 
#    y 0.000000 4.201990 0.000000 
#    z -0.337450 0.000000 4.166350 
# 
# 
# High freq. dielectric constant tensor:
#      x y z
#    x 1.799790 0.000000 -0.022570 
#    y 0.000000 1.860460 0.000000 
#    z -0.022570 0.000000 1.840690 
# 
# From -- ./inp_files/47637.got.cif
#   From: 2010.06.25/outbox.cif.g09.slc.cpg/sg11_24_cif.got.tgz:47637.got - 2010.06.27 23:14:04.
