data_PCOD8073828
_publ_section_title
;
Structure prediction by ZEFSAII (Michael W. Deem and Ramdas Pophale) SiO2 
 PCOD8073828
Probable space group: P 21/M
;
_chemical_formula_sum "Si O2"
_cell_formula_units_Z 28
_cell_length_a 14.989534
_cell_length_b 8.738871
_cell_length_c 19.260796
_cell_angle_alpha 90.000000
_cell_angle_beta 37.406873
_cell_angle_gamma 90.000000
_cell_volume 1532.651219
_symmetry_space_group_name_H-M "P 21/M"
_symmetry_group_IT_number 11
_symmetry_cell_setting 'monoclinic'
loop_
_space_group_symop_operation_xyz
x,y,z
-x,1/2+y,-z
-x,-y,-z
x,1/2-y,z
loop_
_atom_site_type_symbol
_atom_site_label
_atom_site_fract_x
_atom_site_fract_y
_atom_site_fract_z
Si Si1 0.093450 0.082452 0.205722
Si Si2 0.485666 0.430557 0.342099
Si Si3 0.756638 0.067048 0.265605
Si Si4 0.931871 0.582876 0.942297
Si Si5 0.616023 0.933002 0.132012
Si Si6 0.230269 0.930304 0.585243
Si Si7 0.389200 0.570674 0.014156
O O1 0.138476 0.250000 0.207412
O O2 0.066023 0.099620 0.141524
O O3 0.937004 0.030122 0.334462
O O4 0.222769 0.963263 0.142485
O O5 0.495123 0.250000 0.327524
O O6 0.619313 0.494158 0.306728
O O7 0.495344 0.509166 0.260831
O O8 0.332253 0.476464 0.470155
O O9 0.767798 0.250000 0.258231
O O10 0.736514 0.010642 0.357165
O O11 0.911421 0.001024 0.136047
O O12 0.930598 0.750000 0.978260
O O13 0.777428 0.500104 0.056979
O O14 0.620689 0.750000 0.124836
O O15 0.575414 0.995881 0.081802
O O16 0.261799 0.750000 0.559337
O O17 0.412931 0.750000 0.994322
O O18 0.500000 0.500000 0.000000
#
# Coordination Sequence:
#
# PCOD8073828 Si02
#       7
#     4   4   4   4   4   4   4
#     4   8  15  30  52  76 100 129 166 205 246 292
#     4  11  21  30  44  70 104 138 174 218 259 295
#     4   8  15  28  46  69  97 131 174 220 259 293
#     4   7  12  26  47  67  91 126 166 209 252 294
#     4  10  20  35  52  71  99 135 172 206 250 306
#     4   9  17  32  52  70  96 138 181 215 249 293
#     4  11  21  35  58  85 108 127 153 194 245 301
#
# _framework density 18.268996999999999
#
# number of rings (size 3 to 8) (size 9 to 14) (size 15 to 20)
#    0.000    2.857    0.000    5.143    0.000    1.143 
#    0.000    0.714    0.000    8.571    0.000    0.000 
#    0.000    0.000    0.000    0.000    0.000    0.000 
#
# Total GULP energy -346930.748776 kJ/mol
# GULP energy per Si atom -12390.383885 kJ/mol
# Density = 1.822742 g / cm^3
# Si number density = 18.268997 Si / 1000 Ang^3
#
#
#
# Elastic Constant Matrix: (Units=GPa)
#
#
# Indices 1 2 3 4 5 6 
#
# 1 83.2931 34.3516 33.8826 0.0000 -5.5932 0.0000
# 2 34.3516 73.4278 32.4274 0.0000 -0.9218 0.0000
# 3 33.8826 32.4274 84.8219 0.0000 0.8718 0.0000
# 4 0.0000 0.0000 0.0000 25.2682 0.0000 -2.2741
# 5 -5.5932 -0.9218 0.8718 0.0000 18.2926 0.0000
# 6 0.0000 0.0000 0.0000 -2.2741 0.0000 20.2441
#
#
#
# Elastic Compliance Matrix: (Units=1/GPa)
#
#
# Indices 1 2 3 4 5 6 
#
# 1 0.016502 -0.005684 -0.004470 0.000000 0.004972 0.000000
# 2 -0.005684 0.018366 -0.004745 0.000000 -0.000586 0.000000
# 3 -0.004470 -0.004745 0.015413 0.000000 -0.002340 0.000000
# 4 0.000000 0.000000 0.000000 0.039980 0.000000 0.004491
# 5 0.004972 -0.000586 -0.002340 0.000000 0.056269 0.000000
# 6 0.000000 0.000000 0.000000 0.004491 0.000000 0.049902
#
#
# Mechanical properties :
#
#
# Convention : Reuss Voigt Hill
#
# Bulk Modulus (GPa) = 48.81915 49.20733 49.01324
# Shear Modulus (GPa) = 21.45401 22.15307 21.80354
#
# Velocity S-wave (km/s) = 3.43058 3.48602 3.45841
# Velocity P-wave (km/s) = 6.51708 6.57241 6.54480
#
# Compressibility (1/GPa) = 0.02048376
#
# Stress axis : x y z
#
# Youngs Moduli (GPa) = 60.59829 54.44884 64.88018
#
# Poissons Ratio (x) = 0.30947 0.29002
# Poissons Ratio (y) = 0.34442 0.30785
# Poissons Ratio (z) = 0.27088 0.25835
#
# Static dielectric constant tensor:
#      x y z
#    x 3.247310 0.000000 -0.305890 
#    y 0.000000 3.149070 0.000000 
#    z -0.305890 0.000000 3.555280 
# 
# 
# High freq. dielectric constant tensor:
#      x y z
#    x 1.681750 0.000000 -0.018050 
#    y 0.000000 1.684630 0.000000 
#    z -0.018050 0.000000 1.710700 
# 
# From -- ./inp_files/60064.got.cif
#   From: 2010.06.25/outbox.cif.g09.slc.cpg/sg11_31_cif.got.tgz:60064.got - 2010.06.27 23:14:04.
