data_PCOD8073059
_publ_section_title
;
Structure prediction by ZEFSAII (Michael W. Deem and Ramdas Pophale) SiO2 
 PCOD8073059
Probable space group: P 21/M
;
_chemical_formula_sum "Si O2"
_cell_formula_units_Z 32
_cell_length_a 12.024307
_cell_length_b 9.014994
_cell_length_c 23.059427
_cell_angle_alpha 90.000000
_cell_angle_beta 43.925525
_cell_angle_gamma 90.000000
_cell_volume 1734.043363
_symmetry_space_group_name_H-M "P 21/M"
_symmetry_group_IT_number 11
_symmetry_cell_setting 'monoclinic'
loop_
_space_group_symop_operation_xyz
x,y,z
-x,1/2+y,-z
-x,-y,-z
x,1/2-y,z
loop_
_atom_site_type_symbol
_atom_site_label
_atom_site_fract_x
_atom_site_fract_y
_atom_site_fract_z
Si Si1 0.445728 0.422349 0.853173
Si Si2 0.117874 0.924204 0.999851
Si Si3 0.732038 0.580779 0.404660
Si Si4 0.555276 0.421937 0.261281
Si Si5 0.511305 0.576343 0.586920
Si Si6 0.914590 0.420433 0.162234
Si Si7 0.021214 0.578669 0.227077
Si Si8 0.614169 0.422137 0.909695
O O1 0.399363 0.250000 0.864348
O O2 0.516126 0.481489 0.765281
O O3 0.565607 0.448978 0.861319
O O4 0.295802 0.522805 0.924143
O O5 0.110177 0.750000 0.994714
O O6 0.057569 0.975302 0.085105
O O7 0.000000 0.000000 0.000000
O O8 0.680587 0.750000 0.412861
O O9 0.677218 0.537188 0.490779
O O10 0.637395 0.487721 0.392425
O O11 0.925858 0.562469 0.324617
O O12 0.512019 0.250000 0.267038
O O13 0.480384 0.483527 0.349850
O O14 0.747942 0.443815 0.191174
O O15 0.476914 0.750000 0.605323
O O16 0.967954 0.250000 0.138776
O O17 0.905596 0.476737 0.231137
O O18 0.020241 0.750000 0.207552
O O19 0.203040 0.517502 0.158190
O O20 0.607146 0.250000 0.928340
O O21 0.500000 0.500000 0.000000
#
# Coordination Sequence:
#
# PCOD8073059 Si02
#       8
#     4   4   4   4   4   4   4   4
#     4  11  23  38  56  77 103 138 182 223 267 319
#     4  12  23  35  51  73 102 135 170 213 262 316
#     4   9  17  29  51  79 107 141 177 214 262 318
#     4  10  20  33  51  75 109 144 173 211 263 318
#     4   9  17  31  49  76 112 143 172 212 263 319
#     4  11  21  33  50  77 109 140 174 214 262 315
#     4  10  20  35  55  79 107 140 181 224 268 318
#     4  10  23  41  58  78 104 139 182 228 269 311
#
# _framework density 18.453977999999999
#
# number of rings (size 3 to 8) (size 9 to 14) (size 15 to 20)
#    0.000    1.750    2.500    2.625    0.000    4.500 
#    0.000    0.000    0.000    0.750    0.000    0.000 
#    0.000    0.000    0.000    0.000    0.000    0.125 
#
# Total GULP energy -396541.774291 kJ/mol
# GULP energy per Si atom -12391.930447 kJ/mol
# Density = 1.841198 g / cm^3
# Si number density = 18.453978 Si / 1000 Ang^3
#
#
#
# Elastic Constant Matrix: (Units=GPa)
#
#
# Indices 1 2 3 4 5 6 
#
# 1 62.1214 31.8663 40.3118 0.0000 7.7155 0.0000
# 2 31.8663 81.9596 37.7065 0.0000 7.0858 0.0000
# 3 40.3118 37.7065 143.4742 0.0000 8.5694 0.0000
# 4 0.0000 0.0000 0.0000 24.8911 0.0000 5.3398
# 5 7.7155 7.0858 8.5694 0.0000 30.9078 0.0000
# 6 0.0000 0.0000 0.0000 5.3398 0.0000 21.9587
#
#
#
# Elastic Compliance Matrix: (Units=1/GPa)
#
#
# Indices 1 2 3 4 5 6 
#
# 1 0.022720 -0.006511 -0.004497 0.000000 -0.002932 0.000000
# 2 -0.006511 0.015895 -0.002265 0.000000 -0.001391 0.000000
# 3 -0.004497 -0.002265 0.008878 0.000000 -0.000819 0.000000
# 4 0.000000 0.000000 0.000000 0.042386 0.000000 -0.010307
# 5 -0.002932 -0.001391 -0.000819 0.000000 0.033632 0.000000
# 6 0.000000 0.000000 0.000000 -0.010307 0.000000 0.048046
#
#
# Mechanical properties :
#
#
# Convention : Reuss Voigt Hill
#
# Bulk Modulus (GPa) = 47.74177 56.36937 52.05557
# Shear Modulus (GPa) = 24.37999 27.39623 25.88811
#
# Velocity S-wave (km/s) = 3.63867 3.85719 3.74952
# Velocity P-wave (km/s) = 6.60152 7.10278 6.85673
#
# Compressibility (1/GPa) = 0.02094602
#
# Stress axis : x y z
#
# Youngs Moduli (GPa) = 44.01391 62.91323 112.64209
#
# Poissons Ratio (x) = 0.40964 0.50659
# Poissons Ratio (y) = 0.28658 0.25512
# Poissons Ratio (z) = 0.19795 0.14249
#
# Static dielectric constant tensor:
#      x y z
#    x 3.732330 0.000000 -0.762560 
#    y 0.000000 3.560340 0.000000 
#    z -0.762560 0.000000 5.418250 
# 
# 
# High freq. dielectric constant tensor:
#      x y z
#    x 1.678680 0.000000 0.012070 
#    y 0.000000 1.715980 0.000000 
#    z 0.012070 0.000000 1.733410 
# 
# From -- ./inp_files/64336.got.cif
#   From: 2010.06.25/outbox.cif.g09.slc.cpg/sg11_33_cif.got.tgz:64336.got - 2010.06.27 23:14:04.
