data_PCOD8073275
_publ_section_title
;
Structure prediction by ZEFSAII (Michael W. Deem and Ramdas Pophale) SiO2 
 PCOD8073275
Probable space group: P 21/M
;
_chemical_formula_sum "Si O2"
_cell_formula_units_Z 32
_cell_length_a 19.388260
_cell_length_b 8.924392
_cell_length_c 11.573251
_cell_angle_alpha 90.000000
_cell_angle_beta 64.145706
_cell_angle_gamma 90.000000
_cell_volume 1802.062972
_symmetry_space_group_name_H-M "P 21/M"
_symmetry_group_IT_number 11
_symmetry_cell_setting 'monoclinic'
loop_
_space_group_symop_operation_xyz
x,y,z
-x,1/2+y,-z
-x,-y,-z
x,1/2-y,z
loop_
_atom_site_type_symbol
_atom_site_label
_atom_site_fract_x
_atom_site_fract_y
_atom_site_fract_z
Si Si1 0.445291 0.584665 0.384827
Si Si2 0.033022 0.921993 0.623504
Si Si3 0.977471 0.920048 0.900617
Si Si4 0.885035 0.420903 0.650895
Si Si5 0.612497 0.915974 0.370453
Si Si6 0.669321 0.427233 0.112177
Si Si7 0.475004 0.428591 0.899064
Si Si8 0.817218 0.574430 0.902700
O O1 0.408369 0.750000 0.408536
O O2 0.387501 0.478084 0.497905
O O3 0.526332 0.592305 0.389098
O O4 0.460490 0.526342 0.243316
O O5 0.002543 0.750000 0.626940
O O6 0.112142 0.944687 0.491952
O O7 0.043249 0.946383 0.754227
O O8 0.971344 0.043014 0.626889
O O9 0.970818 0.750000 0.941778
O O10 0.895612 0.972239 0.909567
O O11 0.000000 0.000000 0.000000
O O12 0.864257 0.250000 0.697003
O O13 0.824877 0.527908 0.761292
O O14 0.649253 0.750000 0.344140
O O15 0.661474 0.023209 0.251459
O O16 0.659194 0.250000 0.110644
O O17 0.606926 0.506573 0.076965
O O18 0.751961 0.476656 0.008732
O O19 0.467660 0.250000 0.914063
O O20 0.500000 0.500000 0.000000
O O21 0.798294 0.750000 0.924753
#
# Coordination Sequence:
#
# PCOD8073275 Si02
#       8
#     4   4   4   4   4   4   4   4
#     4   8  15  27  44  68  96 125 159 198 238 282
#     4   8  15  27  42  64  94 123 152 192 239 280
#     4   9  18  31  48  70  97 128 158 193 237 283
#     4   9  15  25  44  68  91 118 156 197 236 282
#     4   9  16  27  45  69  96 125 158 200 245 285
#     4  11  21  33  51  74  99 129 165 203 244 292
#     4  10  20  34  52  75 103 133 164 200 243 290
#     4  10  20  34  49  69  99 129 158 198 246 290
#
# _framework density 17.757424
#
# number of rings (size 3 to 8) (size 9 to 14) (size 15 to 20)
#    0.000    2.750    0.000    4.125    0.000    6.500 
#    0.000    0.000    0.000    1.500    0.000    5.250 
#    0.000    0.000    0.000    0.000    0.000    0.000 
#
# Total GULP energy -396490.224938 kJ/mol
# GULP energy per Si atom -12390.319529 kJ/mol
# Density = 1.771701 g / cm^3
# Si number density = 17.757424 Si / 1000 Ang^3
#
#
#
# Elastic Constant Matrix: (Units=GPa)
#
#
# Indices 1 2 3 4 5 6 
#
# 1 37.5986 28.6998 48.3210 0.0000 6.2005 0.0000
# 2 28.6998 95.2507 62.4228 0.0000 4.3226 0.0000
# 3 48.3210 62.4228 168.4199 0.0000 12.6399 0.0000
# 4 0.0000 0.0000 0.0000 35.1043 0.0000 0.5113
# 5 6.2005 4.3226 12.6399 0.0000 23.0789 0.0000
# 6 0.0000 0.0000 0.0000 0.5113 0.0000 21.5620
#
#
#
# Elastic Compliance Matrix: (Units=1/GPa)
#
#
# Indices 1 2 3 4 5 6 
#
# 1 0.045854 -0.006888 -0.010194 0.000000 -0.005446 0.000000
# 2 -0.006888 0.014903 -0.003626 0.000000 0.001045 0.000000
# 3 -0.010194 -0.003626 0.010376 0.000000 -0.002265 0.000000
# 4 0.000000 0.000000 0.000000 0.028496 0.000000 -0.000676
# 5 -0.005446 0.001045 -0.002265 0.000000 0.045837 0.000000
# 6 0.000000 0.000000 0.000000 -0.000676 0.000000 0.046394
#
#
# Mechanical properties :
#
#
# Convention : Reuss Voigt Hill
#
# Bulk Modulus (GPa) = 33.65093 64.46182 49.05637
# Shear Modulus (GPa) = 20.56065 26.73739 23.64902
#
# Velocity S-wave (km/s) = 3.40643 3.88455 3.65332
# Velocity P-wave (km/s) = 5.87053 7.51663 6.74399
#
# Compressibility (1/GPa) = 0.02971686
#
# Stress axis : x y z
#
# Youngs Moduli (GPa) = 21.80821 67.10155 96.37519
#
# Poissons Ratio (x) = 0.46222 0.98246
# Poissons Ratio (y) = 0.15022 0.34942
# Poissons Ratio (z) = 0.22232 0.24329
#
# Static dielectric constant tensor:
#      x y z
#    x 2.795690 0.000000 0.111670 
#    y 0.000000 3.474990 0.000000 
#    z 0.111670 0.000000 3.838820 
# 
# 
# High freq. dielectric constant tensor:
#      x y z
#    x 1.609760 0.000000 0.003100 
#    y 0.000000 1.698350 0.000000 
#    z 0.003100 0.000000 1.714490 
# 
# From -- ./inp_files/42439.got.cif
#   From: 2010.06.25/outbox.cif.g09.slc.cpg/sg11_22_cif.got.tgz:42439.got - 2010.06.27 23:14:04.
