data_PCOD8073782
_publ_section_title
;
Structure prediction by ZEFSAII (Michael W. Deem and Ramdas Pophale) SiO2 
 PCOD8073782
Probable space group: P 21/M
;
_chemical_formula_sum "Si O2"
_cell_formula_units_Z 28
_cell_length_a 10.039934
_cell_length_b 13.215599
_cell_length_c 23.225666
_cell_angle_alpha 90.000000
_cell_angle_beta 27.388871
_cell_angle_gamma 90.000000
_cell_volume 1417.651622
_symmetry_space_group_name_H-M "P 21/M"
_symmetry_group_IT_number 11
_symmetry_cell_setting 'monoclinic'
loop_
_space_group_symop_operation_xyz
x,y,z
-x,1/2+y,-z
-x,-y,-z
x,1/2-y,z
loop_
_atom_site_type_symbol
_atom_site_label
_atom_site_fract_x
_atom_site_fract_y
_atom_site_fract_z
Si Si1 0.856311 0.863470 0.432326
Si Si2 0.622173 0.361140 0.542954
Si Si3 0.284064 0.636463 0.365638
Si Si4 0.801803 0.009494 0.156132
Si Si5 0.912546 0.554433 0.716546
Si Si6 0.280525 0.870938 0.924816
Si Si7 0.253364 0.547688 0.692716
O O1 0.906820 0.750000 0.389882
O O2 0.515252 0.882247 0.569763
O O3 0.985717 0.879808 0.446435
O O4 0.025447 0.937877 0.324226
O O5 0.489416 0.250000 0.589584
O O6 0.787452 0.380370 0.539860
O O7 0.345209 0.432580 0.644376
O O8 0.854772 0.375758 0.404315
O O9 0.406671 0.750000 0.307717
O O10 0.514774 0.555405 0.255313
O O11 0.803272 0.098871 0.108445
O O12 0.815818 0.062916 0.213341
O O13 0.068576 0.931668 0.048752
O O14 0.598532 0.592652 0.820120
O O15 0.967556 0.569202 0.764075
O O16 0.249405 0.750000 0.944025
#
# Coordination Sequence:
#
# PCOD8073782 Si02
#       7
#     4   4   4   4   4   4   4
#     4  10  20  34  57  89 124 157 189 231 286 342
#     4   9  18  32  55  85 119 156 191 233 285 344
#     4   9  17  32  58  88 117 149 191 239 285 337
#     4  10  22  42  61  84 113 148 196 247 287 336
#     4  11  22  37  55  88 122 155 192 232 284 343
#     4  11  24  41  64  85 110 151 196 244 293 339
#     4  10  23  36  58  85 120 155 191 236 284 346
#
# _framework density 19.750972999999998
#
# number of rings (size 3 to 8) (size 9 to 14) (size 15 to 20)
#    0.000    2.000    1.429    2.571    2.000    6.286 
#    0.000    0.000    0.000    0.000    0.000    0.000 
#    0.000    0.000    0.000    0.000    0.000    0.000 
#
# Total GULP energy -347119.408545 kJ/mol
# GULP energy per Si atom -12397.121734 kJ/mol
# Density = 1.970602 g / cm^3
# Si number density = 19.750973 Si / 1000 Ang^3
#
#
#
# Elastic Constant Matrix: (Units=GPa)
#
#
# Indices 1 2 3 4 5 6 
#
# 1 112.8212 20.1158 28.1906 0.0000 -8.3965 0.0000
# 2 20.1158 81.7185 14.3910 0.0000 -3.8011 0.0000
# 3 28.1906 14.3910 56.6699 0.0000 0.8511 0.0000
# 4 0.0000 0.0000 0.0000 9.6423 0.0000 4.0044
# 5 -8.3965 -3.8011 0.8511 0.0000 10.5834 0.0000
# 6 0.0000 0.0000 0.0000 4.0044 0.0000 16.2232
#
#
#
# Elastic Compliance Matrix: (Units=1/GPa)
#
#
# Indices 1 2 3 4 5 6 
#
# 1 0.011082 -0.001391 -0.005291 0.000000 0.008718 0.000000
# 2 -0.001391 0.013240 -0.002729 0.000000 0.003871 0.000000
# 3 -0.005291 -0.002729 0.021074 0.000000 -0.006872 0.000000
# 4 0.000000 0.000000 0.000000 0.115556 0.000000 -0.028523
# 5 0.008718 0.003871 -0.006872 0.000000 0.103348 0.000000
# 6 0.000000 0.000000 0.000000 -0.028523 0.000000 0.068681
#
#
# Mechanical properties :
#
#
# Convention : Reuss Voigt Hill
#
# Bulk Modulus (GPa) = 37.62732 41.84492 39.73612
# Shear Modulus (GPa) = 13.86350 19.85725 16.86038
#
# Velocity S-wave (km/s) = 2.65224 3.17421 2.92489
# Velocity P-wave (km/s) = 5.33586 5.88782 5.61862
#
# Compressibility (1/GPa) = 0.02657643
#
# Stress axis : x y z
#
# Youngs Moduli (GPa) = 90.23322 75.52835 47.45182
#
# Poissons Ratio (x) = 0.10504 0.25105
# Poissons Ratio (y) = 0.12550 0.12947
# Poissons Ratio (z) = 0.47740 0.20608
#
# Static dielectric constant tensor:
#      x y z
#    x 3.734360 0.000000 0.045460 
#    y 0.000000 3.720530 0.000000 
#    z 0.045460 0.000000 3.406260 
# 
# 
# High freq. dielectric constant tensor:
#      x y z
#    x 1.782130 0.000000 0.000030 
#    y 0.000000 1.776850 0.000000 
#    z 0.000030 0.000000 1.737930 
# 
# From -- ./inp_files/63868.got.cif
#   From: 2010.06.25/outbox.cif.g09.slc.cpg/sg11_32_cif.got.tgz:63868.got - 2010.06.27 23:14:04.
