data_PCOD8073351
_publ_section_title
;
Structure prediction by ZEFSAII (Michael W. Deem and Ramdas Pophale) SiO2 
 PCOD8073351
Probable space group: P 21/M
;
_chemical_formula_sum "Si O2"
_cell_formula_units_Z 32
_cell_length_a 14.001549
_cell_length_b 9.182566
_cell_length_c 14.075283
_cell_angle_alpha 90.000000
_cell_angle_beta 91.359971
_cell_angle_gamma 90.000000
_cell_volume 1809.151461
_symmetry_space_group_name_H-M "P 21/M"
_symmetry_group_IT_number 11
_symmetry_cell_setting 'monoclinic'
loop_
_space_group_symop_operation_xyz
x,y,z
-x,1/2+y,-z
-x,-y,-z
x,1/2-y,z
loop_
_atom_site_type_symbol
_atom_site_label
_atom_site_fract_x
_atom_site_fract_y
_atom_site_fract_z
Si Si1 0.995346 0.080271 0.143394
Si Si2 0.349104 0.580347 0.494903
Si Si3 0.642133 0.920341 0.013070
Si Si4 0.481438 0.418876 0.359010
Si Si5 0.510732 0.420450 0.145327
Si Si6 0.150749 0.079792 0.518130
Si Si7 0.004604 0.581547 0.639928
Si Si8 0.142279 0.420791 0.988743
O O1 0.974637 0.250000 0.131926
O O2 0.016734 0.037783 0.252271
O O3 0.086543 0.032274 0.082935
O O4 0.901642 0.997294 0.104806
O O5 0.329932 0.750000 0.476537
O O6 0.396459 0.512593 0.402147
O O7 0.418701 0.554000 0.585625
O O8 0.250743 0.501228 0.514753
O O9 0.636382 0.750000 0.033150
O O10 0.749373 0.973162 0.996128
O O11 0.603468 0.000035 0.105836
O O12 0.581624 0.963787 0.918777
O O13 0.451208 0.250000 0.363273
O O14 0.493345 0.473741 0.251821
O O15 0.531658 0.250000 0.142963
O O16 0.168776 0.250000 0.535487
O O17 0.092226 0.050032 0.420146
O O18 0.091433 0.016820 0.605202
O O19 0.034955 0.750000 0.630266
O O20 0.135665 0.250000 0.971260
#
# Coordination Sequence:
#
# PCOD8073351 Si02
#       8
#     4   4   4   4   4   4   4   4
#     4   9  18  33  52  72  96 128 164 202 243 287
#     4  10  20  34  52  75 103 131 162 204 248 292
#     4   9  18  32  50  72  99 129 161 200 243 288
#     4   9  19  35  53  73  98 131 169 205 243 290
#     4   9  18  33  52  72  96 128 165 203 241 285
#     4  10  20  34  53  75 100 131 165 203 247 295
#     4   9  19  35  53  73  98 130 168 207 245 289
#     4   9  18  32  49  72 100 128 160 199 244 291
#
# _framework density 17.687849
#
# number of rings (size 3 to 8) (size 9 to 14) (size 15 to 20)
#    0.000    2.750    0.000    0.750    0.000    4.500 
#    0.000    7.500    0.000    3.000    0.000    0.000 
#    0.000    0.000    0.000    0.000    0.000    0.000 
#
# Total GULP energy -396875.662997 kJ/mol
# GULP energy per Si atom -12402.364469 kJ/mol
# Density = 1.764759 g / cm^3
# Si number density = 17.687849 Si / 1000 Ang^3
#
#
#
# Elastic Constant Matrix: (Units=GPa)
#
#
# Indices 1 2 3 4 5 6 
#
# 1 116.8835 44.9643 29.8119 0.0000 -3.1573 0.0000
# 2 44.9643 57.1297 26.5609 0.0000 -4.4564 0.0000
# 3 29.8119 26.5609 98.3955 0.0000 -9.4038 0.0000
# 4 0.0000 0.0000 0.0000 27.9882 0.0000 -1.1502
# 5 -3.1573 -4.4564 -9.4038 0.0000 15.4893 0.0000
# 6 0.0000 0.0000 0.0000 -1.1502 0.0000 29.6956
#
#
#
# Elastic Compliance Matrix: (Units=1/GPa)
#
#
# Indices 1 2 3 4 5 6 
#
# 1 0.012424 -0.009217 -0.001367 0.000000 -0.000949 0.000000
# 2 -0.009217 0.026955 -0.004164 0.000000 0.003349 0.000000
# 3 -0.001367 -0.004164 0.012272 0.000000 0.005974 0.000000
# 4 0.000000 0.000000 0.000000 0.035786 0.000000 0.001386
# 5 -0.000949 0.003349 0.005974 0.000000 0.068957 0.000000
# 6 0.000000 0.000000 0.000000 0.001386 0.000000 0.033729
#
#
# Mechanical properties :
#
#
# Convention : Reuss Voigt Hill
#
# Bulk Modulus (GPa) = 45.13394 52.78698 48.96046
# Shear Modulus (GPa) = 22.02592 26.03942 24.03267
#
# Velocity S-wave (km/s) = 3.53265 3.84104 3.69007
# Velocity P-wave (km/s) = 6.49706 7.04130 6.77465
#
# Compressibility (1/GPa) = 0.02215627
#
# Stress axis : x y z
#
# Youngs Moduli (GPa) = 80.48739 37.09821 81.48558
#
# Poissons Ratio (x) = 0.34194 0.11139
# Poissons Ratio (y) = 0.74186 0.33928
# Poissons Ratio (z) = 0.11002 0.15447
#
# Static dielectric constant tensor:
#      x y z
#    x 3.329860 0.000000 -0.021110 
#    y 0.000000 3.280310 0.000000 
#    z -0.021110 0.000000 3.371740 
# 
# 
# High freq. dielectric constant tensor:
#      x y z
#    x 1.684830 0.000000 -0.002470 
#    y 0.000000 1.683520 0.000000 
#    z -0.002470 0.000000 1.684630 
# 
# From -- ./inp_files/51388.got.cif
#   From: 2010.06.25/outbox.cif.g09.slc.cpg/sg11_26_cif.got.tgz:51388.got - 2010.06.27 23:14:04.
