data_PCOD8073483
_publ_section_title
;
Structure prediction by ZEFSAII (Michael W. Deem and Ramdas Pophale) SiO2 
 PCOD8073483
Probable space group: P 21/M
;
_chemical_formula_sum "Si O2"
_cell_formula_units_Z 28
_cell_length_a 9.465938
_cell_length_b 8.994127
_cell_length_c 26.685464
_cell_angle_alpha 90.000000
_cell_angle_beta 39.231527
_cell_angle_gamma 90.000000
_cell_volume 1436.903114
_symmetry_space_group_name_H-M "P 21/M"
_symmetry_group_IT_number 11
_symmetry_cell_setting 'monoclinic'
loop_
_space_group_symop_operation_xyz
x,y,z
-x,1/2+y,-z
-x,-y,-z
x,1/2-y,z
loop_
_atom_site_type_symbol
_atom_site_label
_atom_site_fract_x
_atom_site_fract_y
_atom_site_fract_z
Si Si1 0.205925 0.576184 0.216037
Si Si2 0.182201 0.916268 0.799775
Si Si3 0.285808 0.418999 0.674868
Si Si4 0.929354 0.421631 0.570816
Si Si5 0.310123 0.421479 0.083491
Si Si6 0.404905 0.416945 0.479123
Si Si7 0.382475 0.421517 0.266150
O O1 0.263887 0.750000 0.195632
O O2 0.295623 0.494457 0.142172
O O3 0.321995 0.510366 0.233068
O O4 0.939946 0.551324 0.294707
O O5 0.211848 0.750000 0.768349
O O6 0.347551 0.933178 0.801824
O O7 0.920840 0.939386 0.884701
O O8 0.247267 0.042468 0.742834
O O9 0.360983 0.250000 0.649626
O O10 0.491980 0.516053 0.599565
O O11 0.860698 0.250000 0.579228
O O12 0.729481 0.507967 0.653347
O O13 0.000000 0.500000 0.500000
O O14 0.138413 0.427595 0.551154
O O15 0.373225 0.250000 0.073680
O O16 0.500000 0.500000 0.000000
O O17 0.500000 0.500000 0.500000
O O18 0.488487 0.250000 0.460598
O O19 0.306263 0.250000 0.282201
#
# Coordination Sequence:
#
# PCOD8073483 Si02
#       7
#     4   4   4   4   4   4   4
#     4  10  21  37  57  84 115 147 183 226 274 326
#     4   9  20  37  57  81 110 142 177 218 266 320
#     4  10  20  34  54  78 104 137 182 228 272 324
#     4  11  24  39  54  77 109 147 189 235 283 330
#     4  10  20  38  63  89 116 145 178 220 268 323
#     4  11  23  36  51  73 103 138 181 230 279 326
#     4  11  22  37  57  82 111 146 187 229 275 329
#
# _framework density 19.486353000000001
#
# number of rings (size 3 to 8) (size 9 to 14) (size 15 to 20)
#    0.000    1.714    0.000    4.286    0.000   12.571 
#    0.000    0.714    0.000    0.000    0.000    0.000 
#    0.000    0.000    0.000    0.000    0.000    0.000 
#
# Total GULP energy -347197.686792 kJ/mol
# GULP energy per Si atom -12399.917385 kJ/mol
# Density = 1.944200 g / cm^3
# Si number density = 19.486353 Si / 1000 Ang^3
#
#
#
# Elastic Constant Matrix: (Units=GPa)
#
#
# Indices 1 2 3 4 5 6 
#
# 1 98.9436 43.3068 29.3995 0.0000 -8.8647 0.0000
# 2 43.3068 136.9125 48.6713 0.0000 -4.6491 0.0000
# 3 29.3995 48.6713 94.2081 0.0000 -8.0801 0.0000
# 4 0.0000 0.0000 0.0000 37.1584 0.0000 5.1208
# 5 -8.8647 -4.6491 -8.0801 0.0000 24.1788 0.0000
# 6 0.0000 0.0000 0.0000 5.1208 0.0000 31.9904
#
#
#
# Elastic Compliance Matrix: (Units=1/GPa)
#
#
# Indices 1 2 3 4 5 6 
#
# 1 0.012339 -0.003090 -0.001974 0.000000 0.003270 0.000000
# 2 -0.003090 0.009722 -0.004113 0.000000 -0.000638 0.000000
# 3 -0.001974 -0.004113 0.013616 0.000000 0.003036 0.000000
# 4 0.000000 0.000000 0.000000 0.027519 0.000000 -0.004405
# 5 0.003270 -0.000638 0.003036 0.000000 0.043449 0.000000
# 6 0.000000 0.000000 0.000000 -0.004405 0.000000 0.031964
#
#
# Mechanical properties :
#
#
# Convention : Reuss Voigt Hill
#
# Bulk Modulus (GPa) = 57.72683 63.64659 60.68671
# Shear Modulus (GPa) = 30.72437 32.57796 31.65117
#
# Velocity S-wave (km/s) = 3.97509 4.09324 4.03460
# Velocity P-wave (km/s) = 7.12440 7.42109 7.27426
#
# Compressibility (1/GPa) = 0.01732297
#
# Stress axis : x y z
#
# Youngs Moduli (GPa) = 81.04558 102.86056 73.44294
#
# Poissons Ratio (x) = 0.31786 0.14494
# Poissons Ratio (y) = 0.25045 0.30207
# Poissons Ratio (z) = 0.15995 0.42307
#
# Static dielectric constant tensor:
#      x y z
#    x 3.540630 0.000000 -0.181740 
#    y 0.000000 3.800610 0.000000 
#    z -0.181740 0.000000 3.502820 
# 
# 
# High freq. dielectric constant tensor:
#      x y z
#    x 1.763430 0.000000 -0.014040 
#    y 0.000000 1.778560 0.000000 
#    z -0.014040 0.000000 1.739860 
# 
# From -- ./inp_files/28315.got.cif
#   From: 2010.06.25/outbox.cif.g09.slc.cpg/sg11_15_cif.got.tgz:28315.got - 2010.06.27 23:14:04.
