data_PCOD8073114
_publ_section_title
;
Structure prediction by ZEFSAII (Michael W. Deem and Ramdas Pophale) SiO2 
 PCOD8073114
Probable space group: P 21/M
;
_chemical_formula_sum "Si O2"
_cell_formula_units_Z 32
_cell_length_a 15.980426
_cell_length_b 9.300251
_cell_length_c 11.485955
_cell_angle_alpha 90.000000
_cell_angle_beta 87.407836
_cell_angle_gamma 90.000000
_cell_volume 1705.318563
_symmetry_space_group_name_H-M "P 21/M"
_symmetry_group_IT_number 11
_symmetry_cell_setting 'monoclinic'
loop_
_space_group_symop_operation_xyz
x,y,z
-x,1/2+y,-z
-x,-y,-z
x,1/2-y,z
loop_
_atom_site_type_symbol
_atom_site_label
_atom_site_fract_x
_atom_site_fract_y
_atom_site_fract_z
Si Si1 0.284418 0.079424 0.683787
Si Si2 0.648697 0.414527 0.730233
Si Si3 0.431770 0.413167 0.073703
Si Si4 0.412500 0.580809 0.519137
Si Si5 0.184397 0.915529 0.146186
Si Si6 0.259946 0.411702 0.946880
Si Si7 0.117817 0.417284 0.559427
Si Si8 0.060991 0.583102 0.345165
O O1 0.303162 0.250000 0.675706
O O2 0.271204 0.026462 0.816750
O O3 0.200731 0.035034 0.621083
O O4 0.362790 0.991951 0.628372
O O5 0.626093 0.250000 0.761654
O O6 0.581216 0.514702 0.799576
O O7 0.642586 0.443260 0.593375
O O8 0.741647 0.454067 0.767525
O O9 0.461902 0.250000 0.090529
O O10 0.500000 0.500000 0.000000
O O11 0.347706 0.421175 0.005560
O O12 0.500000 0.500000 0.500000
O O13 0.427120 0.750000 0.542867
O O14 0.187601 0.750000 0.111096
O O15 0.097381 0.957022 0.215600
O O16 0.191147 0.000940 0.024788
O O17 0.226009 0.250000 0.941223
O O18 0.119139 0.250000 0.530003
O O19 0.113623 0.499240 0.438411
O O20 0.037235 0.456608 0.644525
O O21 0.076722 0.750000 0.370041
#
# Coordination Sequence:
#
# PCOD8073114 Si02
#       8
#     4   4   4   4   4   4   4   4
#     4  10  21  38  56  75 107 145 179 215 264 321
#     4   9  19  35  52  72 100 132 168 211 259 310
#     4  10  20  33  52  75  98 128 170 218 265 310
#     4  11  24  39  56  79 106 138 176 219 268 321
#     4   9  17  32  54  77 102 135 174 217 262 308
#     4   9  20  36  52  72 101 139 176 215 263 313
#     4   9  18  32  53  81 109 143 179 215 262 318
#     4   9  17  31  53  81 112 139 174 222 268 311
#
# _framework density 18.764824000000001
#
# number of rings (size 3 to 8) (size 9 to 14) (size 15 to 20)
#    0.000    2.500    0.000    1.500    1.750    4.000 
#    0.000    3.125    0.000    0.000    0.000    0.000 
#    0.000    0.000    0.000    0.000    0.000    0.000 
#
# Total GULP energy -396817.497616 kJ/mol
# GULP energy per Si atom -12400.546800 kJ/mol
# Density = 1.872211 g / cm^3
# Si number density = 18.764824 Si / 1000 Ang^3
#
#
#
# Elastic Constant Matrix: (Units=GPa)
#
#
# Indices 1 2 3 4 5 6 
#
# 1 77.3015 41.1099 47.3096 0.0000 -22.7283 0.0000
# 2 41.1099 76.8929 50.4541 0.0000 -18.1282 0.0000
# 3 47.3096 50.4541 121.9224 0.0000 -26.5082 0.0000
# 4 0.0000 0.0000 0.0000 35.5218 0.0000 -6.3103
# 5 -22.7283 -18.1282 -26.5082 0.0000 33.2045 0.0000
# 6 0.0000 0.0000 0.0000 -6.3103 0.0000 24.5141
#
#
#
# Elastic Compliance Matrix: (Units=1/GPa)
#
#
# Indices 1 2 3 4 5 6 
#
# 1 0.021219 -0.007166 -0.003583 0.000000 0.007752 0.000000
# 2 -0.007166 0.020889 -0.005385 0.000000 0.002200 0.000000
# 3 -0.003583 -0.005385 0.012885 0.000000 0.004894 0.000000
# 4 0.000000 0.000000 0.000000 0.029501 0.000000 0.007594
# 5 0.007752 0.002200 0.004894 0.000000 0.040530 0.000000
# 6 0.000000 0.000000 0.000000 0.007594 0.000000 0.042748
#
#
# Mechanical properties :
#
#
# Convention : Reuss Voigt Hill
#
# Bulk Modulus (GPa) = 44.00586 61.54045 52.77315
# Shear Modulus (GPa) = 24.08309 27.79763 25.94036
#
# Velocity S-wave (km/s) = 3.58637 3.85303 3.72209
# Velocity P-wave (km/s) = 6.37586 7.25681 6.83055
#
# Compressibility (1/GPa) = 0.02272425
#
# Stress axis : x y z
#
# Youngs Moduli (GPa) = 47.12667 47.87298 77.61152
#
# Poissons Ratio (x) = 0.34307 0.27807
# Poissons Ratio (y) = 0.33772 0.41795
# Poissons Ratio (z) = 0.16885 0.25780
#
# Static dielectric constant tensor:
#      x y z
#    x 3.349180 0.000000 -0.180480 
#    y 0.000000 3.568020 0.000000 
#    z -0.180480 0.000000 3.461660 
# 
# 
# High freq. dielectric constant tensor:
#      x y z
#    x 1.721430 0.000000 -0.015210 
#    y 0.000000 1.727280 0.000000 
#    z -0.015210 0.000000 1.727940 
# 
# From -- ./inp_files/38161.got.cif
#   From: 2010.06.25/outbox.cif.g09.slc.cpg/sg11_20_cif.got.tgz:38161.got - 2010.06.27 23:14:04.
