data_PCOD8073913
_publ_section_title
;
Structure prediction by ZEFSAII (Michael W. Deem and Ramdas Pophale) SiO2 
 PCOD8073913
Probable space group: P 21/M
;
_chemical_formula_sum "Si O2"
_cell_formula_units_Z 32
_cell_length_a 30.684027
_cell_length_b 8.959657
_cell_length_c 12.242298
_cell_angle_alpha 90.000000
_cell_angle_beta 150.961447
_cell_angle_gamma 90.000000
_cell_volume 1633.671336
_symmetry_space_group_name_H-M "P 21/M"
_symmetry_group_IT_number 11
_symmetry_cell_setting 'monoclinic'
loop_
_space_group_symop_operation_xyz
x,y,z
-x,1/2+y,-z
-x,-y,-z
x,1/2-y,z
loop_
_atom_site_type_symbol
_atom_site_label
_atom_site_fract_x
_atom_site_fract_y
_atom_site_fract_z
Si Si1 0.244072 0.924152 0.360182
Si Si2 0.542730 0.922140 0.427432
Si Si3 0.051872 0.924754 0.016795
Si Si4 0.429032 0.426795 0.762809
Si Si5 0.366853 0.921743 0.174546
Si Si6 0.172740 0.085879 0.004848
Si Si7 0.019392 0.579430 0.348248
Si Si8 0.806515 0.581503 0.195072
O O1 0.266409 0.750000 0.418895
O O2 0.157832 0.968960 0.245805
O O3 0.330879 0.017730 0.586307
O O4 0.218678 0.960464 0.179417
O O5 0.572626 0.750000 0.504050
O O6 0.552794 0.975554 0.323534
O O7 0.440367 0.944052 0.241244
O O8 0.603441 0.018871 0.641615
O O9 0.041882 0.750000 0.006003
O O10 0.000000 0.000000 0.000000
O O11 0.000430 0.976908 0.797645
O O12 0.435427 0.250000 0.789019
O O13 0.500000 0.500000 0.000000
O O14 0.341423 0.750000 0.134402
O O15 0.280549 0.010052 0.938514
O O16 0.191954 0.250000 0.099434
O O17 0.217028 0.077842 0.984208
O O18 0.065398 0.064754 0.756326
O O19 0.035159 0.750000 0.346182
O O20 0.107323 0.519768 0.598904
O O21 0.822447 0.750000 0.272481
#
# Coordination Sequence:
#
# PCOD8073913 Si02
#       8
#     4   4   4   4   4   4   4   4
#     4  10  21  37  59  87 114 144 186 232 281 338
#     4   9  20  39  59  80 110 146 184 233 286 336
#     4  10  21  39  61  84 111 147 188 232 279 332
#     4  11  23  40  61  85 115 150 190 241 295 344
#     4  10  20  35  57  83 110 147 189 230 279 341
#     4   9  19  34  54  79 111 149 186 227 275 328
#     4  10  20  35  54  78 109 146 186 229 277 330
#     4  11  21  33  50  79 116 149 183 226 276 330
#
# _framework density 19.587783000000002
#
# number of rings (size 3 to 8) (size 9 to 14) (size 15 to 20)
#    0.000    2.000    0.000    3.375    0.000    7.500 
#    2.250    0.000    0.000    0.000    0.000    0.000 
#    0.000    0.000    0.000    0.000    0.000    0.000 
#
# Total GULP energy -396752.099686 kJ/mol
# GULP energy per Si atom -12398.503115 kJ/mol
# Density = 1.954320 g / cm^3
# Si number density = 19.587783 Si / 1000 Ang^3
#
#
#
# Elastic Constant Matrix: (Units=GPa)
#
#
# Indices 1 2 3 4 5 6 
#
# 1 94.6722 43.3640 35.0058 0.0000 8.5362 0.0000
# 2 43.3640 84.3641 47.6306 0.0000 10.7747 0.0000
# 3 35.0058 47.6306 101.2711 0.0000 20.6853 0.0000
# 4 0.0000 0.0000 0.0000 40.2472 0.0000 1.2509
# 5 8.5362 10.7747 20.6853 0.0000 24.3350 0.0000
# 6 0.0000 0.0000 0.0000 1.2509 0.0000 29.0766
#
#
#
# Elastic Compliance Matrix: (Units=1/GPa)
#
#
# Indices 1 2 3 4 5 6 
#
# 1 0.014114 -0.006116 -0.001868 0.000000 -0.000655 0.000000
# 2 -0.006116 0.018804 -0.006616 0.000000 -0.000556 0.000000
# 3 -0.001868 -0.006616 0.015610 0.000000 -0.009684 0.000000
# 4 0.000000 0.000000 0.000000 0.024880 0.000000 -0.001070
# 5 -0.000655 -0.000556 -0.009684 0.000000 0.049801 0.000000
# 6 0.000000 0.000000 0.000000 -0.001070 0.000000 0.034438
#
#
# Mechanical properties :
#
#
# Convention : Reuss Voigt Hill
#
# Bulk Modulus (GPa) = 51.74269 59.14533 55.44401
# Shear Modulus (GPa) = 25.86788 29.01890 27.44339
#
# Velocity S-wave (km/s) = 3.63797 3.85317 3.74712
# Velocity P-wave (km/s) = 6.64225 7.07506 6.86207
#
# Compressibility (1/GPa) = 0.01932640
#
# Stress axis : x y z
#
# Youngs Moduli (GPa) = 70.85064 53.18129 64.06125
#
# Poissons Ratio (x) = 0.32528 0.11969
# Poissons Ratio (y) = 0.43335 0.42383
# Poissons Ratio (z) = 0.13237 0.35185
#
# Static dielectric constant tensor:
#      x y z
#    x 3.633910 0.000000 0.267450 
#    y 0.000000 3.710440 0.000000 
#    z 0.267450 0.000000 3.474750 
# 
# 
# High freq. dielectric constant tensor:
#      x y z
#    x 1.755140 0.000000 0.023690 
#    y 0.000000 1.773720 0.000000 
#    z 0.023690 0.000000 1.759970 
# 
# From -- ./inp_files/45281.got.cif
#   From: 2010.06.25/outbox.cif.g09.slc.cpg/sg11_23_cif.got.tgz:45281.got - 2010.06.27 23:14:04.
