data_PCOD8073505
_publ_section_title
;
Structure prediction by ZEFSAII (Michael W. Deem and Ramdas Pophale) SiO2 
 PCOD8073505
Probable space group: P 21/M
;
_chemical_formula_sum "Si O2"
_cell_formula_units_Z 28
_cell_length_a 9.629043
_cell_length_b 8.760733
_cell_length_c 17.381383
_cell_angle_alpha 90.000000
_cell_angle_beta 90.011906
_cell_angle_gamma 90.000000
_cell_volume 1466.249546
_symmetry_space_group_name_H-M "P 21/M"
_symmetry_group_IT_number 11
_symmetry_cell_setting 'monoclinic'
loop_
_space_group_symop_operation_xyz
x,y,z
-x,1/2+y,-z
-x,-y,-z
x,1/2-y,z
loop_
_atom_site_type_symbol
_atom_site_label
_atom_site_fract_x
_atom_site_fract_y
_atom_site_fract_z
Si Si1 0.640566 0.070958 0.112992
Si Si2 0.327110 0.573937 0.709595
Si Si3 0.860469 0.570704 0.411917
Si Si4 0.613671 0.072080 0.695145
Si Si5 0.652635 0.071078 0.870903
Si Si6 0.847668 0.568408 0.991370
Si Si7 0.827209 0.430072 0.567127
O O1 0.635896 0.250000 0.093641
O O2 0.685345 0.039120 0.200296
O O3 0.489439 0.000603 0.096503
O O4 0.753415 0.987414 0.061492
O O5 0.307717 0.750000 0.690570
O O6 0.206530 0.481614 0.667634
O O7 0.475300 0.521350 0.677732
O O8 0.851223 0.750000 0.418314
O O9 0.780413 0.500527 0.485510
O O10 0.018969 0.512325 0.411400
O O11 0.579970 0.250000 0.684837
O O12 0.670281 0.038545 0.780495
O O13 0.726569 0.012301 0.634546
O O14 0.652078 0.250000 0.889959
O O15 0.782623 0.990715 0.911560
O O16 0.856491 0.750000 0.990894
O O17 0.000000 0.500000 0.000000
O O18 0.821138 0.250000 0.559609
#
# Coordination Sequence:
#
# PCOD8073505 Si02
#       7
#     4   4   4   4   4   4   4
#     4  10  21  39  60  83 111 146 186 226 273 328
#     4  10  21  36  56  82 111 142 179 224 270 319
#     4  10  20  34  54  79 108 144 183 223 272 327
#     4   9  19  36  58  82 108 140 180 225 271 321
#     4  10  20  37  60  85 112 145 184 226 276 331
#     4  12  25  40  58  83 114 147 184 228 275 324
#     4   9  19  36  55  77 106 141 182 225 270 323
#
# _framework density 19.096340000000001
#
# number of rings (size 3 to 8) (size 9 to 14) (size 15 to 20)
#    0.000    2.000    0.000    3.429    0.000    5.143 
#    0.000    1.429    0.000    0.000    0.000    0.000 
#    0.000    0.000    0.000    0.000    0.000    0.000 
#
# Total GULP energy -347314.712031 kJ/mol
# GULP energy per Si atom -12404.096858 kJ/mol
# Density = 1.905288 g / cm^3
# Si number density = 19.096340 Si / 1000 Ang^3
#
#
#
# Elastic Constant Matrix: (Units=GPa)
#
#
# Indices 1 2 3 4 5 6 
#
# 1 66.9254 25.9846 19.7628 0.0000 12.7387 0.0000
# 2 25.9846 74.4121 18.7883 0.0000 5.5509 0.0000
# 3 19.7628 18.7883 56.3180 0.0000 6.0857 0.0000
# 4 0.0000 0.0000 0.0000 33.0976 0.0000 2.4320
# 5 12.7387 5.5509 6.0857 0.0000 32.7185 0.0000
# 6 0.0000 0.0000 0.0000 2.4320 0.0000 33.6774
#
#
#
# Elastic Compliance Matrix: (Units=1/GPa)
#
#
# Indices 1 2 3 4 5 6 
#
# 1 0.019387 -0.005215 -0.004432 0.000000 -0.005839 0.000000
# 2 -0.005215 0.016161 -0.003556 0.000000 -0.000050 0.000000
# 3 -0.004432 -0.003556 0.020662 0.000000 -0.001514 0.000000
# 4 0.000000 0.000000 0.000000 0.030375 0.000000 -0.002194
# 5 -0.005839 -0.000050 -0.001514 0.000000 0.033127 0.000000
# 6 0.000000 0.000000 0.000000 -0.002194 0.000000 0.029852
#
#
# Mechanical properties :
#
#
# Convention : Reuss Voigt Hill
#
# Bulk Modulus (GPa) = 33.55400 36.30300 34.92850
# Shear Modulus (GPa) = 26.89528 28.77334 27.83431
#
# Velocity S-wave (km/s) = 3.75694 3.88589 3.82196
# Velocity P-wave (km/s) = 6.03560 6.25981 6.14873
#
# Compressibility (1/GPa) = 0.02980270
#
# Stress axis : x y z
#
# Youngs Moduli (GPa) = 51.58046 61.87560 48.39873
#
# Poissons Ratio (x) = 0.32270 0.21452
# Poissons Ratio (y) = 0.26901 0.17211
# Poissons Ratio (z) = 0.22863 0.22004
#
# Static dielectric constant tensor:
#      x y z
#    x 3.548170 0.000000 0.019940 
#    y 0.000000 3.542260 0.000000 
#    z 0.019940 0.000000 3.607210 
# 
# 
# High freq. dielectric constant tensor:
#      x y z
#    x 1.739080 0.000000 0.002900 
#    y 0.000000 1.751660 0.000000 
#    z 0.002900 0.000000 1.752430 
# 
# From -- ./inp_files/57518.got.cif
#   From: 2010.06.25/outbox.cif.g09.slc.cpg/sg11_29_cif.got.tgz:57518.got - 2010.06.27 23:14:04.
