data_PCOD8073379
_publ_section_title
;
Structure prediction by ZEFSAII (Michael W. Deem and Ramdas Pophale) SiO2 
 PCOD8073379
Probable space group: P 21/M
;
_chemical_formula_sum "Si O2"
_cell_formula_units_Z 32
_cell_length_a 20.085459
_cell_length_b 10.444967
_cell_length_c 8.969625
_cell_angle_alpha 90.000000
_cell_angle_beta 61.009134
_cell_angle_gamma 90.000000
_cell_volume 1645.965577
_symmetry_space_group_name_H-M "P 21/M"
_symmetry_group_IT_number 11
_symmetry_cell_setting 'monoclinic'
loop_
_space_group_symop_operation_xyz
x,y,z
-x,1/2+y,-z
-x,-y,-z
x,1/2-y,z
loop_
_atom_site_type_symbol
_atom_site_label
_atom_site_fract_x
_atom_site_fract_y
_atom_site_fract_z
Si Si1 0.003999 0.894470 0.867912
Si Si2 0.239270 0.897202 0.728046
Si Si3 0.771625 0.897672 0.750342
Si Si4 0.595971 0.390278 0.380290
Si Si5 0.502368 0.537516 0.244528
Si Si6 0.397816 0.108502 0.131337
Si Si7 0.835929 0.608253 0.999688
Si Si8 0.154193 0.605758 0.524714
O O1 0.016432 0.750000 0.920664
O O2 0.072445 0.927258 0.682848
O O3 0.925213 0.899600 0.860857
O O4 0.000000 0.000000 0.000000
O O5 0.228902 0.750000 0.796486
O O6 0.323962 0.956036 0.662217
O O7 0.221492 0.901664 0.572662
O O8 0.180703 0.992924 0.869830
O O9 0.784916 0.750000 0.682963
O O10 0.685976 0.946478 0.810397
O O11 0.830450 0.995827 0.612307
O O12 0.783658 0.908730 0.912803
O O13 0.618914 0.250000 0.307065
O O14 0.558322 0.444945 0.273107
O O15 0.539604 0.380652 0.583197
O O16 0.437703 0.469326 0.218364
O O17 0.553716 0.617065 0.074396
O O18 0.389939 0.250000 0.203845
O O19 0.819201 0.750000 0.088435
O O20 0.153572 0.750000 0.455528
#
# Coordination Sequence:
#
# PCOD8073379 Si02
#       8
#     4   4   4   4   4   4   4   4
#     4  10  20  36  59  84 113 143 180 224 268 320
#     4  10  20  35  56  81 111 145 182 227 276 328
#     4  10  22  38  55  80 113 146 183 226 272 324
#     4  10  20  34  52  78 108 137 177 228 276 322
#     4  10  20  34  54  77 103 139 181 223 275 324
#     4  10  20  36  55  75 104 142 182 223 268 323
#     4  10  21  37  57  83 112 144 183 226 270 321
#     4  10  21  37  56  82 112 144 182 224 270 324
#
# _framework density 19.441475000000001
#
# number of rings (size 3 to 8) (size 9 to 14) (size 15 to 20)
#    0.000    2.000    1.250    2.250    0.000    2.000 
#    0.000    6.250    0.000    0.000    0.000    0.000 
#    0.000    0.000    0.000    0.000    0.000    0.000 
#
# Total GULP energy -396563.539619 kJ/mol
# GULP energy per Si atom -12392.610613 kJ/mol
# Density = 1.939723 g / cm^3
# Si number density = 19.441475 Si / 1000 Ang^3
#
#
#
# Elastic Constant Matrix: (Units=GPa)
#
#
# Indices 1 2 3 4 5 6 
#
# 1 75.8016 5.7575 2.0078 0.0000 -6.7192 0.0000
# 2 5.7575 87.4326 27.8844 0.0000 0.2296 0.0000
# 3 2.0078 27.8844 43.9705 0.0000 -5.9436 0.0000
# 4 0.0000 0.0000 0.0000 25.7513 0.0000 -6.3473
# 5 -6.7192 0.2296 -5.9436 0.0000 30.7593 0.0000
# 6 0.0000 0.0000 0.0000 -6.3473 0.0000 18.3563
#
#
#
# Elastic Compliance Matrix: (Units=1/GPa)
#
#
# Indices 1 2 3 4 5 6 
#
# 1 0.013530 -0.001045 0.000457 0.000000 0.003052 0.000000
# 2 -0.001045 0.014528 -0.009458 0.000000 -0.002164 0.000000
# 3 0.000457 -0.009458 0.029514 0.000000 0.005873 0.000000
# 4 0.000000 0.000000 0.000000 0.042451 0.000000 0.014679
# 5 0.003052 -0.002164 0.005873 0.000000 0.034328 0.000000
# 6 0.000000 0.000000 0.000000 0.014679 0.000000 0.059553
#
#
# Mechanical properties :
#
#
# Convention : Reuss Voigt Hill
#
# Bulk Modulus (GPa) = 26.68047 30.94490 28.81268
# Shear Modulus (GPa) = 22.07613 26.41040 24.24326
#
# Velocity S-wave (km/s) = 3.37340 3.68972 3.53510
# Velocity P-wave (km/s) = 5.37832 5.83983 5.61382
#
# Compressibility (1/GPa) = 0.03748060
#
# Stress axis : x y z
#
# Youngs Moduli (GPa) = 73.90937 68.83116 33.88270
#
# Poissons Ratio (x) = 0.07192 -0.01549
# Poissons Ratio (y) = 0.07722 0.32047
# Poissons Ratio (z) = -0.03380 0.65102
#
# Static dielectric constant tensor:
#      x y z
#    x 3.814380 0.000000 -0.188400 
#    y 0.000000 3.568650 0.000000 
#    z -0.188400 0.000000 3.285200 
# 
# 
# High freq. dielectric constant tensor:
#      x y z
#    x 1.775680 0.000000 -0.013870 
#    y 0.000000 1.758380 0.000000 
#    z -0.013870 0.000000 1.735050 
# 
# From -- ./inp_files/26588.got.cif
#   From: 2010.06.25/outbox.cif.g09.slc.cpg/sg11_14_cif.got.tgz:26588.got - 2010.06.27 23:14:04.
