data_PCOD8073879
_publ_section_title
;
Structure prediction by ZEFSAII (Michael W. Deem and Ramdas Pophale) SiO2 
 PCOD8073879
Probable space group: P 21/M
;
_chemical_formula_sum "Si O2"
_cell_formula_units_Z 32
_cell_length_a 14.963491
_cell_length_b 21.926537
_cell_length_c 10.361036
_cell_angle_alpha 90.000000
_cell_angle_beta 28.728945
_cell_angle_gamma 90.000000
_cell_volume 1633.992515
_symmetry_space_group_name_H-M "P 21/M"
_symmetry_group_IT_number 11
_symmetry_cell_setting 'monoclinic'
loop_
_space_group_symop_operation_xyz
x,y,z
-x,1/2+y,-z
-x,-y,-z
x,1/2-y,z
loop_
_atom_site_type_symbol
_atom_site_label
_atom_site_fract_x
_atom_site_fract_y
_atom_site_fract_z
Si Si1 0.776043 0.019161 0.188815
Si Si2 0.127381 0.943699 0.382873
Si Si3 0.625719 0.819029 0.170698
Si Si4 0.963935 0.182014 0.430938
Si Si5 0.169182 0.505546 0.597972
Si Si6 0.478798 0.090123 0.181621
Si Si7 0.440302 0.680778 0.146679
Si Si8 0.549932 0.596300 0.495028
O O1 0.639706 0.058840 0.276454
O O2 0.761402 0.038504 0.358668
O O3 0.724687 0.947526 0.244151
O O4 0.978670 0.029728 0.872741
O O5 0.045241 0.875363 0.456401
O O6 0.143372 0.944789 0.518650
O O7 0.329143 0.948813 0.062015
O O8 0.000000 0.000000 0.500000
O O9 0.559246 0.750000 0.263313
O O10 0.529103 0.847611 0.164946
O O11 0.548355 0.848775 0.397908
O O12 0.848311 0.825546 0.888339
O O13 0.965056 0.250000 0.497415
O O14 0.784096 0.178295 0.565092
O O15 0.314108 0.456548 0.358987
O O16 0.444600 0.120596 0.365144
O O17 0.480471 0.143101 0.074154
O O18 0.511840 0.750000 0.038681
#
# Coordination Sequence:
#
# PCOD8073879 Si02
#       8
#     4   4   4   4   4   4   4   4
#     4   9  20  36  56  76 114 155 184 236 293 341
#     4  11  22  34  57  86 119 154 194 242 296 355
#     4  10  21  37  63  87 109 152 201 245 290 348
#     4   9  20  38  58  84 115 150 198 243 291 349
#     4  10  20  35  53  83 112 149 194 232 290 352
#     4  10  22  36  54  85 117 152 186 242 305 350
#     4   9  20  39  60  84 115 152 195 241 295 356
#     4  10  20  37  56  79 112 147 193 234 289 350
#
# _framework density 19.583932000000001
#
# number of rings (size 3 to 8) (size 9 to 14) (size 15 to 20)
#    0.000    2.250    0.000    1.875    5.250    2.500 
#    0.000    0.000    0.000    0.750    0.000    0.000 
#    0.000    0.000    0.000    0.000    0.000    0.000 
#
# Total GULP energy -396637.833824 kJ/mol
# GULP energy per Si atom -12394.932307 kJ/mol
# Density = 1.953936 g / cm^3
# Si number density = 19.583932 Si / 1000 Ang^3
#
#
#
# Elastic Constant Matrix: (Units=GPa)
#
#
# Indices 1 2 3 4 5 6 
#
# 1 90.3810 40.4731 39.5094 0.0000 11.3199 0.0000
# 2 40.4731 101.6244 46.0477 0.0000 6.5760 0.0000
# 3 39.5094 46.0477 100.7317 0.0000 -0.2150 0.0000
# 4 0.0000 0.0000 0.0000 25.5881 0.0000 6.5849
# 5 11.3199 6.5760 -0.2150 0.0000 32.7444 0.0000
# 6 0.0000 0.0000 0.0000 6.5849 0.0000 24.3910
#
#
#
# Elastic Compliance Matrix: (Units=1/GPa)
#
#
# Indices 1 2 3 4 5 6 
#
# 1 0.015193 -0.003853 -0.004208 0.000000 -0.004506 0.000000
# 2 -0.003853 0.013601 -0.004709 0.000000 -0.001430 0.000000
# 3 -0.004208 -0.004709 0.013736 0.000000 0.002491 0.000000
# 4 0.000000 0.000000 0.000000 0.041999 0.000000 -0.011338
# 5 -0.004506 -0.001430 0.002491 0.000000 0.032401 0.000000
# 6 0.000000 0.000000 0.000000 -0.011338 0.000000 0.044060
#
#
# Mechanical properties :
#
#
# Convention : Reuss Voigt Hill
#
# Bulk Modulus (GPa) = 58.85582 60.53305 59.69444
# Shear Modulus (GPa) = 26.01559 27.65848 26.83704
#
# Velocity S-wave (km/s) = 3.64870 3.76214 3.70585
# Velocity P-wave (km/s) = 6.91874 7.06033 6.98990
#
# Compressibility (1/GPa) = 0.01699067
#
# Stress axis : x y z
#
# Youngs Moduli (GPa) = 65.81862 73.52384 72.80253
#
# Poissons Ratio (x) = 0.28327 0.30632
# Poissons Ratio (y) = 0.25359 0.34285
# Poissons Ratio (z) = 0.27693 0.34625
#
# Static dielectric constant tensor:
#      x y z
#    x 3.721300 0.000000 -0.131150 
#    y 0.000000 3.551560 0.000000 
#    z -0.131150 0.000000 3.493310 
# 
# 
# High freq. dielectric constant tensor:
#      x y z
#    x 1.763890 0.000000 -0.013220 
#    y 0.000000 1.751220 0.000000 
#    z -0.013220 0.000000 1.761290 
# 
# From -- ./inp_files/23345.got.cif
#   From: 2010.06.25/outbox.cif.g09.slc.cpg/sg11_12_cif.got.tgz:23345.got - 2010.06.27 23:14:04.
