data_PCOD8073192
_publ_section_title
;
Structure prediction by ZEFSAII (Michael W. Deem and Ramdas Pophale) SiO2 
 PCOD8073192
Probable space group: P 21/M
;
_chemical_formula_sum "Si O2"
_cell_formula_units_Z 32
_cell_length_a 15.555543
_cell_length_b 8.847023
_cell_length_c 25.285996
_cell_angle_alpha 90.000000
_cell_angle_beta 150.017686
_cell_angle_gamma 90.000000
_cell_volume 1739.002170
_symmetry_space_group_name_H-M "P 21/M"
_symmetry_group_IT_number 11
_symmetry_cell_setting 'monoclinic'
loop_
_space_group_symop_operation_xyz
x,y,z
-x,1/2+y,-z
-x,-y,-z
x,1/2-y,z
loop_
_atom_site_type_symbol
_atom_site_label
_atom_site_fract_x
_atom_site_fract_y
_atom_site_fract_z
Si Si1 0.846731 0.575217 0.854324
Si Si2 0.763361 0.075872 0.916480
Si Si3 0.885391 0.572572 0.393946
Si Si4 0.412409 0.073932 0.903238
Si Si5 0.366783 0.427767 0.359975
Si Si6 0.978281 0.578020 0.325355
Si Si7 0.710608 0.927097 0.564304
Si Si8 0.464973 0.928352 0.820928
O O1 0.804143 0.750000 0.844137
O O2 0.765771 0.471715 0.856597
O O3 0.764402 0.520682 0.755398
O O4 0.050380 0.550289 0.958233
O O5 0.705154 0.250000 0.889681
O O6 0.634032 0.968244 0.878356
O O7 0.863609 0.750000 0.392029
O O8 0.975733 0.539451 0.386104
O O9 0.697853 0.498523 0.295981
O O10 0.000000 0.500000 0.500000
O O11 0.458638 0.250000 0.924607
O O12 0.208555 0.048733 0.799073
O O13 0.487191 0.995273 0.891130
O O14 0.500000 0.000000 0.000000
O O15 0.390823 0.250000 0.372727
O O16 0.291578 0.484774 0.376077
O O17 0.553550 0.499020 0.448426
O O18 0.036673 0.750000 0.347349
O O19 0.109604 0.468809 0.366255
O O20 0.686452 0.750000 0.548681
O O21 0.441536 0.750000 0.812065
#
# Coordination Sequence:
#
# PCOD8073192 Si02
#       8
#     4   4   4   4   4   4   4   4
#     4   9  19  36  56  77 104 140 179 219 268 324
#     4  10  20  35  55  80 109 139 176 224 272 320
#     4  10  21  38  58  81 109 142 181 225 274 326
#     4  10  21  38  58  82 111 143 181 224 272 324
#     4   9  19  36  54  74 104 139 174 215 263 313
#     4   9  20  37  55  77 108 142 174 215 266 318
#     4  10  20  33  53  80 105 135 176 218 261 311
#     4  11  22  37  57  81 110 146 185 224 270 322
#
# _framework density 18.401356
#
# number of rings (size 3 to 8) (size 9 to 14) (size 15 to 20)
#    0.000    2.250    0.000    3.375    0.000    6.500 
#    0.000    2.500    0.000    0.000    0.000    0.000 
#    0.000    0.000    0.000    0.000    0.000    0.000 
#
# Total GULP energy -396917.337497 kJ/mol
# GULP energy per Si atom -12403.666797 kJ/mol
# Density = 1.835947 g / cm^3
# Si number density = 18.401356 Si / 1000 Ang^3
#
#
#
# Elastic Constant Matrix: (Units=GPa)
#
#
# Indices 1 2 3 4 5 6 
#
# 1 94.7098 47.8097 70.5073 0.0000 3.5485 0.0000
# 2 47.8097 94.4585 57.4165 0.0000 -4.7110 0.0000
# 3 70.5073 57.4165 139.2415 0.0000 -23.1683 0.0000
# 4 0.0000 0.0000 0.0000 33.2641 0.0000 1.3444
# 5 3.5485 -4.7110 -23.1683 0.0000 29.3487 0.0000
# 6 0.0000 0.0000 0.0000 1.3444 0.0000 35.6946
#
#
#
# Elastic Compliance Matrix: (Units=1/GPa)
#
#
# Indices 1 2 3 4 5 6 
#
# 1 0.021617 -0.004899 -0.010927 0.000000 -0.012026 0.000000
# 2 -0.004899 0.015424 -0.003878 0.000000 0.000007 0.000000
# 3 -0.010927 -0.003878 0.016612 0.000000 0.013813 0.000000
# 4 0.000000 0.000000 0.000000 0.030108 0.000000 -0.001134
# 5 -0.012026 0.000007 0.013813 0.000000 0.046432 0.000000
# 6 0.000000 0.000000 0.000000 -0.001134 0.000000 0.028058
#
#
# Mechanical properties :
#
#
# Convention : Reuss Voigt Hill
#
# Bulk Modulus (GPa) = 70.20212 75.54188 72.87200
# Shear Modulus (GPa) = 24.70254 29.83988 27.27121
#
# Velocity S-wave (km/s) = 3.66789 4.03129 3.85388
# Velocity P-wave (km/s) = 7.49475 7.92527 7.71301
#
# Compressibility (1/GPa) = 0.01424458
#
# Stress axis : x y z
#
# Youngs Moduli (GPa) = 46.26028 64.83367 60.19659
#
# Poissons Ratio (x) = 0.31763 0.65776
# Poissons Ratio (y) = 0.22664 0.23346
# Poissons Ratio (z) = 0.50548 0.25144
#
# Static dielectric constant tensor:
#      x y z
#    x 3.378620 0.000000 -0.098800 
#    y 0.000000 3.422620 0.000000 
#    z -0.098800 0.000000 3.471370 
# 
# 
# High freq. dielectric constant tensor:
#      x y z
#    x 1.712120 0.000000 -0.001470 
#    y 0.000000 1.722460 0.000000 
#    z -0.001470 0.000000 1.718040 
# 
# From -- ./inp_files/68894.got.cif
#   From: 2010.06.25/outbox.cif.g09.slc.cpg/sg11_35_cif.got.tgz:68894.got - 2010.06.27 23:14:04.
