data_PCOD8073726
_publ_section_title
;
Structure prediction by ZEFSAII (Michael W. Deem and Ramdas Pophale) SiO2 
 PCOD8073726
Probable space group: P 21/M
;
_chemical_formula_sum "Si O2"
_cell_formula_units_Z 32
_cell_length_a 24.436646
_cell_length_b 9.319860
_cell_length_c 23.242029
_cell_angle_alpha 90.000000
_cell_angle_beta 18.289630
_cell_angle_gamma 90.000000
_cell_volume 1661.140979
_symmetry_space_group_name_H-M "P 21/M"
_symmetry_group_IT_number 11
_symmetry_cell_setting 'monoclinic'
loop_
_space_group_symop_operation_xyz
x,y,z
-x,1/2+y,-z
-x,-y,-z
x,1/2-y,z
loop_
_atom_site_type_symbol
_atom_site_label
_atom_site_fract_x
_atom_site_fract_y
_atom_site_fract_z
Si Si1 0.173162 0.417610 0.142411
Si Si2 0.185490 0.416267 0.753416
Si Si3 0.161879 0.084012 0.515398
Si Si4 0.320275 0.415260 0.240825
Si Si5 0.516252 0.413844 0.223513
Si Si6 0.530865 0.085711 0.342824
Si Si7 0.157387 0.417309 0.914985
Si Si8 0.667340 0.584638 0.898521
O O1 0.164487 0.250000 0.137491
O O2 0.196026 0.450090 0.187634
O O3 0.992583 0.489997 0.303530
O O4 0.328480 0.483520 0.950511
O O5 0.145511 0.250000 0.780199
O O6 0.363135 0.467300 0.545975
O O7 0.208086 0.445110 0.798388
O O8 0.027074 0.509247 0.886103
O O9 0.120606 0.250000 0.569068
O O10 0.173911 0.052279 0.434724
O O11 0.340565 0.036623 0.367220
O O12 0.374492 0.250000 0.189322
O O13 0.253098 0.457537 0.243695
O O14 0.492717 0.499410 0.085713
O O15 0.562822 0.250000 0.160359
O O16 0.483829 0.430136 0.323299
O O17 0.576663 0.250000 0.313259
O O18 0.694803 0.986487 0.193105
O O19 0.142771 0.250000 0.944163
O O20 0.613900 0.750000 0.953060
#
# Coordination Sequence:
#
# PCOD8073726 Si02
#       8
#     4   4   4   4   4   4   4   4
#     4  11  23  37  56  82 113 145 179 225 284 342
#     4   9  19  36  57  84 118 154 189 225 270 325
#     4  10  21  37  58  81 107 143 189 232 272 327
#     4   9  17  32  55  80 107 140 179 224 271 326
#     4  10  22  41  60  79 105 143 192 238 275 319
#     4  10  21  37  59  82 108 146 191 234 275 324
#     4  10  20  34  56  87 121 151 182 225 277 330
#     4   9  18  32  52  80 111 141 174 219 279 337
#
# _framework density 19.263869
#
# number of rings (size 3 to 8) (size 9 to 14) (size 15 to 20)
#    0.000    2.250    1.250    1.125    0.000    4.500 
#    0.000    2.500    0.000    0.000    0.000    0.000 
#    0.000    0.000    0.000    0.000    0.000    0.000 
#
# Total GULP energy -396841.461869 kJ/mol
# GULP energy per Si atom -12401.295683 kJ/mol
# Density = 1.922002 g / cm^3
# Si number density = 19.263869 Si / 1000 Ang^3
#
#
#
# Elastic Constant Matrix: (Units=GPa)
#
#
# Indices 1 2 3 4 5 6 
#
# 1 58.0856 26.2591 29.0722 0.0000 -2.0739 0.0000
# 2 26.2591 71.2581 50.2739 0.0000 -5.5840 0.0000
# 3 29.0722 50.2739 104.0708 0.0000 -10.7931 0.0000
# 4 0.0000 0.0000 0.0000 31.0442 0.0000 -1.6889
# 5 -2.0739 -5.5840 -10.7931 0.0000 14.9645 0.0000
# 6 0.0000 0.0000 0.0000 -1.6889 0.0000 26.4746
#
#
#
# Elastic Compliance Matrix: (Units=1/GPa)
#
#
# Indices 1 2 3 4 5 6 
#
# 1 0.021409 -0.005580 -0.003451 0.000000 -0.001605 0.000000
# 2 -0.005580 0.022748 -0.009328 0.000000 0.000987 0.000000
# 3 -0.003451 -0.009328 0.015854 0.000000 0.007476 0.000000
# 4 0.000000 0.000000 0.000000 0.032324 0.000000 0.002062
# 5 -0.001605 0.000987 0.007476 0.000000 0.072363 0.000000
# 6 0.000000 0.000000 0.000000 0.002062 0.000000 0.037904
#
#
# Mechanical properties :
#
#
# Convention : Reuss Voigt Hill
#
# Bulk Modulus (GPa) = 42.93184 49.40275 46.16729
# Shear Modulus (GPa) = 20.23602 23.01731 21.62667
#
# Velocity S-wave (km/s) = 3.24460 3.46040 3.35424
# Velocity P-wave (km/s) = 6.03085 6.45498 6.24652
#
# Compressibility (1/GPa) = 0.02329274
#
# Stress axis : x y z
#
# Youngs Moduli (GPa) = 46.71008 43.95981 63.07428
#
# Poissons Ratio (x) = 0.24529 0.21769
# Poissons Ratio (y) = 0.26064 0.58835
# Poissons Ratio (z) = 0.16121 0.41005
#
# Static dielectric constant tensor:
#      x y z
#    x 3.585410 0.000000 0.076620 
#    y 0.000000 2.803460 0.000000 
#    z 0.076620 0.000000 3.376440 
# 
# 
# High freq. dielectric constant tensor:
#      x y z
#    x 1.750450 0.000000 0.003190 
#    y 0.000000 1.747330 0.000000 
#    z 0.003190 0.000000 1.743060 
# 
# From -- ./inp_files/69917.got.cif
#   From: 2010.06.25/outbox.cif.g09.slc.cpg/sg11_35_cif.got.tgz:69917.got - 2010.06.27 23:14:04.
