data_PCOD8073810
_publ_section_title
;
Structure prediction by ZEFSAII (Michael W. Deem and Ramdas Pophale) SiO2 
 PCOD8073810
Probable space group: P 21/M
;
_chemical_formula_sum "Si O2"
_cell_formula_units_Z 28
_cell_length_a 15.024979
_cell_length_b 8.798702
_cell_length_c 11.673067
_cell_angle_alpha 90.000000
_cell_angle_beta 116.236937
_cell_angle_gamma 90.000000
_cell_volume 1384.194441
_symmetry_space_group_name_H-M "P 21/M"
_symmetry_group_IT_number 11
_symmetry_cell_setting 'monoclinic'
loop_
_space_group_symop_operation_xyz
x,y,z
-x,1/2+y,-z
-x,-y,-z
x,1/2-y,z
loop_
_atom_site_type_symbol
_atom_site_label
_atom_site_fract_x
_atom_site_fract_y
_atom_site_fract_z
Si Si1 0.970409 0.428734 0.363496
Si Si2 0.651180 0.074824 0.539642
Si Si3 0.107865 0.929408 0.055530
Si Si4 0.193474 0.427943 0.878067
Si Si5 0.581821 0.573702 0.967593
Si Si6 0.549312 0.572830 0.693527
Si Si7 0.156817 0.426858 0.313504
O O1 0.955792 0.250000 0.369971
O O2 0.868188 0.502295 0.262155
O O3 0.000000 0.500000 0.500000
O O4 0.055966 0.467846 0.321286
O O5 0.681409 0.250000 0.562163
O O6 0.567094 0.045164 0.396946
O O7 0.614444 0.024109 0.643554
O O8 0.747836 0.977224 0.557312
O O9 0.098478 0.750000 0.038775
O O10 0.165998 0.976506 0.202602
O O11 0.166466 0.991772 0.980691
O O12 0.000000 0.000000 0.000000
O O13 0.170205 0.250000 0.875517
O O14 0.309275 0.459055 0.919250
O O15 0.557801 0.750000 0.949673
O O16 0.573465 0.510234 0.833570
O O17 0.500000 0.500000 0.000000
O O18 0.577364 0.750000 0.694281
O O19 0.161302 0.250000 0.286643
#
# Coordination Sequence:
#
# PCOD8073810 Si02
#       7
#     4   4   4   4   4   4   4
#     4  11  25  43  63  86 119 162 207 252 305 365
#     4  10  20  34  59  91 119 154 197 246 305 365
#     4  12  23  37  62  94 126 161 201 250 307 365
#     4  11  23  41  65  93 127 164 205 255 311 369
#     4  10  23  41  62  88 119 160 205 253 304 359
#     4   9  19  38  59  84 121 158 196 246 306 364
#     4  11  23  39  59  87 122 161 202 248 305 368
#
# _framework density 20.228372
#
# number of rings (size 3 to 8) (size 9 to 14) (size 15 to 20)
#    0.000    1.429    1.429    3.857    0.000    6.286 
#    0.000    2.857    0.000    0.000    0.000    0.000 
#    0.000    0.000    0.000    0.000    0.000    0.000 
#
# Total GULP energy -347327.224532 kJ/mol
# GULP energy per Si atom -12404.543733 kJ/mol
# Density = 2.018233 g / cm^3
# Si number density = 20.228372 Si / 1000 Ang^3
#
#
#
# Elastic Constant Matrix: (Units=GPa)
#
#
# Indices 1 2 3 4 5 6 
#
# 1 92.7532 58.8680 46.1876 0.0000 16.0689 0.0000
# 2 58.8680 110.1458 54.0835 0.0000 3.6897 0.0000
# 3 46.1876 54.0835 137.0641 0.0000 6.0996 0.0000
# 4 0.0000 0.0000 0.0000 34.6893 0.0000 1.8863
# 5 16.0689 3.6897 6.0996 0.0000 32.6658 0.0000
# 6 0.0000 0.0000 0.0000 1.8863 0.0000 38.5018
#
#
#
# Elastic Compliance Matrix: (Units=1/GPa)
#
#
# Indices 1 2 3 4 5 6 
#
# 1 0.018861 -0.008519 -0.002646 0.000000 -0.007822 0.000000
# 2 -0.008519 0.015115 -0.003231 0.000000 0.003087 0.000000
# 3 -0.002646 -0.003231 0.009467 0.000000 -0.000101 0.000000
# 4 0.000000 0.000000 0.000000 0.028904 0.000000 -0.001416
# 5 -0.007822 0.003087 -0.000101 0.000000 0.034131 0.000000
# 6 0.000000 0.000000 0.000000 -0.001416 0.000000 0.026042
#
#
# Mechanical properties :
#
#
# Convention : Reuss Voigt Hill
#
# Bulk Modulus (GPa) = 68.25571 73.13791 70.69681
# Shear Modulus (GPa) = 30.08514 33.22632 31.65573
#
# Velocity S-wave (km/s) = 3.86070 4.05725 3.96020
# Velocity P-wave (km/s) = 7.32729 7.62777 7.47904
#
# Compressibility (1/GPa) = 0.01465079
#
# Stress axis : x y z
#
# Youngs Moduli (GPa) = 53.02022 66.16031 105.63167
#
# Poissons Ratio (x) = 0.56361 0.27952
# Poissons Ratio (y) = 0.45167 0.34127
# Poissons Ratio (z) = 0.14030 0.21375
#
# Static dielectric constant tensor:
#      x y z
#    x 7.782580 0.000000 -2.145440 
#    y 0.000000 3.743660 0.000000 
#    z -2.145440 0.000000 5.264200 
# 
# 
# High freq. dielectric constant tensor:
#      x y z
#    x 1.790130 0.000000 0.017290 
#    y 0.000000 1.796500 0.000000 
#    z 0.017290 0.000000 1.797900 
# 
# From -- ./inp_files/38439.got.cif
#   From: 2010.06.25/outbox.cif.g09.slc.cpg/sg11_20_cif.got.tgz:38439.got - 2010.06.27 23:14:04.
