data_PCOD8073553
_publ_section_title
;
Structure prediction by ZEFSAII (Michael W. Deem and Ramdas Pophale) SiO2 
 PCOD8073553
Probable space group: P 21/M
;
_chemical_formula_sum "Si O2"
_cell_formula_units_Z 32
_cell_length_a 16.164143
_cell_length_b 8.803625
_cell_length_c 24.424798
_cell_angle_alpha 90.000000
_cell_angle_beta 27.256454
_cell_angle_gamma 90.000000
_cell_volume 1591.791107
_symmetry_space_group_name_H-M "P 21/M"
_symmetry_group_IT_number 11
_symmetry_cell_setting 'monoclinic'
loop_
_space_group_symop_operation_xyz
x,y,z
-x,1/2+y,-z
-x,-y,-z
x,1/2-y,z
loop_
_atom_site_type_symbol
_atom_site_label
_atom_site_fract_x
_atom_site_fract_y
_atom_site_fract_z
Si Si1 0.681678 0.072750 0.372827
Si Si2 0.935220 0.929342 0.809476
Si Si3 0.834135 0.926763 0.673341
Si Si4 0.813691 0.423274 0.988435
Si Si5 0.388672 0.423424 0.801967
Si Si6 0.314508 0.570060 0.131685
Si Si7 0.796425 0.575576 0.198334
Si Si8 0.216400 0.577273 0.409972
O O1 0.664204 0.250000 0.389445
O O2 0.857211 0.016277 0.303869
O O3 0.500000 0.000000 0.500000
O O4 0.700298 0.029979 0.298821
O O5 0.920857 0.750000 0.808706
O O6 0.820516 0.973718 0.930479
O O7 0.855397 0.014142 0.804035
O O8 0.797623 0.750000 0.706130
O O9 0.049131 0.966322 0.548095
O O10 0.723732 0.021000 0.783451
O O11 0.766185 0.969353 0.652858
O O12 0.786285 0.250000 0.985742
O O13 0.989296 0.443433 0.923190
O O14 0.646900 0.476921 0.123228
O O15 0.335634 0.250000 0.846329
O O16 0.270028 0.484035 0.821281
O O17 0.600471 0.438999 0.662571
O O18 0.331635 0.750000 0.118647
O O19 0.500000 0.500000 0.000000
O O20 0.736785 0.750000 0.242885
O O21 0.189559 0.750000 0.404703
#
# Coordination Sequence:
#
# PCOD8073553 Si02
#       8
#     4   4   4   4   4   4   4   4
#     4  10  21  37  60  86 116 155 196 241 294 352
#     4  10  22  41  61  85 117 156 199 244 298 358
#     4  10  21  40  62  85 118 154 194 244 299 356
#     4  10  20  34  54  81 116 153 191 237 289 346
#     4  10  20  34  55  82 112 149 193 238 287 343
#     4  12  26  43  65  92 122 157 200 251 307 365
#     4   9  19  35  53  78 113 151 191 237 288 342
#     4   9  20  38  60  85 114 154 198 242 295 352
#
# _framework density 20.10314
#
# number of rings (size 3 to 8) (size 9 to 14) (size 15 to 20)
#    0.000    2.000    0.000    3.000    1.750    4.500 
#    0.000    2.500    0.000    0.000    0.000    0.000 
#    0.000    0.000    0.000    0.000    0.000    0.000 
#
# Total GULP energy -396844.179825 kJ/mol
# GULP energy per Si atom -12401.380620 kJ/mol
# Density = 2.005738 g / cm^3
# Si number density = 20.103140 Si / 1000 Ang^3
#
#
#
# Elastic Constant Matrix: (Units=GPa)
#
#
# Indices 1 2 3 4 5 6 
#
# 1 60.3191 26.9985 23.2436 0.0000 2.9810 0.0000
# 2 26.9985 85.7737 38.5670 0.0000 4.6847 0.0000
# 3 23.2436 38.5670 111.2771 0.0000 8.2297 0.0000
# 4 0.0000 0.0000 0.0000 33.4816 0.0000 4.0328
# 5 2.9810 4.6847 8.2297 0.0000 22.8721 0.0000
# 6 0.0000 0.0000 0.0000 4.0328 0.0000 33.5891
#
#
#
# Elastic Compliance Matrix: (Units=1/GPa)
#
#
# Indices 1 2 3 4 5 6 
#
# 1 0.019810 -0.005165 -0.002296 0.000000 -0.000698 0.000000
# 2 -0.005165 0.015186 -0.004114 0.000000 -0.000957 0.000000
# 3 -0.002296 -0.004114 0.011103 0.000000 -0.002853 0.000000
# 4 0.000000 0.000000 0.000000 0.030305 0.000000 -0.003639
# 5 -0.000698 -0.000957 -0.002853 0.000000 0.045035 0.000000
# 6 0.000000 0.000000 0.000000 -0.003639 0.000000 0.030208
#
#
# Mechanical properties :
#
#
# Convention : Reuss Voigt Hill
#
# Bulk Modulus (GPa) = 43.57414 48.33201 45.95307
# Shear Modulus (GPa) = 27.40526 29.22595 28.31560
#
# Velocity S-wave (km/s) = 3.69620 3.81701 3.75709
# Velocity P-wave (km/s) = 6.31967 6.59699 6.45982
#
# Compressibility (1/GPa) = 0.02294939
#
# Stress axis : x y z
#
# Youngs Moduli (GPa) = 50.48072 65.84910 90.06598
#
# Poissons Ratio (x) = 0.34010 0.20681
# Poissons Ratio (y) = 0.26072 0.37051
# Poissons Ratio (z) = 0.11591 0.27089
#
# Static dielectric constant tensor:
#      x y z
#    x 3.596910 0.000000 -0.145110 
#    y 0.000000 3.697110 0.000000 
#    z -0.145110 0.000000 3.744010 
# 
# 
# High freq. dielectric constant tensor:
#      x y z
#    x 1.779090 0.000000 -0.008140 
#    y 0.000000 1.786840 0.000000 
#    z -0.008140 0.000000 1.788630 
# 
# From -- ./inp_files/68996.got.cif
#   From: 2010.06.25/outbox.cif.g09.slc.cpg/sg11_35_cif.got.tgz:68996.got - 2010.06.27 23:14:04.
