data_PCOD8073949
_publ_section_title
;
Structure prediction by ZEFSAII (Michael W. Deem and Ramdas Pophale) SiO2 
 PCOD8073949
Probable space group: P 21/M
;
_chemical_formula_sum "Si O2"
_cell_formula_units_Z 32
_cell_length_a 17.584319
_cell_length_b 8.779792
_cell_length_c 12.455379
_cell_angle_alpha 90.000000
_cell_angle_beta 102.279672
_cell_angle_gamma 90.000000
_cell_volume 1878.949540
_symmetry_space_group_name_H-M "P 21/M"
_symmetry_group_IT_number 11
_symmetry_cell_setting 'monoclinic'
loop_
_space_group_symop_operation_xyz
x,y,z
-x,1/2+y,-z
-x,-y,-z
x,1/2-y,z
loop_
_atom_site_type_symbol
_atom_site_label
_atom_site_fract_x
_atom_site_fract_y
_atom_site_fract_z
Si Si1 0.916470 0.430634 0.639521
Si Si2 0.920204 0.069383 0.271194
Si Si3 0.498458 0.426075 0.384288
Si Si4 0.815579 0.430087 0.809259
Si Si5 0.330896 0.924748 0.564027
Si Si6 0.178289 0.428507 0.580890
Si Si7 0.075974 0.570792 0.972101
Si Si8 0.346441 0.573009 0.317097
O O1 0.931209 0.250000 0.645587
O O2 0.872578 0.490417 0.732798
O O3 0.865275 0.473310 0.521969
O O4 0.997761 0.518115 0.655014
O O5 0.910911 0.250000 0.280685
O O6 0.912574 0.014843 0.145732
O O7 0.851655 0.982854 0.312450
O O8 0.500000 0.500000 0.500000
O O9 0.482613 0.250000 0.395476
O O10 0.583666 0.453761 0.356882
O O11 0.425812 0.495553 0.296042
O O12 0.811017 0.250000 0.794868
O O13 0.728195 0.495629 0.768805
O O14 0.849211 0.480144 0.934894
O O15 0.304885 0.750000 0.573411
O O16 0.333539 0.961776 0.438480
O O17 0.270185 0.036285 0.603229
O O18 0.163154 0.250000 0.559711
O O19 0.064948 0.750000 0.973720
O O20 0.000000 0.500000 0.000000
O O21 0.356148 0.750000 0.297759
#
# Coordination Sequence:
#
# PCOD8073949 Si02
#       8
#     4   4   4   4   4   4   4   4
#     4  11  20  35  55  72 100 134 167 207 252 299
#     4  11  23  37  52  73 100 131 172 212 250 296
#     4   9  17  28  44  68  99 132 162 195 239 291
#     4   9  17  31  52  75 100 132 163 199 250 297
#     4   9  17  31  48  69  99 135 165 195 245 296
#     4  12  24  35  50  73 101 133 172 210 249 298
#     4  10  20  35  55  76  97 127 168 210 251 296
#     4   9  16  29  48  71 100 132 162 194 241 297
#
# _framework density 17.030792000000002
#
# number of rings (size 3 to 8) (size 9 to 14) (size 15 to 20)
#    0.000    2.000    2.500    3.375    0.000    3.000 
#    0.000    0.625    0.000    0.000    0.000    0.875 
#    0.000    0.000    0.000    0.000    0.000    0.000 
#
# Total GULP energy -396721.075391 kJ/mol
# GULP energy per Si atom -12397.533606 kJ/mol
# Density = 1.699203 g / cm^3
# Si number density = 17.030792 Si / 1000 Ang^3
#
#
#
# Elastic Constant Matrix: (Units=GPa)
#
#
# Indices 1 2 3 4 5 6 
#
# 1 127.7589 36.5903 43.1608 0.0000 15.1480 0.0000
# 2 36.5903 50.9924 19.0394 0.0000 0.2049 0.0000
# 3 43.1608 19.0394 70.2065 0.0000 -1.6881 0.0000
# 4 0.0000 0.0000 0.0000 14.7287 0.0000 -0.2769
# 5 15.1480 0.2049 -1.6881 0.0000 22.3581 0.0000
# 6 0.0000 0.0000 0.0000 -0.2769 0.0000 31.0360
#
#
#
# Elastic Compliance Matrix: (Units=1/GPa)
#
#
# Indices 1 2 3 4 5 6 
#
# 1 0.013075 -0.006965 -0.006372 0.000000 -0.009275 0.000000
# 2 -0.006965 0.025540 -0.002541 0.000000 0.004293 0.000000
# 3 -0.006372 -0.002541 0.018989 0.000000 0.005774 0.000000
# 4 0.000000 0.000000 0.000000 0.067906 0.000000 0.000606
# 5 -0.009275 0.004293 0.005774 0.000000 0.051407 0.000000
# 6 0.000000 0.000000 0.000000 0.000606 0.000000 0.032226
#
#
# Mechanical properties :
#
#
# Convention : Reuss Voigt Hill
#
# Bulk Modulus (GPa) = 38.68888 49.61541 44.15215
# Shear Modulus (GPa) = 20.03881 23.63570 21.83725
#
# Velocity S-wave (km/s) = 3.43391 3.72939 3.58470
# Velocity P-wave (km/s) = 6.20393 6.90945 6.56617
#
# Compressibility (1/GPa) = 0.02584722
#
# Stress axis : x y z
#
# Youngs Moduli (GPa) = 76.48459 39.15366 52.66241
#
# Poissons Ratio (x) = 0.27272 0.33556
# Poissons Ratio (y) = 0.53275 0.13381
# Poissons Ratio (z) = 0.48735 0.09949
#
# Static dielectric constant tensor:
#      x y z
#    x 3.550770 0.000000 0.169780 
#    y 0.000000 3.163390 0.000000 
#    z 0.169780 0.000000 3.084170 
# 
# 
# High freq. dielectric constant tensor:
#      x y z
#    x 1.665430 0.000000 0.014250 
#    y 0.000000 1.652470 0.000000 
#    z 0.014250 0.000000 1.619960 
# 
# From -- ./inp_files/40748.got.cif
#   From: 2010.06.25/outbox.cif.g09.slc.cpg/sg11_21_cif.got.tgz:40748.got - 2010.06.27 23:14:04.
