data_PCOD8073759
_publ_section_title
;
Structure prediction by ZEFSAII (Michael W. Deem and Ramdas Pophale) SiO2 
 PCOD8073759
Probable space group: P 21/M
;
_chemical_formula_sum "Si O2"
_cell_formula_units_Z 32
_cell_length_a 6.582866
_cell_length_b 13.154904
_cell_length_c 18.622617
_cell_angle_alpha 90.000000
_cell_angle_beta 98.593669
_cell_angle_gamma 90.000000
_cell_volume 1594.556688
_symmetry_space_group_name_H-M "P 21/M"
_symmetry_group_IT_number 11
_symmetry_cell_setting 'monoclinic'
loop_
_space_group_symop_operation_xyz
x,y,z
-x,1/2+y,-z
-x,-y,-z
x,1/2-y,z
loop_
_atom_site_type_symbol
_atom_site_label
_atom_site_fract_x
_atom_site_fract_y
_atom_site_fract_z
Si Si1 0.682725 0.631752 0.468247
Si Si2 0.953305 0.865755 0.343836
Si Si3 0.544828 0.629720 0.720922
Si Si4 0.320698 0.497401 0.398831
Si Si5 0.245035 0.861950 0.825658
Si Si6 0.860193 0.994844 0.832929
Si Si7 0.513641 0.506074 0.916223
Si Si8 0.808043 0.635045 0.185075
O O1 0.657073 0.750000 0.485999
O O2 0.460375 0.587782 0.436449
O O3 0.770719 0.570884 0.541483
O O4 0.840244 0.614746 0.412304
O O5 0.040229 0.750000 0.345012
O O6 0.787923 0.880832 0.270341
O O7 0.135547 0.948522 0.345847
O O8 0.606803 0.750000 0.722912
O O9 0.542502 0.580959 0.641830
O O10 0.321484 0.617536 0.747445
O O11 0.709880 0.559682 0.769942
O O12 0.161765 0.750000 0.829640
O O13 0.441727 0.881335 0.887733
O O14 0.066464 0.930358 0.846774
O O15 0.749549 0.008229 0.904216
O O16 0.952017 0.105614 0.817947
O O17 0.366620 0.427480 0.865926
O O18 0.500000 0.500000 0.000000
O O19 0.773958 0.750000 0.159217
#
# Coordination Sequence:
#
# PCOD8073759 Si02
#       8
#     4   4   4   4   4   4   4   4
#     4  10  23  38  55  84 121 157 197 244 296 351
#     4  10  21  38  60  86 118 155 199 245 294 351
#     4  10  20  34  57  86 116 152 197 243 290 345
#     4  11  21  36  60  84 117 159 199 245 297 345
#     4   9  20  37  58  86 116 152 194 239 291 349
#     4  10  20  38  61  83 117 151 190 238 296 347
#     4  10  23  40  59  87 121 155 192 240 294 352
#     4  10  22  38  60  90 118 152 200 243 290 352
#
# _framework density 20.068273000000001
#
# number of rings (size 3 to 8) (size 9 to 14) (size 15 to 20)
#    0.000    2.000    1.250    1.500    5.250    3.500 
#    0.000    1.250    0.000    6.000    0.000    0.000 
#    0.000    0.000    0.000    0.000    0.000    0.000 
#
# Total GULP energy -396476.679253 kJ/mol
# GULP energy per Si atom -12389.896227 kJ/mol
# Density = 2.002260 g / cm^3
# Si number density = 20.068273 Si / 1000 Ang^3
#
#
#
# Elastic Constant Matrix: (Units=GPa)
#
#
# Indices 1 2 3 4 5 6 
#
# 1 91.7931 47.1682 41.0902 0.0000 -15.9001 0.0000
# 2 47.1682 117.9944 49.5334 0.0000 -8.4240 0.0000
# 3 41.0902 49.5334 128.7910 0.0000 -17.3160 0.0000
# 4 0.0000 0.0000 0.0000 17.7449 0.0000 -1.6740
# 5 -15.9001 -8.4240 -17.3160 0.0000 31.9682 0.0000
# 6 0.0000 0.0000 0.0000 -1.6740 0.0000 25.3806
#
#
#
# Elastic Compliance Matrix: (Units=1/GPa)
#
#
# Indices 1 2 3 4 5 6 
#
# 1 0.015270 -0.004750 -0.002364 0.000000 0.005063 0.000000
# 2 -0.004750 0.011595 -0.003075 0.000000 -0.000973 0.000000
# 3 -0.002364 -0.003075 0.010175 0.000000 0.003525 0.000000
# 4 0.000000 0.000000 0.000000 0.056707 0.000000 0.003740
# 5 0.005063 -0.000973 0.003525 0.000000 0.035452 0.000000
# 6 0.000000 0.000000 0.000000 0.003740 0.000000 0.039647
#
#
# Mechanical properties :
#
#
# Convention : Reuss Voigt Hill
#
# Bulk Modulus (GPa) = 60.01611 68.24024 64.12818
# Shear Modulus (GPa) = 25.66999 28.40453 27.03726
#
# Velocity S-wave (km/s) = 3.58038 3.76625 3.67449
# Velocity P-wave (km/s) = 6.86025 7.27948 7.07297
#
# Compressibility (1/GPa) = 0.01666219
#
# Stress axis : x y z
#
# Youngs Moduli (GPa) = 65.48654 86.24209 98.27637
#
# Poissons Ratio (x) = 0.40968 0.23235
# Poissons Ratio (y) = 0.31109 0.30218
# Poissons Ratio (z) = 0.15483 0.26517
#
# Static dielectric constant tensor:
#      x y z
#    x 3.997740 0.000000 -0.157390 
#    y 0.000000 4.095570 0.000000 
#    z -0.157390 0.000000 3.598610 
# 
# 
# High freq. dielectric constant tensor:
#      x y z
#    x 1.773950 0.000000 -0.014660 
#    y 0.000000 1.795930 0.000000 
#    z -0.014660 0.000000 1.774330 
# 
# From -- ./inp_files/57068.got.cif
#   From: 2010.06.25/outbox.cif.g09.slc.cpg/sg11_29_cif.got.tgz:57068.got - 2010.06.27 23:14:04.
