data_PCOD8073657
_publ_section_title
;
Structure prediction by ZEFSAII (Michael W. Deem and Ramdas Pophale) SiO2 
 PCOD8073657
Probable space group: P 21/M
;
_chemical_formula_sum "Si O2"
_cell_formula_units_Z 28
_cell_length_a 21.256764
_cell_length_b 9.101293
_cell_length_c 14.911080
_cell_angle_alpha 90.000000
_cell_angle_beta 151.276262
_cell_angle_gamma 90.000000
_cell_volume 1386.376673
_symmetry_space_group_name_H-M "P 21/M"
_symmetry_group_IT_number 11
_symmetry_cell_setting 'monoclinic'
loop_
_space_group_symop_operation_xyz
x,y,z
-x,1/2+y,-z
-x,-y,-z
x,1/2-y,z
loop_
_atom_site_type_symbol
_atom_site_label
_atom_site_fract_x
_atom_site_fract_y
_atom_site_fract_z
Si Si1 0.637276 0.924824 0.696877
Si Si2 0.918140 0.576745 0.976736
Si Si3 0.899025 0.411052 0.634943
Si Si4 0.292219 0.921231 0.034101
Si Si5 0.690401 0.915343 0.287918
Si Si6 0.053978 0.415767 0.652563
Si Si7 0.395954 0.913950 0.978102
O O1 0.618977 0.750000 0.671354
O O2 0.763242 0.969582 0.791106
O O3 0.500000 0.000000 0.500000
O O4 0.667150 0.975232 0.834179
O O5 0.925482 0.750000 0.969788
O O6 0.000000 0.500000 0.000000
O O7 0.987942 0.529315 0.157255
O O8 0.855739 0.250000 0.615290
O O9 0.773142 0.515419 0.473192
O O10 0.942682 0.400874 0.587244
O O11 0.284505 0.750000 0.054004
O O12 0.395741 0.947352 0.083615
O O13 0.157336 0.975727 0.825615
O O14 0.737550 0.750000 0.336884
O O15 0.703302 0.986216 0.204573
O O16 0.542866 0.936111 0.132306
O O17 0.105473 0.250000 0.693494
O O18 0.000000 0.500000 0.500000
O O19 0.345491 0.750000 0.896635
#
# Coordination Sequence:
#
# PCOD8073657 Si02
#       7
#     4   4   4   4   4   4   4
#     4  11  24  45  68  94 128 165 210 268 328 389
#     4  10  23  44  67  92 124 163 208 264 325 385
#     4  10  21  39  58  80 118 158 191 240 307 364
#     4  11  22  38  61  88 119 158 203 251 310 373
#     4  10  20  34  55  84 116 155 204 248 293 358
#     4  11  22  37  57  86 124 161 200 247 302 365
#     4   9  20  37  54  79 120 161 197 245 303 359
#
# _framework density 20.196531
#
# number of rings (size 3 to 8) (size 9 to 14) (size 15 to 20)
#    0.000    1.714    1.429    2.571    0.000    9.143 
#    0.000    4.286    0.000    0.000    0.000    0.000 
#    0.000    0.000    0.000    0.000    0.000    0.000 
#
# Total GULP energy -346973.115195 kJ/mol
# GULP energy per Si atom -12391.896971 kJ/mol
# Density = 2.015056 g / cm^3
# Si number density = 20.196531 Si / 1000 Ang^3
#
#
#
# Elastic Constant Matrix: (Units=GPa)
#
#
# Indices 1 2 3 4 5 6 
#
# 1 102.2942 46.6611 30.4771 0.0000 -17.6966 0.0000
# 2 46.6611 116.7385 179.9416 0.0000 81.9126 0.0000
# 3 30.4771 179.9416 1061.2975 0.0000 580.3429 0.0000
# 4 0.0000 0.0000 0.0000 40.8962 0.0000 -2.8867
# 5 -17.6966 81.9126 580.3429 0.0000 396.1465 0.0000
# 6 0.0000 0.0000 0.0000 -2.8867 0.0000 30.9361
#
#
#
# Elastic Compliance Matrix: (Units=1/GPa)
#
#
# Indices 1 2 3 4 5 6 
#
# 1 0.013847 -0.005738 -0.002070 0.000000 0.004838 0.000000
# 2 -0.005738 0.014458 -0.002572 0.000000 0.000522 0.000000
# 3 -0.002070 -0.002572 0.006020 0.000000 -0.008380 0.000000
# 4 0.000000 0.000000 0.000000 0.024614 0.000000 0.002297
# 5 0.004838 0.000522 -0.008380 0.000000 0.014909 0.000000
# 6 0.000000 0.000000 0.000000 0.002297 0.000000 0.032539
#
#
# Mechanical properties :
#
#
# Convention : Reuss Voigt Hill
#
# Bulk Modulus (GPa) = 73.72390 199.38775 136.55582
# Shear Modulus (GPa) = 37.97380 161.81247 99.89314
#
# Velocity S-wave (km/s) = 4.34085 8.96063 7.04045
# Velocity P-wave (km/s) = 7.85534 14.35253 11.56939
#
# Compressibility (1/GPa) = 0.01356412
#
# Stress axis : x y z
#
# Youngs Moduli (GPa) = 72.21814 69.16567 166.10842
#
# Poissons Ratio (x) = 0.39690 0.34386
# Poissons Ratio (y) = 0.41441 0.42724
# Poissons Ratio (z) = 0.14950 0.17790
#
# Static dielectric constant tensor:
#      x y z
#    x 3.801420 0.000000 0.248350 
#    y 0.000000 3.904390 0.000000 
#    z 0.248350 0.000000 3.621610 
# 
# 
# High freq. dielectric constant tensor:
#      x y z
#    x 1.785720 0.000000 0.001390 
#    y 0.000000 1.794950 0.000000 
#    z 0.001390 0.000000 1.792590 
# 
# From -- ./inp_files/54602.got.cif
#   From: 2010.06.25/outbox.cif.g09.slc.cpg/sg11_28_cif.got.tgz:54602.got - 2010.06.27 23:14:04.
