data_PCOD8073441
_publ_section_title
;
Structure prediction by ZEFSAII (Michael W. Deem and Ramdas Pophale) SiO2 
 PCOD8073441
Probable space group: P 21/M
;
_chemical_formula_sum "Si O2"
_cell_formula_units_Z 28
_cell_length_a 12.564053
_cell_length_b 8.640566
_cell_length_c 15.035844
_cell_angle_alpha 90.000000
_cell_angle_beta 73.992483
_cell_angle_gamma 90.000000
_cell_volume 1569.007637
_symmetry_space_group_name_H-M "P 21/M"
_symmetry_group_IT_number 11
_symmetry_cell_setting 'monoclinic'
loop_
_space_group_symop_operation_xyz
x,y,z
-x,1/2+y,-z
-x,-y,-z
x,1/2-y,z
loop_
_atom_site_type_symbol
_atom_site_label
_atom_site_fract_x
_atom_site_fract_y
_atom_site_fract_z
Si Si1 0.626745 0.568573 0.615375
Si Si2 0.786219 0.429605 0.720037
Si Si3 0.744525 0.566518 0.409405
Si Si4 0.396670 0.432166 0.722183
Si Si5 0.589995 0.430156 0.093749
Si Si6 0.342182 0.429779 0.098892
Si Si7 0.018911 0.069511 0.591676
O O1 0.597242 0.750000 0.624477
O O2 0.720172 0.536562 0.666807
O O3 0.671043 0.511751 0.509831
O O4 0.519330 0.469105 0.661137
O O5 0.761162 0.250000 0.706300
O O6 0.751228 0.472915 0.828182
O O7 0.916313 0.466947 0.680082
O O8 0.746020 0.750000 0.407084
O O9 0.690004 0.504592 0.331129
O O10 0.869260 0.499824 0.390016
O O11 0.386006 0.250000 0.740319
O O12 0.366969 0.518879 0.820082
O O13 0.610636 0.250000 0.073796
O O14 0.460299 0.471303 0.115699
O O15 0.659398 0.522350 0.003821
O O16 0.314671 0.250000 0.113736
O O17 0.035429 0.250000 0.573214
O O18 0.000000 0.000000 0.500000
#
# Coordination Sequence:
#
# PCOD8073441 Si02
#       7
#     4   4   4   4   4   4   4
#     4  11  20  33  52  75 108 145 178 217 263 311
#     4  11  21  32  53  81 109 139 175 220 264 312
#     4   9  20  36  53  74 106 146 182 219 262 310
#     4  11  21  34  53  77 108 144 179 215 262 319
#     4  10  20  34  53  78 108 138 171 215 264 315
#     4  10  20  34  54  78 107 140 171 213 267 317
#     4  10  20  36  55  77 105 140 182 223 264 304
#
# _framework density 17.845676000000001
#
# number of rings (size 3 to 8) (size 9 to 14) (size 15 to 20)
#    0.000    1.714    2.857    2.571    0.000    1.714 
#    0.000    3.571    0.000    0.857    0.000    0.000 
#    0.000    0.000    0.000    0.000    0.000    0.000 
#
# Total GULP energy -347283.305010 kJ/mol
# GULP energy per Si atom -12402.975179 kJ/mol
# Density = 1.780506 g / cm^3
# Si number density = 17.845676 Si / 1000 Ang^3
#
#
#
# Elastic Constant Matrix: (Units=GPa)
#
#
# Indices 1 2 3 4 5 6 
#
# 1 83.5627 13.0974 50.2789 0.0000 14.5297 0.0000
# 2 13.0974 35.1298 21.4976 0.0000 -5.6091 0.0000
# 3 50.2789 21.4976 133.9356 0.0000 5.7535 0.0000
# 4 0.0000 0.0000 0.0000 29.1861 0.0000 3.6357
# 5 14.5297 -5.6091 5.7535 0.0000 23.2726 0.0000
# 6 0.0000 0.0000 0.0000 3.6357 0.0000 14.9737
#
#
#
# Elastic Compliance Matrix: (Units=1/GPa)
#
#
# Indices 1 2 3 4 5 6 
#
# 1 0.017986 -0.005148 -0.005448 0.000000 -0.011123 0.000000
# 2 -0.005148 0.035001 -0.004231 0.000000 0.012696 0.000000
# 3 -0.005448 -0.004231 0.010196 0.000000 -0.000139 0.000000
# 4 0.000000 0.000000 0.000000 0.035332 0.000000 -0.008579
# 5 -0.011123 0.012696 -0.000139 0.000000 0.053008 0.000000
# 6 0.000000 0.000000 0.000000 -0.008579 0.000000 0.068867
#
#
# Mechanical properties :
#
#
# Convention : Reuss Voigt Hill
#
# Bulk Modulus (GPa) = 29.82348 46.93066 38.37707
# Shear Modulus (GPa) = 19.14099 24.67009 21.90554
#
# Velocity S-wave (km/s) = 3.27859 3.72211 3.50737
# Velocity P-wave (km/s) = 5.57497 6.69532 6.16067
#
# Compressibility (1/GPa) = 0.03353063
#
# Stress axis : x y z
#
# Youngs Moduli (GPa) = 55.59940 28.57035 98.07391
#
# Poissons Ratio (x) = 0.14708 0.53428
# Poissons Ratio (y) = 0.28622 0.41494
# Poissons Ratio (z) = 0.30289 0.12088
#
# Static dielectric constant tensor:
#      x y z
#    x 3.465390 0.000000 -0.029040 
#    y 0.000000 3.213120 0.000000 
#    z -0.029040 0.000000 3.459440 
# 
# 
# High freq. dielectric constant tensor:
#      x y z
#    x 1.668200 0.000000 -0.001930 
#    y 0.000000 1.689290 0.000000 
#    z -0.001930 0.000000 1.696940 
# 
# From -- ./inp_files/37481.got.cif
#   From: 2010.06.25/outbox.cif.g09.slc.cpg/sg11_19_cif.got.tgz:37481.got - 2010.06.27 23:14:04.
