data_PCOD8073276
_publ_section_title
;
Structure prediction by ZEFSAII (Michael W. Deem and Ramdas Pophale) SiO2 
 PCOD8073276
Probable space group: P 21/M
;
_chemical_formula_sum "Si O2"
_cell_formula_units_Z 32
_cell_length_a 11.569889
_cell_length_b 8.920776
_cell_length_c 17.720622
_cell_angle_alpha 90.000000
_cell_angle_beta 88.370415
_cell_angle_gamma 90.000000
_cell_volume 1828.248008
_symmetry_space_group_name_H-M "P 21/M"
_symmetry_group_IT_number 11
_symmetry_cell_setting 'monoclinic'
loop_
_space_group_symop_operation_xyz
x,y,z
-x,1/2+y,-z
-x,-y,-z
x,1/2-y,z
loop_
_atom_site_type_symbol
_atom_site_label
_atom_site_fract_x
_atom_site_fract_y
_atom_site_fract_z
Si Si1 0.350741 0.078242 0.031482
Si Si2 0.116231 0.420744 0.975375
Si Si3 0.560464 0.079366 0.113316
Si Si4 0.239709 0.426026 0.819448
Si Si5 0.117498 0.428907 0.526126
Si Si6 0.449002 0.415606 0.609626
Si Si7 0.346540 0.414889 0.446177
Si Si8 0.771034 0.427367 0.332656
O O1 0.372198 0.250000 0.001385
O O2 0.419752 0.055868 0.110001
O O3 0.211927 0.054969 0.040131
O O4 0.395907 0.955933 0.971652
O O5 0.082365 0.250000 0.966180
O O6 0.168256 0.478014 0.894561
O O7 0.000000 0.500000 0.000000
O O8 0.590786 0.250000 0.134543
O O9 0.624741 0.972038 0.171875
O O10 0.232567 0.250000 0.804382
O O11 0.186420 0.515014 0.749645
O O12 0.108698 0.250000 0.533172
O O13 0.216762 0.475290 0.463754
O O14 0.147603 0.495076 0.607165
O O15 0.000000 0.500000 0.500000
O O16 0.445885 0.250000 0.646855
O O17 0.411095 0.403651 0.524296
O O18 0.580744 0.477779 0.610930
O O19 0.362988 0.525515 0.655520
O O20 0.341543 0.250000 0.409065
O O21 0.783181 0.250000 0.339313
#
# Coordination Sequence:
#
# PCOD8073276 Si02
#       8
#     4   4   4   4   4   4   4   4
#     4   8  15  27  42  64  94 122 148 186 235 279
#     4   9  18  31  48  70  97 130 166 205 246 291
#     4   9  15  25  44  68  91 117 151 188 231 286
#     4  10  20  34  49  69  99 129 159 203 257 305
#     4  10  20  34  52  75 103 135 172 213 253 296
#     4   9  16  27  45  69  96 124 153 190 239 290
#     4   8  15  27  44  68  96 124 155 192 234 282
#     4  11  21  33  51  74  99 129 166 208 255 307
#
# _framework density 17.503097
#
# number of rings (size 3 to 8) (size 9 to 14) (size 15 to 20)
#    0.000    2.750    0.000    4.125    0.000    6.500 
#    0.000    0.000    0.000    1.500    0.000    5.250 
#    0.000    0.000    0.000    0.000    0.000    0.000 
#
# Total GULP energy -396479.087903 kJ/mol
# GULP energy per Si atom -12389.971497 kJ/mol
# Density = 1.746326 g / cm^3
# Si number density = 17.503097 Si / 1000 Ang^3
#
#
#
# Elastic Constant Matrix: (Units=GPa)
#
#
# Indices 1 2 3 4 5 6 
#
# 1 138.7157 50.0983 44.2449 0.0000 5.4523 0.0000
# 2 50.0983 90.9973 31.6311 0.0000 1.9952 0.0000
# 3 44.2449 31.6311 59.3650 0.0000 5.8953 0.0000
# 4 0.0000 0.0000 0.0000 24.2043 0.0000 0.6097
# 5 5.4523 1.9952 5.8953 0.0000 16.3825 0.0000
# 6 0.0000 0.0000 0.0000 0.6097 0.0000 30.2490
#
#
#
# Elastic Compliance Matrix: (Units=1/GPa)
#
#
# Indices 1 2 3 4 5 6 
#
# 1 0.010404 -0.003737 -0.005667 0.000000 -0.000968 0.000000
# 2 -0.003737 0.014845 -0.005256 0.000000 0.001327 0.000000
# 3 -0.005667 -0.005256 0.024494 0.000000 -0.006288 0.000000
# 4 0.000000 0.000000 0.000000 0.041336 0.000000 -0.000833
# 5 -0.000968 0.001327 -0.006288 0.000000 0.063464 0.000000
# 6 0.000000 0.000000 0.000000 -0.000833 0.000000 0.033076
#
#
# Mechanical properties :
#
#
# Convention : Reuss Voigt Hill
#
# Bulk Modulus (GPa) = 48.96638 60.11407 54.54023
# Shear Modulus (GPa) = 22.34673 25.04073 23.69373
#
# Velocity S-wave (km/s) = 3.57701 3.78649 3.68324
# Velocity P-wave (km/s) = 6.71540 7.31683 7.02256
#
# Compressibility (1/GPa) = 0.02042217
#
# Stress axis : x y z
#
# Youngs Moduli (GPa) = 96.11482 67.36421 40.82679
#
# Poissons Ratio (x) = 0.25173 0.23137
# Poissons Ratio (y) = 0.35917 0.21460
# Poissons Ratio (z) = 0.54469 0.35409
#
# Static dielectric constant tensor:
#      x y z
#    x 3.414180 0.000000 0.090290 
#    y 0.000000 3.441390 0.000000 
#    z 0.090290 0.000000 2.987670 
# 
# 
# High freq. dielectric constant tensor:
#      x y z
#    x 1.667820 0.000000 0.009560 
#    y 0.000000 1.687600 0.000000 
#    z 0.009560 0.000000 1.631670 
# 
# From -- ./inp_files/58716.got.cif
#   From: 2010.06.25/outbox.cif.g09.slc.cpg/sg11_30_cif.got.tgz:58716.got - 2010.06.27 23:14:04.
