data_PCOD8073731
_publ_section_title
;
Structure prediction by ZEFSAII (Michael W. Deem and Ramdas Pophale) SiO2 
 PCOD8073731
Probable space group: P 21/M
;
_chemical_formula_sum "Si O2"
_cell_formula_units_Z 32
_cell_length_a 11.390438
_cell_length_b 9.151813
_cell_length_c 16.022444
_cell_angle_alpha 90.000000
_cell_angle_beta 92.438217
_cell_angle_gamma 90.000000
_cell_volume 1668.718071
_symmetry_space_group_name_H-M "P 21/M"
_symmetry_group_IT_number 11
_symmetry_cell_setting 'monoclinic'
loop_
_space_group_symop_operation_xyz
x,y,z
-x,1/2+y,-z
-x,-y,-z
x,1/2-y,z
loop_
_atom_site_type_symbol
_atom_site_label
_atom_site_fract_x
_atom_site_fract_y
_atom_site_fract_z
Si Si1 0.065734 0.582401 0.255573
Si Si2 0.438447 0.918681 0.122923
Si Si3 0.857527 0.417101 0.179156
Si Si4 0.936263 0.916666 0.425519
Si Si5 0.267585 0.917750 0.655073
Si Si6 0.653796 0.083311 0.057128
Si Si7 0.487684 0.419173 0.412521
Si Si8 0.687922 0.923046 0.733032
O O1 0.091142 0.750000 0.233124
O O2 0.185134 0.493502 0.255716
O O3 0.972593 0.518583 0.186146
O O4 0.012906 0.564575 0.345327
O O5 0.445815 0.750000 0.150910
O O6 0.567090 0.971562 0.099951
O O7 0.394350 0.016683 0.196888
O O8 0.349272 0.938971 0.042465
O O9 0.900501 0.250000 0.186280
O O10 0.766197 0.453479 0.250829
O O11 0.786915 0.448505 0.091566
O O12 0.920721 0.750000 0.451580
O O13 0.807610 0.983719 0.410041
O O14 0.000000 0.000000 0.500000
O O15 0.240580 0.750000 0.632252
O O16 0.403441 0.956760 0.645033
O O17 0.617735 0.250000 0.079612
O O18 0.500000 0.500000 0.500000
O O19 0.485389 0.250000 0.434849
O O20 0.370228 0.464255 0.358247
O O21 0.698127 0.750000 0.743520
#
# Coordination Sequence:
#
# PCOD8073731 Si02
#       8
#     4   4   4   4   4   4   4   4
#     4  10  22  38  55  80 110 143 185 234 282 330
#     4  10  20  34  56  88 119 151 187 229 279 329
#     4   9  17  34  59  82 108 144 184 228 276 330
#     4  10  21  35  54  78 105 136 176 225 274 323
#     4   9  18  34  54  77 105 136 175 220 270 322
#     4   9  18  34  58  87 119 149 186 231 277 331
#     4  10  23  39  56  80 108 142 183 228 277 331
#     4  11  23  40  59  79 111 152 190 227 277 341
#
# _framework density 19.176397000000001
#
# number of rings (size 3 to 8) (size 9 to 14) (size 15 to 20)
#    0.000    2.250    0.000    2.250    1.750    6.000 
#    0.000    3.125    0.000    0.000    0.000    0.000 
#    0.000    0.000    0.000    0.000    0.000    0.000 
#
# Total GULP energy -396849.741488 kJ/mol
# GULP energy per Si atom -12401.554422 kJ/mol
# Density = 1.913275 g / cm^3
# Si number density = 19.176397 Si / 1000 Ang^3
#
#
#
# Elastic Constant Matrix: (Units=GPa)
#
#
# Indices 1 2 3 4 5 6 
#
# 1 91.2013 48.8793 38.5090 0.0000 17.5777 0.0000
# 2 48.8793 101.6092 45.8185 0.0000 13.3319 0.0000
# 3 38.5090 45.8185 79.7383 0.0000 22.4556 0.0000
# 4 0.0000 0.0000 0.0000 29.3897 0.0000 -0.1784
# 5 17.5777 13.3319 22.4556 0.0000 30.9496 0.0000
# 6 0.0000 0.0000 0.0000 -0.1784 0.0000 34.5709
#
#
#
# Elastic Compliance Matrix: (Units=1/GPa)
#
#
# Indices 1 2 3 4 5 6 
#
# 1 0.016303 -0.005769 -0.003332 0.000000 -0.004357 0.000000
# 2 -0.005769 0.015326 -0.006390 0.000000 0.001310 0.000000
# 3 -0.003332 -0.006390 0.020754 0.000000 -0.010414 0.000000
# 4 0.000000 0.000000 0.000000 0.034027 0.000000 0.000176
# 5 -0.004357 0.001310 -0.010414 0.000000 0.041776 0.000000
# 6 0.000000 0.000000 0.000000 0.000176 0.000000 0.028927
#
#
# Mechanical properties :
#
#
# Convention : Reuss Voigt Hill
#
# Bulk Modulus (GPa) = 46.72155 59.88471 53.30313
# Shear Modulus (GPa) = 25.61119 28.27150 26.94135
#
# Velocity S-wave (km/s) = 3.65849 3.84381 3.75230
# Velocity P-wave (km/s) = 6.50101 7.14115 6.82858
#
# Compressibility (1/GPa) = 0.02140340
#
# Stress axis : x y z
#
# Youngs Moduli (GPa) = 61.33867 65.24893 48.18291
#
# Poissons Ratio (x) = 0.37639 0.16053
# Poissons Ratio (y) = 0.35383 0.30787
# Poissons Ratio (z) = 0.20436 0.41692
#
# Static dielectric constant tensor:
#      x y z
#    x 3.725860 0.000000 0.844600 
#    y 0.000000 3.589980 0.000000 
#    z 0.844600 0.000000 2.724300 
# 
# 
# High freq. dielectric constant tensor:
#      x y z
#    x 1.744070 0.000000 0.016570 
#    y 0.000000 1.751370 0.000000 
#    z 0.016570 0.000000 1.739490 
# 
# From -- ./inp_files/49394.got.cif
#   From: 2010.06.25/outbox.cif.g09.slc.cpg/sg11_25_cif.got.tgz:49394.got - 2010.06.27 23:14:04.
