data_PCOD8073479
_publ_section_title
;
Structure prediction by ZEFSAII (Michael W. Deem and Ramdas Pophale) SiO2 
 PCOD8073479
Probable space group: P 21/M
;
_chemical_formula_sum "Si O2"
_cell_formula_units_Z 32
_cell_length_a 16.672842
_cell_length_b 9.230523
_cell_length_c 11.346395
_cell_angle_alpha 90.000000
_cell_angle_beta 84.399044
_cell_angle_gamma 90.000000
_cell_volume 1737.862674
_symmetry_space_group_name_H-M "P 21/M"
_symmetry_group_IT_number 11
_symmetry_cell_setting 'monoclinic'
loop_
_space_group_symop_operation_xyz
x,y,z
-x,1/2+y,-z
-x,-y,-z
x,1/2-y,z
loop_
_atom_site_type_symbol
_atom_site_label
_atom_site_fract_x
_atom_site_fract_y
_atom_site_fract_z
Si Si1 0.267737 0.419432 0.680795
Si Si2 0.670972 0.913859 0.727171
Si Si3 0.056084 0.916487 0.342244
Si Si4 0.418330 0.084377 0.018741
Si Si5 0.114261 0.418992 0.555543
Si Si6 0.722428 0.078355 0.082083
Si Si7 0.805021 0.416321 0.835495
Si Si8 0.415451 0.079799 0.495267
O O1 0.259947 0.250000 0.713738
O O2 0.198005 0.468216 0.600747
O O3 0.250000 0.514939 0.797850
O O4 0.355273 0.453816 0.612673
O O5 0.698437 0.750000 0.696519
O O6 0.608796 0.921549 0.842870
O O7 0.626982 0.977985 0.618042
O O8 0.750819 0.000876 0.748054
O O9 0.063185 0.750000 0.378487
O O10 0.100912 0.944181 0.210402
O O11 0.961892 0.961324 0.348795
O O12 0.104670 0.004375 0.432694
O O13 0.427012 0.250000 0.973694
O O14 0.500000 0.000000 0.000000
O O15 0.359776 0.000195 0.939714
O O16 0.115838 0.250000 0.529786
O O17 0.708955 0.250000 0.093787
O O18 0.789020 0.036443 0.972928
O O19 0.780463 0.250000 0.825059
O O20 0.433297 0.250000 0.482746
O O21 0.500000 0.000000 0.500000
#
# Coordination Sequence:
#
# PCOD8073479 Si02
#       8
#     4   4   4   4   4   4   4   4
#     4  10  21  37  54  74 105 141 176 214 262 316
#     4   9  19  35  53  74 101 131 168 210 255 309
#     4   9  17  31  54  82 110 136 171 216 260 310
#     4  10  20  34  54  78 103 131 169 217 264 311
#     4   9  18  33  54  80 109 141 172 210 262 315
#     4  10  21  36  53  74 102 140 180 218 261 309
#     4   9  18  33  53  78 105 134 171 214 260 304
#     4  10  22  37  52  74 101 132 169 211 258 310
#
# _framework density 18.413423000000002
#
# number of rings (size 3 to 8) (size 9 to 14) (size 15 to 20)
#    0.000    2.500    0.000    1.500    1.750    4.000 
#    0.000    0.625    0.000    0.000    0.000    0.000 
#    0.000    0.000    0.000    0.000    0.000    0.000 
#
# Total GULP energy -396709.029998 kJ/mol
# GULP energy per Si atom -12397.157187 kJ/mol
# Density = 1.837151 g / cm^3
# Si number density = 18.413423 Si / 1000 Ang^3
#
#
#
# Elastic Constant Matrix: (Units=GPa)
#
#
# Indices 1 2 3 4 5 6 
#
# 1 109.7131 38.1062 41.8647 0.0000 -16.3970 0.0000
# 2 38.1062 61.8536 33.9092 0.0000 -2.1401 0.0000
# 3 41.8647 33.9092 78.6317 0.0000 -0.3924 0.0000
# 4 0.0000 0.0000 0.0000 29.6554 0.0000 2.9036
# 5 -16.3970 -2.1401 -0.3924 0.0000 22.8571 0.0000
# 6 0.0000 0.0000 0.0000 2.9036 0.0000 26.7194
#
#
#
# Elastic Compliance Matrix: (Units=1/GPa)
#
#
# Indices 1 2 3 4 5 6 
#
# 1 0.014585 -0.005782 -0.005223 0.000000 0.009832 0.000000
# 2 -0.005782 0.023541 -0.007084 0.000000 -0.002065 0.000000
# 3 -0.005223 -0.007084 0.018533 0.000000 -0.004092 0.000000
# 4 0.000000 0.000000 0.000000 0.034083 0.000000 -0.003704
# 5 0.009832 -0.002065 -0.004092 0.000000 0.050540 0.000000
# 6 0.000000 0.000000 0.000000 -0.003704 0.000000 0.037828
#
#
# Mechanical properties :
#
#
# Convention : Reuss Voigt Hill
#
# Bulk Modulus (GPa) = 48.82401 53.10650 50.96525
# Shear Modulus (GPa) = 22.51076 24.93428 23.72252
#
# Velocity S-wave (km/s) = 3.50025 3.68385 3.59322
# Velocity P-wave (km/s) = 6.55047 6.85552 6.70473
#
# Compressibility (1/GPa) = 0.02048173
#
# Stress axis : x y z
#
# Youngs Moduli (GPa) = 68.56174 42.47829 53.95877
#
# Poissons Ratio (x) = 0.24562 0.28182
# Poissons Ratio (y) = 0.39644 0.38223
# Poissons Ratio (z) = 0.35809 0.30091
#
# Static dielectric constant tensor:
#      x y z
#    x 3.433330 0.000000 -0.147350 
#    y 0.000000 3.409070 0.000000 
#    z -0.147350 0.000000 3.546000 
# 
# 
# High freq. dielectric constant tensor:
#      x y z
#    x 1.714100 0.000000 -0.016760 
#    y 0.000000 1.712520 0.000000 
#    z -0.016760 0.000000 1.710380 
# 
# From -- ./inp_files/38253.got.cif
#   From: 2010.06.25/outbox.cif.g09.slc.cpg/sg11_20_cif.got.tgz:38253.got - 2010.06.27 23:14:04.
