data_PCOD8073996
_publ_section_title
;
Structure prediction by ZEFSAII (Michael W. Deem and Ramdas Pophale) SiO2 
 PCOD8073996
Probable space group: P 21/M
;
_chemical_formula_sum "Si O2"
_cell_formula_units_Z 28
_cell_length_a 26.152142
_cell_length_b 9.104581
_cell_length_c 9.351286
_cell_angle_alpha 90.000000
_cell_angle_beta 137.176655
_cell_angle_gamma 90.000000
_cell_volume 1513.496869
_symmetry_space_group_name_H-M "P 21/M"
_symmetry_group_IT_number 11
_symmetry_cell_setting 'monoclinic'
loop_
_space_group_symop_operation_xyz
x,y,z
-x,1/2+y,-z
-x,-y,-z
x,1/2-y,z
loop_
_atom_site_type_symbol
_atom_site_label
_atom_site_fract_x
_atom_site_fract_y
_atom_site_fract_z
Si Si1 0.560224 0.419855 0.716337
Si Si2 0.191974 0.416087 0.105824
Si Si3 0.740024 0.417900 0.492332
Si Si4 0.078038 0.582302 0.666924
Si Si5 0.801163 0.086622 0.309686
Si Si6 0.430295 0.924079 0.937106
Si Si7 0.303799 0.412204 0.090832
O O1 0.500000 0.500000 0.500000
O O2 0.543032 0.250000 0.675334
O O3 0.636832 0.457660 0.793730
O O4 0.563263 0.475480 0.885469
O O5 0.161484 0.250000 0.065102
O O6 0.214993 0.484440 0.303507
O O7 0.269212 0.413714 0.176667
O O8 0.129679 0.510473 0.895479
O O9 0.736832 0.250000 0.538868
O O10 0.793427 0.431682 0.463057
O O11 0.653212 0.472200 0.289071
O O12 0.064338 0.750000 0.684585
O O13 0.114722 0.574562 0.582839
O O14 0.000000 0.500000 0.500000
O O15 0.768663 0.250000 0.202023
O O16 0.758000 0.950190 0.153482
O O17 0.439397 0.750000 0.940958
O O18 0.500000 0.000000 0.000000
O O19 0.337189 0.250000 0.125438
#
# Coordination Sequence:
#
# PCOD8073996 Si02
#       7
#     4   4   4   4   4   4   4
#     4  11  23  39  56  78 108 143 188 239 287 339
#     4  10  22  37  56  86 118 148 188 233 277 333
#     4  10  20  38  59  82 112 150 193 235 283 338
#     4  10  20  37  63  90 118 151 184 228 280 335
#     4   9  18  36  60  83 110 147 187 227 276 331
#     4  10  23  40  57  79 112 150 191 239 289 340
#     4  10  20  35  55  80 108 142 185 233 280 331
#
# _framework density 18.500204
#
# number of rings (size 3 to 8) (size 9 to 14) (size 15 to 20)
#    0.000    2.000    1.429    1.714    2.000    4.571 
#    0.000    0.714    0.000    0.000    0.000    0.000 
#    0.000    0.000    0.000    0.000    0.000    0.000 
#
# Total GULP energy -346994.030394 kJ/mol
# GULP energy per Si atom -12392.643943 kJ/mol
# Density = 1.845810 g / cm^3
# Si number density = 18.500204 Si / 1000 Ang^3
#
#
#
# Elastic Constant Matrix: (Units=GPa)
#
#
# Indices 1 2 3 4 5 6 
#
# 1 100.5527 55.6717 65.8170 0.0000 5.0754 0.0000
# 2 55.6717 93.0391 57.0526 0.0000 -4.7460 0.0000
# 3 65.8170 57.0526 118.3669 0.0000 -2.1222 0.0000
# 4 0.0000 0.0000 0.0000 36.6231 0.0000 3.8088
# 5 5.0754 -4.7460 -2.1222 0.0000 27.2810 0.0000
# 6 0.0000 0.0000 0.0000 3.8088 0.0000 30.0583
#
#
#
# Elastic Compliance Matrix: (Units=1/GPa)
#
#
# Indices 1 2 3 4 5 6 
#
# 1 0.018847 -0.007188 -0.007110 0.000000 -0.005310 0.000000
# 2 -0.007188 0.018119 -0.004662 0.000000 0.004127 0.000000
# 3 -0.007110 -0.004662 0.014679 0.000000 0.001654 0.000000
# 4 0.000000 0.000000 0.000000 0.027670 0.000000 -0.003506
# 5 -0.005310 0.004127 0.001654 0.000000 0.038490 0.000000
# 6 0.000000 0.000000 0.000000 -0.003506 0.000000 0.033713
#
#
# Mechanical properties :
#
#
# Convention : Reuss Voigt Hill
#
# Bulk Modulus (GPa) = 72.86992 74.33792 73.60392
# Shear Modulus (GPa) = 25.77151 27.68697 26.72924
#
# Velocity S-wave (km/s) = 3.73639 3.87276 3.80519
# Velocity P-wave (km/s) = 7.62157 7.76319 7.69271
#
# Compressibility (1/GPa) = 0.01372308
#
# Stress axis : x y z
#
# Youngs Moduli (GPa) = 53.05940 55.19114 68.12598
#
# Poissons Ratio (x) = 0.39673 0.48438
# Poissons Ratio (y) = 0.38140 0.31762
# Poissons Ratio (z) = 0.37726 0.25732
#
# Static dielectric constant tensor:
#      x y z
#    x 3.374160 0.000000 -0.065240 
#    y 0.000000 3.596240 0.000000 
#    z -0.065240 0.000000 3.207910 
# 
# 
# High freq. dielectric constant tensor:
#      x y z
#    x 1.719380 0.000000 -0.002740 
#    y 0.000000 1.728620 0.000000 
#    z -0.002740 0.000000 1.703800 
# 
# From -- ./inp_files/28569.got.cif
#   From: 2010.06.25/outbox.cif.g09.slc.cpg/sg11_15_cif.got.tgz:28569.got - 2010.06.27 23:14:04.
