data_PCOD8073765
_publ_section_title
;
Structure prediction by ZEFSAII (Michael W. Deem and Ramdas Pophale) SiO2 
 PCOD8073765
Probable space group: P 21/M
;
_chemical_formula_sum "Si O2"
_cell_formula_units_Z 32
_cell_length_a 12.973111
_cell_length_b 11.167025
_cell_length_c 11.456700
_cell_angle_alpha 90.000000
_cell_angle_beta 97.047170
_cell_angle_gamma 90.000000
_cell_volume 1647.205650
_symmetry_space_group_name_H-M "P 21/M"
_symmetry_group_IT_number 11
_symmetry_cell_setting 'monoclinic'
loop_
_space_group_symop_operation_xyz
x,y,z
-x,1/2+y,-z
-x,-y,-z
x,1/2-y,z
loop_
_atom_site_type_symbol
_atom_site_label
_atom_site_fract_x
_atom_site_fract_y
_atom_site_fract_z
Si Si1 0.810143 0.998253 0.145134
Si Si2 0.027444 0.886028 0.177585
Si Si3 0.393382 0.122459 0.913980
Si Si4 0.945267 0.116113 0.545523
Si Si5 0.753098 0.116523 0.370834
Si Si6 0.474637 0.608740 0.586304
Si Si7 0.566567 0.963742 0.833637
Si Si8 0.764585 0.112470 0.906676
O O1 0.809360 0.043431 0.276934
O O2 0.926001 0.959876 0.126215
O O3 0.729399 0.889078 0.126866
O O4 0.768048 0.096818 0.047258
O O5 0.011948 0.750000 0.132512
O O6 0.044513 0.892922 0.316450
O O7 0.129410 0.943436 0.131637
O O8 0.429844 0.250000 0.870821
O O9 0.458042 0.026620 0.850652
O O10 0.411391 0.124358 0.056014
O O11 0.987612 0.250000 0.510563
O O12 0.824202 0.107887 0.495596
O O13 0.000000 0.000000 0.500000
O O14 0.743040 0.250000 0.321030
O O15 0.639797 0.070766 0.388721
O O16 0.500000 0.500000 0.500000
O O17 0.478895 0.750000 0.539869
O O18 0.551984 0.603466 0.708374
O O19 0.663734 0.052951 0.834954
O O20 0.756740 0.250000 0.871620
#
# Coordination Sequence:
#
# PCOD8073765 Si02
#       8
#     4   4   4   4   4   4   4   4
#     4  11  19  36  58  85 117 151 197 252 302 356
#     4  10  21  36  56  82 118 159 200 252 306 361
#     4  10  20  34  57  87 116 148 191 248 312 363
#     4  10  20  37  60  84 114 154 198 248 300 353
#     4  10  21  38  61  85 116 154 198 247 302 360
#     4  11  25  44  64  90 124 164 206 254 307 369
#     4  10  21  38  59  85 117 157 195 249 302 365
#     4  10  22  36  57  86 119 161 205 245 300 373
#
# _framework density 19.426839999999999
#
# number of rings (size 3 to 8) (size 9 to 14) (size 15 to 20)
#    0.000    1.750    2.500    1.875    1.750    1.000 
#    0.000    0.625    0.000    3.000    0.000    0.000 
#    0.000    0.000    0.000    0.000    0.000    0.000 
#
# Total GULP energy -396516.938469 kJ/mol
# GULP energy per Si atom -12391.154327 kJ/mol
# Density = 1.938262 g / cm^3
# Si number density = 19.426840 Si / 1000 Ang^3
#
#
#
# Elastic Constant Matrix: (Units=GPa)
#
#
# Indices 1 2 3 4 5 6 
#
# 1 126.8231 33.4247 20.7047 0.0000 2.3742 0.0000
# 2 33.4247 90.0492 25.8825 0.0000 -4.2573 0.0000
# 3 20.7047 25.8825 61.2337 0.0000 7.2184 0.0000
# 4 0.0000 0.0000 0.0000 18.1985 0.0000 -8.4206
# 5 2.3742 -4.2573 7.2184 0.0000 31.2777 0.0000
# 6 0.0000 0.0000 0.0000 -8.4206 0.0000 17.5601
#
#
#
# Elastic Compliance Matrix: (Units=1/GPa)
#
#
# Indices 1 2 3 4 5 6 
#
# 1 0.008932 -0.002847 -0.001738 0.000000 -0.000664 0.000000
# 2 -0.002847 0.013835 -0.005276 0.000000 0.003317 0.000000
# 3 -0.001738 -0.005276 0.019755 0.000000 -0.005145 0.000000
# 4 0.000000 0.000000 0.000000 0.070619 0.000000 0.033864
# 5 -0.000664 0.003317 -0.005145 0.000000 0.033661 0.000000
# 6 0.000000 0.000000 0.000000 0.033864 0.000000 0.073186
#
#
# Mechanical properties :
#
#
# Convention : Reuss Voigt Hill
#
# Bulk Modulus (GPa) = 43.86165 48.68110 46.27138
# Shear Modulus (GPa) = 20.21751 26.61354 23.41552
#
# Velocity S-wave (km/s) = 3.22949 3.70528 3.47554
# Velocity P-wave (km/s) = 6.04425 6.58928 6.32264
#
# Compressibility (1/GPa) = 0.02279896
#
# Stress axis : x y z
#
# Youngs Moduli (GPa) = 111.96241 72.27966 50.61916
#
# Poissons Ratio (x) = 0.20578 0.08799
# Poissons Ratio (y) = 0.31876 0.26708
# Poissons Ratio (z) = 0.19462 0.38137
#
# Static dielectric constant tensor:
#      x y z
#    x 3.671880 0.000000 0.053300 
#    y 0.000000 3.591970 0.000000 
#    z 0.053300 0.000000 3.474640 
# 
# 
# High freq. dielectric constant tensor:
#      x y z
#    x 1.764330 0.000000 0.014110 
#    y 0.000000 1.749270 0.000000 
#    z 0.014110 0.000000 1.751810 
# 
# From -- ./inp_files/34825.got.cif
#   From: 2010.06.25/outbox.cif.g09.slc.cpg/sg11_18_cif.got.tgz:34825.got - 2010.06.27 23:14:04.
