data_PCOD8073921
_publ_section_title
;
Structure prediction by ZEFSAII (Michael W. Deem and Ramdas Pophale) SiO2 
 PCOD8073921
Probable space group: P 21/M
;
_chemical_formula_sum "Si O2"
_cell_formula_units_Z 28
_cell_length_a 8.955164
_cell_length_b 9.058195
_cell_length_c 28.796723
_cell_angle_alpha 90.000000
_cell_angle_beta 141.070777
_cell_angle_gamma 90.000000
_cell_volume 1467.799538
_symmetry_space_group_name_H-M "P 21/M"
_symmetry_group_IT_number 11
_symmetry_cell_setting 'monoclinic'
loop_
_space_group_symop_operation_xyz
x,y,z
-x,1/2+y,-z
-x,-y,-z
x,1/2-y,z
loop_
_atom_site_type_symbol
_atom_site_label
_atom_site_fract_x
_atom_site_fract_y
_atom_site_fract_z
Si Si1 0.904899 0.575001 0.431038
Si Si2 0.971734 0.424463 0.719301
Si Si3 0.624119 0.075153 0.716019
Si Si4 0.196757 0.575516 0.140900
Si Si5 0.651972 0.922724 0.997725
Si Si6 0.527198 0.075122 0.146280
Si Si7 0.251443 0.577228 0.432593
O O1 0.905984 0.750000 0.438191
O O2 0.640343 0.514551 0.357063
O O3 0.000000 0.500000 0.500000
O O4 0.067999 0.525482 0.427595
O O5 0.020120 0.250000 0.734230
O O6 0.216252 0.509475 0.782283
O O7 0.799469 0.482292 0.718344
O O8 0.853142 0.469080 0.642182
O O9 0.619629 0.250000 0.714303
O O10 0.717176 0.018695 0.788051
O O11 0.237324 0.750000 0.144683
O O12 0.343036 0.489972 0.137955
O O13 0.924380 0.529743 0.068902
O O14 0.622230 0.750000 0.997657
O O15 0.558041 0.974406 0.925133
O O16 0.500000 0.000000 0.000000
O O17 0.534755 0.250000 0.153379
O O18 0.500000 0.500000 0.500000
O O19 0.296726 0.750000 0.446055
#
# Coordination Sequence:
#
# PCOD8073921 Si02
#       7
#     4   4   4   4   4   4   4
#     4  10  20  35  54  79 108 139 177 223 270 320
#     4  10  20  37  60  82 106 145 188 225 271 331
#     4   9  18  34  58  82 103 133 182 230 264 312
#     4  10  20  37  59  81 107 145 187 224 267 328
#     4  10  22  38  58  84 113 145 184 228 277 330
#     4  11  23  37  54  83 117 145 178 227 278 324
#     4  10  21  36  57  83 111 144 185 229 275 327
#
# _framework density 19.076174999999999
#
# number of rings (size 3 to 8) (size 9 to 14) (size 15 to 20)
#    0.000    2.000    0.000    3.429    0.000    7.429 
#    0.000    3.571    0.000    0.000    0.000    0.000 
#    0.000    0.000    0.000    0.000    0.000    0.000 
#
# Total GULP energy -347307.630527 kJ/mol
# GULP energy per Si atom -12403.843947 kJ/mol
# Density = 1.903276 g / cm^3
# Si number density = 19.076175 Si / 1000 Ang^3
#
#
#
# Elastic Constant Matrix: (Units=GPa)
#
#
# Indices 1 2 3 4 5 6 
#
# 1 204.9293 58.1429 112.5282 0.0000 -4.1091 0.0000
# 2 58.1429 39.5697 56.7827 0.0000 0.2780 0.0000
# 3 112.5282 56.7827 194.3288 0.0000 -0.2390 0.0000
# 4 0.0000 0.0000 0.0000 30.1713 0.0000 1.0767
# 5 -4.1091 0.2780 -0.2390 0.0000 43.1238 0.0000
# 6 0.0000 0.0000 0.0000 1.0767 0.0000 33.5897
#
#
#
# Elastic Compliance Matrix: (Units=1/GPa)
#
#
# Indices 1 2 3 4 5 6 
#
# 1 0.008964 -0.009869 -0.002306 0.000000 0.000905 0.000000
# 2 -0.009869 0.054391 -0.010180 0.000000 -0.001347 0.000000
# 3 -0.002306 -0.010180 0.009456 0.000000 -0.000102 0.000000
# 4 0.000000 0.000000 0.000000 0.033182 0.000000 -0.001064
# 5 0.000905 -0.001347 -0.000102 0.000000 0.023283 0.000000
# 6 0.000000 0.000000 0.000000 -0.001064 0.000000 0.029805
#
#
# Mechanical properties :
#
#
# Convention : Reuss Voigt Hill
#
# Bulk Modulus (GPa) = 35.58596 99.30393 67.44494
# Shear Modulus (GPa) = 23.45678 35.46857 29.46267
#
# Velocity S-wave (km/s) = 3.51042 4.31665 3.93424
# Velocity P-wave (km/s) = 5.92671 8.77577 7.48799
#
# Compressibility (1/GPa) = 0.02810097
#
# Stress axis : x y z
#
# Youngs Moduli (GPa) = 111.55528 18.38541 105.75718
#
# Poissons Ratio (x) = 0.18145 0.24387
# Poissons Ratio (y) = 1.10095 1.07659
# Poissons Ratio (z) = 0.25724 0.18716
#
# Static dielectric constant tensor:
#      x y z
#    x 3.740890 0.000000 0.009310 
#    y 0.000000 3.262060 0.000000 
#    z 0.009310 0.000000 3.780370 
# 
# 
# High freq. dielectric constant tensor:
#      x y z
#    x 1.763100 0.000000 -0.000390 
#    y 0.000000 1.717520 0.000000 
#    z -0.000390 0.000000 1.763150 
# 
# From -- ./inp_files/28597.got.cif
#   From: 2010.06.25/outbox.cif.g09.slc.cpg/sg11_15_cif.got.tgz:28597.got - 2010.06.27 23:14:04.
