data_PCOD8073306
_publ_section_title
;
Structure prediction by ZEFSAII (Michael W. Deem and Ramdas Pophale) SiO2 
 PCOD8073306
Probable space group: P 21/M
;
_chemical_formula_sum "Si O2"
_cell_formula_units_Z 32
_cell_length_a 21.849002
_cell_length_b 9.214438
_cell_length_c 27.919040
_cell_angle_alpha 90.000000
_cell_angle_beta 161.233418
_cell_angle_gamma 90.000000
_cell_volume 1808.298939
_symmetry_space_group_name_H-M "P 21/M"
_symmetry_group_IT_number 11
_symmetry_cell_setting 'monoclinic'
loop_
_space_group_symop_operation_xyz
x,y,z
-x,1/2+y,-z
-x,-y,-z
x,1/2-y,z
loop_
_atom_site_type_symbol
_atom_site_label
_atom_site_fract_x
_atom_site_fract_y
_atom_site_fract_z
Si Si1 0.711706 0.919463 0.787253
Si Si2 0.713484 0.418265 0.543708
Si Si3 0.036204 0.919573 0.954701
Si Si4 0.720367 0.582529 0.281526
Si Si5 0.991466 0.919115 0.568769
Si Si6 0.717862 0.081407 0.051331
Si Si7 0.012364 0.419308 0.188632
Si Si8 0.008084 0.080228 0.679189
O O1 0.713180 0.750000 0.799882
O O2 0.499687 0.976484 0.620850
O O3 0.839182 0.957176 0.835460
O O4 0.788448 0.000020 0.890817
O O5 0.715792 0.250000 0.558652
O O6 0.801264 0.502453 0.653438
O O7 0.831124 0.450098 0.582819
O O8 0.080702 0.750000 0.989399
O O9 0.024649 0.977528 0.892074
O O10 0.749741 0.750000 0.288268
O O11 0.809210 0.554433 0.399731
O O12 0.819353 0.481079 0.315781
O O13 0.499875 0.539135 0.119342
O O14 0.023056 0.750000 0.602965
O O15 0.953252 0.003853 0.589221
O O16 0.741215 0.250000 0.081999
O O17 0.829356 0.042979 0.085274
O O18 0.800018 0.988122 0.156288
O O19 0.057203 0.250000 0.221362
O O20 0.043754 0.250000 0.697072
#
# Coordination Sequence:
#
# PCOD8073306 Si02
#       8
#     4   4   4   4   4   4   4   4
#     4   9  18  33  50  70  99 132 165 201 241 287
#     4   9  19  34  50  70  98 131 165 201 241 287
#     4   9  18  32  50  73 100 129 163 203 244 287
#     4   9  19  35  53  73  98 128 161 198 241 289
#     4  10  20  34  53  76 100 127 160 199 243 289
#     4   9  18  34  53  72  97 128 162 201 243 287
#     4   9  18  32  50  73  99 126 160 203 246 287
#     4  10  20  34  51  72  99 130 164 201 241 287
#
# _framework density 17.696190000000001
#
# number of rings (size 3 to 8) (size 9 to 14) (size 15 to 20)
#    0.000    2.750    0.000    0.750    0.000    4.500 
#    0.000    1.250    0.000    0.000    0.000    0.000 
#    0.000    0.000    0.000    0.000    0.000    0.000 
#
# Total GULP energy -396887.667347 kJ/mol
# GULP energy per Si atom -12402.739605 kJ/mol
# Density = 1.765591 g / cm^3
# Si number density = 17.696190 Si / 1000 Ang^3
#
#
#
# Elastic Constant Matrix: (Units=GPa)
#
#
# Indices 1 2 3 4 5 6 
#
# 1 74.3704 32.9088 33.2703 0.0000 -16.3305 0.0000
# 2 32.9088 56.9954 37.3350 0.0000 -5.7148 0.0000
# 3 33.2703 37.3350 123.6107 0.0000 6.9083 0.0000
# 4 0.0000 0.0000 0.0000 31.0697 0.0000 -4.8592
# 5 -16.3305 -5.7148 6.9083 0.0000 22.8384 0.0000
# 6 0.0000 0.0000 0.0000 -4.8592 0.0000 26.2963
#
#
#
# Elastic Compliance Matrix: (Units=1/GPa)
#
#
# Indices 1 2 3 4 5 6 
#
# 1 0.022564 -0.008677 -0.004305 0.000000 0.015265 0.000000
# 2 -0.008677 0.026588 -0.005819 0.000000 0.002208 0.000000
# 3 -0.004305 -0.005819 0.011453 0.000000 -0.007999 0.000000
# 4 0.000000 0.000000 0.000000 0.033144 0.000000 0.006124
# 5 0.015265 0.002208 -0.007999 0.000000 0.057673 0.000000
# 6 0.000000 0.000000 0.000000 0.006124 0.000000 0.039160
#
#
# Mechanical properties :
#
#
# Convention : Reuss Voigt Hill
#
# Bulk Modulus (GPa) = 43.47287 51.33388 47.40337
# Shear Modulus (GPa) = 21.19964 26.13837 23.66901
#
# Velocity S-wave (km/s) = 3.46494 3.84743 3.66118
# Velocity P-wave (km/s) = 6.37395 6.98630 6.68714
#
# Compressibility (1/GPa) = 0.02300285
#
# Stress axis : x y z
#
# Youngs Moduli (GPa) = 44.31829 37.61030 87.31183
#
# Poissons Ratio (x) = 0.32636 0.37592
# Poissons Ratio (y) = 0.38457 0.50803
# Poissons Ratio (z) = 0.19081 0.21884
#
# Static dielectric constant tensor:
#      x y z
#    x 3.294820 0.000000 -0.030630 
#    y 0.000000 3.274960 0.000000 
#    z -0.030630 0.000000 3.347550 
# 
# 
# High freq. dielectric constant tensor:
#      x y z
#    x 1.683280 0.000000 -0.003340 
#    y 0.000000 1.684180 0.000000 
#    z -0.003340 0.000000 1.686780 
# 
# From -- ./inp_files/40619.got.cif
#   From: 2010.06.25/outbox.cif.g09.slc.cpg/sg11_21_cif.got.tgz:40619.got - 2010.06.27 23:14:04.
