data_PCOD8073095
_publ_section_title
;
Structure prediction by ZEFSAII (Michael W. Deem and Ramdas Pophale) SiO2 
 PCOD8073095
Probable space group: P 21/M
;
_chemical_formula_sum "Si O2"
_cell_formula_units_Z 28
_cell_length_a 15.928724
_cell_length_b 9.128925
_cell_length_c 12.548931
_cell_angle_alpha 90.000000
_cell_angle_beta 55.489728
_cell_angle_gamma 90.000000
_cell_volume 1503.652742
_symmetry_space_group_name_H-M "P 21/M"
_symmetry_group_IT_number 11
_symmetry_cell_setting 'monoclinic'
loop_
_space_group_symop_operation_xyz
x,y,z
-x,1/2+y,-z
-x,-y,-z
x,1/2-y,z
loop_
_atom_site_type_symbol
_atom_site_label
_atom_site_fract_x
_atom_site_fract_y
_atom_site_fract_z
Si Si1 0.733843 0.918452 0.528953
Si Si2 0.410029 0.579057 0.202798
Si Si3 0.017843 0.079687 0.176600
Si Si4 0.615462 0.080152 0.020844
Si Si5 0.202997 0.919236 0.955182
Si Si6 0.211894 0.916593 0.711293
Si Si7 0.966824 0.919110 0.418887
O O1 0.701171 0.750000 0.549746
O O2 0.847050 0.941276 0.490608
O O3 0.659379 0.003625 0.659906
O O4 0.726233 0.980445 0.414247
O O5 0.413801 0.750000 0.224741
O O6 0.523355 0.516418 0.130895
O O7 0.364361 0.546915 0.118237
O O8 0.035796 0.250000 0.186498
O O9 0.908524 0.049150 0.202818
O O10 0.029013 0.991767 0.278402
O O11 0.103879 0.020259 0.035656
O O12 0.587666 0.250000 0.058478
O O13 0.715222 0.034582 0.014747
O O14 0.170269 0.750000 0.991632
O O15 0.251091 0.945142 0.803199
O O16 0.231699 0.750000 0.661041
O O17 0.997974 0.750000 0.403090
O O18 0.000000 0.000000 0.500000
#
# Coordination Sequence:
#
# PCOD8073095 Si02
#       7
#     4   4   4   4   4   4   4
#     4  10  21  36  56  79 106 142 180 220 269 320
#     4  10  20  36  58  81 107 140 176 218 272 327
#     4  10  20  33  51  78 110 147 183 219 264 315
#     4   9  20  37  56  81 108 137 175 222 272 321
#     4  10  20  35  56  81 109 143 182 225 272 317
#     4   9  19  36  55  78 110 145 183 223 264 318
#     4  10  21  35  51  76 109 143 180 223 265 315
#
# _framework density 18.621321999999999
#
# number of rings (size 3 to 8) (size 9 to 14) (size 15 to 20)
#    0.000    2.286    0.000    2.143    2.000    4.000 
#    0.000    0.714    0.000    0.000    0.000    0.000 
#    0.000    0.000    0.000    0.000    0.000    0.000 
#
# Total GULP energy -347289.401010 kJ/mol
# GULP energy per Si atom -12403.192893 kJ/mol
# Density = 1.857894 g / cm^3
# Si number density = 18.621322 Si / 1000 Ang^3
#
#
#
# Elastic Constant Matrix: (Units=GPa)
#
#
# Indices 1 2 3 4 5 6 
#
# 1 58.5792 36.0218 39.3060 0.0000 8.0630 0.0000
# 2 36.0218 109.6629 69.1720 0.0000 -5.6522 0.0000
# 3 39.3060 69.1720 127.3087 0.0000 -1.0523 0.0000
# 4 0.0000 0.0000 0.0000 39.5759 0.0000 -3.5030
# 5 8.0630 -5.6522 -1.0523 0.0000 21.8783 0.0000
# 6 0.0000 0.0000 0.0000 -3.5030 0.0000 26.3108
#
#
#
# Elastic Compliance Matrix: (Units=1/GPa)
#
#
# Indices 1 2 3 4 5 6 
#
# 1 0.025424 -0.005958 -0.004705 0.000000 -0.011135 0.000000
# 2 -0.005958 0.015501 -0.006534 0.000000 0.005886 0.000000
# 3 -0.004705 -0.006534 0.012863 0.000000 0.000664 0.000000
# 4 0.000000 0.000000 0.000000 0.025569 0.000000 0.003404
# 5 -0.011135 0.005886 0.000664 0.000000 0.051364 0.000000
# 6 0.000000 0.000000 0.000000 0.003404 0.000000 0.038460
#
#
# Mechanical properties :
#
#
# Convention : Reuss Voigt Hill
#
# Bulk Modulus (GPa) = 51.55933 64.95006 58.25469
# Shear Modulus (GPa) = 23.80517 27.62308 25.71412
#
# Velocity S-wave (km/s) = 3.57933 3.85569 3.72007
# Velocity P-wave (km/s) = 6.69556 7.40114 7.05717
#
# Compressibility (1/GPa) = 0.01939513
#
# Stress axis : x y z
#
# Youngs Moduli (GPa) = 39.33334 64.51325 77.74138
#
# Poissons Ratio (x) = 0.38434 0.36573
# Poissons Ratio (y) = 0.23433 0.50797
# Poissons Ratio (z) = 0.18504 0.42154
#
# Static dielectric constant tensor:
#      x y z
#    x 3.346860 0.000000 0.193580 
#    y 0.000000 3.546000 0.000000 
#    z 0.193580 0.000000 3.532520 
# 
# 
# High freq. dielectric constant tensor:
#      x y z
#    x 1.706630 0.000000 0.011410 
#    y 0.000000 1.731400 0.000000 
#    z 0.011410 0.000000 1.727240 
# 
# From -- ./inp_files/37699.got.cif
#   From: 2010.06.25/outbox.cif.g09.slc.cpg/sg11_19_cif.got.tgz:37699.got - 2010.06.27 23:14:04.
