data_PCOD8073494
_publ_section_title
;
Structure prediction by ZEFSAII (Michael W. Deem and Ramdas Pophale) SiO2 
 PCOD8073494
Probable space group: P 21/M
;
_chemical_formula_sum "Si O2"
_cell_formula_units_Z 32
_cell_length_a 19.952520
_cell_length_b 9.623396
_cell_length_c 25.743164
_cell_angle_alpha 90.000000
_cell_angle_beta 158.666177
_cell_angle_gamma 90.000000
_cell_volume 1798.258500
_symmetry_space_group_name_H-M "P 21/M"
_symmetry_group_IT_number 11
_symmetry_cell_setting 'monoclinic'
loop_
_space_group_symop_operation_xyz
x,y,z
-x,1/2+y,-z
-x,-y,-z
x,1/2-y,z
loop_
_atom_site_type_symbol
_atom_site_label
_atom_site_fract_x
_atom_site_fract_y
_atom_site_fract_z
Si Si1 0.265437 0.408608 0.679916
Si Si2 0.112278 0.910252 0.393687
Si Si3 0.013184 0.411235 0.224671
Si Si4 0.168345 0.089837 0.141655
Si Si5 0.319433 0.089029 0.361460
Si Si6 0.475921 0.089635 0.279673
Si Si7 0.001221 0.408881 0.577073
Si Si8 0.360290 0.589008 0.098392
O O1 0.217577 0.250000 0.631727
O O2 0.192729 0.445264 0.685594
O O3 0.483488 0.435348 0.832893
O O4 0.165207 0.500737 0.564818
O O5 0.110613 0.750000 0.374756
O O6 0.319120 0.957551 0.556930
O O7 0.979690 0.935822 0.347740
O O8 0.030785 0.002971 0.289678
O O9 0.996167 0.250000 0.227140
O O10 0.187487 0.440661 0.314470
O O11 0.831074 0.462924 0.063591
O O12 0.106609 0.250000 0.095497
O O13 0.215582 0.042806 0.234150
O O14 0.348416 0.063428 0.237284
O O15 0.000000 0.000000 0.000000
O O16 0.376594 0.250000 0.398963
O O17 0.500000 0.000000 0.500000
O O18 0.473987 0.250000 0.260652
O O19 0.401504 0.997925 0.179203
O O20 0.943575 0.250000 0.525630
O O21 0.348318 0.750000 0.106319
#
# Coordination Sequence:
#
# PCOD8073494 Si02
#       8
#     4   4   4   4   4   4   4   4
#     4   9  17  30  52  80 106 136 172 211 256 305
#     4  10  20  35  54  77 105 138 174 216 259 303
#     4  10  22  37  53  75 106 141 175 214 260 311
#     4  10  21  36  54  77 105 134 169 215 264 313
#     4  10  21  38  57  76 101 136 177 218 261 311
#     4  10  20  34  54  79 104 133 172 216 261 311
#     4   9  17  31  52  78 107 136 171 214 257 302
#     4  10  20  35  54  78 108 141 174 212 259 310
#
# _framework density 17.794995
#
# number of rings (size 3 to 8) (size 9 to 14) (size 15 to 20)
#    0.000    2.250    1.250    1.500    0.000    5.000 
#    0.000    0.625    0.000    0.000    0.000    0.000 
#    0.000    0.000    0.000    0.000    0.000    0.000 
#
# Total GULP energy -396836.556318 kJ/mol
# GULP energy per Si atom -12401.142385 kJ/mol
# Density = 1.775449 g / cm^3
# Si number density = 17.794995 Si / 1000 Ang^3
#
#
#
# Elastic Constant Matrix: (Units=GPa)
#
#
# Indices 1 2 3 4 5 6 
#
# 1 89.2991 37.7950 22.5529 0.0000 -13.9726 0.0000
# 2 37.7950 56.9121 38.5955 0.0000 -12.3879 0.0000
# 3 22.5529 38.5955 68.5413 0.0000 -14.0897 0.0000
# 4 0.0000 0.0000 0.0000 32.3847 0.0000 -5.5454
# 5 -13.9726 -12.3879 -14.0897 0.0000 28.5780 0.0000
# 6 0.0000 0.0000 0.0000 -5.5454 0.0000 31.1101
#
#
#
# Elastic Compliance Matrix: (Units=1/GPa)
#
#
# Indices 1 2 3 4 5 6 
#
# 1 0.016009 -0.010923 0.001690 0.000000 0.003926 0.000000
# 2 -0.010923 0.036517 -0.016483 0.000000 0.002362 0.000000
# 3 0.001690 -0.016483 0.024499 0.000000 0.005760 0.000000
# 4 0.000000 0.000000 0.000000 0.031851 0.000000 0.005677
# 5 0.003926 0.002362 0.005760 0.000000 0.040775 0.000000
# 6 0.000000 0.000000 0.000000 0.005677 0.000000 0.033156
#
#
# Mechanical properties :
#
#
# Convention : Reuss Voigt Hill
#
# Bulk Modulus (GPa) = 39.07266 45.84881 42.46073
# Shear Modulus (GPa) = 20.59557 26.13516 23.36536
#
# Velocity S-wave (km/s) = 3.40572 3.83649 3.62751
# Velocity P-wave (km/s) = 6.12127 6.74135 6.43878
#
# Compressibility (1/GPa) = 0.02559335
#
# Stress axis : x y z
#
# Youngs Moduli (GPa) = 62.46576 27.38426 40.81746
#
# Poissons Ratio (x) = 0.29912 -0.06899
# Poissons Ratio (y) = 0.68232 0.67280
# Poissons Ratio (z) = -0.10558 0.45138
#
# Static dielectric constant tensor:
#      x y z
#    x 2.836590 0.000000 -0.091890 
#    y 0.000000 3.363900 0.000000 
#    z -0.091890 0.000000 3.124620 
# 
# 
# High freq. dielectric constant tensor:
#      x y z
#    x 1.703970 0.000000 0.013080 
#    y 0.000000 1.687270 0.000000 
#    z 0.013080 0.000000 1.676240 
# 
# From -- ./inp_files/72026.got.cif
#   From: 2010.06.25/outbox.cif.g09.slc.cpg/sg11_37_cif.got.tgz:72026.got - 2010.06.27 23:14:04.
