data_PCOD8073927
_publ_section_title
;
Structure prediction by ZEFSAII (Michael W. Deem and Ramdas Pophale) SiO2 
 PCOD8073927
Probable space group: P 21/M
;
_chemical_formula_sum "Si O2"
_cell_formula_units_Z 28
_cell_length_a 23.164017
_cell_length_b 9.201072
_cell_length_c 16.107616
_cell_angle_alpha 90.000000
_cell_angle_beta 23.283077
_cell_angle_gamma 90.000000
_cell_volume 1357.006889
_symmetry_space_group_name_H-M "P 21/M"
_symmetry_group_IT_number 11
_symmetry_cell_setting 'monoclinic'
loop_
_space_group_symop_operation_xyz
x,y,z
-x,1/2+y,-z
-x,-y,-z
x,1/2-y,z
loop_
_atom_site_type_symbol
_atom_site_label
_atom_site_fract_x
_atom_site_fract_y
_atom_site_fract_z
Si Si1 0.901846 0.086016 0.402580
Si Si2 0.825375 0.591287 0.056405
Si Si3 0.661778 0.078716 0.596340
Si Si4 0.150403 0.082728 0.789143
Si Si5 0.416566 0.913093 0.679655
Si Si6 0.602075 0.083901 0.110498
Si Si7 0.059427 0.922619 0.340597
O O1 0.904226 0.250000 0.436089
O O2 0.739988 0.047193 0.582048
O O3 0.001251 0.075121 0.187772
O O4 0.960782 0.976921 0.394106
O O5 0.774560 0.750000 0.091109
O O6 0.775703 0.578453 0.217596
O O7 0.750251 0.468291 0.100069
O O8 0.659617 0.250000 0.580081
O O9 0.745254 0.996359 0.412933
O O10 0.495626 0.017204 0.820898
O O11 0.123888 0.250000 0.796153
O O12 0.000000 0.000000 0.000000
O O13 0.420298 0.750000 0.644232
O O14 0.472491 0.929465 0.699841
O O15 0.500000 0.000000 0.500000
O O16 0.593725 0.250000 0.089995
O O17 0.770268 0.032605 0.892034
O O18 0.041388 0.750000 0.370520
O O19 0.000000 0.000000 0.500000
#
# Coordination Sequence:
#
# PCOD8073927 Si02
#       7
#     4   4   4   4   4   4   4
#     4  10  21  40  63  90 124 158 201 255 307 366
#     4  10  20  35  54  79 116 159 206 258 305 352
#     4  11  23  39  60  91 127 168 213 257 311 369
#     4  11  21  34  52  80 122 170 217 262 308 362
#     4  11  22  36  54  82 120 162 210 255 304 363
#     4  10  23  42  61  89 128 164 204 258 312 373
#     4  11  24  45  72 100 125 157 205 258 321 383
#
# _framework density 20.633645000000001
#
# number of rings (size 3 to 8) (size 9 to 14) (size 15 to 20)
#    0.000    1.429    2.857    2.571    0.000    8.000 
#    0.000    0.714    0.000    0.000    0.000    0.000 
#    0.000    0.000    0.000    0.000    0.000    0.000 
#
# Total GULP energy -347061.770709 kJ/mol
# GULP energy per Si atom -12395.063240 kJ/mol
# Density = 2.058668 g / cm^3
# Si number density = 20.633645 Si / 1000 Ang^3
#
#
#
# Elastic Constant Matrix: (Units=GPa)
#
#
# Indices 1 2 3 4 5 6 
#
# 1 114.2236 70.0605 52.4472 0.0000 -17.0950 0.0000
# 2 70.0605 137.1636 54.5997 0.0000 -15.3491 0.0000
# 3 52.4472 54.5997 75.8777 0.0000 -7.0823 0.0000
# 4 0.0000 0.0000 0.0000 33.9760 0.0000 -5.1479
# 5 -17.0950 -15.3491 -7.0823 0.0000 35.6269 0.0000
# 6 0.0000 0.0000 0.0000 -5.1479 0.0000 37.0673
#
#
#
# Elastic Compliance Matrix: (Units=1/GPa)
#
#
# Indices 1 2 3 4 5 6 
#
# 1 0.015383 -0.004661 -0.006906 0.000000 0.004001 0.000000
# 2 -0.004661 0.011953 -0.005204 0.000000 0.001879 0.000000
# 3 -0.006906 -0.005204 0.021579 0.000000 -0.001266 0.000000
# 4 0.000000 0.000000 0.000000 0.030065 0.000000 0.004175
# 5 0.004001 0.001879 -0.001266 0.000000 0.030546 0.000000
# 6 0.000000 0.000000 0.000000 0.004175 0.000000 0.027558
#
#
# Mechanical properties :
#
#
# Convention : Reuss Voigt Hill
#
# Bulk Modulus (GPa) = 65.04581 75.71997 70.38289
# Shear Modulus (GPa) = 28.44948 31.34453 29.89700
#
# Velocity S-wave (km/s) = 3.71724 3.90179 3.81063
# Velocity P-wave (km/s) = 7.07223 7.55484 7.31751
#
# Compressibility (1/GPa) = 0.01537378
#
# Stress axis : x y z
#
# Youngs Moduli (GPa) = 65.00649 83.66073 46.34136
#
# Poissons Ratio (x) = 0.38993 0.32002
# Poissons Ratio (y) = 0.30298 0.24117
# Poissons Ratio (z) = 0.44891 0.43538
#
# Static dielectric constant tensor:
#      x y z
#    x 3.808460 0.000000 -0.252060 
#    y 0.000000 3.929640 0.000000 
#    z -0.252060 0.000000 3.770870 
# 
# 
# High freq. dielectric constant tensor:
#      x y z
#    x 1.800770 0.000000 -0.017440 
#    y 0.000000 1.813400 0.000000 
#    z -0.017440 0.000000 1.796900 
# 
# From -- ./inp_files/54494.got.cif
#   From: 2010.06.25/outbox.cif.g09.slc.cpg/sg11_28_cif.got.tgz:54494.got - 2010.06.27 23:14:04.
