data_PCOD8073729
_publ_section_title
;
Structure prediction by ZEFSAII (Michael W. Deem and Ramdas Pophale) SiO2 
 PCOD8073729
Probable space group: P 21/M
;
_chemical_formula_sum "Si O2"
_cell_formula_units_Z 28
_cell_length_a 12.485404
_cell_length_b 21.062529
_cell_length_c 5.587615
_cell_angle_alpha 90.000000
_cell_angle_beta 91.644540
_cell_angle_gamma 90.000000
_cell_volume 1468.793260
_symmetry_space_group_name_H-M "P 21/M"
_symmetry_group_IT_number 11
_symmetry_cell_setting 'monoclinic'
loop_
_space_group_symop_operation_xyz
x,y,z
-x,1/2+y,-z
-x,-y,-z
x,1/2-y,z
loop_
_atom_site_type_symbol
_atom_site_label
_atom_site_fract_x
_atom_site_fract_y
_atom_site_fract_z
Si Si1 0.918148 0.177124 0.442279
Si Si2 0.184384 0.461604 0.034456
Si Si3 0.584346 0.525891 0.820490
Si Si4 0.781700 0.095074 0.097568
Si Si5 0.394866 0.921323 0.558131
Si Si6 0.071431 0.436365 0.523412
Si Si7 0.295706 0.680733 0.285458
O O1 0.957308 0.250000 0.386730
O O2 0.871704 0.142221 0.204779
O O3 0.826542 0.181322 0.635009
O O4 0.009948 0.130755 0.546485
O O5 0.162280 0.538026 0.046441
O O6 0.140031 0.437415 0.774491
O O7 0.311302 0.443637 0.049129
O O8 0.135106 0.431695 0.274272
O O9 0.624932 0.467767 0.664134
O O10 0.516718 0.576311 0.659886
O O11 0.500000 0.500000 0.000000
O O12 0.703127 0.058333 0.275625
O O13 0.698278 0.137398 0.945933
O O14 0.375559 0.848009 0.487827
O O15 0.000000 0.500000 0.500000
O O16 0.338019 0.750000 0.223808
#
# Coordination Sequence:
#
# PCOD8073729 Si02
#       7
#     4   4   4   4   4   4   4
#     4  10  23  39  59  85 122 167 207 251 312 375
#     4  12  24  38  61  93 126 157 205 255 309 369
#     4  11  21  35  59  87 120 158 192 250 307 373
#     4  11  19  35  58  91 123 153 199 257 310 377
#     4  10  20  34  56  87 124 154 193 246 311 371
#     4  12  25  40  61  90 127 163 205 258 310 364
#     4  10  20  35  58  87 119 157 201 253 309 374
#
# _framework density 19.063268000000001
#
# number of rings (size 3 to 8) (size 9 to 14) (size 15 to 20)
#    0.000    1.143    4.286    2.571    4.000    0.571 
#    0.000    0.000    0.000    1.714    0.000    0.000 
#    0.000    0.000    0.000    0.000    0.000    0.000 
#
# Total GULP energy -346891.956197 kJ/mol
# GULP energy per Si atom -12388.998436 kJ/mol
# Density = 1.901988 g / cm^3
# Si number density = 19.063268 Si / 1000 Ang^3
#
#
#
# Elastic Constant Matrix: (Units=GPa)
#
#
# Indices 1 2 3 4 5 6 
#
# 1 107.5409 48.4553 45.9402 0.0000 22.9418 0.0000
# 2 48.4553 127.9408 32.4854 0.0000 11.1367 0.0000
# 3 45.9402 32.4854 109.4584 0.0000 9.1304 0.0000
# 4 0.0000 0.0000 0.0000 21.1350 0.0000 1.8705
# 5 22.9418 11.1367 9.1304 0.0000 38.0728 0.0000
# 6 0.0000 0.0000 0.0000 1.8705 0.0000 22.7262
#
#
#
# Elastic Compliance Matrix: (Units=1/GPa)
#
#
# Indices 1 2 3 4 5 6 
#
# 1 0.014189 -0.003719 -0.004315 0.000000 -0.006427 0.000000
# 2 -0.003719 0.009566 -0.001257 0.000000 -0.000256 0.000000
# 3 -0.004315 -0.001257 0.011299 0.000000 0.000258 0.000000
# 4 0.000000 0.000000 0.000000 0.047662 0.000000 -0.003923
# 5 -0.006427 -0.000256 0.000258 0.000000 0.030151 0.000000
# 6 0.000000 0.000000 0.000000 -0.003923 0.000000 0.044325
#
#
# Mechanical properties :
#
#
# Convention : Reuss Voigt Hill
#
# Bulk Modulus (GPa) = 60.71096 66.52243 63.61669
# Shear Modulus (GPa) = 27.58405 30.92408 29.25407
#
# Velocity S-wave (km/s) = 3.80804 4.03200 3.92162
# Velocity P-wave (km/s) = 7.15899 7.52645 7.34502
#
# Compressibility (1/GPa) = 0.01647149
#
# Stress axis : x y z
#
# Youngs Moduli (GPa) = 70.47734 104.53794 88.50677
#
# Poissons Ratio (x) = 0.38874 0.38194
# Poissons Ratio (y) = 0.26208 0.11125
# Poissons Ratio (z) = 0.30414 0.13140
#
# Static dielectric constant tensor:
#      x y z
#    x 3.738350 0.000000 0.127070 
#    y 0.000000 3.567820 0.000000 
#    z 0.127070 0.000000 3.850470 
# 
# 
# High freq. dielectric constant tensor:
#      x y z
#    x 1.725800 0.000000 0.008380 
#    y 0.000000 1.717200 0.000000 
#    z 0.008380 0.000000 1.761260 
# 
# From -- ./inp_files/5244.got.cif
#   From: 2010.06.25/outbox.cif.g09.slc.cpg/sg11_3_cif.got.tgz:5244.got - 2010.06.27 23:14:04.
