data_PCOD8073721
_publ_section_title
;
Structure prediction by ZEFSAII (Michael W. Deem and Ramdas Pophale) SiO2 
 PCOD8073721
Probable space group: P 21/M
;
_chemical_formula_sum "Si O2"
_cell_formula_units_Z 32
_cell_length_a 16.094665
_cell_length_b 8.835746
_cell_length_c 12.120880
_cell_angle_alpha 90.000000
_cell_angle_beta 92.198947
_cell_angle_gamma 90.000000
_cell_volume 1722.421322
_symmetry_space_group_name_H-M "P 21/M"
_symmetry_group_IT_number 11
_symmetry_cell_setting 'monoclinic'
loop_
_space_group_symop_operation_xyz
x,y,z
-x,1/2+y,-z
-x,-y,-z
x,1/2-y,z
loop_
_atom_site_type_symbol
_atom_site_label
_atom_site_fract_x
_atom_site_fract_y
_atom_site_fract_z
Si Si1 0.384266 0.577001 0.765464
Si Si2 0.793019 0.925979 0.640282
Si Si3 0.767531 0.424971 0.079513
Si Si4 0.471415 0.927560 0.112269
Si Si5 0.866698 0.576597 0.267713
Si Si6 0.033705 0.575956 0.391924
Si Si7 0.703836 0.574485 0.865123
Si Si8 0.258036 0.571661 0.576521
O O1 0.414830 0.750000 0.765637
O O2 0.318284 0.551540 0.859574
O O3 0.463407 0.470331 0.788426
O O4 0.342392 0.531658 0.646949
O O5 0.797575 0.750000 0.610944
O O6 0.751952 0.956581 0.755267
O O7 0.885137 0.992467 0.647780
O O8 0.735247 0.008967 0.546785
O O9 0.784306 0.250000 0.055266
O O10 0.844066 0.488319 0.154847
O O11 0.762924 0.516053 0.965754
O O12 0.468193 0.750000 0.095236
O O13 0.381481 0.983341 0.143505
O O14 0.500000 0.000000 0.000000
O O15 0.837947 0.750000 0.254882
O O16 0.821405 0.504754 0.370910
O O17 0.965154 0.563373 0.291907
O O18 0.055242 0.750000 0.419076
O O19 0.000000 0.500000 0.500000
O O20 0.683787 0.750000 0.882429
O O21 0.242897 0.750000 0.577204
#
# Coordination Sequence:
#
# PCOD8073721 Si02
#       8
#     4   4   4   4   4   4   4   4
#     4   9  19  35  56  86 117 146 189 239 286 337
#     4  11  24  40  59  85 118 156 196 239 293 350
#     4  10  20  35  58  86 116 151 191 238 290 345
#     4  12  23  36  59  88 117 150 192 240 288 343
#     4  10  20  34  56  86 118 150 190 240 289 342
#     4  11  22  36  59  88 118 152 194 242 287 341
#     4  11  24  41  60  83 117 157 195 240 291 348
#     4  10  20  35  58  85 116 153 192 238 289 343
#
# _framework density 18.578499000000001
#
# number of rings (size 3 to 8) (size 9 to 14) (size 15 to 20)
#    0.000    1.500    2.500    4.125    0.000    6.000 
#    0.000    1.250    0.000    0.000    0.000    0.000 
#    0.000    0.000    0.000    0.000    0.000    0.000 
#
# Total GULP energy -396941.978567 kJ/mol
# GULP energy per Si atom -12404.436830 kJ/mol
# Density = 1.853621 g / cm^3
# Si number density = 18.578499 Si / 1000 Ang^3
#
#
#
# Elastic Constant Matrix: (Units=GPa)
#
#
# Indices 1 2 3 4 5 6 
#
# 1 98.3765 53.7498 48.8633 0.0000 8.9112 0.0000
# 2 53.7498 116.4184 53.2377 0.0000 -0.9425 0.0000
# 3 48.8633 53.2377 110.6050 0.0000 15.0082 0.0000
# 4 0.0000 0.0000 0.0000 32.3930 0.0000 4.6271
# 5 8.9112 -0.9425 15.0082 0.0000 26.5136 0.0000
# 6 0.0000 0.0000 0.0000 4.6271 0.0000 32.4280
#
#
#
# Elastic Compliance Matrix: (Units=1/GPa)
#
#
# Indices 1 2 3 4 5 6 
#
# 1 0.015227 -0.005358 -0.003713 0.000000 -0.003207 0.000000
# 2 -0.005358 0.013240 -0.004673 0.000000 0.004917 0.000000
# 3 -0.003713 -0.004673 0.013848 0.000000 -0.006757 0.000000
# 4 0.000000 0.000000 0.000000 0.031513 0.000000 -0.004497
# 5 -0.003207 0.004917 -0.006757 0.000000 0.042794 0.000000
# 6 0.000000 0.000000 0.000000 -0.004497 0.000000 0.031479
#
#
# Mechanical properties :
#
#
# Convention : Reuss Voigt Hill
#
# Bulk Modulus (GPa) = 67.44552 70.78907 69.11730
# Shear Modulus (GPa) = 27.69591 29.57020 28.63305
#
# Velocity S-wave (km/s) = 3.86521 3.99386 3.93006
# Velocity P-wave (km/s) = 7.50344 7.71060 7.60772
#
# Compressibility (1/GPa) = 0.01482678
#
# Stress axis : x y z
#
# Youngs Moduli (GPa) = 65.67122 75.52639 72.21514
#
# Poissons Ratio (x) = 0.40471 0.26812
# Poissons Ratio (y) = 0.35190 0.33746
# Poissons Ratio (z) = 0.24383 0.35293
#
# Static dielectric constant tensor:
#      x y z
#    x 3.452820 0.000000 0.268040 
#    y 0.000000 3.612280 0.000000 
#    z 0.268040 0.000000 3.421180 
# 
# 
# High freq. dielectric constant tensor:
#      x y z
#    x 1.711340 0.000000 0.026480 
#    y 0.000000 1.739180 0.000000 
#    z 0.026480 0.000000 1.715590 
# 
# From -- ./inp_files/38126.got.cif
#   From: 2010.06.25/outbox.cif.g09.slc.cpg/sg11_20_cif.got.tgz:38126.got - 2010.06.27 23:14:04.
