data_PCOD8073169
_publ_section_title
;
Structure prediction by ZEFSAII (Michael W. Deem and Ramdas Pophale) SiO2 
 PCOD8073169
Probable space group: P 21/M
;
_chemical_formula_sum "Si O2"
_cell_formula_units_Z 32
_cell_length_a 11.604444
_cell_length_b 9.046338
_cell_length_c 16.201822
_cell_angle_alpha 90.000000
_cell_angle_beta 92.901265
_cell_angle_gamma 90.000000
_cell_volume 1698.650321
_symmetry_space_group_name_H-M "P 21/M"
_symmetry_group_IT_number 11
_symmetry_cell_setting 'monoclinic'
loop_
_space_group_symop_operation_xyz
x,y,z
-x,1/2+y,-z
-x,-y,-z
x,1/2-y,z
loop_
_atom_site_type_symbol
_atom_site_label
_atom_site_fract_x
_atom_site_fract_y
_atom_site_fract_z
Si Si1 0.002302 0.925840 0.589408
Si Si2 0.808883 0.425035 0.274690
Si Si3 0.575150 0.580258 0.569852
Si Si4 0.847558 0.422006 0.937940
Si Si5 0.932937 0.076072 0.116741
Si Si6 0.447904 0.917471 0.737571
Si Si7 0.217525 0.575498 0.349563
Si Si8 0.347488 0.920330 0.187278
O O1 0.986482 0.750000 0.580280
O O2 0.122553 0.966997 0.639273
O O3 0.000000 0.000000 0.500000
O O4 0.903193 0.992755 0.643700
O O5 0.801822 0.250000 0.267210
O O6 0.872598 0.489831 0.196053
O O7 0.679207 0.491473 0.272042
O O8 0.500000 0.500000 0.500000
O O9 0.599689 0.750000 0.546190
O O10 0.504969 0.569240 0.651138
O O11 0.694872 0.491665 0.579956
O O12 0.873595 0.250000 0.925683
O O13 0.720398 0.462062 0.899152
O O14 0.941044 0.507491 0.887062
O O15 0.854636 0.466341 0.034392
O O16 0.949233 0.250000 0.124937
O O17 0.436387 0.750000 0.767042
O O18 0.530540 0.995823 0.807165
O O19 0.203186 0.750000 0.364669
O O20 0.264074 0.537689 0.260361
O O21 0.379731 0.750000 0.192962
#
# Coordination Sequence:
#
# PCOD8073169 Si02
#       8
#     4   4   4   4   4   4   4   4
#     4  11  23  37  54  77 104 135 173 216 264 319
#     4   9  19  36  55  74 103 139 173 211 258 311
#     4  10  20  33  53  77 100 130 172 220 267 312
#     4   9  17  30  51  79 110 135 167 214 260 302
#     4   9  17  31  53  79 104 138 175 208 252 308
#     4   9  19  35  53  73  98 136 177 213 255 308
#     4  10  20  35  53  73 102 135 171 213 259 310
#     4   9  18  33  52  76 105 137 169 212 263 304
#
# _framework density 18.838486
#
# number of rings (size 3 to 8) (size 9 to 14) (size 15 to 20)
#    0.000    2.500    0.000    1.875    1.750    1.500 
#    0.000    3.125    0.000    0.000    0.000    0.000 
#    0.000    0.000    0.000    0.000    0.000    0.000 
#
# Total GULP energy -396759.907131 kJ/mol
# GULP energy per Si atom -12398.747098 kJ/mol
# Density = 1.879561 g / cm^3
# Si number density = 18.838486 Si / 1000 Ang^3
#
#
#
# Elastic Constant Matrix: (Units=GPa)
#
#
# Indices 1 2 3 4 5 6 
#
# 1 136.6594 42.6620 51.0657 0.0000 20.7439 0.0000
# 2 42.6620 62.8627 32.8901 0.0000 7.3516 0.0000
# 3 51.0657 32.8901 85.7757 0.0000 19.7143 0.0000
# 4 0.0000 0.0000 0.0000 22.8889 0.0000 4.2524
# 5 20.7439 7.3516 19.7143 0.0000 30.1331 0.0000
# 6 0.0000 0.0000 0.0000 4.2524 0.0000 30.9821
#
#
#
# Elastic Compliance Matrix: (Units=1/GPa)
#
#
# Indices 1 2 3 4 5 6 
#
# 1 0.010820 -0.004986 -0.003646 0.000000 -0.003847 0.000000
# 2 -0.004986 0.022198 -0.005988 0.000000 0.001934 0.000000
# 3 -0.003646 -0.005988 0.017904 0.000000 -0.007743 0.000000
# 4 0.000000 0.000000 0.000000 0.044832 0.000000 -0.006153
# 5 -0.003847 0.001934 -0.007743 0.000000 0.040429 0.000000
# 6 0.000000 0.000000 0.000000 -0.006153 0.000000 0.033121
#
#
# Mechanical properties :
#
#
# Convention : Reuss Voigt Hill
#
# Bulk Modulus (GPa) = 46.11753 59.83705 52.97729
# Shear Modulus (GPa) = 24.29876 27.37950 25.83913
#
# Velocity S-wave (km/s) = 3.59534 3.81646 3.70755
# Velocity P-wave (km/s) = 6.46289 7.15909 6.81988
#
# Compressibility (1/GPa) = 0.02168373
#
# Stress axis : x y z
#
# Youngs Moduli (GPa) = 92.42000 45.04898 55.85201
#
# Poissons Ratio (x) = 0.22460 0.20362
# Poissons Ratio (y) = 0.46079 0.33444
# Poissons Ratio (z) = 0.33694 0.26975
#
# Static dielectric constant tensor:
#      x y z
#    x 3.675120 0.000000 0.142760 
#    y 0.000000 3.427880 0.000000 
#    z 0.142760 0.000000 3.468010 
# 
# 
# High freq. dielectric constant tensor:
#      x y z
#    x 1.734700 0.000000 0.017180 
#    y 0.000000 1.719870 0.000000 
#    z 0.017180 0.000000 1.726820 
# 
# From -- ./inp_files/49326.got.cif
#   From: 2010.06.25/outbox.cif.g09.slc.cpg/sg11_25_cif.got.tgz:49326.got - 2010.06.27 23:14:04.
