data_PCOD8073572
_publ_section_title
;
Structure prediction by ZEFSAII (Michael W. Deem and Ramdas Pophale) SiO2 
 PCOD8073572
Probable space group: P 21/M
;
_chemical_formula_sum "Si O2"
_cell_formula_units_Z 28
_cell_length_a 24.636887
_cell_length_b 13.155975
_cell_length_c 5.147646
_cell_angle_alpha 90.000000
_cell_angle_beta 107.958941
_cell_angle_gamma 90.000000
_cell_volume 1587.175199
_symmetry_space_group_name_H-M "P 21/M"
_symmetry_group_IT_number 11
_symmetry_cell_setting 'monoclinic'
loop_
_space_group_symop_operation_xyz
x,y,z
-x,1/2+y,-z
-x,-y,-z
x,1/2-y,z
loop_
_atom_site_type_symbol
_atom_site_label
_atom_site_fract_x
_atom_site_fract_y
_atom_site_fract_z
Si Si1 0.447683 0.750000 0.379429
Si Si2 0.926877 0.990870 0.641777
Si Si3 0.435089 0.039205 0.904177
Si Si4 0.742724 0.366048 0.870479
Si Si5 0.962570 0.873761 0.194701
Si Si6 0.181942 0.866998 0.521918
Si Si7 0.479136 0.250000 0.013391
Si Si8 0.379094 0.950611 0.322747
O O1 0.468096 0.750000 0.111036
O O2 0.407901 0.842897 0.378483
O O3 0.499695 0.750000 0.658344
O O4 0.929899 0.916575 0.398275
O O5 0.868504 0.052345 0.557610
O O6 0.930297 0.916233 0.893946
O O7 0.974103 0.079664 0.710850
O O8 0.398574 0.008948 0.604644
O O9 0.436907 0.158911 0.899720
O O10 0.400648 0.008228 0.104371
O O11 0.500000 0.000000 0.000000
O O12 0.720986 0.250000 0.850828
O O13 0.780675 0.385157 0.675913
O O14 0.688939 0.440958 0.783278
O O15 0.779768 0.392893 0.174890
O O16 0.964609 0.750000 0.198073
O O17 0.159372 0.750000 0.500178
#
# Coordination Sequence:
#
# PCOD8073572 Si02
#       8
#     2   4   4   4   4   4   2   4
#     4  12  20  34  58  78 116 134 168 220 257 324
#     4  10  20  34  55  83 116 149 182 223 276 322
#     4  12  23  37  55  82 109 140 175 210 272 325
#     4  10  21  35  55  83 110 140 178 220 272 326
#     4  10  20  34  54  84 116 149 187 223 267 324
#     4  10  20  35  55  83 114 142 177 223 274 323
#     4  12  24  36  54  82 108 140 174 214 253 336
#     4  12  22  37  56  83 109 140 173 218 272 321
#
# _framework density 17.641403
#
# number of rings (size 3 to 8) (size 9 to 14) (size 15 to 20)
#    0.000    1.143    3.571    3.857    0.000    0.000 
#    0.000    4.286    0.000    0.000   37.143    0.000 
#    0.000    0.000    0.000    0.000    0.000    0.000 
#
# Total GULP energy -347183.194142 kJ/mol
# GULP energy per Si atom -12399.399791 kJ/mol
# Density = 1.760125 g / cm^3
# Si number density = 17.641403 Si / 1000 Ang^3
#
#
#
# Elastic Constant Matrix: (Units=GPa)
#
#
# Indices 1 2 3 4 5 6 
#
# 1 100.1924 60.1753 71.1826 0.0000 10.0062 0.0000
# 2 60.1753 147.8770 60.7845 0.0000 4.8330 0.0000
# 3 71.1826 60.7845 150.1126 0.0000 -16.3275 0.0000
# 4 0.0000 0.0000 0.0000 33.3755 0.0000 0.1958
# 5 10.0062 4.8330 -16.3275 0.0000 25.0785 0.0000
# 6 0.0000 0.0000 0.0000 0.1958 0.0000 38.6345
#
#
#
# Elastic Compliance Matrix: (Units=1/GPa)
#
#
# Indices 1 2 3 4 5 6 
#
# 1 0.020591 -0.003962 -0.009654 0.000000 -0.013738 0.000000
# 2 -0.003962 0.009263 -0.002039 0.000000 -0.001532 0.000000
# 3 -0.009654 -0.002039 0.013481 0.000000 0.013022 0.000000
# 4 0.000000 0.000000 0.000000 0.029963 0.000000 -0.000152
# 5 -0.013738 -0.001532 0.013022 0.000000 0.054129 0.000000
# 6 0.000000 0.000000 0.000000 -0.000152 0.000000 0.025884
#
#
# Mechanical properties :
#
#
# Convention : Reuss Voigt Hill
#
# Bulk Modulus (GPa) = 83.15276 86.94075 85.04676
# Shear Modulus (GPa) = 26.50698 33.15368 29.83033
#
# Velocity S-wave (km/s) = 3.88047 4.33980 4.11655
# Velocity P-wave (km/s) = 8.20456 8.63140 8.42068
#
# Compressibility (1/GPa) = 0.01202606
#
# Stress axis : x y z
#
# Youngs Moduli (GPa) = 48.56459 107.96171 74.17577
#
# Poissons Ratio (x) = 0.42772 0.71611
# Poissons Ratio (y) = 0.19240 0.15121
# Poissons Ratio (z) = 0.46885 0.22009
#
# Static dielectric constant tensor:
#      x y z
#    x 3.185610 0.000000 -0.131500 
#    y 0.000000 3.436400 0.000000 
#    z -0.131500 0.000000 3.477230 
# 
# 
# High freq. dielectric constant tensor:
#      x y z
#    x 1.674830 0.000000 -0.013310 
#    y 0.000000 1.680530 0.000000 
#    z -0.013310 0.000000 1.703650 
# 
# From -- ./inp_files/8860.got.cif
#   From: 2010.06.25/outbox.cif.g09.slc.cpg/sg11_5_cif.got.tgz:8860.got - 2010.06.27 23:14:04.
