data_PCOD8073853
_publ_section_title
;
Structure prediction by ZEFSAII (Michael W. Deem and Ramdas Pophale) SiO2 
 PCOD8073853
Probable space group: P 21/M
;
_chemical_formula_sum "Si O2"
_cell_formula_units_Z 32
_cell_length_a 26.222114
_cell_length_b 8.762332
_cell_length_c 20.547451
_cell_angle_alpha 90.000000
_cell_angle_beta 159.946538
_cell_angle_gamma 90.000000
_cell_volume 1618.858180
_symmetry_space_group_name_H-M "P 21/M"
_symmetry_group_IT_number 11
_symmetry_cell_setting 'monoclinic'
loop_
_space_group_symop_operation_xyz
x,y,z
-x,1/2+y,-z
-x,-y,-z
x,1/2-y,z
loop_
_atom_site_type_symbol
_atom_site_label
_atom_site_fract_x
_atom_site_fract_y
_atom_site_fract_z
Si Si1 0.011855 0.568922 0.810962
Si Si2 0.861672 0.926347 0.395732
Si Si3 0.826465 0.574292 0.214083
Si Si4 0.628795 0.077389 0.193242
Si Si5 0.409433 0.429850 0.586533
Si Si6 0.084029 0.071599 0.160628
Si Si7 0.280897 0.067860 0.052106
Si Si8 0.705741 0.423338 0.426786
O O1 0.009525 0.750000 0.797141
O O2 0.000497 0.526428 0.873973
O O3 0.867131 0.494595 0.603931
O O4 0.161463 0.499788 0.959531
O O5 0.909435 0.750000 0.454931
O O6 0.763334 0.961169 0.211372
O O7 0.769542 0.971492 0.348084
O O8 0.003693 0.031357 0.572750
O O9 0.814004 0.750000 0.182671
O O10 0.750600 0.499108 0.059015
O O11 0.652180 0.250000 0.196136
O O12 0.603977 0.076333 0.240611
O O13 0.500000 0.000000 0.000000
O O14 0.433632 0.250000 0.610249
O O15 0.256941 0.482689 0.367809
O O16 0.389176 0.476328 0.637212
O O17 0.553695 0.513114 0.729022
O O18 0.080485 0.250000 0.147249
O O19 0.000000 0.000000 0.000000
O O20 0.273778 0.250000 0.047589
O O21 0.725560 0.250000 0.476414
#
# Coordination Sequence:
#
# PCOD8073853 Si02
#       8
#     4   4   4   4   4   4   4   4
#     4  10  21  38  60  89 120 151 190 235 281 335
#     4  10  20  35  53  74 101 137 184 234 288 344
#     4   9  20  36  53  74 105 141 181 232 282 336
#     4  11  24  37  51  73 104 140 185 238 289 339
#     4  10  22  39  59  88 121 152 190 237 287 341
#     4   9  20  39  64  91 120 152 188 230 275 333
#     4  11  22  36  57  85 117 153 194 239 287 338
#     4  10  21  38  58  80 110 149 194 243 290 346
#
# _framework density 19.767018
#
# number of rings (size 3 to 8) (size 9 to 14) (size 15 to 20)
#    0.000    2.000    0.000    3.750    1.750    9.500 
#    0.000    0.625    0.000    0.000    0.000    0.000 
#    0.000    0.000    0.000    0.000    0.000    0.000 
#
# Total GULP energy -396520.032986 kJ/mol
# GULP energy per Si atom -12391.251031 kJ/mol
# Density = 1.972203 g / cm^3
# Si number density = 19.767018 Si / 1000 Ang^3
#
#
#
# Elastic Constant Matrix: (Units=GPa)
#
#
# Indices 1 2 3 4 5 6 
#
# 1 70.1927 25.6567 51.5195 0.0000 -3.6634 0.0000
# 2 25.6567 24.7851 28.2866 0.0000 -4.5161 0.0000
# 3 51.5195 28.2866 110.5522 0.0000 -2.9328 0.0000
# 4 0.0000 0.0000 0.0000 33.7223 0.0000 2.0868
# 5 -3.6634 -4.5161 -2.9328 0.0000 37.2184 0.0000
# 6 0.0000 0.0000 0.0000 2.0868 0.0000 33.1446
#
#
#
# Elastic Compliance Matrix: (Units=1/GPa)
#
#
# Indices 1 2 3 4 5 6 
#
# 1 0.026801 -0.019113 -0.007607 0.000000 -0.000281 0.000000
# 2 -0.019113 0.071886 -0.009324 0.000000 0.006107 0.000000
# 3 -0.007607 -0.009324 0.014958 0.000000 -0.000701 0.000000
# 4 0.000000 0.000000 0.000000 0.029770 0.000000 -0.001874
# 5 -0.000281 0.006107 -0.000701 0.000000 0.027527 0.000000
# 6 0.000000 0.000000 0.000000 -0.001874 0.000000 0.030289
#
#
# Mechanical properties :
#
#
# Convention : Reuss Voigt Hill
#
# Bulk Modulus (GPa) = 24.06365 46.27283 35.16824
# Shear Modulus (GPa) = 17.41118 27.48821 22.44970
#
# Velocity S-wave (km/s) = 2.97108 3.73313 3.37369
# Velocity P-wave (km/s) = 4.89590 6.48395 5.74506
#
# Compressibility (1/GPa) = 0.04155645
#
# Stress axis : x y z
#
# Youngs Moduli (GPa) = 37.31136 13.91085 66.85576
#
# Poissons Ratio (x) = 0.26589 0.50857
# Poissons Ratio (y) = 0.71315 0.62336
# Poissons Ratio (z) = 0.28383 0.12970
#
# Static dielectric constant tensor:
#      x y z
#    x 4.154030 0.000000 0.169570 
#    y 0.000000 3.663790 0.000000 
#    z 0.169570 0.000000 3.323450 
# 
# 
# High freq. dielectric constant tensor:
#      x y z
#    x 1.764180 0.000000 0.005080 
#    y 0.000000 1.776240 0.000000 
#    z 0.005080 0.000000 1.764500 
# 
# From -- ./inp_files/67231.got.cif
#   From: 2010.06.25/outbox.cif.g09.slc.cpg/sg11_34_cif.got.tgz:67231.got - 2010.06.27 23:14:04.
