data_PCOD8073256
_publ_section_title
;
Structure prediction by ZEFSAII (Michael W. Deem and Ramdas Pophale) SiO2 
 PCOD8073256
Probable space group: P 21/M
;
_chemical_formula_sum "Si O2"
_cell_formula_units_Z 32
_cell_length_a 10.537072
_cell_length_b 25.105310
_cell_length_c 11.392648
_cell_angle_alpha 90.000000
_cell_angle_beta 148.371731
_cell_angle_gamma 90.000000
_cell_volume 1580.439691
_symmetry_space_group_name_H-M "P 21/M"
_symmetry_group_IT_number 11
_symmetry_cell_setting 'monoclinic'
loop_
_space_group_symop_operation_xyz
x,y,z
-x,1/2+y,-z
-x,-y,-z
x,1/2-y,z
loop_
_atom_site_type_symbol
_atom_site_label
_atom_site_fract_x
_atom_site_fract_y
_atom_site_fract_z
Si Si1 0.566673 0.008749 0.419914
Si Si2 0.436461 0.808488 0.267891
Si Si3 0.958985 0.637651 0.921571
Si Si4 0.350744 0.451685 0.030746
Si Si5 0.097359 0.603188 0.276022
Si Si6 0.836365 0.462089 0.291531
Si Si7 0.527443 0.191149 0.426420
Si Si8 0.211482 0.098608 0.454965
O O1 0.625737 0.953682 0.401632
O O2 0.500000 0.000000 0.500000
O O3 0.356707 0.035494 0.175674
O O4 0.797161 0.046982 0.600708
O O5 0.489106 0.750000 0.254477
O O6 0.454600 0.805245 0.420941
O O7 0.637093 0.850402 0.379534
O O8 0.160910 0.824712 0.018969
O O9 0.742503 0.670252 0.815257
O O10 0.853409 0.601347 0.734574
O O11 0.090413 0.604508 0.128061
O O12 0.617082 0.436845 0.193897
O O13 0.260735 0.504278 0.894052
O O14 0.172343 0.400135 0.878937
O O15 0.260270 0.651946 0.454213
O O16 0.000000 0.500000 0.500000
O O17 0.979379 0.410308 0.355230
O O18 0.563077 0.250000 0.398424
#
# Coordination Sequence:
#
# PCOD8073256 Si02
#       8
#     4   4   4   4   4   4   4   4
#     4  12  23  35  55  87 126 155 187 239 295 360
#     4   9  19  34  54  82 116 150 193 242 291 352
#     4  10  20  33  56  86 116 157 189 236 299 353
#     4  11  23  38  59  80 116 158 198 239 292 341
#     4  11  21  35  53  84 120 151 193 241 295 347
#     4  11  23  41  59  81 113 156 207 247 279 344
#     4   9  18  34  53  79 115 154 195 239 292 352
#     4  11  22  35  57  84 117 153 197 238 295 345
#
# _framework density 20.247529
#
# number of rings (size 3 to 8) (size 9 to 14) (size 15 to 20)
#    0.000    1.500    2.500    4.125    3.500    2.000 
#    0.000    0.000    0.000    0.750    0.000    6.125 
#    0.000    0.000    0.000    0.000    0.000    0.000 
#
# Total GULP energy -396615.177565 kJ/mol
# GULP energy per Si atom -12394.224299 kJ/mol
# Density = 2.020144 g / cm^3
# Si number density = 20.247529 Si / 1000 Ang^3
#
#
#
# Elastic Constant Matrix: (Units=GPa)
#
#
# Indices 1 2 3 4 5 6 
#
# 1 96.7454 46.4862 35.4354 0.0000 27.5234 0.0000
# 2 46.4862 131.4289 38.4695 0.0000 31.1125 0.0000
# 3 35.4354 38.4695 96.4746 0.0000 18.2920 0.0000
# 4 0.0000 0.0000 0.0000 21.1755 0.0000 14.5926
# 5 27.5234 31.1125 18.2920 0.0000 39.1043 0.0000
# 6 0.0000 0.0000 0.0000 14.5926 0.0000 20.9822
#
#
#
# Elastic Compliance Matrix: (Units=1/GPa)
#
#
# Indices 1 2 3 4 5 6 
#
# 1 0.014666 -0.002701 -0.003029 0.000000 -0.006757 0.000000
# 2 -0.002701 0.010481 -0.002158 0.000000 -0.005428 0.000000
# 3 -0.003029 -0.002158 0.012738 0.000000 -0.002110 0.000000
# 4 0.000000 0.000000 0.000000 0.090690 0.000000 -0.063073
# 5 -0.006757 -0.005428 -0.002110 0.000000 0.035634 0.000000
# 6 0.000000 0.000000 0.000000 -0.063073 0.000000 0.091525
#
#
# Mechanical properties :
#
#
# Convention : Reuss Voigt Hill
#
# Bulk Modulus (GPa) = 45.22960 62.82568 54.02764
# Shear Modulus (GPa) = 17.92891 29.86957 23.89924
#
# Velocity S-wave (km/s) = 2.97894 3.84503 3.43935
# Velocity P-wave (km/s) = 5.84970 7.12801 6.52025
#
# Compressibility (1/GPa) = 0.02210941
#
# Stress axis : x y z
#
# Youngs Moduli (GPa) = 68.18531 95.41359 78.50303
#
# Poissons Ratio (x) = 0.25775 0.23775
# Poissons Ratio (y) = 0.18420 0.16939
# Poissons Ratio (z) = 0.20650 0.20588
#
# Static dielectric constant tensor:
#      x y z
#    x 3.594650 0.000000 0.272190 
#    y 0.000000 3.921380 0.000000 
#    z 0.272190 0.000000 3.999070 
# 
# 
# High freq. dielectric constant tensor:
#      x y z
#    x 1.755510 0.000000 0.020700 
#    y 0.000000 1.771770 0.000000 
#    z 0.020700 0.000000 1.807280 
# 
# From -- ./inp_files/36590.got.cif
#   From: 2010.06.25/outbox.cif.g09.slc.cpg/sg11_19_cif.got.tgz:36590.got - 2010.06.27 23:14:04.
