data_PCOD8073316
_publ_section_title
;
Structure prediction by ZEFSAII (Michael W. Deem and Ramdas Pophale) SiO2 
 PCOD8073316
Probable space group: P 21/M
;
_chemical_formula_sum "Si O2"
_cell_formula_units_Z 24
_cell_length_a 15.233068
_cell_length_b 19.370268
_cell_length_c 9.841306
_cell_angle_alpha 90.000000
_cell_angle_beta 154.090484
_cell_angle_gamma 90.000000
_cell_volume 1268.845280
_symmetry_space_group_name_H-M "P 21/M"
_symmetry_group_IT_number 11
_symmetry_cell_setting 'monoclinic'
loop_
_space_group_symop_operation_xyz
x,y,z
-x,1/2+y,-z
-x,-y,-z
x,1/2-y,z
loop_
_atom_site_type_symbol
_atom_site_label
_atom_site_fract_x
_atom_site_fract_y
_atom_site_fract_z
Si Si1 0.085106 0.826933 0.967391
Si Si2 0.971895 0.953873 0.655848
Si Si3 0.718879 0.550877 0.029860
Si Si4 0.463424 0.171826 0.377958
Si Si5 0.408469 0.467979 0.736576
Si Si6 0.658097 0.671424 0.484741
O O1 0.083837 0.750000 0.902642
O O2 0.303265 0.840464 0.338231
O O3 0.062512 0.878774 0.810237
O O4 0.902344 0.835097 0.820878
O O5 0.839610 0.944869 0.337373
O O6 0.831384 0.979285 0.585574
O O7 0.147640 0.009354 0.891862
O O8 0.675887 0.626306 0.913171
O O9 0.507719 0.509869 0.751122
O O10 0.398418 0.250000 0.258479
O O11 0.420812 0.153210 0.475434
O O12 0.441530 0.384830 0.758073
O O13 0.500000 0.500000 0.000000
O O14 0.594242 0.750000 0.354177
#
# Coordination Sequence:
#
# PCOD8073316 Si02
#       6
#     4   4   4   4   4   4
#     4   9  18  33  52  73  97 129 170 208 244 297
#     4   9  19  34  52  73  99 133 168 206 252 301
#     4  10  20  34  51  74 105 132 164 212 257 300
#     4  10  21  35  52  76 104 134 169 210 257 307
#     4   9  18  33  52  75 102 132 170 212 251 296
#     4   9  18  33  52  74 103 137 171 208 253 306
#
# _framework density 18.914835
#
# number of rings (size 3 to 8) (size 9 to 14) (size 15 to 20)
#    0.000    2.667    0.000    1.000    0.000    4.667 
#    0.000    5.833    0.000    6.000    0.000    9.333 
#    0.000    0.000    0.000    0.000    0.000    0.000 
#
# Total GULP energy -297337.558296 kJ/mol
# GULP energy per Si atom -12389.064929 kJ/mol
# Density = 1.887178 g / cm^3
# Si number density = 18.914835 Si / 1000 Ang^3
#
#
#
# Elastic Constant Matrix: (Units=GPa)
#
#
# Indices 1 2 3 4 5 6 
#
# 1 63.7514 48.2364 37.7059 0.0000 22.4460 0.0000
# 2 48.2364 134.3384 60.4507 0.0000 5.6347 0.0000
# 3 37.7059 60.4507 70.4242 0.0000 17.2602 0.0000
# 4 0.0000 0.0000 0.0000 37.7311 0.0000 -5.2170
# 5 22.4460 5.6347 17.2602 0.0000 21.7547 0.0000
# 6 0.0000 0.0000 0.0000 -5.2170 0.0000 32.1423
#
#
#
# Elastic Compliance Matrix: (Units=1/GPa)
#
#
# Indices 1 2 3 4 5 6 
#
# 1 0.037141 -0.010901 -0.002269 0.000000 -0.033697 0.000000
# 2 -0.010901 0.016080 -0.012044 0.000000 0.016639 0.000000
# 3 -0.002269 -0.012044 0.030308 0.000000 -0.018586 0.000000
# 4 0.000000 0.000000 0.000000 0.027112 0.000000 0.004401
# 5 -0.033697 0.016639 -0.018586 0.000000 0.091171 0.000000
# 6 0.000000 0.000000 0.000000 0.004401 0.000000 0.031826
#
#
# Mechanical properties :
#
#
# Convention : Reuss Voigt Hill
#
# Bulk Modulus (GPa) = 30.21189 62.36666 46.28928
# Shear Modulus (GPa) = 16.94343 26.46702 21.70522
#
# Velocity S-wave (km/s) = 2.99620 3.74474 3.39119
# Velocity P-wave (km/s) = 5.28932 7.19315 6.31341
#
# Compressibility (1/GPa) = 0.03309955
#
# Stress axis : x y z
#
# Youngs Moduli (GPa) = 26.92466 62.18914 32.99458
#
# Poissons Ratio (x) = 0.67795 0.07487
# Poissons Ratio (y) = 0.29352 0.39738
# Poissons Ratio (z) = 0.06110 0.74900
#
# Static dielectric constant tensor:
#      x y z
#    x 3.624200 0.000000 0.603100 
#    y 0.000000 3.668530 0.000000 
#    z 0.603100 0.000000 3.427920 
# 
# 
# High freq. dielectric constant tensor:
#      x y z
#    x 1.729220 0.000000 0.039470 
#    y 0.000000 1.745480 0.000000 
#    z 0.039470 0.000000 1.715660 
# 
# From -- ./inp_files/13259.got.cif
#   From: 2010.06.25/outbox.cif.g09.slc.cpg/sg11_7_cif.got.tgz:13259.got - 2010.06.27 23:14:04.
