data_PCOD8073521
_publ_section_title
;
Structure prediction by ZEFSAII (Michael W. Deem and Ramdas Pophale) SiO2 
 PCOD8073521
Probable space group: P 21/M
;
_chemical_formula_sum "Si O2"
_cell_formula_units_Z 32
_cell_length_a 15.415093
_cell_length_b 8.916991
_cell_length_c 24.771625
_cell_angle_alpha 90.000000
_cell_angle_beta 30.766344
_cell_angle_gamma 90.000000
_cell_volume 1741.795080
_symmetry_space_group_name_H-M "P 21/M"
_symmetry_group_IT_number 11
_symmetry_cell_setting 'monoclinic'
loop_
_space_group_symop_operation_xyz
x,y,z
-x,1/2+y,-z
-x,-y,-z
x,1/2-y,z
loop_
_atom_site_type_symbol
_atom_site_label
_atom_site_fract_x
_atom_site_fract_y
_atom_site_fract_z
Si Si1 0.778448 0.576324 0.580948
Si Si2 0.708820 0.575992 0.941452
Si Si3 0.549571 0.423706 0.309334
Si Si4 0.845408 0.075438 0.653403
Si Si5 0.377026 0.574351 0.608229
Si Si6 0.115987 0.075126 0.893879
Si Si7 0.363178 0.075832 0.143491
Si Si8 0.963376 0.926056 0.185487
O O1 0.769406 0.750000 0.602899
O O2 0.632052 0.531601 0.617487
O O3 0.753921 0.477417 0.647544
O O4 0.955020 0.540223 0.457117
O O5 0.729217 0.750000 0.945170
O O6 0.709657 0.547984 0.877102
O O7 0.860603 0.482760 0.885469
O O8 0.535456 0.516366 0.060443
O O9 0.591258 0.250000 0.278023
O O10 0.547869 0.464592 0.373258
O O11 0.692676 0.516828 0.201637
O O12 0.808270 0.250000 0.682416
O O13 0.777411 0.982026 0.740100
O O14 0.500000 0.500000 0.500000
O O15 0.367136 0.750000 0.602636
O O16 0.189508 0.506887 0.701422
O O17 0.115344 0.250000 0.904639
O O18 0.043811 0.032520 0.873759
O O19 0.000000 0.000000 0.000000
O O20 0.401947 0.250000 0.132901
O O21 0.945861 0.750000 0.204687
#
# Coordination Sequence:
#
# PCOD8073521 Si02
#       8
#     4   4   4   4   4   4   4   4
#     4   9  19  36  55  76 105 140 177 218 264 312
#     4  10  21  37  57  81 107 138 178 221 264 312
#     4   9  19  36  56  77 104 139 177 218 264 313
#     4  10  20  34  54  80 108 140 177 217 262 313
#     4  10  20  35  55  80 109 141 179 222 268 318
#     4  10  21  36  55  79 106 138 175 216 263 314
#     4  10  21  37  56  79 108 141 176 217 265 315
#     4  10  21  37  56  79 108 142 178 218 266 317
#
# _framework density 18.371850999999999
#
# number of rings (size 3 to 8) (size 9 to 14) (size 15 to 20)
#    0.000    2.250    0.000    2.250    0.000    6.500 
#    0.000    2.500    0.000    0.000    0.000    0.000 
#    0.000    0.000    0.000    0.000    0.000    0.000 
#
# Total GULP energy -396950.673895 kJ/mol
# GULP energy per Si atom -12404.708559 kJ/mol
# Density = 1.833004 g / cm^3
# Si number density = 18.371851 Si / 1000 Ang^3
#
#
#
# Elastic Constant Matrix: (Units=GPa)
#
#
# Indices 1 2 3 4 5 6 
#
# 1 86.7599 38.3583 57.6323 0.0000 -15.9660 0.0000
# 2 38.3583 75.3234 54.4635 0.0000 4.7058 0.0000
# 3 57.6323 54.4635 130.8775 0.0000 7.6155 0.0000
# 4 0.0000 0.0000 0.0000 40.4375 0.0000 0.0992
# 5 -15.9660 4.7058 7.6155 0.0000 29.2751 0.0000
# 6 0.0000 0.0000 0.0000 0.0992 0.0000 31.6761
#
#
#
# Elastic Compliance Matrix: (Units=1/GPa)
#
#
# Indices 1 2 3 4 5 6 
#
# 1 0.022767 -0.006671 -0.008158 0.000000 0.015611 0.000000
# 2 -0.006671 0.020974 -0.005466 0.000000 -0.005588 0.000000
# 3 -0.008158 -0.005466 0.013926 0.000000 -0.007193 0.000000
# 4 0.000000 0.000000 0.000000 0.024730 0.000000 -0.000077
# 5 0.015611 -0.005588 -0.007193 0.000000 0.045442 0.000000
# 6 0.000000 0.000000 0.000000 -0.000077 0.000000 0.031570
#
#
# Mechanical properties :
#
#
# Convention : Reuss Voigt Hill
#
# Bulk Modulus (GPa) = 58.55176 65.98545 62.26861
# Shear Modulus (GPa) = 24.30822 29.77817 27.04319
#
# Velocity S-wave (km/s) = 3.64142 4.03036 3.84082
# Velocity P-wave (km/s) = 7.04411 7.59295 7.32368
#
# Compressibility (1/GPa) = 0.01707890
#
# Stress axis : x y z
#
# Youngs Moduli (GPa) = 43.92231 47.67751 71.80691
#
# Poissons Ratio (x) = 0.31805 0.58581
# Poissons Ratio (y) = 0.29300 0.39247
# Poissons Ratio (z) = 0.35832 0.26059
#
# Static dielectric constant tensor:
#      x y z
#    x 3.385770 0.000000 -0.052170 
#    y 0.000000 3.588590 0.000000 
#    z -0.052170 0.000000 3.444500 
# 
# 
# High freq. dielectric constant tensor:
#      x y z
#    x 1.709180 0.000000 -0.002740 
#    y 0.000000 1.725450 0.000000 
#    z -0.002740 0.000000 1.718110 
# 
# From -- ./inp_files/69022.got.cif
#   From: 2010.06.25/outbox.cif.g09.slc.cpg/sg11_35_cif.got.tgz:69022.got - 2010.06.27 23:14:04.
