data_PCOD8073587
_publ_section_title
;
Structure prediction by ZEFSAII (Michael W. Deem and Ramdas Pophale) SiO2 
 PCOD8073587
Probable space group: P 21/M
;
_chemical_formula_sum "Si O2"
_cell_formula_units_Z 28
_cell_length_a 15.752685
_cell_length_b 9.126954
_cell_length_c 20.763485
_cell_angle_alpha 90.000000
_cell_angle_beta 28.708902
_cell_angle_gamma 90.000000
_cell_volume 1433.993986
_symmetry_space_group_name_H-M "P 21/M"
_symmetry_group_IT_number 11
_symmetry_cell_setting 'monoclinic'
loop_
_space_group_symop_operation_xyz
x,y,z
-x,1/2+y,-z
-x,-y,-z
x,1/2-y,z
loop_
_atom_site_type_symbol
_atom_site_label
_atom_site_fract_x
_atom_site_fract_y
_atom_site_fract_z
Si Si1 0.981696 0.420967 0.609213
Si Si2 0.264532 0.578433 0.344396
Si Si3 0.232885 0.919110 0.645909
Si Si4 0.903958 0.423237 0.805141
Si Si5 0.160316 0.083041 0.925767
Si Si6 0.335595 0.424110 0.939364
Si Si7 0.392246 0.084897 0.654092
O O1 0.023293 0.250000 0.580469
O O2 0.164726 0.501555 0.470175
O O3 0.829605 0.464355 0.659930
O O4 0.912966 0.471234 0.724710
O O5 0.256744 0.750000 0.362946
O O6 0.465474 0.522640 0.206884
O O7 0.171835 0.750000 0.688637
O O8 0.398588 0.944368 0.488276
O O9 0.285193 0.968377 0.682855
O O10 0.076814 0.020436 0.725926
O O11 0.889450 0.250000 0.822890
O O12 0.731827 0.497958 0.951042
O O13 0.100096 0.250000 0.970882
O O14 0.210129 0.024682 0.963589
O O15 0.335416 0.065757 0.765739
O O16 0.000000 0.000000 0.000000
O O17 0.330039 0.250000 0.952558
O O18 0.351363 0.250000 0.656308
#
# Coordination Sequence:
#
# PCOD8073587 Si02
#       7
#     4   4   4   4   4   4   4
#     4   9  20  38  59  86 117 149 184 229 284 341
#     4   9  19  38  63  87 113 145 186 235 284 337
#     4  10  20  34  55  80 108 141 188 236 279 334
#     4  11  23  37  54  80 117 153 185 229 281 335
#     4  10  21  36  53  76 107 144 184 228 276 329
#     4  10  22  38  58  84 113 146 192 238 279 333
#     4   9  19  35  54  76 106 143 183 232 288 335
#
# _framework density 19.525884999999999
#
# number of rings (size 3 to 8) (size 9 to 14) (size 15 to 20)
#    0.000    2.286    0.000    1.714    2.000    6.286 
#    0.000    0.000    0.000    0.000    0.000    0.000 
#    0.000    0.000    0.000    0.000    0.000    0.000 
#
# Total GULP energy -347259.243169 kJ/mol
# GULP energy per Si atom -12402.115827 kJ/mol
# Density = 1.948144 g / cm^3
# Si number density = 19.525885 Si / 1000 Ang^3
#
#
#
# Elastic Constant Matrix: (Units=GPa)
#
#
# Indices 1 2 3 4 5 6 
#
# 1 81.9904 36.8004 69.3720 0.0000 11.0369 0.0000
# 2 36.8004 53.4185 54.0797 0.0000 5.9400 0.0000
# 3 69.3720 54.0797 140.5745 0.0000 7.7781 0.0000
# 4 0.0000 0.0000 0.0000 34.2516 0.0000 2.8948
# 5 11.0369 5.9400 7.7781 0.0000 35.5776 0.0000
# 6 0.0000 0.0000 0.0000 2.8948 0.0000 25.2164
#
#
#
# Elastic Compliance Matrix: (Units=1/GPa)
#
#
# Indices 1 2 3 4 5 6 
#
# 1 0.022995 -0.006756 -0.008519 0.000000 -0.004143 0.000000
# 2 -0.006756 0.032881 -0.009240 0.000000 -0.001374 0.000000
# 3 -0.008519 -0.009240 0.014820 0.000000 0.000946 0.000000
# 4 0.000000 0.000000 0.000000 0.029482 0.000000 -0.003384
# 5 -0.004143 -0.001374 0.000946 0.000000 0.029416 0.000000
# 6 0.000000 0.000000 0.000000 -0.003384 0.000000 0.040045
#
#
# Mechanical properties :
#
#
# Convention : Reuss Voigt Hill
#
# Bulk Modulus (GPa) = 46.15452 66.27640 56.21546
# Shear Modulus (GPa) = 22.13469 26.72455 24.42962
#
# Velocity S-wave (km/s) = 3.37056 3.70357 3.54098
# Velocity P-wave (km/s) = 6.23189 7.23223 6.75062
#
# Compressibility (1/GPa) = 0.02166635
#
# Stress axis : x y z
#
# Youngs Moduli (GPa) = 43.48820 30.41281 67.47573
#
# Poissons Ratio (x) = 0.20546 0.57486
# Poissons Ratio (y) = 0.29379 0.62345
# Poissons Ratio (z) = 0.37050 0.28100
#
# Static dielectric constant tensor:
#      x y z
#    x 3.549020 0.000000 0.138680 
#    y 0.000000 3.505610 0.000000 
#    z 0.138680 0.000000 3.787150 
# 
# 
# High freq. dielectric constant tensor:
#      x y z
#    x 1.752690 0.000000 0.007140 
#    y 0.000000 1.753760 0.000000 
#    z 0.007140 0.000000 1.774170 
# 
# From -- ./inp_files/65340.got.cif
#   From: 2010.06.25/outbox.cif.g09.slc.cpg/sg11_33_cif.got.tgz:65340.got - 2010.06.27 23:14:04.
