data_PCOD8073315
_publ_section_title
;
Structure prediction by ZEFSAII (Michael W. Deem and Ramdas Pophale) SiO2 
 PCOD8073315
Probable space group: P 21/M
;
_chemical_formula_sum "Si O2"
_cell_formula_units_Z 28
_cell_length_a 13.973933
_cell_length_b 9.312401
_cell_length_c 10.114766
_cell_angle_alpha 90.000000
_cell_angle_beta 106.870855
_cell_angle_gamma 90.000000
_cell_volume 1259.593920
_symmetry_space_group_name_H-M "P 21/M"
_symmetry_group_IT_number 11
_symmetry_cell_setting 'monoclinic'
loop_
_space_group_symop_operation_xyz
x,y,z
-x,1/2+y,-z
-x,-y,-z
x,1/2-y,z
loop_
_atom_site_type_symbol
_atom_site_label
_atom_site_fract_x
_atom_site_fract_y
_atom_site_fract_z
Si Si1 0.274264 0.087382 0.728138
Si Si2 0.672741 0.909253 0.964652
Si Si3 0.763344 0.583147 0.730983
Si Si4 0.081199 0.920143 0.622567
Si Si5 0.014882 0.416037 0.142119
Si Si6 0.411542 0.908372 0.408422
Si Si7 0.502451 0.909407 0.164132
O O1 0.260745 0.250000 0.666605
O O2 0.388152 0.030118 0.748087
O O3 0.190962 0.983651 0.630474
O O4 0.257245 0.086075 0.879158
O O5 0.638754 0.750000 0.912783
O O6 0.739153 0.967883 0.871046
O O7 0.567408 0.990673 0.958338
O O8 0.740715 0.750000 0.695921
O O9 0.877999 0.545118 0.750555
O O10 0.693136 0.490441 0.604780
O O11 0.077921 0.750000 0.591864
O O12 0.062530 0.951545 0.771304
O O13 0.000000 0.000000 0.500000
O O14 0.010940 0.250000 0.100064
O O15 0.000000 0.500000 0.000000
O O16 0.407379 0.750000 0.471612
O O17 0.430204 0.896888 0.260533
O O18 0.500000 0.000000 0.500000
O O19 0.519700 0.750000 0.108336
#
# Coordination Sequence:
#
# PCOD8073315 Si02
#       7
#     4   4   4   4   4   4   4
#     4  10  20  36  57  80 109 148 187 228 281 339
#     4   9  17  30  53  83 112 141 175 218 275 338
#     4   9  18  34  54  78 108 141 177 224 279 336
#     4  11  25  43  61  85 117 156 200 247 296 348
#     4  10  22  40  64  91 118 151 195 244 297 352
#     4  10  20  34  51  74 104 139 178 222 271 329
#     4   9  19  33  51  77 109 142 177 219 272 332
#
# _framework density 22.229386000000002
#
# number of rings (size 3 to 8) (size 9 to 14) (size 15 to 20)
#    0.000    2.286    0.000    2.143    0.000    5.714 
#    0.000    8.571    0.000    0.000    0.000    0.000 
#    0.000    0.000    0.000    0.000    0.000    0.000 
#
# Total GULP energy -347004.377874 kJ/mol
# GULP energy per Si atom -12393.013495 kJ/mol
# Density = 2.217879 g / cm^3
# Si number density = 22.229386 Si / 1000 Ang^3
#
#
#
# Elastic Constant Matrix: (Units=GPa)
#
#
# Indices 1 2 3 4 5 6 
#
# 1 89.3706 41.8772 7.9585 0.0000 29.2032 0.0000
# 2 41.8772 117.9210 43.8648 0.0000 34.2781 0.0000
# 3 7.9585 43.8648 60.1801 0.0000 30.0000 0.0000
# 4 0.0000 0.0000 0.0000 35.0168 0.0000 10.9596
# 5 29.2032 34.2781 30.0000 0.0000 38.0240 0.0000
# 6 0.0000 0.0000 0.0000 10.9596 0.0000 32.6270
#
#
#
# Elastic Compliance Matrix: (Units=1/GPa)
#
#
# Indices 1 2 3 4 5 6 
#
# 1 0.018407 -0.005224 0.010011 0.000000 -0.017326 0.000000
# 2 -0.005224 0.014098 -0.008653 0.000000 -0.001870 0.000000
# 3 0.010011 -0.008653 0.035511 0.000000 -0.027905 0.000000
# 4 0.000000 0.000000 0.000000 0.031913 0.000000 -0.010720
# 5 -0.017326 -0.001870 -0.027905 0.000000 0.063307 0.000000
# 6 0.000000 0.000000 0.000000 -0.010720 0.000000 0.034250
#
#
# Mechanical properties :
#
#
# Convention : Reuss Voigt Hill
#
# Bulk Modulus (GPa) = 16.58854 50.54142 33.56498
# Shear Modulus (GPa) = 22.19125 32.71831 27.45478
#
# Velocity S-wave (km/s) = 3.16299 3.84063 3.51816
# Velocity P-wave (km/s) = 4.56267 6.51559 5.62454
#
# Compressibility (1/GPa) = 0.06028258
#
# Stress axis : x y z
#
# Youngs Moduli (GPa) = 54.32602 70.93295 28.16051
#
# Poissons Ratio (x) = 0.37059 -0.28191
# Poissons Ratio (y) = 0.28383 0.24367
# Poissons Ratio (z) = -0.54384 0.61377
#
# Static dielectric constant tensor:
#      x y z
#    x 4.206140 0.000000 -0.113230 
#    y 0.000000 4.113590 0.000000 
#    z -0.113230 0.000000 3.869990 
# 
# 
# High freq. dielectric constant tensor:
#      x y z
#    x 1.886170 0.000000 0.001320 
#    y 0.000000 1.863650 0.000000 
#    z 0.001320 0.000000 1.864660 
# 
# From -- ./inp_files/38392.got.cif
#   From: 2010.06.25/outbox.cif.g09.slc.cpg/sg11_20_cif.got.tgz:38392.got - 2010.06.27 23:14:04.
