data_PCOD8073508
_publ_section_title
;
Structure prediction by ZEFSAII (Michael W. Deem and Ramdas Pophale) SiO2 
 PCOD8073508
Probable space group: P 21/M
;
_chemical_formula_sum "Si O2"
_cell_formula_units_Z 28
_cell_length_a 11.102382
_cell_length_b 8.901584
_cell_length_c 16.254192
_cell_angle_alpha 90.000000
_cell_angle_beta 118.722317
_cell_angle_gamma 90.000000
_cell_volume 1408.731284
_symmetry_space_group_name_H-M "P 21/M"
_symmetry_group_IT_number 11
_symmetry_cell_setting 'monoclinic'
loop_
_space_group_symop_operation_xyz
x,y,z
-x,1/2+y,-z
-x,-y,-z
x,1/2-y,z
loop_
_atom_site_type_symbol
_atom_site_label
_atom_site_fract_x
_atom_site_fract_y
_atom_site_fract_z
Si Si1 0.392630 0.572542 0.026608
Si Si2 0.677469 0.425913 0.384197
Si Si3 0.811626 0.074134 0.591385
Si Si4 0.153861 0.424173 0.230446
Si Si5 0.866844 0.575315 0.131774
Si Si6 0.410623 0.424035 0.203746
Si Si7 0.873478 0.920300 0.322950
O O1 0.400165 0.750000 0.019469
O O2 0.432383 0.527075 0.131787
O O3 0.500000 0.500000 0.000000
O O4 0.239529 0.515402 0.958602
O O5 0.692101 0.250000 0.396275
O O6 0.712758 0.489344 0.486704
O O7 0.524841 0.474864 0.307875
O O8 0.787317 0.473418 0.352688
O O9 0.791136 0.250000 0.604275
O O10 0.966764 0.042628 0.613294
O O11 0.778432 0.981920 0.662722
O O12 0.115818 0.250000 0.227868
O O13 0.261430 0.451020 0.192856
O O14 0.018981 0.516830 0.162217
O O15 0.860290 0.750000 0.105751
O O16 0.829015 0.549579 0.214443
O O17 0.431765 0.250000 0.186092
O O18 0.841341 0.750000 0.337385
#
# Coordination Sequence:
#
# PCOD8073508 Si02
#       7
#     4   4   4   4   4   4   4
#     4  12  25  41  63  90 118 150 187 228 281 340
#     4  10  20  34  54  79 110 151 192 233 284 337
#     4   9  19  35  54  79 113 150 188 234 287 340
#     4  10  21  38  59  84 113 148 192 238 286 339
#     4  10  21  39  62  86 115 150 188 235 287 339
#     4  10  23  41  58  81 115 151 192 241 285 335
#     4   9  18  32  52  81 113 143 180 230 285 340
#
# _framework density 19.87604
#
# number of rings (size 3 to 8) (size 9 to 14) (size 15 to 20)
#    0.000    2.000    0.000    4.286    0.000    8.571 
#    0.000    0.000    0.000    0.000    0.000    0.000 
#    0.000    0.000    0.000    0.000    0.000    0.000 
#
# Total GULP energy -347291.403862 kJ/mol
# GULP energy per Si atom -12403.264424 kJ/mol
# Density = 1.983080 g / cm^3
# Si number density = 19.876040 Si / 1000 Ang^3
#
#
#
# Elastic Constant Matrix: (Units=GPa)
#
#
# Indices 1 2 3 4 5 6 
#
# 1 77.3659 41.2573 40.2787 0.0000 -3.5545 0.0000
# 2 41.2573 90.1477 48.9992 0.0000 1.8364 0.0000
# 3 40.2787 48.9992 99.4983 0.0000 17.0539 0.0000
# 4 0.0000 0.0000 0.0000 33.2935 0.0000 -3.9734
# 5 -3.5545 1.8364 17.0539 0.0000 25.5355 0.0000
# 6 0.0000 0.0000 0.0000 -3.9734 0.0000 29.1123
#
#
#
# Elastic Compliance Matrix: (Units=1/GPa)
#
#
# Indices 1 2 3 4 5 6 
#
# 1 0.019627 -0.005629 -0.006449 0.000000 0.007444 0.000000
# 2 -0.005629 0.017212 -0.006607 0.000000 0.002391 0.000000
# 3 -0.006449 -0.006607 0.018054 0.000000 -0.012480 0.000000
# 4 0.000000 0.000000 0.000000 0.030533 0.000000 0.004167
# 5 0.007444 0.002391 -0.012480 0.000000 0.048360 0.000000
# 6 0.000000 0.000000 0.000000 0.004167 0.000000 0.034918
#
#
# Mechanical properties :
#
#
# Convention : Reuss Voigt Hill
#
# Bulk Modulus (GPa) = 57.07119 58.67580 57.87349
# Shear Modulus (GPa) = 23.59427 26.68671 25.14049
#
# Velocity S-wave (km/s) = 3.44913 3.66820 3.56035
# Velocity P-wave (km/s) = 6.68116 6.89390 6.78836
#
# Compressibility (1/GPa) = 0.01752197
#
# Stress axis : x y z
#
# Youngs Moduli (GPa) = 50.95054 58.10026 55.38900
#
# Poissons Ratio (x) = 0.32703 0.35722
# Poissons Ratio (y) = 0.28678 0.36598
# Poissons Ratio (z) = 0.32859 0.38389
#
# Static dielectric constant tensor:
#      x y z
#    x 3.482510 0.000000 0.145440 
#    y 0.000000 3.578970 0.000000 
#    z 0.145440 0.000000 3.901040 
# 
# 
# High freq. dielectric constant tensor:
#      x y z
#    x 1.770510 0.000000 0.006820 
#    y 0.000000 1.772670 0.000000 
#    z 0.006820 0.000000 1.785900 
# 
# From -- ./inp_files/38459.got.cif
#   From: 2010.06.25/outbox.cif.g09.slc.cpg/sg11_20_cif.got.tgz:38459.got - 2010.06.27 23:14:04.
