data_PCOD8073897
_publ_section_title
;
Structure prediction by ZEFSAII (Michael W. Deem and Ramdas Pophale) SiO2 
 PCOD8073897
Probable space group: P 21/M
;
_chemical_formula_sum "Si O2"
_cell_formula_units_Z 28
_cell_length_a 14.855945
_cell_length_b 8.914945
_cell_length_c 11.917817
_cell_angle_alpha 90.000000
_cell_angle_beta 71.357644
_cell_angle_gamma 90.000000
_cell_volume 1495.580226
_symmetry_space_group_name_H-M "P 21/M"
_symmetry_group_IT_number 11
_symmetry_cell_setting 'monoclinic'
loop_
_space_group_symop_operation_xyz
x,y,z
-x,1/2+y,-z
-x,-y,-z
x,1/2-y,z
loop_
_atom_site_type_symbol
_atom_site_label
_atom_site_fract_x
_atom_site_fract_y
_atom_site_fract_z
Si Si1 0.957072 0.426253 0.236474
Si Si2 0.381908 0.572810 0.654284
Si Si3 0.205046 0.573857 0.862598
Si Si4 0.841319 0.075629 0.875717
Si Si5 0.572931 0.076521 0.612049
Si Si6 0.752790 0.421753 0.678725
Si Si7 0.089577 0.073539 0.522493
O O1 0.960132 0.250000 0.259057
O O2 0.897840 0.466063 0.148310
O O3 0.899301 0.505713 0.358669
O O4 0.063443 0.485436 0.187186
O O5 0.380155 0.750000 0.664572
O O6 0.291184 0.501935 0.755854
O O7 0.379561 0.522416 0.524533
O O8 0.477417 0.514397 0.675693
O O9 0.220934 0.750000 0.855262
O O10 0.205784 0.514583 0.990504
O O11 0.869185 0.250000 0.875772
O O12 0.765521 0.049360 0.806415
O O13 0.545417 0.250000 0.613424
O O14 0.644416 0.046234 0.686628
O O15 0.780885 0.250000 0.637130
O O16 0.817319 0.536536 0.585077
O O17 0.074070 0.250000 0.535497
O O18 0.000000 0.000000 0.500000
#
# Coordination Sequence:
#
# PCOD8073897 Si02
#       7
#     4   4   4   4   4   4   4
#     4  11  21  35  55  78 108 143 180 224 271 316
#     4   9  17  33  55  76 101 134 176 223 268 320
#     4   9  19  35  55  78 105 142 183 223 270 318
#     4  10  20  35  54  76 106 144 185 221 261 321
#     4   9  18  33  54  79 105 135 170 217 277 326
#     4  10  20  35  55  78 109 144 176 216 269 322
#     4  12  23  35  53  78 109 140 176 219 264 315
#
# _framework density 18.721831000000002
#
# number of rings (size 3 to 8) (size 9 to 14) (size 15 to 20)
#    0.000    2.000    1.429    3.000    0.000    2.857 
#    0.000    6.429    0.000    0.000    0.000    0.000 
#    0.000    0.000    0.000    0.000    0.000    0.000 
#
# Total GULP energy -347201.664979 kJ/mol
# GULP energy per Si atom -12400.059464 kJ/mol
# Density = 1.867922 g / cm^3
# Si number density = 18.721831 Si / 1000 Ang^3
#
#
#
# Elastic Constant Matrix: (Units=GPa)
#
#
# Indices 1 2 3 4 5 6 
#
# 1 116.2709 27.6551 49.2425 0.0000 16.5068 0.0000
# 2 27.6551 61.3869 27.8917 0.0000 6.5895 0.0000
# 3 49.2425 27.8917 106.7031 0.0000 17.2157 0.0000
# 4 0.0000 0.0000 0.0000 20.7831 0.0000 -2.2713
# 5 16.5068 6.5895 17.2157 0.0000 28.0497 0.0000
# 6 0.0000 0.0000 0.0000 -2.2713 0.0000 25.8681
#
#
#
# Elastic Compliance Matrix: (Units=1/GPa)
#
#
# Indices 1 2 3 4 5 6 
#
# 1 0.011498 -0.003001 -0.003933 0.000000 -0.003647 0.000000
# 2 -0.003001 0.019328 -0.003573 0.000000 -0.000581 0.000000
# 3 -0.003933 -0.003573 0.012888 0.000000 -0.004756 0.000000
# 4 0.000000 0.000000 0.000000 0.048582 0.000000 0.004266
# 5 -0.003647 -0.000581 -0.004756 0.000000 0.040853 0.000000
# 6 0.000000 0.000000 0.000000 0.004266 0.000000 0.039032
#
#
# Mechanical properties :
#
#
# Convention : Reuss Voigt Hill
#
# Bulk Modulus (GPa) = 44.05546 54.88218 49.46882
# Shear Modulus (GPa) = 24.90482 26.91163 25.90822
#
# Velocity S-wave (km/s) = 3.65122 3.79548 3.72405
# Velocity P-wave (km/s) = 6.43101 6.97035 6.70610
#
# Compressibility (1/GPa) = 0.02269866
#
# Stress axis : x y z
#
# Youngs Moduli (GPa) = 86.97116 51.73773 77.58897
#
# Poissons Ratio (x) = 0.15528 0.30518
# Poissons Ratio (y) = 0.26103 0.27726
# Poissons Ratio (z) = 0.34208 0.18488
#
# Static dielectric constant tensor:
#      x y z
#    x 3.458080 0.000000 0.029990 
#    y 0.000000 3.396350 0.000000 
#    z 0.029990 0.000000 3.618520 
# 
# 
# High freq. dielectric constant tensor:
#      x y z
#    x 1.727150 0.000000 0.009970 
#    y 0.000000 1.709540 0.000000 
#    z 0.009970 0.000000 1.723500 
# 
# From -- ./inp_files/37479.got.cif
#   From: 2010.06.25/outbox.cif.g09.slc.cpg/sg11_19_cif.got.tgz:37479.got - 2010.06.27 23:14:04.
