data_PCOD8073610
_publ_section_title
;
Structure prediction by ZEFSAII (Michael W. Deem and Ramdas Pophale) SiO2 
 PCOD8073610
Probable space group: P 21/M
;
_chemical_formula_sum "Si O2"
_cell_formula_units_Z 28
_cell_length_a 9.224562
_cell_length_b 9.089310
_cell_length_c 26.305814
_cell_angle_alpha 90.000000
_cell_angle_beta 138.228451
_cell_angle_gamma 90.000000
_cell_volume 1469.292997
_symmetry_space_group_name_H-M "P 21/M"
_symmetry_group_IT_number 11
_symmetry_cell_setting 'monoclinic'
loop_
_space_group_symop_operation_xyz
x,y,z
-x,1/2+y,-z
-x,-y,-z
x,1/2-y,z
loop_
_atom_site_type_symbol
_atom_site_label
_atom_site_fract_x
_atom_site_fract_y
_atom_site_fract_z
Si Si1 0.067353 0.921861 0.135953
Si Si2 0.163131 0.580139 0.005566
Si Si3 0.822176 0.578800 0.732988
Si Si4 0.321071 0.579869 0.594719
Si Si5 0.922484 0.422397 0.301088
Si Si6 0.993601 0.078258 0.577596
Si Si7 0.521268 0.417242 0.826918
O O1 0.017535 0.750000 0.124458
O O2 0.285244 0.957839 0.161318
O O3 0.088578 0.981788 0.197996
O O4 0.858651 0.001511 0.054959
O O5 0.096227 0.750000 0.982805
O O6 0.400863 0.565288 0.093835
O O7 0.000000 0.500000 0.000000
O O8 0.849928 0.750000 0.753772
O O9 0.572817 0.539472 0.656163
O O10 0.960137 0.532968 0.720116
O O11 0.282773 0.750000 0.598619
O O12 0.210063 0.541298 0.511856
O O13 0.216848 0.483031 0.612018
O O14 0.931752 0.250000 0.313295
O O15 0.050902 0.501298 0.380294
O O16 0.672835 0.471813 0.234331
O O17 0.024035 0.250000 0.594398
O O18 0.443480 0.250000 0.796862
#
# Coordination Sequence:
#
# PCOD8073610 Si02
#       7
#     4   4   4   4   4   4   4
#     4  10  20  34  55  82 107 135 174 218 265 314
#     4   9  17  31  53  80 107 135 171 217 264 309
#     4  10  22  38  53  74 106 142 180 217 256 308
#     4   9  19  37  59  80 104 136 173 216 263 308
#     4  11  23  36  52  76 107 143 179 214 257 310
#     4  10  20  35  57  83 107 133 171 217 263 312
#     4   9  19  35  55  80 107 135 173 218 261 309
#
# _framework density 19.056785999999999
#
# number of rings (size 3 to 8) (size 9 to 14) (size 15 to 20)
#    0.000    2.286    0.000    3.429    0.000    8.571 
#    0.000    0.714    0.000    0.000    0.000    0.000 
#    0.000    0.000    0.000    0.000    0.000    0.000 
#
# Total GULP energy -347225.125745 kJ/mol
# GULP energy per Si atom -12400.897348 kJ/mol
# Density = 1.901341 g / cm^3
# Si number density = 19.056786 Si / 1000 Ang^3
#
#
#
# Elastic Constant Matrix: (Units=GPa)
#
#
# Indices 1 2 3 4 5 6 
#
# 1 79.0478 45.6904 39.4540 0.0000 -29.5452 0.0000
# 2 45.6904 95.7092 45.1223 0.0000 -26.1213 0.0000
# 3 39.4540 45.1223 89.9426 0.0000 -33.8456 0.0000
# 4 0.0000 0.0000 0.0000 34.9095 0.0000 -8.2271
# 5 -29.5452 -26.1213 -33.8456 0.0000 23.5623 0.0000
# 6 0.0000 0.0000 0.0000 -8.2271 0.0000 28.6585
#
#
#
# Elastic Compliance Matrix: (Units=1/GPa)
#
#
# Indices 1 2 3 4 5 6 
#
# 1 0.025640 -0.005291 0.002825 0.000000 0.030343 0.000000
# 2 -0.005291 0.016393 -0.003397 0.000000 0.006659 0.000000
# 3 0.002825 -0.003397 0.025027 0.000000 0.035726 0.000000
# 4 0.000000 0.000000 0.000000 0.030724 0.000000 0.008820
# 5 0.030343 0.006659 0.035726 0.000000 0.139189 0.000000
# 6 0.000000 0.000000 0.000000 0.008820 0.000000 0.037426
#
#
# Mechanical properties :
#
#
# Convention : Reuss Voigt Hill
#
# Bulk Modulus (GPa) = 18.07190 58.35921 38.21555
# Shear Modulus (GPa) = 16.41666 26.38825 21.40245
#
# Velocity S-wave (km/s) = 2.93825 3.72522 3.35489
# Velocity P-wave (km/s) = 4.58419 7.01379 5.92487
#
# Compressibility (1/GPa) = 0.05533454
#
# Stress axis : x y z
#
# Youngs Moduli (GPa) = 39.00207 61.00065 39.95697
#
# Poissons Ratio (x) = 0.32274 -0.11290
# Poissons Ratio (y) = 0.20635 0.13575
# Poissons Ratio (z) = -0.11020 0.20724
#
# Static dielectric constant tensor:
#      x y z
#    x 3.262030 0.000000 -0.143830 
#    y 0.000000 3.580450 0.000000 
#    z -0.143830 0.000000 3.558300 
# 
# 
# High freq. dielectric constant tensor:
#      x y z
#    x 1.714120 0.000000 -0.016780 
#    y 0.000000 1.749140 0.000000 
#    z -0.016780 0.000000 1.754790 
# 
# From -- ./inp_files/28419.got.cif
#   From: 2010.06.25/outbox.cif.g09.slc.cpg/sg11_15_cif.got.tgz:28419.got - 2010.06.27 23:14:04.
