data_PCOD8073219
_publ_section_title
;
Structure prediction by ZEFSAII (Michael W. Deem and Ramdas Pophale) SiO2 
 PCOD8073219
Probable space group: P 21/M
;
_chemical_formula_sum "Si O2"
_cell_formula_units_Z 32
_cell_length_a 12.201864
_cell_length_b 8.813417
_cell_length_c 15.272064
_cell_angle_alpha 90.000000
_cell_angle_beta 92.135487
_cell_angle_gamma 90.000000
_cell_volume 1641.218920
_symmetry_space_group_name_H-M "P 21/M"
_symmetry_group_IT_number 11
_symmetry_cell_setting 'monoclinic'
loop_
_space_group_symop_operation_xyz
x,y,z
-x,1/2+y,-z
-x,-y,-z
x,1/2-y,z
loop_
_atom_site_type_symbol
_atom_site_label
_atom_site_fract_x
_atom_site_fract_y
_atom_site_fract_z
Si Si1 0.968130 0.571681 0.873135
Si Si2 0.832270 0.929142 0.033617
Si Si3 0.537597 0.424947 0.591116
Si Si4 0.409722 0.930357 0.743984
Si Si5 0.587339 0.569448 0.068713
Si Si6 0.782401 0.422362 0.555329
Si Si7 0.197529 0.569918 0.639318
Si Si8 0.039559 0.071559 0.320701
O O1 0.986767 0.750000 0.880608
O O2 0.876807 0.516230 0.939872
O O3 0.925456 0.522636 0.776205
O O4 0.087169 0.497547 0.891210
O O5 0.835927 0.750000 0.042142
O O6 0.708591 0.988093 0.043969
O O7 0.500000 0.500000 0.500000
O O8 0.498269 0.250000 0.592434
O O9 0.494259 0.518232 0.672248
O O10 0.668367 0.435572 0.602287
O O11 0.417747 0.750000 0.755659
O O12 0.288713 0.986183 0.711113
O O13 0.440618 0.010694 0.835398
O O14 0.579018 0.750000 0.065910
O O15 0.500000 0.500000 0.000000
O O16 0.824252 0.250000 0.553022
O O17 0.769955 0.487669 0.456631
O O18 0.872482 0.517772 0.607868
O O19 0.197076 0.750000 0.640922
O O20 0.079790 0.500854 0.661634
O O21 0.030900 0.250000 0.328367
#
# Coordination Sequence:
#
# PCOD8073219 Si02
#       8
#     4   4   4   4   4   4   4   4
#     4   9  18  34  56  83 112 146 187 234 287 345
#     4   9  19  36  58  82 112 146 188 238 287 342
#     4  11  22  39  61  86 117 154 198 247 293 348
#     4  11  22  40  65  89 115 153 196 247 304 356
#     4  11  24  41  59  86 121 158 199 246 296 353
#     4  10  21  37  54  77 114 153 189 236 289 339
#     4   9  18  35  56  80 113 150 189 236 291 345
#     4  10  20  33  53  82 114 148 191 233 281 347
#
# _framework density 19.497705
#
# number of rings (size 3 to 8) (size 9 to 14) (size 15 to 20)
#    0.000    2.000    1.250    2.250    0.000    4.500 
#    0.000    2.500    0.000    0.000    0.000    0.000 
#    0.000    0.000    0.000    0.000    0.000    0.000 
#
# Total GULP energy -396820.614040 kJ/mol
# GULP energy per Si atom -12400.644189 kJ/mol
# Density = 1.945333 g / cm^3
# Si number density = 19.497705 Si / 1000 Ang^3
#
#
#
# Elastic Constant Matrix: (Units=GPa)
#
#
# Indices 1 2 3 4 5 6 
#
# 1 97.3655 27.2968 56.6169 0.0000 0.8153 0.0000
# 2 27.2968 43.8098 32.3563 0.0000 0.3194 0.0000
# 3 56.6169 32.3563 142.1946 0.0000 9.1389 0.0000
# 4 0.0000 0.0000 0.0000 31.5048 0.0000 4.7758
# 5 0.8153 0.3194 9.1389 0.0000 33.1319 0.0000
# 6 0.0000 0.0000 0.0000 4.7758 0.0000 30.8158
#
#
#
# Elastic Compliance Matrix: (Units=1/GPa)
#
#
# Indices 1 2 3 4 5 6 
#
# 1 0.014496 -0.005687 -0.004539 0.000000 0.000950 0.000000
# 2 -0.005687 0.029740 -0.004575 0.000000 0.001115 0.000000
# 3 -0.004539 -0.004575 0.010049 0.000000 -0.002616 0.000000
# 4 0.000000 0.000000 0.000000 0.032505 0.000000 -0.005038
# 5 0.000950 0.001115 -0.002616 0.000000 0.030870 0.000000
# 6 0.000000 0.000000 0.000000 -0.005038 0.000000 0.033232
#
#
# Mechanical properties :
#
#
# Convention : Reuss Voigt Hill
#
# Bulk Modulus (GPa) = 40.51180 57.32331 48.91755
# Shear Modulus (GPa) = 26.49420 30.23048 28.36234
#
# Velocity S-wave (km/s) = 3.69024 3.94186 3.81813
# Velocity P-wave (km/s) = 6.24340 7.08390 6.67688
#
# Compressibility (1/GPa) = 0.02468416
#
# Stress axis : x y z
#
# Youngs Moduli (GPa) = 68.98302 33.62489 99.51297
#
# Poissons Ratio (x) = 0.19122 0.45168
# Poissons Ratio (y) = 0.39230 0.45523
# Poissons Ratio (z) = 0.31311 0.15382
#
# Static dielectric constant tensor:
#      x y z
#    x 3.721300 0.000000 -0.169870 
#    y 0.000000 3.448480 0.000000 
#    z -0.169870 0.000000 3.774230 
# 
# 
# High freq. dielectric constant tensor:
#      x y z
#    x 1.763780 0.000000 -0.006080 
#    y 0.000000 1.744380 0.000000 
#    z -0.006080 0.000000 1.770060 
# 
# From -- ./inp_files/38143.got.cif
#   From: 2010.06.25/outbox.cif.g09.slc.cpg/sg11_20_cif.got.tgz:38143.got - 2010.06.27 23:14:04.
