data_PCOD8073864
_publ_section_title
;
Structure prediction by ZEFSAII (Michael W. Deem and Ramdas Pophale) SiO2 
 PCOD8073864
Probable space group: P 21/M
;
_chemical_formula_sum "Si O2"
_cell_formula_units_Z 32
_cell_length_a 21.941364
_cell_length_b 8.840226
_cell_length_c 28.160715
_cell_angle_alpha 90.000000
_cell_angle_beta 162.789853
_cell_angle_gamma 90.000000
_cell_volume 1616.151995
_symmetry_space_group_name_H-M "P 21/M"
_symmetry_group_IT_number 11
_symmetry_cell_setting 'monoclinic'
loop_
_space_group_symop_operation_xyz
x,y,z
-x,1/2+y,-z
-x,-y,-z
x,1/2-y,z
loop_
_atom_site_type_symbol
_atom_site_label
_atom_site_fract_x
_atom_site_fract_y
_atom_site_fract_z
Si Si1 0.518083 0.072921 0.250912
Si Si2 0.091653 0.929509 0.396821
Si Si3 0.167184 0.423331 0.061781
Si Si4 0.396832 0.924876 0.467707
Si Si5 0.731484 0.420426 0.768371
Si Si6 0.652783 0.430845 0.075844
Si Si7 0.400645 0.579853 0.069703
Si Si8 0.923485 0.578181 0.713387
O O1 0.530231 0.250000 0.254983
O O2 0.719127 0.014918 0.429207
O O3 0.305603 0.025842 0.119705
O O4 0.524899 0.010603 0.202274
O O5 0.063753 0.750000 0.378134
O O6 0.140909 0.978727 0.379896
O O7 0.881039 0.008430 0.257098
O O8 0.226032 0.250000 0.119947
O O9 0.199725 0.544765 0.127275
O O10 0.919145 0.432075 0.869323
O O11 0.355787 0.750000 0.428616
O O12 0.500000 0.000000 0.500000
O O13 0.555519 0.955962 0.628373
O O14 0.183158 0.007282 0.319889
O O15 0.641749 0.250000 0.699487
O O16 0.659790 0.250000 0.083556
O O17 0.500000 0.500000 0.000000
O O18 0.571588 0.484008 0.963325
O O19 0.483906 0.750000 0.133864
O O20 0.161108 0.570423 0.903034
O O21 0.853619 0.750000 0.651800
#
# Coordination Sequence:
#
# PCOD8073864 Si02
#       8
#     4   4   4   4   4   4   4   4
#     4  10  21  35  55  84 117 151 193 237 281 338
#     4  10  20  36  60  91 122 156 193 233 280 338
#     4   9  19  35  54  77 107 144 186 235 285 342
#     4  12  25  38  53  74 105 144 189 244 300 353
#     4  10  20  35  53  76 104 140 188 238 293 351
#     4  10  21  40  65  92 121 155 195 238 281 341
#     4   9  21  38  58  87 120 149 186 235 288 344
#     4  10  21  39  59  83 112 148 196 247 294 352
#
# _framework density 19.800118999999999
#
# number of rings (size 3 to 8) (size 9 to 14) (size 15 to 20)
#    0.000    2.000    0.000    4.125    1.750    6.000 
#    0.000    0.625    0.000    0.000    0.000    0.000 
#    0.000    0.000    0.000    0.000    0.000    0.000 
#
# Total GULP energy -396666.579985 kJ/mol
# GULP energy per Si atom -12395.830625 kJ/mol
# Density = 1.975505 g / cm^3
# Si number density = 19.800119 Si / 1000 Ang^3
#
#
#
# Elastic Constant Matrix: (Units=GPa)
#
#
# Indices 1 2 3 4 5 6 
#
# 1 116.3213 34.8440 33.3600 0.0000 14.2350 0.0000
# 2 34.8440 76.8865 28.1306 0.0000 4.2851 0.0000
# 3 33.3600 28.1306 50.3270 0.0000 -0.1534 0.0000
# 4 0.0000 0.0000 0.0000 32.7270 0.0000 -1.4319
# 5 14.2350 4.2851 -0.1534 0.0000 32.2712 0.0000
# 6 0.0000 0.0000 0.0000 -1.4319 0.0000 33.8546
#
#
#
# Elastic Compliance Matrix: (Units=1/GPa)
#
#
# Indices 1 2 3 4 5 6 
#
# 1 0.011837 -0.002786 -0.006304 0.000000 -0.004881 0.000000
# 2 -0.002786 0.017165 -0.007751 0.000000 -0.001087 0.000000
# 3 -0.006304 -0.007751 0.028393 0.000000 0.003945 0.000000
# 4 0.000000 0.000000 0.000000 0.030613 0.000000 0.001295
# 5 -0.004881 -0.001087 0.003945 0.000000 0.033304 0.000000
# 6 0.000000 0.000000 0.000000 0.001295 0.000000 0.029593
#
#
# Mechanical properties :
#
#
# Convention : Reuss Voigt Hill
#
# Bulk Modulus (GPa) = 42.17048 48.46714 45.31881
# Shear Modulus (GPa) = 25.97530 29.58388 27.77959
#
# Velocity S-wave (km/s) = 3.62591 3.86959 3.74973
# Velocity P-wave (km/s) = 6.23490 6.67055 6.45640
#
# Compressibility (1/GPa) = 0.02371327
#
# Stress axis : x y z
#
# Youngs Moduli (GPa) = 84.48388 58.25714 35.21954
#
# Poissons Ratio (x) = 0.16229 0.22202
# Poissons Ratio (y) = 0.23535 0.27300
# Poissons Ratio (z) = 0.53257 0.45157
#
# Static dielectric constant tensor:
#      x y z
#    x 3.640530 0.000000 -0.037950 
#    y 0.000000 2.590730 0.000000 
#    z -0.037950 0.000000 4.001960 
# 
# 
# High freq. dielectric constant tensor:
#      x y z
#    x 1.765190 0.000000 0.000290 
#    y 0.000000 1.774660 0.000000 
#    z 0.000290 0.000000 1.766320 
# 
# From -- ./inp_files/72216.got.cif
#   From: 2010.06.25/outbox.cif.g09.slc.cpg/sg11_37_cif.got.tgz:72216.got - 2010.06.27 23:14:04.
