data_PCOD8073754
_publ_section_title
;
Structure prediction by ZEFSAII (Michael W. Deem and Ramdas Pophale) SiO2 
 PCOD8073754
Probable space group: P 21/M
;
_chemical_formula_sum "Si O2"
_cell_formula_units_Z 28
_cell_length_a 18.044538
_cell_length_b 9.280718
_cell_length_c 14.399966
_cell_angle_alpha 90.000000
_cell_angle_beta 34.154490
_cell_angle_gamma 90.000000
_cell_volume 1353.884218
_symmetry_space_group_name_H-M "P 21/M"
_symmetry_group_IT_number 11
_symmetry_cell_setting 'monoclinic'
loop_
_space_group_symop_operation_xyz
x,y,z
-x,1/2+y,-z
-x,-y,-z
x,1/2-y,z
loop_
_atom_site_type_symbol
_atom_site_label
_atom_site_fract_x
_atom_site_fract_y
_atom_site_fract_z
Si Si1 0.531630 0.414679 0.559898
Si Si2 0.253984 0.417670 0.363873
Si Si3 0.276543 0.915390 0.154808
Si Si4 0.821392 0.411890 0.212954
Si Si5 0.034561 0.583518 0.279683
Si Si6 0.508118 0.417706 0.217994
Si Si7 0.918060 0.581168 0.950653
O O1 0.500000 0.500000 0.500000
O O2 0.480778 0.250000 0.605551
O O3 0.689063 0.420287 0.410036
O O4 0.465395 0.490518 0.716936
O O5 0.244322 0.250000 0.350591
O O6 0.299217 0.494630 0.223557
O O7 0.361957 0.449467 0.330735
O O8 0.111482 0.475529 0.545331
O O9 0.303826 0.750000 0.151411
O O10 0.127760 0.937553 0.272282
O O11 0.382594 0.968040 0.969089
O O12 0.847661 0.250000 0.148966
O O13 0.937271 0.460612 0.161715
O O14 0.811831 0.516508 0.133337
O O15 0.029356 0.750000 0.254032
O O16 0.099723 0.491721 0.130225
O O17 0.525498 0.250000 0.225108
O O18 0.893714 0.750000 0.966045
#
# Coordination Sequence:
#
# PCOD8073754 Si02
#       7
#     4   4   4   4   4   4   4
#     4  11  24  40  60  85 116 154 194 238 288 343
#     4  10  21  38  61  86 114 150 196 242 284 340
#     4  10  22  38  58  84 117 153 189 234 295 349
#     4   9  20  38  56  78 113 151 187 233 291 342
#     4  10  21  36  55  82 117 153 186 231 293 344
#     4  10  22  40  60  85 116 153 193 237 290 347
#     4  10  20  34  57  86 111 145 193 238 280 340
#
# _framework density 20.681235999999998
#
# number of rings (size 3 to 8) (size 9 to 14) (size 15 to 20)
#    0.000    2.000    0.000    2.571    2.000    4.000 
#    0.000    0.000    0.000    0.000    0.000    0.000 
#    0.000    0.000    0.000    0.000    0.000    0.000 
#
# Total GULP energy -347330.849030 kJ/mol
# GULP energy per Si atom -12404.673180 kJ/mol
# Density = 2.063416 g / cm^3
# Si number density = 20.681236 Si / 1000 Ang^3
#
#
#
# Elastic Constant Matrix: (Units=GPa)
#
#
# Indices 1 2 3 4 5 6 
#
# 1 58.7560 34.7899 15.2808 0.0000 17.2336 0.0000
# 2 34.7899 87.8018 29.7889 0.0000 24.8058 0.0000
# 3 15.2808 29.7889 83.5650 0.0000 11.0635 0.0000
# 4 0.0000 0.0000 0.0000 33.5851 0.0000 10.5410
# 5 17.2336 24.8058 11.0635 0.0000 41.4019 0.0000
# 6 0.0000 0.0000 0.0000 10.5410 0.0000 29.8124
#
#
#
# Elastic Compliance Matrix: (Units=1/GPa)
#
#
# Indices 1 2 3 4 5 6 
#
# 1 0.023115 -0.007462 -0.000917 0.000000 -0.004906 0.000000
# 2 -0.007462 0.017495 -0.004038 0.000000 -0.006297 0.000000
# 3 -0.000917 -0.004038 0.013687 0.000000 -0.000856 0.000000
# 4 0.000000 0.000000 0.000000 0.033492 0.000000 -0.011842
# 5 -0.004906 -0.006297 -0.000856 0.000000 0.030197 0.000000
# 6 0.000000 0.000000 0.000000 -0.011842 0.000000 0.037730
#
#
# Mechanical properties :
#
#
# Convention : Reuss Voigt Hill
#
# Bulk Modulus (GPa) = 33.94138 43.31577 38.62857
# Shear Modulus (GPa) = 26.26426 30.97742 28.62084
#
# Velocity S-wave (km/s) = 3.56751 3.87441 3.72412
# Velocity P-wave (km/s) = 5.78073 6.40349 6.10006
#
# Compressibility (1/GPa) = 0.02946256
#
# Stress axis : x y z
#
# Youngs Moduli (GPa) = 43.26144 57.15910 73.05970
#
# Poissons Ratio (x) = 0.42651 0.06703
# Poissons Ratio (y) = 0.32281 0.29504
# Poissons Ratio (z) = 0.03969 0.23083
#
# Static dielectric constant tensor:
#      x y z
#    x 3.627590 0.000000 -0.178850 
#    y 0.000000 3.676130 0.000000 
#    z -0.178850 0.000000 3.828880 
# 
# 
# High freq. dielectric constant tensor:
#      x y z
#    x 1.809040 0.000000 -0.006270 
#    y 0.000000 1.803320 0.000000 
#    z -0.006270 0.000000 1.815660 
# 
# From -- ./inp_files/54483.got.cif
#   From: 2010.06.25/outbox.cif.g09.slc.cpg/sg11_28_cif.got.tgz:54483.got - 2010.06.27 23:14:04.
