data_PCOD8073307
_publ_section_title
;
Structure prediction by ZEFSAII (Michael W. Deem and Ramdas Pophale) SiO2 
 PCOD8073307
Probable space group: P 21/M
;
_chemical_formula_sum "Si O2"
_cell_formula_units_Z 32
_cell_length_a 14.121764
_cell_length_b 9.226330
_cell_length_c 15.488204
_cell_angle_alpha 90.000000
_cell_angle_beta 116.342046
_cell_angle_gamma 90.000000
_cell_volume 1808.443960
_symmetry_space_group_name_H-M "P 21/M"
_symmetry_group_IT_number 11
_symmetry_cell_setting 'monoclinic'
loop_
_space_group_symop_operation_xyz
x,y,z
-x,1/2+y,-z
-x,-y,-z
x,1/2-y,z
loop_
_atom_site_type_symbol
_atom_site_label
_atom_site_fract_x
_atom_site_fract_y
_atom_site_fract_z
Si Si1 0.066888 0.416563 0.956845
Si Si2 0.060139 0.077529 0.221270
Si Si3 0.151440 0.415776 0.589219
Si Si4 0.761996 0.912875 0.842462
Si Si5 0.348521 0.419319 0.784422
Si Si6 0.416196 0.586773 0.159511
Si Si7 0.608253 0.084733 0.041368
Si Si8 0.939816 0.417948 0.602337
O O1 0.029222 0.250000 0.932416
O O2 0.047244 0.500593 0.858378
O O3 0.186651 0.422457 0.040533
O O4 0.000000 0.500000 0.000000
O O5 0.042981 0.250000 0.216614
O O6 0.157520 0.031503 0.198707
O O7 0.084673 0.015835 0.325024
O O8 0.147821 0.250000 0.554203
O O9 0.263757 0.453553 0.676585
O O10 0.136465 0.525289 0.504186
O O11 0.061367 0.439737 0.624554
O O12 0.730520 0.750000 0.807185
O O13 0.652684 0.001269 0.797770
O O14 0.352159 0.250000 0.809611
O O15 0.463808 0.473851 0.798480
O O16 0.315018 0.505309 0.858480
O O17 0.422390 0.750000 0.195674
O O18 0.353777 0.577863 0.042504
O O19 0.592078 0.250000 0.064406
O O20 0.500000 0.000000 0.000000
O O21 0.914104 0.250000 0.610714
#
# Coordination Sequence:
#
# PCOD8073307 Si02
#       8
#     4   4   4   4   4   4   4   4
#     4   9  17  30  46  67  95 127 164 202 239 281
#     4  10  20  34  51  72  99 132 166 201 245 293
#     4   9  19  36  55  74 100 129 155 193 247 301
#     4   9  19  32  47  69  98 133 168 199 238 286
#     4   9  18  33  51  72  98 130 165 198 240 291
#     4   9  18  30  46  70  99 131 167 203 237 277
#     4   9  17  29  44  66  95 127 163 200 238 278
#     4  10  20  34  54  79 100 122 157 199 245 296
#
# _framework density 17.694769999999998
#
# number of rings (size 3 to 8) (size 9 to 14) (size 15 to 20)
#    0.000    2.750    0.000    3.000    0.000    7.500 
#    0.000    3.750    0.000    0.750    0.000    0.000 
#    0.000    0.000    0.000    0.000    0.000    0.000 
#
# Total GULP energy -396582.253570 kJ/mol
# GULP energy per Si atom -12393.195424 kJ/mol
# Density = 1.765450 g / cm^3
# Si number density = 17.694770 Si / 1000 Ang^3
#
#
#
# Elastic Constant Matrix: (Units=GPa)
#
#
# Indices 1 2 3 4 5 6 
#
# 1 65.6039 36.9166 41.5727 0.0000 3.0399 0.0000
# 2 36.9166 98.9728 49.1477 0.0000 -1.9144 0.0000
# 3 41.5727 49.1477 93.9885 0.0000 1.3949 0.0000
# 4 0.0000 0.0000 0.0000 33.5166 0.0000 -2.9451
# 5 3.0399 -1.9144 1.3949 0.0000 20.0973 0.0000
# 6 0.0000 0.0000 0.0000 -2.9451 0.0000 25.4625
#
#
#
# Elastic Compliance Matrix: (Units=1/GPa)
#
#
# Indices 1 2 3 4 5 6 
#
# 1 0.022920 -0.004871 -0.007540 0.000000 -0.003407 0.000000
# 2 -0.004871 0.014748 -0.005595 0.000000 0.002530 0.000000
# 3 -0.007540 -0.005595 0.016909 0.000000 -0.000566 0.000000
# 4 0.000000 0.000000 0.000000 0.030142 0.000000 0.003486
# 5 -0.003407 0.002530 -0.000566 0.000000 0.050553 0.000000
# 6 0.000000 0.000000 0.000000 0.003486 0.000000 0.039677
#
#
# Mechanical properties :
#
#
# Convention : Reuss Voigt Hill
#
# Bulk Modulus (GPa) = 53.86570 57.09322 55.47946
# Shear Modulus (GPa) = 23.02562 24.54384 23.78473
#
# Velocity S-wave (km/s) = 3.61122 3.72838 3.67027
# Velocity P-wave (km/s) = 6.92066 7.13232 7.02729
#
# Compressibility (1/GPa) = 0.01856469
#
# Stress axis : x y z
#
# Youngs Moduli (GPa) = 43.63002 67.80684 59.14026
#
# Poissons Ratio (x) = 0.33026 0.44594
# Poissons Ratio (y) = 0.21250 0.33089
# Poissons Ratio (z) = 0.32899 0.37938
#
# Static dielectric constant tensor:
#      x y z
#    x 3.054930 0.000000 0.023740 
#    y 0.000000 3.466010 0.000000 
#    z 0.023740 0.000000 3.557740 
# 
# 
# High freq. dielectric constant tensor:
#      x y z
#    x 1.659720 0.000000 0.000960 
#    y 0.000000 1.694630 0.000000 
#    z 0.000960 0.000000 1.666500 
# 
# From -- ./inp_files/51768.got.cif
#   From: 2010.06.25/outbox.cif.g09.slc.cpg/sg11_26_cif.got.tgz:51768.got - 2010.06.27 23:14:04.
