data_PCOD8073196
_publ_section_title
;
Structure prediction by ZEFSAII (Michael W. Deem and Ramdas Pophale) SiO2 
 PCOD8073196
Probable space group: P 21/M
;
_chemical_formula_sum "Si O2"
_cell_formula_units_Z 20
_cell_length_a 12.154568
_cell_length_b 13.150200
_cell_length_c 12.969940
_cell_angle_alpha 90.000000
_cell_angle_beta 30.045245
_cell_angle_gamma 90.000000
_cell_volume 1037.942571
_symmetry_space_group_name_H-M "P 21/M"
_symmetry_group_IT_number 11
_symmetry_cell_setting 'monoclinic'
loop_
_space_group_symop_operation_xyz
x,y,z
-x,1/2+y,-z
-x,-y,-z
x,1/2-y,z
loop_
_atom_site_type_symbol
_atom_site_label
_atom_site_fract_x
_atom_site_fract_y
_atom_site_fract_z
Si Si1 0.958623 0.864229 0.327118
Si Si2 0.772953 0.557715 0.674968
Si Si3 0.090983 0.134314 0.023340
Si Si4 0.741589 0.539697 0.311594
Si Si5 0.683917 0.959862 0.969194
O O1 0.041463 0.750000 0.237420
O O2 0.818916 0.861191 0.547316
O O3 0.787767 0.899919 0.378850
O O4 0.173269 0.936144 0.152564
O O5 0.713765 0.602044 0.836686
O O6 0.000000 0.500000 0.500000
O O7 0.571723 0.484834 0.804695
O O8 0.009119 0.250000 0.095042
O O9 0.245392 0.112529 0.995796
O O10 0.223568 0.116441 0.811035
O O11 0.883430 0.061873 0.191060
O O12 0.500000 0.500000 0.500000
#
# Coordination Sequence:
#
# PCOD8073196 Si02
#       5
#     4   4   4   4   4
#     4  10  20  33  53  80 107 141 181 217 262 318
#     4   9  18  35  55  75 105 142 176 217 265 312
#     4  10  21  36  56  81 107 141 182 219 264 319
#     4  10  21  38  56  78 111 143 175 222 269 314
#     4   9  19  36  54  76 111 142 173 222 269 310
#
# _framework density 19.268888
#
# number of rings (size 3 to 8) (size 9 to 14) (size 15 to 20)
#    0.000    2.400    0.000    1.800    0.000    3.200 
#    0.000    8.000    0.000    0.000    0.000    0.000 
#    0.000    0.000    0.000    0.000    0.000    0.000 
#
# Total GULP energy -247873.084058 kJ/mol
# GULP energy per Si atom -12393.654203 kJ/mol
# Density = 1.922503 g / cm^3
# Si number density = 19.268888 Si / 1000 Ang^3
#
#
#
# Elastic Constant Matrix: (Units=GPa)
#
#
# Indices 1 2 3 4 5 6 
#
# 1 124.5164 36.2184 50.2110 0.0000 15.9621 0.0000
# 2 36.2184 104.8071 27.9717 0.0000 14.7354 0.0000
# 3 50.2110 27.9717 89.3644 0.0000 -6.2398 0.0000
# 4 0.0000 0.0000 0.0000 17.1356 0.0000 4.5160
# 5 15.9621 14.7354 -6.2398 0.0000 35.1412 0.0000
# 6 0.0000 0.0000 0.0000 4.5160 0.0000 6.9265
#
#
#
# Elastic Compliance Matrix: (Units=1/GPa)
#
#
# Indices 1 2 3 4 5 6 
#
# 1 0.011908 -0.001507 -0.006635 0.000000 -0.005955 0.000000
# 2 -0.001507 0.011551 -0.003098 0.000000 -0.004709 0.000000
# 3 -0.006635 -0.003098 0.016392 0.000000 0.007223 0.000000
# 4 0.000000 0.000000 0.000000 0.070466 0.000000 -0.045943
# 5 -0.005955 -0.004709 0.007223 0.000000 0.034419 0.000000
# 6 0.000000 0.000000 0.000000 -0.045943 0.000000 0.174327
#
#
# Mechanical properties :
#
#
# Convention : Reuss Voigt Hill
#
# Bulk Modulus (GPa) = 57.56376 60.83222 59.19799
# Shear Modulus (GPa) = 14.39541 25.45978 19.92759
#
# Velocity S-wave (km/s) = 2.73624 3.63890 3.21936
# Velocity P-wave (km/s) = 6.31835 7.02098 6.67891
#
# Compressibility (1/GPa) = 0.01737204
#
# Stress axis : x y z
#
# Youngs Moduli (GPa) = 83.97392 86.57335 61.00509
#
# Poissons Ratio (x) = 0.13048 0.40477
# Poissons Ratio (y) = 0.12656 0.18896
# Poissons Ratio (z) = 0.55717 0.26816
#
# Static dielectric constant tensor:
#      x y z
#    x 3.882580 0.000000 0.244600 
#    y 0.000000 3.154060 0.000000 
#    z 0.244600 0.000000 3.602550 
# 
# 
# High freq. dielectric constant tensor:
#      x y z
#    x 1.775440 0.000000 0.009200 
#    y 0.000000 1.719870 0.000000 
#    z 0.009200 0.000000 1.753660 
# 
# From -- ./inp_files/4200.got.cif
#   From: 2010.06.25/outbox.cif.g09.slc.cpg/sg11_3_cif.got.tgz:4200.got - 2010.06.27 23:14:04.
