data_PCOD8073958
_publ_section_title
;
Structure prediction by ZEFSAII (Michael W. Deem and Ramdas Pophale) SiO2 
 PCOD8073958
Probable space group: P 21/M
;
_chemical_formula_sum "Si O2"
_cell_formula_units_Z 32
_cell_length_a 22.229442
_cell_length_b 8.868493
_cell_length_c 11.129919
_cell_angle_alpha 90.000000
_cell_angle_beta 130.125542
_cell_angle_gamma 90.000000
_cell_volume 1677.737841
_symmetry_space_group_name_H-M "P 21/M"
_symmetry_group_IT_number 11
_symmetry_cell_setting 'monoclinic'
loop_
_space_group_symop_operation_xyz
x,y,z
-x,1/2+y,-z
-x,-y,-z
x,1/2-y,z
loop_
_atom_site_type_symbol
_atom_site_label
_atom_site_fract_x
_atom_site_fract_y
_atom_site_fract_z
Si Si1 0.516931 0.573205 0.148481
Si Si2 0.786232 0.572480 0.219827
Si Si3 0.863146 0.571449 0.071422
Si Si4 0.827745 0.928710 0.533156
Si Si5 0.675061 0.929021 0.480049
Si Si6 0.713945 0.072645 0.773943
Si Si7 0.360157 0.925058 0.072320
Si Si8 0.010462 0.070422 0.143397
O O1 0.519117 0.750000 0.130784
O O2 0.599857 0.516605 0.307267
O O3 0.448984 0.526891 0.155549
O O4 0.500000 0.500000 0.000000
O O5 0.777976 0.750000 0.215059
O O6 0.840923 0.523930 0.178596
O O7 0.823566 0.508774 0.391213
O O8 0.698530 0.509896 0.092921
O O9 0.872086 0.750000 0.066332
O O10 0.944368 0.489234 0.148325
O O11 0.796997 0.512862 0.894376
O O12 0.827808 0.750000 0.530521
O O13 0.752626 0.986302 0.510863
O O14 0.906653 0.988177 0.697596
O O15 0.674968 0.750000 0.500300
O O16 0.669989 0.011793 0.600701
O O17 0.730321 0.250000 0.785550
O O18 0.657261 0.031551 0.812319
O O19 0.345801 0.750000 0.031798
O O20 0.006832 0.250000 0.129737
O O21 0.000000 0.000000 0.000000
#
# Coordination Sequence:
#
# PCOD8073958 Si02
#       8
#     4   4   4   4   4   4   4   4
#     4  10  21  36  55  79 108 142 179 221 269 319
#     4   9  18  35  58  80 103 138 180 215 257 319
#     4  10  20  35  56  81 108 137 174 219 264 317
#     4   9  19  35  54  76 103 136 175 220 265 310
#     4  10  20  35  55  78 106 140 179 223 269 315
#     4  10  20  35  55  78 107 142 178 217 264 317
#     4   9  19  35  53  78 111 141 172 217 268 313
#     4  11  22  36  55  78 107 142 180 222 268 317
#
# _framework density 19.073301000000001
#
# number of rings (size 3 to 8) (size 9 to 14) (size 15 to 20)
#    0.000    2.250    0.000    2.625    0.000    5.000 
#    0.000    2.500    0.000    0.000    0.000    0.000 
#    0.000    0.000    0.000    0.000    0.000    0.000 
#
# Total GULP energy -396879.672048 kJ/mol
# GULP energy per Si atom -12402.489752 kJ/mol
# Density = 1.902989 g / cm^3
# Si number density = 19.073301 Si / 1000 Ang^3
#
#
#
# Elastic Constant Matrix: (Units=GPa)
#
#
# Indices 1 2 3 4 5 6 
#
# 1 135.7004 36.1834 90.1886 0.0000 14.8710 0.0000
# 2 36.1834 45.1558 40.7052 0.0000 1.7731 0.0000
# 3 90.1886 40.7052 180.2628 0.0000 0.9290 0.0000
# 4 0.0000 0.0000 0.0000 29.3989 0.0000 -1.1901
# 5 14.8710 1.7731 0.9290 0.0000 37.2303 0.0000
# 6 0.0000 0.0000 0.0000 -1.1901 0.0000 26.7456
#
#
#
# Elastic Compliance Matrix: (Units=1/GPa)
#
#
# Indices 1 2 3 4 5 6 
#
# 1 0.012730 -0.005395 -0.005127 0.000000 -0.004700 0.000000
# 2 -0.005395 0.030142 -0.004112 0.000000 0.000822 0.000000
# 3 -0.005127 -0.004112 0.009030 0.000000 0.002018 0.000000
# 4 0.000000 0.000000 0.000000 0.034076 0.000000 0.001516
# 5 -0.004700 0.000822 0.002018 0.000000 0.028648 0.000000
# 6 0.000000 0.000000 0.000000 0.001516 0.000000 0.037457
#
#
# Mechanical properties :
#
#
# Convention : Reuss Voigt Hill
#
# Bulk Modulus (GPa) = 44.17559 77.25260 60.71410
# Shear Modulus (GPa) = 26.46976 31.61108 29.04042
#
# Velocity S-wave (km/s) = 3.72935 4.07547 3.90624
# Velocity P-wave (km/s) = 6.46183 7.92066 7.22814
#
# Compressibility (1/GPa) = 0.02263693
#
# Stress axis : x y z
#
# Youngs Moduli (GPa) = 78.55547 33.17586 110.73655
#
# Poissons Ratio (x) = 0.17897 0.56770
# Poissons Ratio (y) = 0.42378 0.45532
# Poissons Ratio (z) = 0.40272 0.13641
#
# Static dielectric constant tensor:
#      x y z
#    x 4.201670 0.000000 -0.082490 
#    y 0.000000 3.334060 0.000000 
#    z -0.082490 0.000000 3.694250 
# 
# 
# High freq. dielectric constant tensor:
#      x y z
#    x 1.753710 0.000000 -0.003070 
#    y 0.000000 1.727950 0.000000 
#    z -0.003070 0.000000 1.746110 
# 
# From -- ./inp_files/42948.got.cif
#   From: 2010.06.25/outbox.cif.g09.slc.cpg/sg11_22_cif.got.tgz:42948.got - 2010.06.27 23:14:04.
