data_PCOD8073190
_publ_section_title
;
Structure prediction by ZEFSAII (Michael W. Deem and Ramdas Pophale) SiO2 
 PCOD8073190
Probable space group: P 21/M
;
_chemical_formula_sum "Si O2"
_cell_formula_units_Z 32
_cell_length_a 22.575187
_cell_length_b 9.360909
_cell_length_c 15.505633
_cell_angle_alpha 90.000000
_cell_angle_beta 31.100424
_cell_angle_gamma 90.000000
_cell_volume 1692.554092
_symmetry_space_group_name_H-M "P 21/M"
_symmetry_group_IT_number 11
_symmetry_cell_setting 'monoclinic'
loop_
_space_group_symop_operation_xyz
x,y,z
-x,1/2+y,-z
-x,-y,-z
x,1/2-y,z
loop_
_atom_site_type_symbol
_atom_site_label
_atom_site_fract_x
_atom_site_fract_y
_atom_site_fract_z
Si Si1 0.172873 0.412141 0.825799
Si Si2 0.578059 0.582748 0.666490
Si Si3 0.962802 0.587611 0.838966
Si Si4 0.569553 0.416624 0.985536
Si Si5 0.166858 0.585173 0.333233
Si Si6 0.970732 0.415151 0.665210
Si Si7 0.561459 0.909750 0.495154
Si Si8 0.198604 0.913485 0.626614
O O1 0.137946 0.250000 0.844140
O O2 0.304251 0.418603 0.690311
O O3 0.150008 0.515165 0.774017
O O4 0.097533 0.468440 0.999119
O O5 0.611133 0.750000 0.622755
O O6 0.534213 0.534513 0.626317
O O7 0.692417 0.496016 0.548135
O O8 0.481018 0.547795 0.857206
O O9 0.924218 0.750000 0.867625
O O10 0.100016 0.578440 0.677675
O O11 0.921862 0.487328 0.812285
O O12 0.557854 0.250000 0.979449
O O13 0.701820 0.464793 0.821239
O O14 0.500000 0.500000 0.000000
O O15 0.151445 0.750000 0.380000
O O16 0.126836 0.562752 0.284881
O O17 0.090239 0.488922 0.490849
O O18 0.996580 0.250000 0.649989
O O19 0.514528 0.750000 0.544212
O O20 0.500000 0.000000 0.500000
O O21 0.232407 0.750000 0.604456
#
# Coordination Sequence:
#
# PCOD8073190 Si02
#       8
#     4   4   4   4   4   4   4   4
#     4   9  19  36  53  73 106 145 179 215 268 325
#     4   9  20  38  55  76 109 147 181 219 274 335
#     4  10  21  35  53  79 110 142 177 222 275 324
#     4  10  22  39  60  84 112 147 187 232 282 332
#     4   9  20  40  59  78 112 147 179 229 284 329
#     4  10  21  36  58  84 107 143 188 226 274 334
#     4   9  18  33  54  77 104 141 179 217 265 320
#     4  10  20  33  53  79 108 141 178 222 270 318
#
# _framework density 18.906338000000002
#
# number of rings (size 3 to 8) (size 9 to 14) (size 15 to 20)
#    0.000    2.500    0.000    1.875    1.750    6.000 
#    0.000    1.250    0.000    0.000    0.000    0.000 
#    0.000    0.000    0.000    0.000    0.000    0.000 
#
# Total GULP energy -396852.485043 kJ/mol
# GULP energy per Si atom -12401.640158 kJ/mol
# Density = 1.886331 g / cm^3
# Si number density = 18.906338 Si / 1000 Ang^3
#
#
#
# Elastic Constant Matrix: (Units=GPa)
#
#
# Indices 1 2 3 4 5 6 
#
# 1 88.7109 41.7837 39.5510 0.0000 -3.5998 0.0000
# 2 41.7837 77.5402 36.6795 0.0000 2.6488 0.0000
# 3 39.5510 36.6795 94.0822 0.0000 -2.4773 0.0000
# 4 0.0000 0.0000 0.0000 29.5751 0.0000 4.0223
# 5 -3.5998 2.6488 -2.4773 0.0000 20.9292 0.0000
# 6 0.0000 0.0000 0.0000 4.0223 0.0000 35.8505
#
#
#
# Elastic Compliance Matrix: (Units=1/GPa)
#
#
# Indices 1 2 3 4 5 6 
#
# 1 0.016586 -0.007101 -0.004118 0.000000 0.003264 0.000000
# 2 -0.007101 0.019011 -0.004536 0.000000 -0.004164 0.000000
# 3 -0.004118 -0.004536 0.014169 0.000000 0.001543 0.000000
# 4 0.000000 0.000000 0.000000 0.034336 0.000000 -0.003852
# 5 0.003264 -0.004164 0.001543 0.000000 0.049051 0.000000
# 6 0.000000 0.000000 0.000000 -0.003852 0.000000 0.028326
#
#
# Mechanical properties :
#
#
# Convention : Reuss Voigt Hill
#
# Bulk Modulus (GPa) = 54.77788 55.15131 54.96459
# Shear Modulus (GPa) = 25.11616 26.75889 25.93752
#
# Velocity S-wave (km/s) = 3.64875 3.76618 3.70793
# Velocity P-wave (km/s) = 6.84013 6.93875 6.88962
#
# Compressibility (1/GPa) = 0.01825554
#
# Stress axis : x y z
#
# Youngs Moduli (GPa) = 60.29319 52.60086 70.57488
#
# Poissons Ratio (x) = 0.37352 0.29063
# Poissons Ratio (y) = 0.42814 0.32015
# Poissons Ratio (z) = 0.24829 0.23861
#
# Static dielectric constant tensor:
#      x y z
#    x 3.369450 0.000000 0.043930 
#    y 0.000000 3.490830 0.000000 
#    z 0.043930 0.000000 3.556100 
# 
# 
# High freq. dielectric constant tensor:
#      x y z
#    x 1.730690 0.000000 0.005640 
#    y 0.000000 1.732890 0.000000 
#    z 0.005640 0.000000 1.736660 
# 
# From -- ./inp_files/55598.got.cif
#   From: 2010.06.25/outbox.cif.g09.slc.cpg/sg11_28_cif.got.tgz:55598.got - 2010.06.27 23:14:04.
