data_PCOD8073317
_publ_section_title
;
Structure prediction by ZEFSAII (Michael W. Deem and Ramdas Pophale) SiO2 
 PCOD8073317
Probable space group: P 21/M
;
_chemical_formula_sum "Si O2"
_cell_formula_units_Z 32
_cell_length_a 11.648802
_cell_length_b 8.874617
_cell_length_c 17.882033
_cell_angle_alpha 90.000000
_cell_angle_beta 87.864581
_cell_angle_gamma 90.000000
_cell_volume 1847.336769
_symmetry_space_group_name_H-M "P 21/M"
_symmetry_group_IT_number 11
_symmetry_cell_setting 'monoclinic'
loop_
_space_group_symop_operation_xyz
x,y,z
-x,1/2+y,-z
-x,-y,-z
x,1/2-y,z
loop_
_atom_site_type_symbol
_atom_site_label
_atom_site_fract_x
_atom_site_fract_y
_atom_site_fract_z
Si Si1 0.246995 0.923829 0.358197
Si Si2 0.364898 0.070208 0.771064
Si Si3 0.622829 0.427012 0.497174
Si Si4 0.609860 0.927297 0.769867
Si Si5 0.370832 0.583998 0.078934
Si Si6 0.776055 0.429125 0.355315
Si Si7 0.641652 0.584376 0.062908
Si Si8 0.005990 0.074579 0.581012
O O1 0.276963 0.750000 0.340540
O O2 0.308295 0.980412 0.431984
O O3 0.112019 0.947233 0.371640
O O4 0.290596 0.027164 0.289866
O O5 0.370083 0.250000 0.763242
O O6 0.326739 0.020844 0.855754
O O7 0.491311 0.007568 0.748942
O O8 0.269586 0.999965 0.720026
O O9 0.500000 0.500000 0.500000
O O10 0.607801 0.250000 0.496256
O O11 0.691431 0.482190 0.423042
O O12 0.589071 0.750000 0.768798
O O13 0.653727 0.975414 0.850715
O O14 0.319929 0.750000 0.096885
O O15 0.505177 0.596414 0.061069
O O16 0.310563 0.520647 0.004925
O O17 0.783048 0.250000 0.348238
O O18 0.901030 0.494006 0.369307
O O19 0.695820 0.750000 0.050673
O O20 0.035226 0.250000 0.569387
O O21 0.000000 0.000000 0.500000
#
# Coordination Sequence:
#
# PCOD8073317 Si02
#       8
#     4   4   4   4   4   4   4   4
#     4  10  21  38  54  71 100 135 173 214 258 307
#     4  10  20  34  51  75 107 143 175 210 259 309
#     4  10  21  35  50  72 101 133 167 205 251 304
#     4  11  21  32  49  76 107 139 174 214 260 307
#     4   9  16  27  45  69 100 138 173 206 251 304
#     4  11  22  37  54  77 104 133 173 217 261 307
#     4   8  15  27  44  68 100 135 173 210 246 297
#     4  11  22  39  60  78  98 131 173 220 266 308
#
# _framework density 17.322234000000002
#
# number of rings (size 3 to 8) (size 9 to 14) (size 15 to 20)
#    0.000    2.000    1.250    4.125    0.000    8.000 
#    0.000    0.000    0.000    0.000    0.000    0.875 
#    0.000    0.000    0.000    0.000    0.000    0.000 
#
# Total GULP energy -396809.054770 kJ/mol
# GULP energy per Si atom -12400.282962 kJ/mol
# Density = 1.728281 g / cm^3
# Si number density = 17.322234 Si / 1000 Ang^3
#
#
#
# Elastic Constant Matrix: (Units=GPa)
#
#
# Indices 1 2 3 4 5 6 
#
# 1 82.9232 39.3971 51.9661 0.0000 12.8979 0.0000
# 2 39.3971 98.2769 56.7836 0.0000 5.5222 0.0000
# 3 51.9661 56.7836 133.1561 0.0000 18.0558 0.0000
# 4 0.0000 0.0000 0.0000 32.9231 0.0000 1.3133
# 5 12.8979 5.5222 18.0558 0.0000 9.1679 0.0000
# 6 0.0000 0.0000 0.0000 1.3133 0.0000 25.6434
#
#
#
# Elastic Compliance Matrix: (Units=1/GPa)
#
#
# Indices 1 2 3 4 5 6 
#
# 1 0.019027 -0.004963 -0.002844 0.000000 -0.018177 0.000000
# 2 -0.004963 0.014926 -0.005670 0.000000 0.009159 0.000000
# 3 -0.002844 -0.005670 0.013688 0.000000 -0.019541 0.000000
# 4 0.000000 0.000000 0.000000 0.030436 0.000000 -0.001559
# 5 -0.018177 0.009159 -0.019541 0.000000 0.167617 0.000000
# 6 0.000000 0.000000 0.000000 -0.001559 0.000000 0.039076
#
#
# Mechanical properties :
#
#
# Convention : Reuss Voigt Hill
#
# Bulk Modulus (GPa) = 48.34153 67.84997 58.09575
# Shear Modulus (GPa) = 15.69263 24.62750 20.16006
#
# Velocity S-wave (km/s) = 3.01312 3.77467 3.41519
# Velocity P-wave (km/s) = 6.33032 7.63229 7.01159
#
# Compressibility (1/GPa) = 0.02068615
#
# Stress axis : x y z
#
# Youngs Moduli (GPa) = 52.55716 66.99515 73.05718
#
# Poissons Ratio (x) = 0.33247 0.20781
# Poissons Ratio (y) = 0.26082 0.41427
# Poissons Ratio (z) = 0.14950 0.37989
#
# Static dielectric constant tensor:
#      x y z
#    x 2.974890 0.000000 0.068350 
#    y 0.000000 3.397810 0.000000 
#    z 0.068350 0.000000 3.432900 
# 
# 
# High freq. dielectric constant tensor:
#      x y z
#    x 1.628450 0.000000 0.005510 
#    y 0.000000 1.680090 0.000000 
#    z 0.005510 0.000000 1.679020 
# 
# From -- ./inp_files/58684.got.cif
#   From: 2010.06.25/outbox.cif.g09.slc.cpg/sg11_30_cif.got.tgz:58684.got - 2010.06.27 23:14:04.
