data_PCOD8073815
_publ_section_title
;
Structure prediction by ZEFSAII (Michael W. Deem and Ramdas Pophale) SiO2 
 PCOD8073815
Probable space group: P 21/M
;
_chemical_formula_sum "Si O2"
_cell_formula_units_Z 24
_cell_length_a 14.119103
_cell_length_b 13.783623
_cell_length_c 11.313511
_cell_angle_alpha 90.000000
_cell_angle_beta 147.987327
_cell_angle_gamma 90.000000
_cell_volume 1167.162414
_symmetry_space_group_name_H-M "P 21/M"
_symmetry_group_IT_number 11
_symmetry_cell_setting 'monoclinic'
loop_
_space_group_symop_operation_xyz
x,y,z
-x,1/2+y,-z
-x,-y,-z
x,1/2-y,z
loop_
_atom_site_type_symbol
_atom_site_label
_atom_site_fract_x
_atom_site_fract_y
_atom_site_fract_z
Si Si1 0.648931 0.548038 0.406734
Si Si2 0.007803 0.044427 0.379541
Si Si3 0.191811 0.954066 0.205156
Si Si4 0.302306 0.455477 0.090123
Si Si5 0.729926 0.250000 0.778153
Si Si6 0.745997 0.750000 0.604642
Si Si7 0.912904 0.250000 0.197761
Si Si8 0.352220 0.250000 0.248403
O O1 0.715822 0.471169 0.573138
O O2 0.452578 0.506306 0.164730
O O3 0.634493 0.655062 0.447536
O O4 0.784597 0.546514 0.439799
O O5 0.927578 0.153960 0.294242
O O6 0.000000 0.000000 0.500000
O O7 0.892430 0.975728 0.171222
O O8 0.161682 0.841008 0.155719
O O9 0.317139 0.995941 0.234379
O O10 0.000000 0.000000 0.000000
O O11 0.332421 0.340765 0.139062
O O12 0.532044 0.250000 0.516577
O O13 0.732307 0.250000 0.926180
O O14 0.788603 0.750000 0.791435
O O15 0.934944 0.750000 0.740741
#
# Coordination Sequence:
#
# PCOD8073815 Si02
#       8
#     4   4   4   4   2   2   2   2
#     4  11  22  41  63  97 134 166 212 269 325 391
#     4  11  26  46  67  91 125 175 231 277 313 373
#     4  12  21  37  62  99 132 168 203 268 330 399
#     4  12  24  40  63  94 135 169 211 262 333 383
#     4  12  22  36  63  98 134 166 214 255 325 414
#     4  10  20  34  62  96 131 165 207 247 321 402
#     4  10  22  41  66  93 121 170 219 271 321 378
#     4  12  24  35  61 103 138 173 198 259 337 408
#
# _framework density 20.562691000000001
#
# number of rings (size 3 to 8) (size 9 to 14) (size 15 to 20)
#    0.000    0.667    6.667    2.500    0.000    1.333 
#    0.000    1.667    0.000    0.000    0.000    0.000 
#    0.000    0.000    0.000    0.000    0.000    0.000 
#
# Total GULP energy -297576.083049 kJ/mol
# GULP energy per Si atom -12399.003460 kJ/mol
# Density = 2.051589 g / cm^3
# Si number density = 20.562691 Si / 1000 Ang^3
#
#
#
# Elastic Constant Matrix: (Units=GPa)
#
#
# Indices 1 2 3 4 5 6 
#
# 1 81.3078 41.9733 18.2158 0.0000 -2.6398 0.0000
# 2 41.9733 183.2642 32.1397 0.0000 -5.3222 0.0000
# 3 18.2158 32.1397 56.2945 0.0000 6.5299 0.0000
# 4 0.0000 0.0000 0.0000 19.2665 0.0000 -0.3976
# 5 -2.6398 -5.3222 6.5299 0.0000 34.2549 0.0000
# 6 0.0000 0.0000 0.0000 -0.3976 0.0000 34.4624
#
#
#
# Elastic Compliance Matrix: (Units=1/GPa)
#
#
# Indices 1 2 3 4 5 6 
#
# 1 0.014473 -0.002698 -0.003296 0.000000 0.001325 0.000000
# 2 -0.002698 0.006658 -0.003092 0.000000 0.001416 0.000000
# 3 -0.003296 -0.003092 0.021149 0.000000 -0.004766 0.000000
# 4 0.000000 0.000000 0.000000 0.051916 0.000000 0.000599
# 5 0.001325 0.001416 -0.004766 0.000000 0.030423 0.000000
# 6 0.000000 0.000000 0.000000 0.000599 0.000000 0.029024
#
#
# Mechanical properties :
#
#
# Convention : Reuss Voigt Hill
#
# Bulk Modulus (GPa) = 41.48347 56.16933 48.82640
# Shear Modulus (GPa) = 27.80049 32.83262 30.31656
#
# Velocity S-wave (km/s) = 3.68093 4.00022 3.84389
# Velocity P-wave (km/s) = 6.18737 6.97933 6.59525
#
# Compressibility (1/GPa) = 0.02410599
#
# Stress axis : x y z
#
# Youngs Moduli (GPa) = 69.09235 150.19449 47.28428
#
# Poissons Ratio (x) = 0.40527 0.15587
# Poissons Ratio (y) = 0.18643 0.14622
# Poissons Ratio (z) = 0.22776 0.46445
#
# Static dielectric constant tensor:
#      x y z
#    x 3.527310 0.000000 -0.054970 
#    y 0.000000 3.926250 0.000000 
#    z -0.054970 0.000000 2.851940 
# 
# 
# High freq. dielectric constant tensor:
#      x y z
#    x 1.779340 0.000000 0.028540 
#    y 0.000000 1.821500 0.000000 
#    z 0.028540 0.000000 1.795000 
# 
# From -- ./inp_files/39774.got.cif
#   From: 2010.06.25/outbox.cif.g09.slc.cpg/sg11_20_cif.got.tgz:39774.got - 2010.06.27 23:14:04.
