data_PCOD8073388
_publ_section_title
;
Structure prediction by ZEFSAII (Michael W. Deem and Ramdas Pophale) SiO2 
 PCOD8073388
Probable space group: P 21/M
;
_chemical_formula_sum "Si O2"
_cell_formula_units_Z 24
_cell_length_a 12.702070
_cell_length_b 8.763352
_cell_length_c 11.761131
_cell_angle_alpha 90.000000
_cell_angle_beta 89.615964
_cell_angle_gamma 90.000000
_cell_volume 1309.133963
_symmetry_space_group_name_H-M "P 21/M"
_symmetry_group_IT_number 11
_symmetry_cell_setting 'monoclinic'
loop_
_space_group_symop_operation_xyz
x,y,z
-x,1/2+y,-z
-x,-y,-z
x,1/2-y,z
loop_
_atom_site_type_symbol
_atom_site_label
_atom_site_fract_x
_atom_site_fract_y
_atom_site_fract_z
Si Si1 0.615402 0.926718 0.366997
Si Si2 0.805660 0.569563 0.764634
Si Si3 0.606039 0.571383 0.628070
Si Si4 0.997718 0.430509 0.377015
Si Si5 0.884066 0.569648 0.005625
Si Si6 0.199295 0.929395 0.768748
O O1 0.630928 0.750000 0.337292
O O2 0.642554 0.960227 0.498458
O O3 0.496414 0.974489 0.340661
O O4 0.689753 0.025785 0.285992
O O5 0.807784 0.750000 0.753170
O O6 0.696717 0.509552 0.711641
O O7 0.903711 0.502296 0.693401
O O8 0.817885 0.518343 0.895041
O O9 0.581267 0.750000 0.645261
O O10 0.002925 0.250000 0.386313
O O11 0.892106 0.484492 0.315213
O O12 0.000000 0.500000 0.500000
O O13 0.897544 0.750000 0.009822
O O14 0.816092 0.512420 0.111548
O O15 0.000000 0.500000 0.000000
O O16 0.194602 0.750000 0.790454
#
# Coordination Sequence:
#
# PCOD8073388 Si02
#       6
#     4   4   4   4   4   4
#     4  10  20  35  57  84 113 144 183 227 276 331
#     4   9  18  35  56  78 108 144 181 223 273 327
#     4   9  18  35  59  82 110 146 182 223 277 333
#     4  10  20  34  52  79 112 142 175 222 275 329
#     4  11  21  37  58  80 110 148 189 229 276 328
#     4  11  22  37  56  80 112 147 187 228 274 329
#
# _framework density 18.332730000000002
#
# number of rings (size 3 to 8) (size 9 to 14) (size 15 to 20)
#    0.000    2.000    1.667    2.500    0.000    3.333 
#    0.000    3.333    0.000    0.000    0.000    0.000 
#    0.000    0.000    0.000    0.000    0.000    0.000 
#
# Total GULP energy -297656.903702 kJ/mol
# GULP energy per Si atom -12402.370988 kJ/mol
# Density = 1.829100 g / cm^3
# Si number density = 18.332730 Si / 1000 Ang^3
#
#
#
# Elastic Constant Matrix: (Units=GPa)
#
#
# Indices 1 2 3 4 5 6 
#
# 1 116.2884 29.4849 75.2025 0.0000 8.5980 0.0000
# 2 29.4849 46.0871 39.1493 0.0000 5.2245 0.0000
# 3 75.2025 39.1493 153.9518 0.0000 5.0264 0.0000
# 4 0.0000 0.0000 0.0000 29.5178 0.0000 -2.9070
# 5 8.5980 5.2245 5.0264 0.0000 28.5287 0.0000
# 6 0.0000 0.0000 0.0000 -2.9070 0.0000 23.5715
#
#
#
# Elastic Compliance Matrix: (Units=1/GPa)
#
#
# Indices 1 2 3 4 5 6 
#
# 1 0.013213 -0.003530 -0.005479 0.000000 -0.002370 0.000000
# 2 -0.003530 0.029047 -0.005555 0.000000 -0.003277 0.000000
# 3 -0.005479 -0.005555 0.010558 0.000000 0.000808 0.000000
# 4 0.000000 0.000000 0.000000 0.034294 0.000000 0.004229
# 5 -0.002370 -0.003277 0.000808 0.000000 0.036224 0.000000
# 6 0.000000 0.000000 0.000000 0.004229 0.000000 0.042946
#
#
# Mechanical properties :
#
#
# Convention : Reuss Voigt Hill
#
# Bulk Modulus (GPa) = 42.21336 67.11119 54.66227
# Shear Modulus (GPa) = 24.59326 27.82298 26.20812
#
# Velocity S-wave (km/s) = 3.66662 3.89995 3.78508
# Velocity P-wave (km/s) = 6.40325 7.54760 6.99885
#
# Compressibility (1/GPa) = 0.02368919
#
# Stress axis : x y z
#
# Youngs Moduli (GPa) = 75.68324 34.42721 94.71258
#
# Poissons Ratio (x) = 0.12153 0.51895
# Poissons Ratio (y) = 0.26717 0.52614
# Poissons Ratio (z) = 0.41468 0.19125
#
# Static dielectric constant tensor:
#      x y z
#    x 3.429210 0.000000 0.130460 
#    y 0.000000 3.310670 0.000000 
#    z 0.130460 0.000000 3.517740 
# 
# 
# High freq. dielectric constant tensor:
#      x y z
#    x 1.714310 0.000000 0.000990 
#    y 0.000000 1.700490 0.000000 
#    z 0.000990 0.000000 1.714520 
# 
# From -- ./inp_files/33761.got.cif
#   From: 2010.06.25/outbox.cif.g09.slc.cpg/sg11_17_cif.got.tgz:33761.got - 2010.06.27 23:14:04.
