data_PCOD8073841
_publ_section_title
;
Structure prediction by ZEFSAII (Michael W. Deem and Ramdas Pophale) SiO2 
 PCOD8073841
Probable space group: P 21/M
;
_chemical_formula_sum "Si O2"
_cell_formula_units_Z 32
_cell_length_a 13.198397
_cell_length_b 10.636769
_cell_length_c 12.420001
_cell_angle_alpha 90.000000
_cell_angle_beta 72.141569
_cell_angle_gamma 90.000000
_cell_volume 1659.610102
_symmetry_space_group_name_H-M "P 21/M"
_symmetry_group_IT_number 11
_symmetry_cell_setting 'monoclinic'
loop_
_space_group_symop_operation_xyz
x,y,z
-x,1/2+y,-z
-x,-y,-z
x,1/2-y,z
loop_
_atom_site_type_symbol
_atom_site_label
_atom_site_fract_x
_atom_site_fract_y
_atom_site_fract_z
Si Si1 0.724282 0.896842 0.689928
Si Si2 0.184893 0.105058 0.555196
Si Si3 0.794894 0.024468 0.876866
Si Si4 0.647449 0.608878 0.316141
Si Si5 0.975890 0.893424 0.225961
Si Si6 0.425950 0.612383 0.984349
Si Si7 0.515251 0.106439 0.270263
Si Si8 0.166783 0.107816 0.911904
O O1 0.725651 0.750000 0.673069
O O2 0.791541 0.959401 0.568906
O O3 0.602167 0.941065 0.723844
O O4 0.774496 0.925589 0.788896
O O5 0.159903 0.250000 0.542229
O O6 0.289526 0.087694 0.594010
O O7 0.082147 0.043832 0.650187
O O8 0.690632 0.109538 0.924222
O O9 0.897316 0.104093 0.807227
O O10 0.824004 0.961456 0.978907
O O11 0.595789 0.750000 0.333301
O O12 0.560520 0.496817 0.338910
O O13 0.723264 0.597877 0.188226
O O14 0.934834 0.750000 0.236916
O O15 0.927852 0.953293 0.131188
O O16 0.475998 0.750000 0.997950
O O17 0.500000 0.500000 0.000000
O O18 0.412932 0.603252 0.860455
O O19 0.516203 0.250000 0.318127
O O20 0.138440 0.250000 0.951059
#
# Coordination Sequence:
#
# PCOD8073841 Si02
#       8
#     4   4   4   4   4   4   4   4
#     4  10  21  35  52  76 106 143 183 224 271 325
#     4   8  17  36  57  76 103 138 181 227 272 320
#     4  12  20  32  54  80 107 140 176 220 272 326
#     4   9  17  33  58  82 105 143 187 225 263 318
#     4   9  19  35  53  75 103 135 178 227 273 320
#     4  11  23  37  53  79 116 152 181 216 269 329
#     4  10  20  35  52  80 114 145 177 223 278 322
#     4   9  18  32  52  79 106 135 174 221 270 327
#
# _framework density 19.281637
#
# number of rings (size 3 to 8) (size 9 to 14) (size 15 to 20)
#    0.000    2.250    2.500    2.625    0.000    2.000 
#    0.000    0.000    0.000    4.500    0.000    0.000 
#    0.000    0.000    0.000    0.000    0.000    0.000 
#
# Total GULP energy -396479.208437 kJ/mol
# GULP energy per Si atom -12389.975264 kJ/mol
# Density = 1.923775 g / cm^3
# Si number density = 19.281637 Si / 1000 Ang^3
#
#
#
# Elastic Constant Matrix: (Units=GPa)
#
#
# Indices 1 2 3 4 5 6 
#
# 1 92.2121 28.8186 33.1956 0.0000 -11.2825 0.0000
# 2 28.8186 66.2800 8.9326 0.0000 -6.1613 0.0000
# 3 33.1956 8.9326 110.8522 0.0000 -5.1657 0.0000
# 4 0.0000 0.0000 0.0000 12.5972 0.0000 -0.3453
# 5 -11.2825 -6.1613 -5.1657 0.0000 13.2999 0.0000
# 6 0.0000 0.0000 0.0000 -0.3453 0.0000 24.0642
#
#
#
# Elastic Compliance Matrix: (Units=1/GPa)
#
#
# Indices 1 2 3 4 5 6 
#
# 1 0.014830 -0.005143 -0.003617 0.000000 0.008793 0.000000
# 2 -0.005143 0.017648 0.000301 0.000000 0.003930 0.000000
# 3 -0.003617 0.000301 0.010127 0.000000 0.001005 0.000000
# 4 0.000000 0.000000 0.000000 0.079414 0.000000 0.001139
# 5 0.008793 0.003930 0.001005 0.000000 0.084858 0.000000
# 6 0.000000 0.000000 0.000000 0.001139 0.000000 0.041572
#
#
# Mechanical properties :
#
#
# Convention : Reuss Voigt Hill
#
# Bulk Modulus (GPa) = 38.92957 45.69310 42.31134
# Shear Modulus (GPa) = 18.25289 23.21875 20.73582
#
# Velocity S-wave (km/s) = 3.08010 3.47391 3.28291
# Velocity P-wave (km/s) = 5.73438 6.31189 6.03005
#
# Compressibility (1/GPa) = 0.02568742
#
# Stress axis : x y z
#
# Youngs Moduli (GPa) = 67.43198 56.66206 98.74970
#
# Poissons Ratio (x) = 0.29142 0.35715
# Poissons Ratio (y) = 0.34682 -0.02974
# Poissons Ratio (z) = 0.24388 -0.01706
#
# Static dielectric constant tensor:
#      x y z
#    x 3.456460 0.000000 -0.117030 
#    y 0.000000 3.247990 0.000000 
#    z -0.117030 0.000000 3.780840 
# 
# 
# High freq. dielectric constant tensor:
#      x y z
#    x 1.739270 0.000000 -0.005000 
#    y 0.000000 1.715600 0.000000 
#    z -0.005000 0.000000 1.761620 
# 
# From -- ./inp_files/35056.got.cif
#   From: 2010.06.25/outbox.cif.g09.slc.cpg/sg11_18_cif.got.tgz:35056.got - 2010.06.27 23:14:04.
