data_PCOD8073714
_publ_section_title
;
Structure prediction by ZEFSAII (Michael W. Deem and Ramdas Pophale) SiO2 
 PCOD8073714
Probable space group: P 21/M
;
_chemical_formula_sum "Si O2"
_cell_formula_units_Z 32
_cell_length_a 8.855246
_cell_length_b 15.254165
_cell_length_c 18.275299
_cell_angle_alpha 90.000000
_cell_angle_beta 140.982953
_cell_angle_gamma 90.000000
_cell_volume 1554.121192
_symmetry_space_group_name_H-M "P 21/M"
_symmetry_group_IT_number 11
_symmetry_cell_setting 'monoclinic'
loop_
_space_group_symop_operation_xyz
x,y,z
-x,1/2+y,-z
-x,-y,-z
x,1/2-y,z
loop_
_atom_site_type_symbol
_atom_site_label
_atom_site_fract_x
_atom_site_fract_y
_atom_site_fract_z
Si Si1 0.604482 0.151676 0.625912
Si Si2 0.681212 0.851649 0.622411
Si Si3 0.177623 0.004238 0.650222
Si Si4 0.613900 0.916933 0.754808
Si Si5 0.192376 0.555302 0.806672
Si Si6 0.638790 0.847684 0.921542
Si Si7 0.001994 0.458386 0.858767
Si Si8 0.112809 0.148850 0.520120
O O1 0.707043 0.250000 0.655516
O O2 0.508127 0.116065 0.510847
O O3 0.816139 0.090097 0.734486
O O4 0.390756 0.153086 0.604329
O O5 0.734844 0.750000 0.628645
O O6 0.571494 0.866111 0.662278
O O7 0.930366 0.901508 0.707198
O O8 0.411063 0.990926 0.687419
O O9 0.230094 0.015437 0.755438
O O10 0.023247 0.913116 0.589442
O O11 0.064771 0.095572 0.578444
O O12 0.597944 0.853268 0.818859
O O13 0.869849 0.964191 0.852218
O O14 0.403527 0.625765 0.878919
O O15 0.214637 0.500351 0.889835
O O16 0.696002 0.750000 0.965464
O O17 0.876464 0.899359 0.034256
O O18 0.011687 0.250000 0.486356
#
# Coordination Sequence:
#
# PCOD8073714 Si02
#       8
#     4   4   4   4   4   4   4   4
#     4  10  20  35  59  89 123 159 193 237 293 353
#     4  10  20  36  58  90 123 155 195 245 296 350
#     4  10  20  37  56  86 119 159 199 245 295 352
#     4  10  22  37  60  87 116 151 198 249 296 346
#     4  10  22  37  61  84 116 153 198 244 300 347
#     4  11  23  41  63  86 113 152 200 248 294 352
#     4  11  22  40  60  87 117 156 194 240 293 358
#     4  10  20  34  56  85 122 164 201 240 293 356
#
# _framework density 20.590415
#
# number of rings (size 3 to 8) (size 9 to 14) (size 15 to 20)
#    0.000    1.750    2.500    1.875    0.000    6.500 
#    0.000    2.500    0.000    0.000    0.000    0.000 
#    0.000    0.000    0.000    0.000    0.000    0.000 
#
# Total GULP energy -396581.871558 kJ/mol
# GULP energy per Si atom -12393.183486 kJ/mol
# Density = 2.054355 g / cm^3
# Si number density = 20.590415 Si / 1000 Ang^3
#
#
#
# Elastic Constant Matrix: (Units=GPa)
#
#
# Indices 1 2 3 4 5 6 
#
# 1 80.7755 24.2686 14.5127 0.0000 0.4678 0.0000
# 2 24.2686 97.8399 8.7117 0.0000 -6.3403 0.0000
# 3 14.5127 8.7117 57.6665 0.0000 -6.0208 0.0000
# 4 0.0000 0.0000 0.0000 27.8940 0.0000 -2.5224
# 5 0.4678 -6.3403 -6.0208 0.0000 24.3844 0.0000
# 6 0.0000 0.0000 0.0000 -2.5224 0.0000 16.4259
#
#
#
# Elastic Compliance Matrix: (Units=1/GPa)
#
#
# Indices 1 2 3 4 5 6 
#
# 1 0.013961 -0.003301 -0.003215 0.000000 -0.001920 0.000000
# 2 -0.003301 0.011276 -0.000575 0.000000 0.002853 0.000000
# 3 -0.003215 -0.000575 0.018710 0.000000 0.004532 0.000000
# 4 0.000000 0.000000 0.000000 0.036355 0.000000 0.005583
# 5 -0.001920 0.002853 0.004532 0.000000 0.042908 0.000000
# 6 0.000000 0.000000 0.000000 0.005583 0.000000 0.061737
#
#
# Mechanical properties :
#
#
# Convention : Reuss Voigt Hill
#
# Bulk Modulus (GPa) = 33.59697 36.80753 35.20225
# Shear Modulus (GPa) = 23.91786 26.32680 25.12233
#
# Velocity S-wave (km/s) = 3.41192 3.57962 3.49678
# Velocity P-wave (km/s) = 5.64569 5.91606 5.78246
#
# Compressibility (1/GPa) = 0.02976459
#
# Stress axis : x y z
#
# Youngs Moduli (GPa) = 71.63048 88.68673 53.44670
#
# Poissons Ratio (x) = 0.29275 0.17184
# Poissons Ratio (y) = 0.23645 0.03072
# Poissons Ratio (z) = 0.23030 0.05097
#
# Static dielectric constant tensor:
#      x y z
#    x 3.789550 0.000000 -0.064320 
#    y 0.000000 3.721970 0.000000 
#    z -0.064320 0.000000 3.549210 
# 
# 
# High freq. dielectric constant tensor:
#      x y z
#    x 1.810390 0.000000 -0.002280 
#    y 0.000000 1.799970 0.000000 
#    z -0.002280 0.000000 1.794040 
# 
# From -- ./inp_files/63821.got.cif
#   From: 2010.06.25/outbox.cif.g09.slc.cpg/sg11_32_cif.got.tgz:63821.got - 2010.06.27 23:14:04.
