data_PCOD8073183
_publ_section_title
;
Structure prediction by ZEFSAII (Michael W. Deem and Ramdas Pophale) SiO2 
 PCOD8073183
Probable space group: P 21/M
;
_chemical_formula_sum "Si O2"
_cell_formula_units_Z 32
_cell_length_a 29.518198
_cell_length_b 9.501220
_cell_length_c 5.368403
_cell_angle_alpha 90.000000
_cell_angle_beta 100.921598
_cell_angle_gamma 90.000000
_cell_volume 1478.345680
_symmetry_space_group_name_H-M "P 21/M"
_symmetry_group_IT_number 11
_symmetry_cell_setting 'monoclinic'
loop_
_space_group_symop_operation_xyz
x,y,z
-x,1/2+y,-z
-x,-y,-z
x,1/2-y,z
loop_
_atom_site_type_symbol
_atom_site_label
_atom_site_fract_x
_atom_site_fract_y
_atom_site_fract_z
Si Si1 0.570265 0.597563 0.054267
Si Si2 0.198201 0.912301 0.435682
Si Si3 0.708748 0.581760 0.445669
Si Si4 0.141654 0.587786 0.874909
Si Si5 0.930168 0.594596 0.966545
Si Si6 0.340054 0.413799 0.108798
Si Si7 0.023423 0.595275 0.323356
Si Si8 0.477841 0.597460 0.677471
O O1 0.587880 0.750000 0.182046
O O2 0.517663 0.620330 0.921128
O O3 0.605106 0.552470 0.868385
O O4 0.568428 0.476053 0.261471
O O5 0.214284 0.750000 0.458522
O O6 0.171041 0.945598 0.153469
O O7 0.241353 0.014799 0.481763
O O8 0.168856 0.948321 0.651507
O O9 0.713225 0.750000 0.454169
O O10 0.685577 0.526944 0.164863
O O11 0.678653 0.523266 0.650254
O O12 0.125366 0.750000 0.858546
O O13 0.097467 0.483377 0.839066
O O14 0.908494 0.750000 0.884190
O O15 0.930975 0.485452 0.733751
O O16 0.983848 0.620152 0.078152
O O17 0.330505 0.250000 0.112955
O O18 0.039508 0.750000 0.439091
O O19 0.000000 0.500000 0.500000
O O20 0.500000 0.500000 0.500000
O O21 0.463193 0.750000 0.553667
#
# Coordination Sequence:
#
# PCOD8073183 Si02
#       8
#     4   4   4   4   4   4   4   4
#     4   9  19  35  54  77 107 148 190 234 283 335
#     4  10  22  40  60  84 116 152 190 233 292 355
#     4  10  20  36  59  86 112 143 186 235 286 344
#     4  10  22  39  60  86 115 154 196 237 287 351
#     4  10  22  38  56  85 117 151 197 246 293 341
#     4   9  19  34  58  86 112 144 189 235 282 342
#     4  10  21  37  58  83 117 157 196 241 291 345
#     4  10  20  33  53  78 109 148 189 234 283 336
#
# _framework density 21.645817999999998
#
# number of rings (size 3 to 8) (size 9 to 14) (size 15 to 20)
#    0.000    2.250    0.000    1.875    3.500    3.000 
#    0.000    1.250    0.000    0.000    0.000    0.000 
#    0.000    0.000    0.000    0.000    0.000    0.000 
#
# Total GULP energy -396463.044057 kJ/mol
# GULP energy per Si atom -12389.470127 kJ/mol
# Density = 2.159655 g / cm^3
# Si number density = 21.645818 Si / 1000 Ang^3
#
#
#
# Elastic Constant Matrix: (Units=GPa)
#
#
# Indices 1 2 3 4 5 6 
#
# 1 88.2000 35.0622 23.8422 0.0000 -28.9050 0.0000
# 2 35.0622 138.4610 28.7479 0.0000 -33.6913 0.0000
# 3 23.8422 28.7479 107.1905 0.0000 -30.6339 0.0000
# 4 0.0000 0.0000 0.0000 22.5834 0.0000 -10.5244
# 5 -28.9050 -33.6913 -30.6339 0.0000 40.7093 0.0000
# 6 0.0000 0.0000 0.0000 -10.5244 0.0000 32.2180
#
#
#
# Elastic Compliance Matrix: (Units=1/GPa)
#
#
# Indices 1 2 3 4 5 6 
#
# 1 0.015034 -0.001505 -0.000313 0.000000 0.009193 0.000000
# 2 -0.001505 0.009205 -0.000334 0.000000 0.006298 0.000000
# 3 -0.000313 -0.000334 0.011906 0.000000 0.008461 0.000000
# 4 0.000000 0.000000 0.000000 0.052232 0.000000 0.017062
# 5 0.009193 0.006298 0.008461 0.000000 0.042672 0.000000
# 6 0.000000 0.000000 0.000000 0.017062 0.000000 0.036612
#
#
# Mechanical properties :
#
#
# Convention : Reuss Voigt Hill
#
# Bulk Modulus (GPa) = 31.40555 56.57290 43.98923
# Shear Modulus (GPa) = 27.38550 35.51540 31.45045
#
# Velocity S-wave (km/s) = 3.56077 4.05501 3.81590
# Velocity P-wave (km/s) = 5.60766 6.93662 6.30724
#
# Compressibility (1/GPa) = 0.03184150
#
# Stress axis : x y z
#
# Youngs Moduli (GPa) = 66.51776 108.63327 83.98822
#
# Poissons Ratio (x) = 0.16349 0.02628
# Poissons Ratio (y) = 0.10011 0.02805
# Poissons Ratio (z) = 0.02081 0.03629
#
# Static dielectric constant tensor:
#      x y z
#    x 4.876600 0.000000 0.502190 
#    y 0.000000 4.315870 0.000000 
#    z 0.502190 0.000000 4.469400 
# 
# 
# High freq. dielectric constant tensor:
#      x y z
#    x 1.839610 0.000000 -0.018400 
#    y 0.000000 1.843740 0.000000 
#    z -0.018400 0.000000 1.846910 
# 
# From -- ./inp_files/9683.got.cif
#   From: 2010.06.25/outbox.cif.g09.slc.cpg/sg11_5_cif.got.tgz:9683.got - 2010.06.27 23:14:04.
