data_PCOD8073079
_publ_section_title
;
Structure prediction by ZEFSAII (Michael W. Deem and Ramdas Pophale) SiO2 
 PCOD8073079
Probable space group: P 21/M
;
_chemical_formula_sum "Si O2"
_cell_formula_units_Z 28
_cell_length_a 18.303614
_cell_length_b 9.293345
_cell_length_c 22.950838
_cell_angle_alpha 90.000000
_cell_angle_beta 155.729916
_cell_angle_gamma 90.000000
_cell_volume 1604.685333
_symmetry_space_group_name_H-M "P 21/M"
_symmetry_group_IT_number 11
_symmetry_cell_setting 'monoclinic'
loop_
_space_group_symop_operation_xyz
x,y,z
-x,1/2+y,-z
-x,-y,-z
x,1/2-y,z
loop_
_atom_site_type_symbol
_atom_site_label
_atom_site_fract_x
_atom_site_fract_y
_atom_site_fract_z
Si Si1 0.345874 0.583061 0.855427
Si Si2 0.244985 0.083297 0.475043
Si Si3 0.420565 0.087244 0.078642
Si Si4 0.513162 0.084711 0.568643
Si Si5 0.441148 0.918842 0.212109
Si Si6 0.110422 0.419605 0.762679
Si Si7 0.817898 0.419466 0.876472
O O1 0.340046 0.750000 0.870554
O O2 0.163297 0.503075 0.741019
O O3 0.500000 0.500000 0.000000
O O4 0.392568 0.571342 0.820706
O O5 0.187105 0.250000 0.439738
O O6 0.340380 0.058842 0.482662
O O7 0.376718 0.037383 0.623078
O O8 0.078374 0.977691 0.354005
O O9 0.395810 0.250000 0.082118
O O10 0.254081 0.043510 0.917019
O O11 0.428155 0.987982 0.139863
O O12 0.530645 0.250000 0.564724
O O13 0.687994 0.033587 0.729983
O O14 0.500000 0.000000 0.500000
O O15 0.437537 0.750000 0.200729
O O16 0.272073 0.966559 0.127935
O O17 0.101536 0.250000 0.743520
O O18 0.851668 0.250000 0.900273
O O19 0.000000 0.500000 0.000000
#
# Coordination Sequence:
#
# PCOD8073079 Si02
#       7
#     4   4   4   4   4   4   4
#     4   9  17  31  50  73 102 133 165 205 249 293
#     4   9  19  36  53  71  99 134 167 204 249 295
#     4   9  19  33  50  75 103 128 161 204 247 290
#     4   9  19  35  53  73 100 131 165 205 249 295
#     4   9  19  35  53  72  98 132 168 202 244 296
#     4  10  20  33  51  77 103 130 167 208 248 295
#     4   9  19  35  52  73 100 130 164 204 246 292
#
# _framework density 17.448903999999999
#
# number of rings (size 3 to 8) (size 9 to 14) (size 15 to 20)
#    0.000    2.857    0.000    3.429    0.000    6.857 
#    0.000    9.286    0.000    0.000    0.000    0.000 
#    0.000    0.000    0.000    0.000    0.000    0.000 
#
# Total GULP energy -347081.937665 kJ/mol
# GULP energy per Si atom -12395.783488 kJ/mol
# Density = 1.740919 g / cm^3
# Si number density = 17.448904 Si / 1000 Ang^3
#
#
#
# Elastic Constant Matrix: (Units=GPa)
#
#
# Indices 1 2 3 4 5 6 
#
# 1 120.2647 60.2542 60.4731 0.0000 -1.3224 0.0000
# 2 60.2542 80.8050 47.6115 0.0000 4.3679 0.0000
# 3 60.4731 47.6115 80.1007 0.0000 10.2992 0.0000
# 4 0.0000 0.0000 0.0000 33.5652 0.0000 1.8456
# 5 -1.3224 4.3679 10.2992 0.0000 22.3910 0.0000
# 6 0.0000 0.0000 0.0000 1.8456 0.0000 39.4936
#
#
#
# Elastic Compliance Matrix: (Units=1/GPa)
#
#
# Indices 1 2 3 4 5 6 
#
# 1 0.016643 -0.007486 -0.008959 0.000000 0.006564 0.000000
# 2 -0.007486 0.022466 -0.007527 0.000000 -0.001363 0.000000
# 3 -0.008959 -0.007527 0.025085 0.000000 -0.010599 0.000000
# 4 0.000000 0.000000 0.000000 0.029870 0.000000 -0.001396
# 5 0.006564 -0.001363 -0.010599 0.000000 0.050190 0.000000
# 6 0.000000 0.000000 0.000000 -0.001396 0.000000 0.025386
#
#
# Mechanical properties :
#
#
# Convention : Reuss Voigt Hill
#
# Bulk Modulus (GPa) = 61.53920 68.64976 65.09448
# Shear Modulus (GPa) = 22.42164 26.61207 24.51685
#
# Velocity S-wave (km/s) = 3.58856 3.90954 3.75249
# Velocity P-wave (km/s) = 7.24673 7.73357 7.49411
#
# Compressibility (1/GPa) = 0.01624981
#
# Stress axis : x y z
#
# Youngs Moduli (GPa) = 60.08673 44.51113 39.86494
#
# Poissons Ratio (x) = 0.33321 0.35714
# Poissons Ratio (y) = 0.44981 0.30006
# Poissons Ratio (z) = 0.53831 0.33503
#
# Static dielectric constant tensor:
#      x y z
#    x 3.369540 0.000000 0.180020 
#    y 0.000000 3.241670 0.000000 
#    z 0.180020 0.000000 3.185020 
# 
# 
# High freq. dielectric constant tensor:
#      x y z
#    x 1.680490 0.000000 0.012120 
#    y 0.000000 1.677610 0.000000 
#    z 0.012120 0.000000 1.658770 
# 
# From -- ./inp_files/28360.got.cif
#   From: 2010.06.25/outbox.cif.g09.slc.cpg/sg11_15_cif.got.tgz:28360.got - 2010.06.27 23:14:04.
