data_PCOD8073360
_publ_section_title
;
Structure prediction by ZEFSAII (Michael W. Deem and Ramdas Pophale) SiO2 
 PCOD8073360
Probable space group: P 21/M
;
_chemical_formula_sum "Si O2"
_cell_formula_units_Z 32
_cell_length_a 20.142672
_cell_length_b 9.632868
_cell_length_c 25.973064
_cell_angle_alpha 90.000000
_cell_angle_beta 159.017143
_cell_angle_gamma 90.000000
_cell_volume 1804.622535
_symmetry_space_group_name_H-M "P 21/M"
_symmetry_group_IT_number 11
_symmetry_cell_setting 'monoclinic'
loop_
_space_group_symop_operation_xyz
x,y,z
-x,1/2+y,-z
-x,-y,-z
x,1/2-y,z
loop_
_atom_site_type_symbol
_atom_site_label
_atom_site_fract_x
_atom_site_fract_y
_atom_site_fract_z
Si Si1 0.319099 0.410641 0.859892
Si Si2 0.650412 0.910076 0.418177
Si Si3 0.173074 0.088931 0.642852
Si Si4 0.502213 0.410931 0.803921
Si Si5 0.990343 0.591399 0.068047
Si Si6 0.728214 0.090576 0.811601
Si Si7 0.007441 0.910667 0.299265
Si Si8 0.862839 0.589513 0.085084
O O1 0.378092 0.250000 0.901540
O O2 0.223476 0.453676 0.737307
O O3 0.178099 0.443389 0.803692
O O4 0.500000 0.500000 0.000000
O O5 0.712474 0.750000 0.463666
O O6 0.570986 0.952546 0.305209
O O7 0.491351 0.940263 0.345863
O O8 0.826314 0.002009 0.557343
O O9 0.118301 0.250000 0.599130
O O10 0.345551 0.052882 0.731684
O O11 0.000000 0.000000 0.500000
O O12 0.559183 0.250000 0.847200
O O13 0.679475 0.500245 0.946598
O O14 0.935588 0.750000 0.016861
O O15 0.188413 0.555937 0.184659
O O16 0.001290 0.564249 0.137059
O O17 0.828437 0.498498 0.927624
O O18 0.763747 0.250000 0.852567
O O19 0.062506 0.750000 0.343775
O O20 0.974506 0.956141 0.216558
O O21 0.802193 0.750000 0.045381
#
# Coordination Sequence:
#
# PCOD8073360 Si02
#       8
#     4   4   4   4   4   4   4   4
#     4  10  21  37  55  76 101 134 174 213 256 306
#     4  10  20  34  52  76 104 136 171 207 255 308
#     4  10  21  35  52  76 103 131 168 213 259 306
#     4  10  20  34  53  77 103 130 167 215 260 304
#     4   9  17  30  51  77 103 132 168 209 253 299
#     4   9  17  31  51  76 105 133 165 209 254 300
#     4  10  22  37  52  73 106 140 171 210 254 304
#     4  10  20  34  52  77 103 133 172 211 252 300
#
# _framework density 17.732239
#
# number of rings (size 3 to 8) (size 9 to 14) (size 15 to 20)
#    0.000    2.250    1.250    1.500    0.000    3.000 
#    0.000    0.625    0.000    0.000    0.000    0.000 
#    0.000    0.000    0.000    0.000    0.000    0.000 
#
# Total GULP energy -396831.497506 kJ/mol
# GULP energy per Si atom -12400.984297 kJ/mol
# Density = 1.769188 g / cm^3
# Si number density = 17.732239 Si / 1000 Ang^3
#
#
#
# Elastic Constant Matrix: (Units=GPa)
#
#
# Indices 1 2 3 4 5 6 
#
# 1 106.6515 29.3304 25.1102 0.0000 -5.3797 0.0000
# 2 29.3304 56.7757 43.4306 0.0000 -1.9346 0.0000
# 3 25.1102 43.4306 66.1101 0.0000 -6.0428 0.0000
# 4 0.0000 0.0000 0.0000 36.0216 0.0000 1.2620
# 5 -5.3797 -1.9346 -6.0428 0.0000 17.4993 0.0000
# 6 0.0000 0.0000 0.0000 1.2620 0.0000 19.4758
#
#
#
# Elastic Compliance Matrix: (Units=1/GPa)
#
#
# Indices 1 2 3 4 5 6 
#
# 1 0.011071 -0.005221 -0.000534 0.000000 0.002642 0.000000
# 2 -0.005221 0.038177 -0.023603 0.000000 -0.005535 0.000000
# 3 -0.000534 -0.023603 0.031578 0.000000 0.008131 0.000000
# 4 0.000000 0.000000 0.000000 0.027824 0.000000 -0.001803
# 5 0.002642 -0.005535 0.008131 0.000000 0.060153 0.000000
# 6 0.000000 0.000000 0.000000 -0.001803 0.000000 0.051463
#
#
# Mechanical properties :
#
#
# Convention : Reuss Voigt Hill
#
# Bulk Modulus (GPa) = 45.22694 47.25328 46.24011
# Shear Modulus (GPa) = 17.46106 23.37708 20.41907
#
# Velocity S-wave (km/s) = 3.14141 3.63483 3.39709
# Velocity P-wave (km/s) = 6.22244 6.65748 6.44364
#
# Compressibility (1/GPa) = 0.02211071
#
# Stress axis : x y z
#
# Youngs Moduli (GPa) = 90.32524 26.19388 31.66770
#
# Poissons Ratio (x) = 0.13676 0.01690
# Poissons Ratio (y) = 0.47160 0.74745
# Poissons Ratio (z) = 0.04819 0.61825
#
# Static dielectric constant tensor:
#      x y z
#    x 3.702870 0.000000 0.066040 
#    y 0.000000 3.251990 0.000000 
#    z 0.066040 0.000000 3.044620 
# 
# 
# High freq. dielectric constant tensor:
#      x y z
#    x 1.707640 0.000000 0.007810 
#    y 0.000000 1.686200 0.000000 
#    z 0.007810 0.000000 1.667530 
# 
# From -- ./inp_files/66958.got.cif
#   From: 2010.06.25/outbox.cif.g09.slc.cpg/sg11_34_cif.got.tgz:66958.got - 2010.06.27 23:14:04.
