data_PCOD8073605
_publ_section_title
;
Structure prediction by ZEFSAII (Michael W. Deem and Ramdas Pophale) SiO2 
 PCOD8073605
Probable space group: P 21/M
;
_chemical_formula_sum "Si O2"
_cell_formula_units_Z 32
_cell_length_a 15.216701
_cell_length_b 8.964966
_cell_length_c 12.247120
_cell_angle_alpha 90.000000
_cell_angle_beta 88.024530
_cell_angle_gamma 90.000000
_cell_volume 1669.724959
_symmetry_space_group_name_H-M "P 21/M"
_symmetry_group_IT_number 11
_symmetry_cell_setting 'monoclinic'
loop_
_space_group_symop_operation_xyz
x,y,z
-x,1/2+y,-z
-x,-y,-z
x,1/2-y,z
loop_
_atom_site_type_symbol
_atom_site_label
_atom_site_fract_x
_atom_site_fract_y
_atom_site_fract_z
Si Si1 0.123952 0.922550 0.978836
Si Si2 0.031710 0.074832 0.173679
Si Si3 0.679190 0.076178 0.040113
Si Si4 0.059937 0.927022 0.404815
Si Si5 0.409994 0.420728 0.536865
Si Si6 0.262372 0.574369 0.406444
Si Si7 0.440883 0.419201 0.782086
Si Si8 0.363775 0.573056 0.194250
O O1 0.113640 0.750000 0.013280
O O2 0.107688 0.018099 0.089006
O O3 0.220869 0.959496 0.931137
O O4 0.060096 0.964222 0.881934
O O5 0.042949 0.250000 0.194812
O O6 0.033179 0.989538 0.287995
O O7 0.660868 0.250000 0.035509
O O8 0.614989 0.012312 0.131747
O O9 0.659494 0.004210 0.922482
O O10 0.046143 0.750000 0.405072
O O11 0.160811 0.969354 0.427352
O O12 0.000000 0.000000 0.500000
O O13 0.500000 0.500000 0.500000
O O14 0.416420 0.250000 0.497839
O O15 0.322833 0.495434 0.493032
O O16 0.396806 0.432664 0.666546
O O17 0.277242 0.750000 0.418536
O O18 0.292601 0.517128 0.285674
O O19 0.442733 0.250000 0.823940
O O20 0.540032 0.482900 0.773139
O O21 0.359653 0.750000 0.190146
#
# Coordination Sequence:
#
# PCOD8073605 Si02
#       8
#     4   4   4   4   4   4   4   4
#     4   9  19  36  57  84 115 151 192 236 290 349
#     4  10  20  36  60  86 115 148 192 244 292 349
#     4  10  20  34  55  81 111 148 192 231 275 342
#     4  11  24  41  62  86 119 157 196 246 302 361
#     4  11  22  38  60  85 116 152 193 243 290 344
#     4  10  21  40  64  86 111 151 196 241 296 350
#     4  10  21  36  53  77 114 150 182 231 288 333
#     4   9  17  34  57  79 109 145 184 231 283 337
#
# _framework density 19.164832000000001
#
# number of rings (size 3 to 8) (size 9 to 14) (size 15 to 20)
#    0.000    2.000    1.250    2.250    0.000    6.000 
#    0.000    4.375    0.000    0.000    0.000    0.000 
#    0.000    0.000    0.000    0.000    0.000    0.000 
#
# Total GULP energy -396822.886285 kJ/mol
# GULP energy per Si atom -12400.715196 kJ/mol
# Density = 1.912121 g / cm^3
# Si number density = 19.164832 Si / 1000 Ang^3
#
#
#
# Elastic Constant Matrix: (Units=GPa)
#
#
# Indices 1 2 3 4 5 6 
#
# 1 139.3787 54.9832 75.9150 0.0000 -10.4799 0.0000
# 2 54.9832 68.5274 50.9029 0.0000 -1.4234 0.0000
# 3 75.9150 50.9029 118.0254 0.0000 -1.0656 0.0000
# 4 0.0000 0.0000 0.0000 36.5297 0.0000 -2.4032
# 5 -10.4799 -1.4234 -1.0656 0.0000 32.9584 0.0000
# 6 0.0000 0.0000 0.0000 -2.4032 0.0000 31.4946
#
#
#
# Elastic Compliance Matrix: (Units=1/GPa)
#
#
# Indices 1 2 3 4 5 6 
#
# 1 0.012940 -0.006104 -0.005657 0.000000 0.003668 0.000000
# 2 -0.006104 0.024363 -0.006592 0.000000 -0.001102 0.000000
# 3 -0.005657 -0.006592 0.014940 0.000000 -0.001601 0.000000
# 4 0.000000 0.000000 0.000000 0.027513 0.000000 0.002099
# 5 0.003668 -0.001102 -0.001601 0.000000 0.031408 0.000000
# 6 0.000000 0.000000 0.000000 0.002099 0.000000 0.031912
#
#
# Mechanical properties :
#
#
# Convention : Reuss Voigt Hill
#
# Bulk Modulus (GPa) = 64.35909 76.61484 70.48697
# Shear Modulus (GPa) = 27.03273 29.80524 28.41898
#
# Velocity S-wave (km/s) = 3.75979 3.94789 3.85498
# Velocity P-wave (km/s) = 7.24588 7.80030 7.52819
#
# Compressibility (1/GPa) = 0.01553782
#
# Stress axis : x y z
#
# Youngs Moduli (GPa) = 77.28157 41.04504 66.93405
#
# Poissons Ratio (x) = 0.25053 0.37867
# Poissons Ratio (y) = 0.47170 0.44121
# Poissons Ratio (z) = 0.43721 0.27056
#
# Static dielectric constant tensor:
#      x y z
#    x 3.695940 0.000000 0.150360 
#    y 0.000000 3.571370 0.000000 
#    z 0.150360 0.000000 3.638320 
# 
# 
# High freq. dielectric constant tensor:
#      x y z
#    x 1.754550 0.000000 0.005210 
#    y 0.000000 1.732510 0.000000 
#    z 0.005210 0.000000 1.752370 
# 
# From -- ./inp_files/38144.got.cif
#   From: 2010.06.25/outbox.cif.g09.slc.cpg/sg11_20_cif.got.tgz:38144.got - 2010.06.27 23:14:04.
