data_PCOD8073700
_publ_section_title
;
Structure prediction by ZEFSAII (Michael W. Deem and Ramdas Pophale) SiO2 
 PCOD8073700
Probable space group: P 21/M
;
_chemical_formula_sum "Si O2"
_cell_formula_units_Z 28
_cell_length_a 15.171159
_cell_length_b 8.891641
_cell_length_c 19.932913
_cell_angle_alpha 90.000000
_cell_angle_beta 31.017849
_cell_angle_gamma 90.000000
_cell_volume 1385.593614
_symmetry_space_group_name_H-M "P 21/M"
_symmetry_group_IT_number 11
_symmetry_cell_setting 'monoclinic'
loop_
_space_group_symop_operation_xyz
x,y,z
-x,1/2+y,-z
-x,-y,-z
x,1/2-y,z
loop_
_atom_site_type_symbol
_atom_site_label
_atom_site_fract_x
_atom_site_fract_y
_atom_site_fract_z
Si Si1 0.933972 0.419519 0.107901
Si Si2 0.287000 0.079070 0.941495
Si Si3 0.565080 0.572806 0.669485
Si Si4 0.694044 0.914509 0.809963
Si Si5 0.183219 0.928913 0.396298
Si Si6 0.431184 0.573532 0.612257
Si Si7 0.693659 0.413901 0.933727
O O1 0.890270 0.250000 0.115321
O O2 0.759930 0.492135 0.250462
O O3 0.000000 0.500000 0.000000
O O4 0.083968 0.429614 0.063952
O O5 0.355129 0.250000 0.891743
O O6 0.392274 0.980958 0.819327
O O7 0.306854 0.019887 0.002601
O O8 0.584717 0.750000 0.669644
O O9 0.733630 0.489038 0.588512
O O10 0.548281 0.535923 0.601096
O O11 0.782716 0.750000 0.740198
O O12 0.693242 0.015884 0.743721
O O13 0.788193 0.003438 0.809453
O O14 0.501878 0.884369 0.958396
O O15 0.170652 0.750000 0.406738
O O16 0.000000 0.000000 0.500000
O O17 0.500000 0.500000 0.500000
O O18 0.425403 0.750000 0.603046
O O19 0.781045 0.250000 0.889628
#
# Coordination Sequence:
#
# PCOD8073700 Si02
#       7
#     4   4   4   4   4   4   4
#     4  10  21  38  61  93 126 161 205 261 317 374
#     4  11  21  34  59  91 123 158 203 256 312 375
#     4  11  22  40  65  91 122 161 208 260 317 379
#     4  10  20  36  58  84 117 154 196 246 304 362
#     4  12  25  42  64  89 121 161 209 259 310 372
#     4  10  23  43  66  92 128 169 211 263 321 384
#     4  10  20  34  56  84 119 158 195 244 303 363
#
# _framework density 20.207944000000001
#
# number of rings (size 3 to 8) (size 9 to 14) (size 15 to 20)
#    0.000    1.429    2.857    3.000    0.000    3.429 
#    2.571    0.000    0.000    0.000    0.000    0.000 
#    0.000    0.000    0.000    0.000    0.000    0.000 
#
# Total GULP energy -347090.452785 kJ/mol
# GULP energy per Si atom -12396.087599 kJ/mol
# Density = 2.016195 g / cm^3
# Si number density = 20.207944 Si / 1000 Ang^3
#
#
#
# Elastic Constant Matrix: (Units=GPa)
#
#
# Indices 1 2 3 4 5 6 
#
# 1 129.9103 64.3156 59.3850 0.0000 16.7074 0.0000
# 2 64.3156 133.4029 44.9294 0.0000 2.3812 0.0000
# 3 59.3850 44.9294 90.0799 0.0000 0.8371 0.0000
# 4 0.0000 0.0000 0.0000 29.9180 0.0000 4.6245
# 5 16.7074 2.3812 0.8371 0.0000 35.8770 0.0000
# 6 0.0000 0.0000 0.0000 4.6245 0.0000 33.1198
#
#
#
# Elastic Compliance Matrix: (Units=1/GPa)
#
#
# Indices 1 2 3 4 5 6 
#
# 1 0.013666 -0.004167 -0.006876 0.000000 -0.005927 0.000000
# 2 -0.004167 0.010289 -0.002397 0.000000 0.001314 0.000000
# 3 -0.006876 -0.002397 0.016802 0.000000 0.002969 0.000000
# 4 0.000000 0.000000 0.000000 0.034162 0.000000 -0.004770
# 5 -0.005927 0.001314 0.002969 0.000000 0.030477 0.000000
# 6 0.000000 0.000000 0.000000 -0.004770 0.000000 0.030859
#
#
# Mechanical properties :
#
#
# Convention : Reuss Voigt Hill
#
# Bulk Modulus (GPa) = 72.05951 76.73925 74.39938
# Shear Modulus (GPa) = 29.80441 32.10050 30.95246
#
# Velocity S-wave (km/s) = 3.84459 3.98993 3.91794
# Velocity P-wave (km/s) = 7.44609 7.69957 7.57389
#
# Compressibility (1/GPa) = 0.01387742
#
# Stress axis : x y z
#
# Youngs Moduli (GPa) = 73.17446 97.19199 59.51666
#
# Poissons Ratio (x) = 0.40501 0.40922
# Poissons Ratio (y) = 0.30492 0.14266
# Poissons Ratio (z) = 0.50313 0.23296
#
# Static dielectric constant tensor:
#      x y z
#    x 4.493960 0.000000 -0.573410 
#    y 0.000000 4.002650 0.000000 
#    z -0.573410 0.000000 4.163620 
# 
# 
# High freq. dielectric constant tensor:
#      x y z
#    x 1.793440 0.000000 0.004170 
#    y 0.000000 1.803010 0.000000 
#    z 0.004170 0.000000 1.767130 
# 
# From -- ./inp_files/65381.got.cif
#   From: 2010.06.25/outbox.cif.g09.slc.cpg/sg11_33_cif.got.tgz:65381.got - 2010.06.27 23:14:04.
