data_PCOD8073837
_publ_section_title
;
Structure prediction by ZEFSAII (Michael W. Deem and Ramdas Pophale) SiO2 
 PCOD8073837
Probable space group: P 21/M
;
_chemical_formula_sum "Si O2"
_cell_formula_units_Z 32
_cell_length_a 14.368951
_cell_length_b 8.679384
_cell_length_c 15.527100
_cell_angle_alpha 90.000000
_cell_angle_beta 62.587836
_cell_angle_gamma 90.000000
_cell_volume 1719.013069
_symmetry_space_group_name_H-M "P 21/M"
_symmetry_group_IT_number 11
_symmetry_cell_setting 'monoclinic'
loop_
_space_group_symop_operation_xyz
x,y,z
-x,1/2+y,-z
-x,-y,-z
x,1/2-y,z
loop_
_atom_site_type_symbol
_atom_site_label
_atom_site_fract_x
_atom_site_fract_y
_atom_site_fract_z
Si Si1 0.176512 0.925368 0.434182
Si Si2 0.154237 0.426712 0.264684
Si Si3 0.725332 0.929689 0.352427
Si Si4 0.347641 0.928403 0.093759
Si Si5 0.387982 0.574101 0.439220
Si Si6 0.588947 0.428990 0.275168
Si Si7 0.553282 0.571448 0.108018
Si Si8 0.917990 0.428481 0.346989
O O1 0.149574 0.750000 0.419318
O O2 0.298923 0.940199 0.404727
O O3 0.106510 0.980674 0.544698
O O4 0.150756 0.038326 0.367290
O O5 0.187817 0.250000 0.237618
O O6 0.234633 0.536574 0.181481
O O7 0.039404 0.457459 0.273715
O O8 0.710891 0.750000 0.374119
O O9 0.655101 0.022006 0.450501
O O10 0.686490 0.977345 0.274108
O O11 0.847710 0.974205 0.310415
O O12 0.354860 0.750000 0.065021
O O13 0.436155 0.970030 0.126326
O O14 0.363743 0.029886 0.001683
O O15 0.427329 0.750000 0.429841
O O16 0.483436 0.467073 0.371549
O O17 0.613259 0.250000 0.273089
O O18 0.578514 0.471492 0.180184
O O19 0.563385 0.750000 0.127731
O O20 0.886138 0.250000 0.351423
#
# Coordination Sequence:
#
# PCOD8073837 Si02
#       8
#     4   4   4   4   4   4   4   4
#     4   9  18  32  50  73 106 143 177 217 261 306
#     4  11  21  32  52  79 107 140 178 218 260 312
#     4  11  22  36  54  76 103 139 181 223 265 309
#     4  10  21  37  57  81 110 140 170 211 262 313
#     4  10  20  35  52  75 109 144 178 218 262 309
#     4  12  23  35  54  79 107 140 177 216 261 315
#     4  10  21  38  58  81 109 139 173 214 259 310
#     4   9  20  37  52  72 105 143 180 220 264 307
#
# _framework density 18.615333
#
# number of rings (size 3 to 8) (size 9 to 14) (size 15 to 20)
#    0.000    1.750    0.000    6.000    0.000    8.000 
#    0.000    0.000    0.000    0.750    0.000    0.000 
#    0.000    0.000    0.000    0.000    0.000    0.000 
#
# Total GULP energy -396966.992228 kJ/mol
# GULP energy per Si atom -12405.218507 kJ/mol
# Density = 1.857296 g / cm^3
# Si number density = 18.615333 Si / 1000 Ang^3
#
#
#
# Elastic Constant Matrix: (Units=GPa)
#
#
# Indices 1 2 3 4 5 6 
#
# 1 90.9670 31.9191 43.7045 0.0000 0.8481 0.0000
# 2 31.9191 67.9058 17.7979 0.0000 3.0155 0.0000
# 3 43.7045 17.7979 61.5092 0.0000 -2.5185 0.0000
# 4 0.0000 0.0000 0.0000 31.3153 0.0000 1.4708
# 5 0.8481 3.0155 -2.5185 0.0000 26.1751 0.0000
# 6 0.0000 0.0000 0.0000 1.4708 0.0000 30.6084
#
#
#
# Elastic Compliance Matrix: (Units=1/GPa)
#
#
# Indices 1 2 3 4 5 6 
#
# 1 0.018550 -0.005633 -0.011594 0.000000 -0.001068 0.000000
# 2 -0.005633 0.017783 -0.001224 0.000000 -0.001984 0.000000
# 3 -0.011594 -0.001224 0.024970 0.000000 0.002919 0.000000
# 4 0.000000 0.000000 0.000000 0.032006 0.000000 -0.001538
# 5 -0.001068 -0.001984 0.002919 0.000000 0.038748 0.000000
# 6 0.000000 0.000000 0.000000 -0.001538 0.000000 0.032745
#
#
# Mechanical properties :
#
#
# Convention : Reuss Voigt Hill
#
# Bulk Modulus (GPa) = 40.98453 45.24723 43.11588
# Shear Modulus (GPa) = 23.82799 26.08378 24.95589
#
# Velocity S-wave (km/s) = 3.58162 3.74732 3.66541
# Velocity P-wave (km/s) = 6.25846 6.56372 6.41291
#
# Compressibility (1/GPa) = 0.02439945
#
# Stress axis : x y z
#
# Youngs Moduli (GPa) = 53.90878 56.23313 40.04879
#
# Poissons Ratio (x) = 0.31677 0.46433
# Poissons Ratio (y) = 0.30368 0.04903
# Poissons Ratio (z) = 0.62502 0.06885
#
# Static dielectric constant tensor:
#      x y z
#    x 3.526900 0.000000 0.014730 
#    y 0.000000 3.417490 0.000000 
#    z 0.014730 0.000000 3.193420 
# 
# 
# High freq. dielectric constant tensor:
#      x y z
#    x 1.722450 0.000000 0.000780 
#    y 0.000000 1.732270 0.000000 
#    z 0.000780 0.000000 1.698050 
# 
# From -- ./inp_files/51699.got.cif
#   From: 2010.06.25/outbox.cif.g09.slc.cpg/sg11_26_cif.got.tgz:51699.got - 2010.06.27 23:14:04.
