data_PCOD8073704
_publ_section_title
;
Structure prediction by ZEFSAII (Michael W. Deem and Ramdas Pophale) SiO2 
 PCOD8073704
Probable space group: P 21/M
;
_chemical_formula_sum "Si O2"
_cell_formula_units_Z 32
_cell_length_a 17.912243
_cell_length_b 15.473347
_cell_length_c 12.242946
_cell_angle_alpha 90.000000
_cell_angle_beta 151.048746
_cell_angle_gamma 90.000000
_cell_volume 1642.571021
_symmetry_space_group_name_H-M "P 21/M"
_symmetry_group_IT_number 11
_symmetry_cell_setting 'monoclinic'
loop_
_space_group_symop_operation_xyz
x,y,z
-x,1/2+y,-z
-x,-y,-z
x,1/2-y,z
loop_
_atom_site_type_symbol
_atom_site_label
_atom_site_fract_x
_atom_site_fract_y
_atom_site_fract_z
Si Si1 0.299444 0.648795 0.720492
Si Si2 0.183477 0.992867 0.737689
Si Si3 0.116809 0.074764 0.117197
Si Si4 0.165546 0.652143 0.326271
Si Si5 0.402064 0.544677 0.207485
Si Si6 0.333289 0.348737 0.563703
Si Si7 0.346938 0.560245 0.369828
Si Si8 0.660904 0.848145 0.179412
O O1 0.258433 0.750000 0.690551
O O2 0.235130 0.590811 0.735746
O O3 0.225385 0.609335 0.514666
O O4 0.480035 0.635589 0.937636
O O5 0.250466 0.083338 0.780932
O O6 0.000000 0.000000 0.500000
O O7 0.247852 0.979744 0.943338
O O8 0.179082 0.124506 0.302816
O O9 0.262292 0.032834 0.241902
O O10 0.019860 0.140613 0.917555
O O11 0.000000 0.000000 0.000000
O O12 0.214066 0.750000 0.397375
O O13 0.246049 0.618641 0.319755
O O14 0.516185 0.596765 0.274802
O O15 0.361624 0.600154 0.266212
O O16 0.488052 0.457801 0.361807
O O17 0.376256 0.250000 0.594953
O O18 0.289705 0.363948 0.633100
O O19 0.702528 0.750000 0.195732
#
# Coordination Sequence:
#
# PCOD8073704 Si02
#       8
#     4   4   4   4   4   4   4   4
#     4  10  22  40  64  91 122 161 209 253 300 367
#     4  12  26  37  62  91 126 163 200 250 325 374
#     4   9  19  32  55  81 112 147 186 239 291 353
#     4  10  20  34  56  85 114 149 190 238 299 358
#     4  10  21  38  55  84 114 154 198 242 295 363
#     4  10  20  36  60  86 113 152 205 254 298 353
#     4   9  20  36  57  79 113 149 194 242 285 348
#     4  10  22  41  64  89 116 159 213 260 298 366
#
# _framework density 19.481653000000001
#
# number of rings (size 3 to 8) (size 9 to 14) (size 15 to 20)
#    0.000    2.000    1.250    1.500    7.000    2.000 
#    0.000    0.000    0.000    0.750    0.000    0.000 
#    0.000    0.000    0.000    0.000    0.000    0.000 
#
# Total GULP energy -396621.082402 kJ/mol
# GULP energy per Si atom -12394.408825 kJ/mol
# Density = 1.943731 g / cm^3
# Si number density = 19.481653 Si / 1000 Ang^3
#
#
#
# Elastic Constant Matrix: (Units=GPa)
#
#
# Indices 1 2 3 4 5 6 
#
# 1 74.2220 36.4545 40.9341 0.0000 -9.9205 0.0000
# 2 36.4545 77.6925 33.4732 0.0000 -5.4400 0.0000
# 3 40.9341 33.4732 157.2721 0.0000 -13.1557 0.0000
# 4 0.0000 0.0000 0.0000 25.8144 0.0000 -2.1745
# 5 -9.9205 -5.4400 -13.1557 0.0000 30.3224 0.0000
# 6 0.0000 0.0000 0.0000 -2.1745 0.0000 17.2361
#
#
#
# Elastic Compliance Matrix: (Units=1/GPa)
#
#
# Indices 1 2 3 4 5 6 
#
# 1 0.019365 -0.007477 -0.003145 0.000000 0.003630 0.000000
# 2 -0.007477 0.017106 -0.001704 0.000000 -0.000117 0.000000
# 3 -0.003145 -0.001704 0.007708 0.000000 0.002009 0.000000
# 4 0.000000 0.000000 0.000000 0.039154 0.000000 0.004940
# 5 0.003630 -0.000117 0.002009 0.000000 0.035017 0.000000
# 6 0.000000 0.000000 0.000000 0.004940 0.000000 0.058641
#
#
# Mechanical properties :
#
#
# Convention : Reuss Voigt Hill
#
# Bulk Modulus (GPa) = 51.21573 58.99002 55.10287
# Shear Modulus (GPa) = 24.02070 27.89623 25.95846
#
# Velocity S-wave (km/s) = 3.51521 3.78818 3.65424
# Velocity P-wave (km/s) = 6.54384 7.03415 6.79342
#
# Compressibility (1/GPa) = 0.01952525
#
# Stress axis : x y z
#
# Youngs Moduli (GPa) = 51.63854 58.45960 129.73731
#
# Poissons Ratio (x) = 0.43712 0.40806
# Poissons Ratio (y) = 0.38612 0.22112
# Poissons Ratio (z) = 0.16242 0.09964
#
# Static dielectric constant tensor:
#      x y z
#    x 3.426190 0.000000 0.274330 
#    y 0.000000 3.613810 0.000000 
#    z 0.274330 0.000000 3.357760 
# 
# 
# High freq. dielectric constant tensor:
#      x y z
#    x 1.744890 0.000000 -0.010450 
#    y 0.000000 1.748250 0.000000 
#    z -0.010450 0.000000 1.779510 
# 
# From -- ./inp_files/41721.got.cif
#   From: 2010.06.25/outbox.cif.g09.slc.cpg/sg11_21_cif.got.tgz:41721.got - 2010.06.27 23:14:04.
