data_PCOD8073341
_publ_section_title
;
Structure prediction by ZEFSAII (Michael W. Deem and Ramdas Pophale) SiO2 
 PCOD8073341
Probable space group: P 21/M
;
_chemical_formula_sum "Si O2"
_cell_formula_units_Z 24
_cell_length_a 11.134814
_cell_length_b 9.020021
_cell_length_c 23.821040
_cell_angle_alpha 90.000000
_cell_angle_beta 34.591628
_cell_angle_gamma 90.000000
_cell_volume 1358.276157
_symmetry_space_group_name_H-M "P 21/M"
_symmetry_group_IT_number 11
_symmetry_cell_setting 'monoclinic'
loop_
_space_group_symop_operation_xyz
x,y,z
-x,1/2+y,-z
-x,-y,-z
x,1/2-y,z
loop_
_atom_site_type_symbol
_atom_site_label
_atom_site_fract_x
_atom_site_fract_y
_atom_site_fract_z
Si Si1 0.352240 0.420161 0.012923
Si Si2 0.389851 0.079463 0.168064
Si Si3 0.831429 0.579089 0.635295
Si Si4 0.419519 0.074630 0.587500
Si Si5 0.012287 0.419277 0.228506
Si Si6 0.739286 0.921875 0.544270
O O1 0.416934 0.250000 0.986482
O O2 0.111171 0.439412 0.127660
O O3 0.500000 0.500000 0.000000
O O4 0.401581 0.489465 0.932652
O O5 0.450301 0.250000 0.138920
O O6 0.339352 0.036053 0.251656
O O7 0.185712 0.041899 0.208854
O O8 0.904111 0.750000 0.613894
O O9 0.722631 0.551496 0.617302
O O10 0.035086 0.476266 0.565379
O O11 0.442826 0.250000 0.573235
O O12 0.500000 0.000000 0.500000
O O13 0.554340 0.016852 0.587986
O O14 0.177082 0.033450 0.691501
O O15 0.932188 0.250000 0.267186
O O16 0.712264 0.750000 0.538713
#
# Coordination Sequence:
#
# PCOD8073341 Si02
#       6
#     4   4   4   4   4   4
#     4   9  17  29  47  71  99 129 160 199 244 289
#     4   9  17  30  50  75 102 129 159 199 244 290
#     4   9  18  33  53  76 102 132 165 203 245 288
#     4  12  24  36  52  73  99 131 166 204 246 296
#     4   9  18  32  49  72 103 133 160 198 247 292
#     4  10  20  34  52  74 101 133 167 203 245 292
#
# _framework density 17.669454999999999
#
# number of rings (size 3 to 8) (size 9 to 14) (size 15 to 20)
#    0.000    2.333    0.000    4.500    0.000    6.000 
#    0.000    0.000    0.000    1.000    0.000    0.000 
#    0.000    0.000    0.000    0.000    0.000    0.000 
#
# Total GULP energy -297555.685210 kJ/mol
# GULP energy per Si atom -12398.153550 kJ/mol
# Density = 1.762924 g / cm^3
# Si number density = 17.669455 Si / 1000 Ang^3
#
#
#
# Elastic Constant Matrix: (Units=GPa)
#
#
# Indices 1 2 3 4 5 6 
#
# 1 61.3060 39.2171 45.2571 0.0000 12.9022 0.0000
# 2 39.2171 117.1563 64.8273 0.0000 7.1646 0.0000
# 3 45.2571 64.8273 122.2187 0.0000 24.9324 0.0000
# 4 0.0000 0.0000 0.0000 36.1530 0.0000 0.8070
# 5 12.9022 7.1646 24.9324 0.0000 26.7022 0.0000
# 6 0.0000 0.0000 0.0000 0.8070 0.0000 25.7534
#
#
#
# Elastic Compliance Matrix: (Units=1/GPa)
#
#
# Indices 1 2 3 4 5 6 
#
# 1 0.024588 -0.004925 -0.005359 0.000000 -0.005555 0.000000
# 2 -0.004925 0.013321 -0.006175 0.000000 0.004571 0.000000
# 3 -0.005359 -0.006175 0.015534 0.000000 -0.010259 0.000000
# 4 0.000000 0.000000 0.000000 0.027680 0.000000 -0.000867
# 5 -0.005555 0.004571 -0.010259 0.000000 0.048486 0.000000
# 6 0.000000 0.000000 0.000000 -0.000867 0.000000 0.038857
#
#
# Mechanical properties :
#
#
# Convention : Reuss Voigt Hill
#
# Bulk Modulus (GPa) = 48.71992 66.58712 57.65352
# Shear Modulus (GPa) = 24.01239 27.81370 25.91304
#
# Velocity S-wave (km/s) = 3.69043 3.97181 3.83370
# Velocity P-wave (km/s) = 6.76697 7.66814 7.23161
#
# Compressibility (1/GPa) = 0.02052549
#
# Stress axis : x y z
#
# Youngs Moduli (GPa) = 40.67106 75.06691 64.37389
#
# Poissons Ratio (x) = 0.36974 0.34497
# Poissons Ratio (y) = 0.20032 0.39748
# Poissons Ratio (z) = 0.21795 0.46350
#
# Static dielectric constant tensor:
#      x y z
#    x 3.083480 0.000000 0.216590 
#    y 0.000000 3.543130 0.000000 
#    z 0.216590 0.000000 3.458470 
# 
# 
# High freq. dielectric constant tensor:
#      x y z
#    x 1.653250 0.000000 0.023250 
#    y 0.000000 1.691640 0.000000 
#    z 0.023250 0.000000 1.687090 
# 
# From -- ./inp_files/40808.got.cif
#   From: 2010.06.25/outbox.cif.g09.slc.cpg/sg11_21_cif.got.tgz:40808.got - 2010.06.27 23:14:04.
