data_PCOD8073992
_publ_section_title
;
Structure prediction by ZEFSAII (Michael W. Deem and Ramdas Pophale) SiO2 
 PCOD8073992
Probable space group: P 21/M
;
_chemical_formula_sum "Si O2"
_cell_formula_units_Z 28
_cell_length_a 15.912808
_cell_length_b 9.627901
_cell_length_c 19.894109
_cell_angle_alpha 90.000000
_cell_angle_beta 149.951323
_cell_angle_gamma 90.000000
_cell_volume 1526.199744
_symmetry_space_group_name_H-M "P 21/M"
_symmetry_group_IT_number 11
_symmetry_cell_setting 'monoclinic'
loop_
_space_group_symop_operation_xyz
x,y,z
-x,1/2+y,-z
-x,-y,-z
x,1/2-y,z
loop_
_atom_site_type_symbol
_atom_site_label
_atom_site_fract_x
_atom_site_fract_y
_atom_site_fract_z
Si Si1 0.502239 0.911716 0.191085
Si Si2 0.461836 0.410544 0.408682
Si Si3 0.041351 0.409396 0.713007
Si Si4 0.875852 0.088603 0.101496
Si Si5 0.331881 0.589930 0.578777
Si Si6 0.085026 0.089515 0.115881
Si Si7 0.376060 0.090049 0.869727
O O1 0.516359 0.750000 0.218787
O O2 0.604960 0.949662 0.195068
O O3 0.577096 0.996673 0.303911
O O4 0.310010 0.957276 0.048553
O O5 0.500000 0.500000 0.500000
O O6 0.468382 0.250000 0.434777
O O7 0.598764 0.446191 0.447038
O O8 0.280238 0.448984 0.253540
O O9 0.045947 0.250000 0.740509
O O10 0.865259 0.444167 0.555884
O O11 0.065511 0.504324 0.793864
O O12 0.184716 0.440208 0.757499
O O13 0.879466 0.250000 0.123454
O O14 0.003189 0.052152 0.130355
O O15 0.368713 0.750000 0.621849
O O16 0.055663 0.250000 0.077589
O O17 0.000000 0.000000 0.000000
O O18 0.426374 0.250000 0.916232
O O19 0.500000 0.000000 0.000000
#
# Coordination Sequence:
#
# PCOD8073992 Si02
#       7
#     4   4   4   4   4   4   4
#     4  10  21  36  55  80 110 142 178 223 271 322
#     4  10  21  37  56  79 109 144 183 225 268 320
#     4  10  21  36  56  81 108 140 180 222 265 321
#     4  10  20  35  55  80 108 139 180 227 271 318
#     4  10  22  38  54  79 113 145 180 222 269 321
#     4  10  21  35  53  79 108 140 181 226 270 319
#     4  10  20  36  57  82 110 139 178 223 268 321
#
# _framework density 18.346222000000001
#
# number of rings (size 3 to 8) (size 9 to 14) (size 15 to 20)
#    0.000    2.000    1.429    1.714    0.000    4.000 
#    0.000    0.000    0.000    0.000    0.000    0.000 
#    0.000    0.000    0.000    0.000    0.000    0.000 
#
# Total GULP energy -347330.017334 kJ/mol
# GULP energy per Si atom -12404.643476 kJ/mol
# Density = 1.830446 g / cm^3
# Si number density = 18.346222 Si / 1000 Ang^3
#
#
#
# Elastic Constant Matrix: (Units=GPa)
#
#
# Indices 1 2 3 4 5 6 
#
# 1 65.1397 28.4073 20.2606 0.0000 7.2398 0.0000
# 2 28.4073 54.5154 27.3840 0.0000 -13.9447 0.0000
# 3 20.2606 27.3840 57.2032 0.0000 3.6167 0.0000
# 4 0.0000 0.0000 0.0000 33.3696 0.0000 -12.9377
# 5 7.2398 -13.9447 3.6167 0.0000 39.4987 0.0000
# 6 0.0000 0.0000 0.0000 -12.9377 0.0000 30.3746
#
#
#
# Elastic Compliance Matrix: (Units=1/GPa)
#
#
# Indices 1 2 3 4 5 6 
#
# 1 0.022518 -0.013509 -0.000951 0.000000 -0.008810 0.000000
# 2 -0.013509 0.036555 -0.013767 0.000000 0.016642 0.000000
# 3 -0.000951 -0.013767 0.024849 0.000000 -0.006961 0.000000
# 4 0.000000 0.000000 0.000000 0.035895 0.000000 0.015289
# 5 -0.008810 0.016642 -0.006961 0.000000 0.033445 0.000000
# 6 0.000000 0.000000 0.000000 0.015289 0.000000 0.039434
#
#
# Mechanical properties :
#
#
# Convention : Reuss Voigt Hill
#
# Bulk Modulus (GPa) = 36.40745 36.55137 36.47941
# Shear Modulus (GPa) = 19.35669 27.36900 23.36284
#
# Velocity S-wave (km/s) = 3.25172 3.86658 3.57240
# Velocity P-wave (km/s) = 5.82975 6.31667 6.07809
#
# Compressibility (1/GPa) = 0.02746691
#
# Stress axis : x y z
#
# Youngs Moduli (GPa) = 44.40865 27.35571 40.24291
#
# Poissons Ratio (x) = 0.36956 0.03829
# Poissons Ratio (y) = 0.59994 0.55402
# Poissons Ratio (z) = 0.04225 0.37661
#
# Static dielectric constant tensor:
#      x y z
#    x 3.669250 0.000000 0.444970 
#    y 0.000000 3.309270 0.000000 
#    z 0.444970 0.000000 3.645350 
# 
# 
# High freq. dielectric constant tensor:
#      x y z
#    x 1.723710 0.000000 0.013780 
#    y 0.000000 1.709700 0.000000 
#    z 0.013780 0.000000 1.717260 
# 
# From -- ./inp_files/28383.got.cif
#   From: 2010.06.25/outbox.cif.g09.slc.cpg/sg11_15_cif.got.tgz:28383.got - 2010.06.27 23:14:04.
