data_PCOD8073156
_publ_section_title
;
Structure prediction by ZEFSAII (Michael W. Deem and Ramdas Pophale) SiO2 
 PCOD8073156
Probable space group: P 21/M
;
_chemical_formula_sum "Si O2"
_cell_formula_units_Z 28
_cell_length_a 15.387313
_cell_length_b 9.041258
_cell_length_c 11.685019
_cell_angle_alpha 90.000000
_cell_angle_beta 63.134907
_cell_angle_gamma 90.000000
_cell_volume 1450.178531
_symmetry_space_group_name_H-M "P 21/M"
_symmetry_group_IT_number 11
_symmetry_cell_setting 'monoclinic'
loop_
_space_group_symop_operation_xyz
x,y,z
-x,1/2+y,-z
-x,-y,-z
x,1/2-y,z
loop_
_atom_site_type_symbol
_atom_site_label
_atom_site_fract_x
_atom_site_fract_y
_atom_site_fract_z
Si Si1 0.771968 0.424745 0.936519
Si Si2 0.706251 0.919755 0.443711
Si Si3 0.088710 0.421833 0.303508
Si Si4 0.408347 0.580127 0.106014
Si Si5 0.131550 0.921901 0.507992
Si Si6 0.322408 0.419313 0.801673
Si Si7 0.455333 0.578679 0.333095
O O1 0.787169 0.250000 0.929781
O O2 0.871457 0.501857 0.835521
O O3 0.689053 0.477529 0.896816
O O4 0.745349 0.479853 0.078723
O O5 0.715038 0.750000 0.477721
O O6 0.719089 0.934913 0.300696
O O7 0.789333 0.016502 0.452230
O O8 0.599603 0.980778 0.540078
O O9 0.115204 0.250000 0.288381
O O10 0.139751 0.496009 0.382455
O O11 0.973383 0.448822 0.373111
O O12 0.424459 0.750000 0.067460
O O13 0.399539 0.553115 0.246602
O O14 0.500000 0.500000 0.000000
O O15 0.152541 0.750000 0.472749
O O16 0.317812 0.250000 0.847211
O O17 0.433608 0.476621 0.742753
O O18 0.453002 0.750000 0.372269
#
# Coordination Sequence:
#
# PCOD8073156 Si02
#       7
#     4   4   4   4   4   4   4
#     4  11  22  35  56  87 118 151 190 231 284 342
#     4  11  23  37  57  84 112 149 196 239 283 335
#     4  10  21  38  63  90 115 146 182 228 285 342
#     4  10  20  33  52  79 110 144 180 222 273 328
#     4  10  21  39  62  88 116 145 184 232 284 339
#     4  10  22  39  56  78 113 156 198 237 278 333
#     4  10  20  36  57  80 112 152 190 235 287 335
#
# _framework density 19.307967999999999
#
# number of rings (size 3 to 8) (size 9 to 14) (size 15 to 20)
#    0.000    1.714    1.429    3.000    0.000    5.714 
#    0.000    0.714    0.000    0.000    0.000    0.000 
#    0.000    0.000    0.000    0.000    0.000    0.000 
#
# Total GULP energy -347360.357156 kJ/mol
# GULP energy per Si atom -12405.727041 kJ/mol
# Density = 1.926402 g / cm^3
# Si number density = 19.307968 Si / 1000 Ang^3
#
#
#
# Elastic Constant Matrix: (Units=GPa)
#
#
# Indices 1 2 3 4 5 6 
#
# 1 60.2469 31.8342 30.9002 0.0000 -2.8895 0.0000
# 2 31.8342 99.1865 63.0591 0.0000 -10.7049 0.0000
# 3 30.9002 63.0591 120.4825 0.0000 -12.8059 0.0000
# 4 0.0000 0.0000 0.0000 37.4756 0.0000 -2.1504
# 5 -2.8895 -10.7049 -12.8059 0.0000 23.0183 0.0000
# 6 0.0000 0.0000 0.0000 -2.1504 0.0000 29.4030
#
#
#
# Elastic Compliance Matrix: (Units=1/GPa)
#
#
# Indices 1 2 3 4 5 6 
#
# 1 0.020605 -0.004954 -0.002829 0.000000 -0.001291 0.000000
# 2 -0.004954 0.016472 -0.007017 0.000000 0.003134 0.000000
# 3 -0.002829 -0.007017 0.013088 0.000000 0.003662 0.000000
# 4 0.000000 0.000000 0.000000 0.026796 0.000000 0.001960
# 5 -0.001291 0.003134 0.003662 0.000000 0.046777 0.000000
# 6 0.000000 0.000000 0.000000 0.001960 0.000000 0.034154
#
#
# Mechanical properties :
#
#
# Convention : Reuss Voigt Hill
#
# Bulk Modulus (GPa) = 48.62956 59.05587 53.84271
# Shear Modulus (GPa) = 25.72724 28.25421 26.99072
#
# Velocity S-wave (km/s) = 3.65426 3.82952 3.74291
# Velocity P-wave (km/s) = 6.56093 7.08564 6.82832
#
# Compressibility (1/GPa) = 0.02056363
#
# Stress axis : x y z
#
# Youngs Moduli (GPa) = 48.53175 60.71006 76.40830
#
# Poissons Ratio (x) = 0.30076 0.21615
# Poissons Ratio (y) = 0.24043 0.53619
# Poissons Ratio (z) = 0.13729 0.42603
#
# Static dielectric constant tensor:
#      x y z
#    x 3.509150 0.000000 -0.064580 
#    y 0.000000 3.598030 0.000000 
#    z -0.064580 0.000000 3.586340 
# 
# 
# High freq. dielectric constant tensor:
#      x y z
#    x 1.742310 0.000000 -0.004670 
#    y 0.000000 1.757340 0.000000 
#    z -0.004670 0.000000 1.756000 
# 
# From -- ./inp_files/37432.got.cif
#   From: 2010.06.25/outbox.cif.g09.slc.cpg/sg11_19_cif.got.tgz:37432.got - 2010.06.27 23:14:04.
