data_PCOD8073779
_publ_section_title
;
Structure prediction by ZEFSAII (Michael W. Deem and Ramdas Pophale) SiO2 
 PCOD8073779
Probable space group: P 21/M
;
_chemical_formula_sum "Si O2"
_cell_formula_units_Z 28
_cell_length_a 30.102433
_cell_length_b 8.769535
_cell_length_c 10.226207
_cell_angle_alpha 90.000000
_cell_angle_beta 146.828526
_cell_angle_gamma 90.000000
_cell_volume 1477.054131
_symmetry_space_group_name_H-M "P 21/M"
_symmetry_group_IT_number 11
_symmetry_cell_setting 'monoclinic'
loop_
_space_group_symop_operation_xyz
x,y,z
-x,1/2+y,-z
-x,-y,-z
x,1/2-y,z
loop_
_atom_site_type_symbol
_atom_site_label
_atom_site_fract_x
_atom_site_fract_y
_atom_site_fract_z
Si Si1 0.667412 0.429612 0.680227
Si Si2 0.086911 0.926507 0.367949
Si Si3 0.753939 0.427424 0.629662
Si Si4 0.904131 0.927088 0.886347
Si Si5 0.764711 0.927761 0.154659
Si Si6 0.329107 0.925041 0.845056
Si Si7 0.493815 0.073157 0.626328
O O1 0.656653 0.250000 0.659689
O O2 0.707549 0.483749 0.644068
O O3 0.578836 0.502642 0.469524
O O4 0.723637 0.480423 0.937403
O O5 0.108633 0.750000 0.438250
O O6 0.109393 0.972638 0.275797
O O7 0.141006 0.022910 0.602611
O O8 0.992649 0.960311 0.165836
O O9 0.776513 0.250000 0.694188
O O10 0.837186 0.523331 0.826704
O O11 0.696146 0.463158 0.364698
O O12 0.895669 0.750000 0.827670
O O13 0.758403 0.750000 0.109157
O O14 0.720108 0.965287 0.180271
O O15 0.309263 0.750000 0.833331
O O16 0.424534 0.957936 0.091570
O O17 0.476490 0.250000 0.562798
O O18 0.500000 0.000000 0.500000
#
# Coordination Sequence:
#
# PCOD8073779 Si02
#       7
#     4   4   4   4   4   4   4
#     4  11  24  41  60  84 119 160 197 241 299 356
#     4  10  20  35  57  86 121 155 192 241 293 345
#     4  10  22  40  61  85 118 160 198 238 297 355
#     4  10  20  34  57  89 120 153 194 242 291 343
#     4  12  23  36  59  90 116 151 201 246 291 348
#     4  10  21  38  61  86 116 154 193 242 295 347
#     4  11  22  37  60  88 119 153 196 246 294 347
#
# _framework density 18.956651999999998
#
# number of rings (size 3 to 8) (size 9 to 14) (size 15 to 20)
#    0.000    1.429    2.857    3.000    0.000    4.000 
#    0.000    0.714    0.000    0.000    0.000    0.000 
#    0.000    0.000    0.000    0.000    0.000    0.000 
#
# Total GULP energy -347346.724957 kJ/mol
# GULP energy per Si atom -12405.240177 kJ/mol
# Density = 1.891351 g / cm^3
# Si number density = 18.956652 Si / 1000 Ang^3
#
#
#
# Elastic Constant Matrix: (Units=GPa)
#
#
# Indices 1 2 3 4 5 6 
#
# 1 122.6996 34.1498 47.7315 0.0000 17.7447 0.0000
# 2 34.1498 63.8535 21.4348 0.0000 17.3673 0.0000
# 3 47.7315 21.4348 101.9432 0.0000 22.5923 0.0000
# 4 0.0000 0.0000 0.0000 22.4790 0.0000 10.4865
# 5 17.7447 17.3673 22.5923 0.0000 28.7279 0.0000
# 6 0.0000 0.0000 0.0000 10.4865 0.0000 27.9739
#
#
#
# Elastic Compliance Matrix: (Units=1/GPa)
#
#
# Indices 1 2 3 4 5 6 
#
# 1 0.011067 -0.004269 -0.004047 0.000000 -0.001073 0.000000
# 2 -0.004269 0.020645 -0.000194 0.000000 -0.009691 0.000000
# 3 -0.004047 -0.000194 0.013522 0.000000 -0.008017 0.000000
# 4 0.000000 0.000000 0.000000 0.053914 0.000000 -0.020211
# 5 -0.001073 -0.009691 -0.008017 0.000000 0.047635 0.000000
# 6 0.000000 0.000000 0.000000 -0.020211 0.000000 0.043324
#
#
# Mechanical properties :
#
#
# Convention : Reuss Voigt Hill
#
# Bulk Modulus (GPa) = 35.44283 55.01428 45.22855
# Shear Modulus (GPa) = 23.09130 28.18151 25.63640
#
# Velocity S-wave (km/s) = 3.49393 3.85987 3.68145
# Velocity P-wave (km/s) = 5.91727 6.99635 6.47931
#
# Compressibility (1/GPa) = 0.02821445
#
# Stress axis : x y z
#
# Youngs Moduli (GPa) = 90.35518 48.43792 73.95609
#
# Poissons Ratio (x) = 0.20677 0.29927
# Poissons Ratio (y) = 0.38570 0.01438
# Poissons Ratio (z) = 0.36563 0.00942
#
# Static dielectric constant tensor:
#      x y z
#    x 3.419130 0.000000 0.188630 
#    y 0.000000 3.528470 0.000000 
#    z 0.188630 0.000000 3.692740 
# 
# 
# High freq. dielectric constant tensor:
#      x y z
#    x 1.722170 0.000000 0.016840 
#    y 0.000000 1.744940 0.000000 
#    z 0.016840 0.000000 1.748130 
# 
# From -- ./inp_files/28349.got.cif
#   From: 2010.06.25/outbox.cif.g09.slc.cpg/sg11_15_cif.got.tgz:28349.got - 2010.06.27 23:14:04.
