data_PCOD8073930
_publ_section_title
;
Structure prediction by ZEFSAII (Michael W. Deem and Ramdas Pophale) SiO2 
 PCOD8073930
Probable space group: P 21/M
;
_chemical_formula_sum "Si O2"
_cell_formula_units_Z 28
_cell_length_a 9.894567
_cell_length_b 14.146426
_cell_length_c 11.738667
_cell_angle_alpha 90.000000
_cell_angle_beta 117.491613
_cell_angle_gamma 90.000000
_cell_volume 1457.552881
_symmetry_space_group_name_H-M "P 21/M"
_symmetry_group_IT_number 11
_symmetry_cell_setting 'monoclinic'
loop_
_space_group_symop_operation_xyz
x,y,z
-x,1/2+y,-z
-x,-y,-z
x,1/2-y,z
loop_
_atom_site_type_symbol
_atom_site_label
_atom_site_fract_x
_atom_site_fract_y
_atom_site_fract_z
Si Si1 0.096402 0.986852 0.223528
Si Si2 0.162857 0.494145 0.507614
Si Si3 0.579167 0.139646 0.417697
Si Si4 0.630721 0.359200 0.696456
Si Si5 0.732116 0.642405 0.823207
Si Si6 0.802755 0.858362 0.103888
Si Si7 0.350574 0.140239 0.723934
O O1 0.140234 0.020094 0.365782
O O2 0.210612 0.909089 0.219881
O O3 0.931689 0.938896 0.154387
O O4 0.119691 0.080390 0.154969
O O5 0.274254 0.583821 0.575331
O O6 0.230867 0.400957 0.589004
O O7 0.000000 0.500000 0.500000
O O8 0.608763 0.250000 0.404381
O O9 0.559660 0.118256 0.544364
O O10 0.423358 0.104651 0.296388
O O11 0.667081 0.250000 0.722392
O O12 0.517794 0.395797 0.751924
O O13 0.764163 0.750000 0.797584
O O14 0.710073 0.635998 0.950504
O O15 0.865908 0.750000 0.146537
O O16 0.685751 0.885415 0.159371
O O17 0.340906 0.250000 0.697522
#
# Coordination Sequence:
#
# PCOD8073930 Si02
#       7
#     4   4   4   4   4   4   4
#     4  11  20  35  58  82 111 143 179 230 279 325
#     4  11  21  34  54  83 114 139 178 225 279 333
#     4   9  19  36  57  81 109 144 184 225 272 324
#     4   9  18  33  57  85 107 134 179 225 271 324
#     4  10  21  37  57  79 106 147 191 226 266 326
#     4  10  21  37  57  78 109 148 186 225 274 328
#     4  10  20  35  54  80 111 143 179 224 275 327
#
# _framework density 19.210281999999999
#
# number of rings (size 3 to 8) (size 9 to 14) (size 15 to 20)
#    0.000    2.000    1.429    2.571    0.000    5.143 
#    0.000    2.857    0.000    0.000    0.000    0.000 
#    0.000    0.000    0.000    0.000    0.000    0.000 
#
# Total GULP energy -347098.036681 kJ/mol
# GULP energy per Si atom -12396.358453 kJ/mol
# Density = 1.916656 g / cm^3
# Si number density = 19.210282 Si / 1000 Ang^3
#
#
#
# Elastic Constant Matrix: (Units=GPa)
#
#
# Indices 1 2 3 4 5 6 
#
# 1 141.9585 47.2243 28.8115 0.0000 -15.6361 0.0000
# 2 47.2243 47.4810 26.9800 0.0000 -9.6363 0.0000
# 3 28.8115 26.9800 66.1487 0.0000 -13.3805 0.0000
# 4 0.0000 0.0000 0.0000 25.5596 0.0000 0.9205
# 5 -15.6361 -9.6363 -13.3805 0.0000 21.5675 0.0000
# 6 0.0000 0.0000 0.0000 0.9205 0.0000 32.7298
#
#
#
# Elastic Compliance Matrix: (Units=1/GPa)
#
#
# Indices 1 2 3 4 5 6 
#
# 1 0.010739 -0.010059 0.000104 0.000000 0.003356 0.000000
# 2 -0.010059 0.037551 -0.010310 0.000000 0.003089 0.000000
# 3 0.000104 -0.010310 0.020995 0.000000 0.008495 0.000000
# 4 0.000000 0.000000 0.000000 0.039164 0.000000 -0.001101
# 5 0.003356 0.003089 0.008495 0.000000 0.055449 0.000000
# 6 0.000000 0.000000 0.000000 -0.001101 0.000000 0.030584
#
#
# Mechanical properties :
#
#
# Convention : Reuss Voigt Hill
#
# Bulk Modulus (GPa) = 34.77532 51.29110 43.03321
# Shear Modulus (GPa) = 20.44171 26.14287 23.29229
#
# Velocity S-wave (km/s) = 3.26560 3.69301 3.48586
# Velocity P-wave (km/s) = 5.68864 6.70390 6.21703
#
# Compressibility (1/GPa) = 0.02875603
#
# Stress axis : x y z
#
# Youngs Moduli (GPa) = 93.11741 26.63039 47.62936
#
# Poissons Ratio (x) = 0.26788 -0.00496
# Poissons Ratio (y) = 0.93669 0.49105
# Poissons Ratio (z) = -0.00970 0.27455
#
# Static dielectric constant tensor:
#      x y z
#    x 3.728780 0.000000 -0.190090 
#    y 0.000000 3.545880 0.000000 
#    z -0.190090 0.000000 3.377960 
# 
# 
# High freq. dielectric constant tensor:
#      x y z
#    x 1.746220 0.000000 -0.009030 
#    y 0.000000 1.755440 0.000000 
#    z -0.009030 0.000000 1.736060 
# 
# From -- ./inp_files/17693.got.cif
#   From: 2010.06.25/outbox.cif.g09.slc.cpg/sg11_9_cif.got.tgz:17693.got - 2010.06.27 23:14:04.
