data_PCOD8073051
_publ_section_title
;
Structure prediction by ZEFSAII (Michael W. Deem and Ramdas Pophale) SiO2 
 PCOD8073051
Probable space group: P 21/M
;
_chemical_formula_sum "Si O2"
_cell_formula_units_Z 32
_cell_length_a 25.813736
_cell_length_b 8.921519
_cell_length_c 15.996459
_cell_angle_alpha 90.000000
_cell_angle_beta 150.967198
_cell_angle_gamma 90.000000
_cell_volume 1787.857916
_symmetry_space_group_name_H-M "P 21/M"
_symmetry_group_IT_number 11
_symmetry_cell_setting 'monoclinic'
loop_
_space_group_symop_operation_xyz
x,y,z
-x,1/2+y,-z
-x,-y,-z
x,1/2-y,z
loop_
_atom_site_type_symbol
_atom_site_label
_atom_site_fract_x
_atom_site_fract_y
_atom_site_fract_z
Si Si1 0.475135 0.423578 0.711327
Si Si2 0.706105 0.424850 0.099225
Si Si3 0.944889 0.428254 0.843098
Si Si4 0.771719 0.927374 0.028677
Si Si5 0.207590 0.927039 0.601468
Si Si6 0.459101 0.073558 0.358335
Si Si7 0.976336 0.925999 0.223003
Si Si8 0.735594 0.573545 0.486107
O O1 0.473112 0.250000 0.682887
O O2 0.468958 0.518266 0.617438
O O3 0.376636 0.467242 0.630446
O O4 0.581538 0.463772 0.913192
O O5 0.729063 0.250000 0.122423
O O6 0.743044 0.482496 0.241867
O O7 0.776022 0.507628 0.128026
O O8 0.940415 0.250000 0.845358
O O9 0.825429 0.490252 0.666873
O O10 0.012351 0.479661 0.856891
O O11 0.000000 0.500000 0.000000
O O12 0.778942 0.750000 0.046126
O O13 0.663324 0.976866 0.829156
O O14 0.871442 0.997305 0.117866
O O15 0.222589 0.750000 0.607919
O O16 0.082485 0.971323 0.423859
O O17 0.269201 0.013417 0.615087
O O18 0.470106 0.250000 0.381970
O O19 0.500000 0.000000 0.500000
O O20 0.961343 0.750000 0.202732
O O21 0.758430 0.750000 0.518536
#
# Coordination Sequence:
#
# PCOD8073051 Si02
#       8
#     4   4   4   4   4   4   4   4
#     4   9  19  35  52  71 100 135 168 206 252 300
#     4   9  18  33  51  73 101 131 164 204 251 299
#     4  10  20  35  54  76 103 134 167 205 250 300
#     4   9  18  33  51  71  96 128 165 201 242 296
#     4   9  18  33  52  73 100 133 165 202 251 303
#     4  10  20  33  51  74  99 129 165 206 251 300
#     4   8  16  32  51  70  97 131 162 196 243 296
#     4  10  20  34  52  74 100 132 170 210 251 294
#
# _framework density 17.898515
#
# number of rings (size 3 to 8) (size 9 to 14) (size 15 to 20)
#    0.000    2.750    0.000    1.875    0.000    4.000 
#    0.000    5.625    0.000    0.000    0.000    0.000 
#    0.000    0.000    0.000    0.000    0.000    0.000 
#
# Total GULP energy -396807.635422 kJ/mol
# GULP energy per Si atom -12400.238607 kJ/mol
# Density = 1.785778 g / cm^3
# Si number density = 17.898515 Si / 1000 Ang^3
#
#
#
# Elastic Constant Matrix: (Units=GPa)
#
#
# Indices 1 2 3 4 5 6 
#
# 1 155.3596 49.2463 100.4417 0.0000 2.1753 0.0000
# 2 49.2463 53.2367 42.0339 0.0000 -3.7669 0.0000
# 3 100.4417 42.0339 120.0116 0.0000 -17.4905 0.0000
# 4 0.0000 0.0000 0.0000 25.7043 0.0000 -4.4915
# 5 2.1753 -3.7669 -17.4905 0.0000 40.2136 0.0000
# 6 0.0000 0.0000 0.0000 -4.4915 0.0000 32.8055
#
#
#
# Elastic Compliance Matrix: (Units=1/GPa)
#
#
# Indices 1 2 3 4 5 6 
#
# 1 0.016842 -0.005712 -0.013138 0.000000 -0.007160 0.000000
# 2 -0.005712 0.028002 -0.004911 0.000000 0.000796 0.000000
# 3 -0.013138 -0.004911 0.022512 0.000000 0.010042 0.000000
# 4 0.000000 0.000000 0.000000 0.039857 0.000000 0.005457
# 5 -0.007160 0.000796 0.010042 0.000000 0.029697 0.000000
# 6 0.000000 0.000000 0.000000 0.005457 0.000000 0.031230
#
#
# Mechanical properties :
#
#
# Convention : Reuss Voigt Hill
#
# Bulk Modulus (GPa) = 50.42146 79.11686 64.76916
# Shear Modulus (GPa) = 22.49491 28.87043 25.68267
#
# Velocity S-wave (km/s) = 3.54899 4.02058 3.79212
# Velocity P-wave (km/s) = 6.71012 8.11495 7.44574
#
# Compressibility (1/GPa) = 0.01983283
#
# Stress axis : x y z
#
# Youngs Moduli (GPa) = 59.37687 35.71180 44.42146
#
# Poissons Ratio (x) = 0.20400 0.58361
# Poissons Ratio (y) = 0.33919 0.21814
# Poissons Ratio (z) = 0.78010 0.17537
#
# Static dielectric constant tensor:
#      x y z
#    x 3.506930 0.000000 0.074450 
#    y 0.000000 3.224590 0.000000 
#    z 0.074450 0.000000 3.432430 
# 
# 
# High freq. dielectric constant tensor:
#      x y z
#    x 1.698380 0.000000 -0.001300 
#    y 0.000000 1.683150 0.000000 
#    z -0.001300 0.000000 1.693910 
# 
# From -- ./inp_files/51780.got.cif
#   From: 2010.06.25/outbox.cif.g09.slc.cpg/sg11_26_cif.got.tgz:51780.got - 2010.06.27 23:14:04.
