data_PCOD8073492
_publ_section_title
;
Structure prediction by ZEFSAII (Michael W. Deem and Ramdas Pophale) SiO2 
 PCOD8073492
Probable space group: P 21/M
;
_chemical_formula_sum "Si O2"
_cell_formula_units_Z 24
_cell_length_a 17.590135
_cell_length_b 9.242025
_cell_length_c 24.171877
_cell_angle_alpha 90.000000
_cell_angle_beta 160.885281
_cell_angle_gamma 90.000000
_cell_volume 1286.784422
_symmetry_space_group_name_H-M "P 21/M"
_symmetry_group_IT_number 11
_symmetry_cell_setting 'monoclinic'
loop_
_space_group_symop_operation_xyz
x,y,z
-x,1/2+y,-z
-x,-y,-z
x,1/2-y,z
loop_
_atom_site_type_symbol
_atom_site_label
_atom_site_fract_x
_atom_site_fract_y
_atom_site_fract_z
Si Si1 0.540583 0.918718 0.442502
Si Si2 0.622500 0.918644 0.890511
Si Si3 0.540583 0.081282 0.942501
Si Si4 0.377499 0.581357 0.609488
Si Si5 0.844083 0.416558 0.733442
Si Si6 0.155919 0.416558 0.766560
O O1 0.587849 0.750000 0.467649
O O2 0.308123 0.951203 0.317220
O O3 0.504528 0.991280 0.358350
O O4 0.762628 0.987902 0.625661
O O5 0.581543 0.750000 0.874281
O O6 0.499999 0.967855 0.749999
O O7 0.504527 0.008720 0.858349
O O8 0.893411 0.956746 0.071519
O O9 0.587849 0.250000 0.967649
O O10 0.308122 0.048798 0.817219
O O11 0.762628 0.012099 0.125661
O O12 0.418456 0.750000 0.625718
O O13 0.106588 0.543255 0.428480
O O14 0.817146 0.250000 0.696937
O O15 0.182861 0.250000 0.803068
#
# Coordination Sequence:
#
# PCOD8073492 Si02
#       6
#     4   4   4   4   4   4
#     4  10  20  34  54  79 103 130 169 214 254 294
#     4  10  21  36  53  74 103 139 172 203 249 307
#     4  10  20  34  54  79 103 130 169 214 254 294
#     4  10  21  36  53  74 103 139 172 203 249 307
#     4   9  19  36  55  75 102 135 169 207 253 303
#     4   9  19  36  55  75 102 135 169 207 253 303
#
# _framework density 18.651143999999999
#
# number of rings (size 3 to 8) (size 9 to 14) (size 15 to 20)
#    0.000    2.333    0.000    2.000    0.000    8.667 
#    0.000    0.000    0.000    0.000    0.000    0.000 
#    0.000    0.000    0.000    0.000    0.000    0.000 
#
# Total GULP energy -297737.203290 kJ/mol
# GULP energy per Si atom -12405.716804 kJ/mol
# Density = 1.860869 g / cm^3
# Si number density = 18.651144 Si / 1000 Ang^3
#
#
#
# Elastic Constant Matrix: (Units=GPa)
#
#
# Indices 1 2 3 4 5 6 
#
# 1 126.0707 63.1709 53.8228 0.0000 -27.9253 0.0000
# 2 63.1709 76.2282 34.6284 0.0000 -16.5520 0.0000
# 3 53.8228 34.6284 80.1884 0.0000 -19.2728 0.0000
# 4 0.0000 0.0000 0.0000 21.4385 0.0000 -5.1506
# 5 -27.9253 -16.5520 -19.2728 0.0000 30.3139 0.0000
# 6 0.0000 0.0000 0.0000 -5.1506 0.0000 39.8888
#
#
#
# Elastic Compliance Matrix: (Units=1/GPa)
#
#
# Indices 1 2 3 4 5 6 
#
# 1 0.016624 -0.009958 -0.005293 0.000000 0.006512 0.000000
# 2 -0.009958 0.023019 -0.002881 0.000000 0.001564 0.000000
# 3 -0.005293 -0.002881 0.018552 0.000000 0.005346 0.000000
# 4 0.000000 0.000000 0.000000 0.048138 0.000000 0.006216
# 5 0.006512 0.001564 0.005346 0.000000 0.043240 0.000000
# 6 0.000000 0.000000 0.000000 0.006216 0.000000 0.025872
#
#
# Mechanical properties :
#
#
# Convention : Reuss Voigt Hill
#
# Bulk Modulus (GPa) = 45.59536 65.08129 55.33833
# Shear Modulus (GPa) = 22.82913 27.05259 24.94086
#
# Velocity S-wave (km/s) = 3.50238 3.81261 3.66078
# Velocity P-wave (km/s) = 6.39179 7.37232 6.89950
#
# Compressibility (1/GPa) = 0.02193206
#
# Stress axis : x y z
#
# Youngs Moduli (GPa) = 60.15536 43.44246 53.90237
#
# Poissons Ratio (x) = 0.43260 0.28529
# Poissons Ratio (y) = 0.59902 0.15528
# Poissons Ratio (z) = 0.31838 0.12515
#
# Static dielectric constant tensor:
#      x y z
#    x 3.501410 0.000000 0.031100 
#    y 0.000000 3.414050 0.000000 
#    z 0.031100 0.000000 3.395410 
# 
# 
# High freq. dielectric constant tensor:
#      x y z
#    x 1.733100 0.000000 0.004280 
#    y 0.000000 1.723190 0.000000 
#    z 0.004280 0.000000 1.718900 
# 
# From -- ./inp_files/20537.got.cif
#   From: 2010.06.25/outbox.cif.g09.slc.cpg/sg11_11_cif.got.tgz:20537.got - 2010.06.27 23:14:04.
