data_PCOD8073957
_publ_section_title
;
Structure prediction by ZEFSAII (Michael W. Deem and Ramdas Pophale) SiO2 
 PCOD8073957
Probable space group: P 21/M
;
_chemical_formula_sum "Si O2"
_cell_formula_units_Z 32
_cell_length_a 22.427407
_cell_length_b 8.893147
_cell_length_c 28.154218
_cell_angle_alpha 90.000000
_cell_angle_beta 161.567249
_cell_angle_gamma 90.000000
_cell_volume 1775.530037
_symmetry_space_group_name_H-M "P 21/M"
_symmetry_group_IT_number 11
_symmetry_cell_setting 'monoclinic'
loop_
_space_group_symop_operation_xyz
x,y,z
-x,1/2+y,-z
-x,-y,-z
x,1/2-y,z
loop_
_atom_site_type_symbol
_atom_site_label
_atom_site_fract_x
_atom_site_fract_y
_atom_site_fract_z
Si Si1 0.785973 0.571911 0.958148
Si Si2 0.787500 0.926747 0.220006
Si Si3 0.519875 0.072433 0.088211
Si Si4 0.211485 0.574378 0.526958
Si Si5 0.488732 0.424864 0.169734
Si Si6 0.505381 0.923601 0.579535
Si Si7 0.496005 0.427425 0.672458
Si Si8 0.217807 0.576313 0.279667
O O1 0.758159 0.750000 0.932509
O O2 0.003050 0.524451 0.124300
O O3 0.683813 0.511081 0.928869
O O4 0.687778 0.497472 0.838403
O O5 0.784427 0.750000 0.226324
O O6 0.998643 0.984814 0.370552
O O7 0.707445 0.003730 0.206797
O O8 0.663344 0.973657 0.080655
O O9 0.547793 0.250000 0.111030
O O10 0.494220 0.001556 0.121509
O O11 0.219690 0.750000 0.519821
O O12 0.314619 0.543343 0.654937
O O13 0.311757 0.484253 0.560809
O O14 0.453038 0.250000 0.135482
O O15 0.527074 0.750000 0.610445
O O16 0.323811 0.950517 0.409295
O O17 0.475150 0.024793 0.602452
O O18 0.693857 0.974620 0.694758
O O19 0.508549 0.250000 0.685735
O O20 0.231783 0.750000 0.274594
#
# Coordination Sequence:
#
# PCOD8073957 Si02
#       8
#     4   4   4   4   4   4   4   4
#     4   9  18  35  56  76 101 132 169 212 256 302
#     4   9  18  31  48  70  96 127 162 200 243 294
#     4   9  17  30  48  70  97 127 160 199 243 293
#     4   9  18  34  52  69  94 128 166 206 249 297
#     4   8  15  29  49  70  92 123 160 198 241 290
#     4  10  20  35  55  78 106 138 169 206 254 304
#     4  11  22  35  52  76 105 135 170 210 253 303
#     4   9  19  35  56  80 103 132 172 214 253 297
#
# _framework density 18.022786
#
# number of rings (size 3 to 8) (size 9 to 14) (size 15 to 20)
#    0.000    2.750    0.000    2.250    0.000    3.500 
#    0.000    6.250    0.000    0.000    0.000    0.000 
#    0.000    0.000    0.000    0.000    0.000    0.000 
#
# Total GULP energy -396812.365371 kJ/mol
# GULP energy per Si atom -12400.386418 kJ/mol
# Density = 1.798177 g / cm^3
# Si number density = 18.022786 Si / 1000 Ang^3
#
#
#
# Elastic Constant Matrix: (Units=GPa)
#
#
# Indices 1 2 3 4 5 6 
#
# 1 118.6709 36.4083 61.9860 0.0000 -1.3771 0.0000
# 2 36.4083 48.6549 36.3871 0.0000 4.8506 0.0000
# 3 61.9860 36.3871 132.5099 0.0000 24.8974 0.0000
# 4 0.0000 0.0000 0.0000 21.0902 0.0000 3.9063
# 5 -1.3771 4.8506 24.8974 0.0000 23.9698 0.0000
# 6 0.0000 0.0000 0.0000 3.9063 0.0000 29.0607
#
#
#
# Elastic Compliance Matrix: (Units=1/GPa)
#
#
# Indices 1 2 3 4 5 6 
#
# 1 0.013809 -0.006480 -0.006307 0.000000 0.008655 0.000000
# 2 -0.006480 0.029043 -0.004684 0.000000 -0.001384 0.000000
# 3 -0.006307 -0.004684 0.014503 0.000000 -0.014479 0.000000
# 4 0.000000 0.000000 0.000000 0.048626 0.000000 -0.006536
# 5 0.008655 -0.001384 -0.014479 0.000000 0.057536 0.000000
# 6 0.000000 0.000000 0.000000 -0.006536 0.000000 0.035289
#
#
# Mechanical properties :
#
#
# Convention : Reuss Voigt Hill
#
# Bulk Modulus (GPa) = 44.61352 63.26650 53.94001
# Shear Modulus (GPa) = 20.72803 25.82776 23.27789
#
# Velocity S-wave (km/s) = 3.39499 3.78969 3.59776
# Velocity P-wave (km/s) = 6.33843 7.37081 6.87403
#
# Compressibility (1/GPa) = 0.02241473
#
# Stress axis : x y z
#
# Youngs Moduli (GPa) = 72.41478 34.43217 68.94911
#
# Poissons Ratio (x) = 0.22312 0.43484
# Poissons Ratio (y) = 0.46924 0.32294
# Poissons Ratio (z) = 0.45670 0.16127
#
# Static dielectric constant tensor:
#      x y z
#    x 3.494270 0.000000 0.034210 
#    y 0.000000 3.139240 0.000000 
#    z 0.034210 0.000000 3.419070 
# 
# 
# High freq. dielectric constant tensor:
#      x y z
#    x 1.702780 0.000000 0.001970 
#    y 0.000000 1.679200 0.000000 
#    z 0.001970 0.000000 1.699420 
# 
# From -- ./inp_files/72210.got.cif
#   From: 2010.06.25/outbox.cif.g09.slc.cpg/sg11_37_cif.got.tgz:72210.got - 2010.06.27 23:14:04.
