data_PCOD8073054
_publ_section_title
;
Structure prediction by ZEFSAII (Michael W. Deem and Ramdas Pophale) SiO2 
 PCOD8073054
Probable space group: P 21/M
;
_chemical_formula_sum "Si O2"
_cell_formula_units_Z 32
_cell_length_a 14.998450
_cell_length_b 8.564221
_cell_length_c 23.174544
_cell_angle_alpha 90.000000
_cell_angle_beta 140.894581
_cell_angle_gamma 90.000000
_cell_volume 1877.596007
_symmetry_space_group_name_H-M "P 21/M"
_symmetry_group_IT_number 11
_symmetry_cell_setting 'monoclinic'
loop_
_space_group_symop_operation_xyz
x,y,z
-x,1/2+y,-z
-x,-y,-z
x,1/2-y,z
loop_
_atom_site_type_symbol
_atom_site_label
_atom_site_fract_x
_atom_site_fract_y
_atom_site_fract_z
Si Si1 0.781638 0.932047 0.368982
Si Si2 0.029810 0.432592 0.428643
Si Si3 0.794954 0.433445 0.582632
Si Si4 0.784515 0.932964 0.701014
Si Si5 0.491550 0.433308 0.248431
Si Si6 0.501287 0.435182 0.383783
Si Si7 0.046945 0.568455 0.113567
Si Si8 0.203258 0.932114 0.075520
O O1 0.747118 0.750000 0.350076
O O2 0.854052 0.982808 0.465576
O O3 0.636987 0.027418 0.289164
O O4 0.883982 0.976822 0.367581
O O5 0.998489 0.250000 0.416066
O O6 0.084459 0.480523 0.393374
O O7 0.807200 0.250000 0.577813
O O8 0.821192 0.472739 0.662078
O O9 0.641187 0.497611 0.486112
O O10 0.778006 0.750000 0.684068
O O11 0.635206 0.997229 0.650387
O O12 0.906955 0.967020 0.808487
O O13 0.462808 0.250000 0.233199
O O14 0.498511 0.500148 0.317209
O O15 0.365864 0.518702 0.151265
O O16 0.499940 0.250000 0.381559
O O17 0.058698 0.750000 0.134706
O O18 0.148514 0.521253 0.111577
O O19 0.885936 0.525635 0.017118
O O20 0.183541 0.750000 0.053833
#
# Coordination Sequence:
#
# PCOD8073054 Si02
#       8
#     4   4   4   4   4   4   4   4
#     4  10  20  33  51  75 102 132 168 212 259 308
#     4  10  20  34  51  73  99 133 172 213 258 305
#     4  11  21  35  51  72 101 138 178 217 256 301
#     4  11  21  35  51  72 101 138 178 217 256 301
#     4  11  19  32  52  76 104 137 172 209 255 308
#     4   9  19  32  48  70 101 138 176 212 249 294
#     4  10  20  34  51  73  99 133 172 213 258 305
#     4  10  20  33  51  75 102 132 168 212 259 308
#
# _framework density 17.043071000000001
#
# number of rings (size 3 to 8) (size 9 to 14) (size 15 to 20)
#    0.000    1.750    2.500    3.000    0.000    2.000 
#    0.000    1.875    0.000    0.000    0.000    0.875 
#    0.000    0.000    0.000    0.000    0.000    0.000 
#
# Total GULP energy -396983.441700 kJ/mol
# GULP energy per Si atom -12405.732553 kJ/mol
# Density = 1.700428 g / cm^3
# Si number density = 17.043071 Si / 1000 Ang^3
#
#
#
# Elastic Constant Matrix: (Units=GPa)
#
#
# Indices 1 2 3 4 5 6 
#
# 1 95.2182 9.3938 38.6212 0.0000 6.4988 0.0000
# 2 9.3938 41.7055 10.5626 0.0000 2.1158 0.0000
# 3 38.6212 10.5626 83.8078 0.0000 7.8146 0.0000
# 4 0.0000 0.0000 0.0000 26.7006 0.0000 1.8953
# 5 6.4988 2.1158 7.8146 0.0000 22.8072 0.0000
# 6 0.0000 0.0000 0.0000 1.8953 0.0000 26.4631
#
#
#
# Elastic Compliance Matrix: (Units=1/GPa)
#
#
# Indices 1 2 3 4 5 6 
#
# 1 0.013061 -0.001418 -0.005687 0.000000 -0.001641 0.000000
# 2 -0.001418 0.024958 -0.002390 0.000000 -0.001092 0.000000
# 3 -0.005687 -0.002390 0.015167 0.000000 -0.003355 0.000000
# 4 0.000000 0.000000 0.000000 0.037644 0.000000 -0.002696
# 5 -0.001641 -0.001092 -0.003355 0.000000 0.045564 0.000000
# 6 0.000000 0.000000 0.000000 -0.002696 0.000000 0.037982
#
#
# Mechanical properties :
#
#
# Convention : Reuss Voigt Hill
#
# Bulk Modulus (GPa) = 29.24425 37.54297 33.39361
# Shear Modulus (GPa) = 24.41833 26.00443 25.21138
#
# Velocity S-wave (km/s) = 3.78926 3.91039 3.85031
# Velocity P-wave (km/s) = 6.02835 6.51647 6.27715
#
# Compressibility (1/GPa) = 0.03419476
#
# Stress axis : x y z
#
# Youngs Moduli (GPa) = 76.56475 40.06758 65.93325
#
# Poissons Ratio (x) = 0.05682 0.37496
# Poissons Ratio (y) = 0.10858 0.15759
# Poissons Ratio (z) = 0.43543 0.09577
#
# Static dielectric constant tensor:
#      x y z
#    x 3.056610 0.000000 0.105750 
#    y 0.000000 3.079990 0.000000 
#    z 0.105750 0.000000 3.060890 
# 
# 
# High freq. dielectric constant tensor:
#      x y z
#    x 1.639690 0.000000 0.012470 
#    y 0.000000 1.662950 0.000000 
#    z 0.012470 0.000000 1.640750 
# 
# From -- ./inp_files/54365.got.cif
#   From: 2010.06.25/outbox.cif.g09.slc.cpg/sg11_28_cif.got.tgz:54365.got - 2010.06.27 23:14:04.
