data_PCOD8073907
_publ_section_title
;
Structure prediction by ZEFSAII (Michael W. Deem and Ramdas Pophale) SiO2 
 PCOD8073907
Probable space group: P 21/M
;
_chemical_formula_sum "Si O2"
_cell_formula_units_Z 32
_cell_length_a 22.212264
_cell_length_b 8.822800
_cell_length_c 27.534475
_cell_angle_alpha 90.000000
_cell_angle_beta 18.404815
_cell_angle_gamma 90.000000
_cell_volume 1703.688645
_symmetry_space_group_name_H-M "P 21/M"
_symmetry_group_IT_number 11
_symmetry_cell_setting 'monoclinic'
loop_
_space_group_symop_operation_xyz
x,y,z
-x,1/2+y,-z
-x,-y,-z
x,1/2-y,z
loop_
_atom_site_type_symbol
_atom_site_label
_atom_site_fract_x
_atom_site_fract_y
_atom_site_fract_z
Si Si1 0.369125 0.069294 0.641505
Si Si2 0.940724 0.573218 0.680515
Si Si3 0.055391 0.927578 0.046611
Si Si4 0.631225 0.070973 0.627990
Si Si5 0.676962 0.575543 0.972600
Si Si6 0.405545 0.930175 0.715594
Si Si7 0.677582 0.072850 0.072322
Si Si8 0.639450 0.424724 0.855428
O O1 0.376678 0.250000 0.632707
O O2 0.154809 0.002145 0.798717
O O3 0.500000 0.000000 0.500000
O O4 0.446885 0.013403 0.633585
O O5 0.930103 0.750000 0.679349
O O6 0.849460 0.496646 0.701897
O O7 0.155934 0.517849 0.522259
O O8 0.821929 0.527046 0.819215
O O9 0.036122 0.750000 0.055813
O O10 0.200689 0.985555 0.893641
O O11 0.138679 0.970640 0.035709
O O12 0.617731 0.250000 0.628747
O O13 0.569401 0.980834 0.627296
O O14 0.502116 0.024991 0.772541
O O15 0.710784 0.750000 0.961580
O O16 0.723803 0.467800 0.981753
O O17 0.456095 0.551229 0.124590
O O18 0.413840 0.750000 0.702466
O O19 0.629856 0.250000 0.114612
O O20 0.653084 0.250000 0.857786
O O21 0.500000 0.500000 0.000000
#
# Coordination Sequence:
#
# PCOD8073907 Si02
#       8
#     4   4   4   4   4   4   4   4
#     4  11  22  37  55  79 110 141 172 214 264 309
#     4   9  19  34  53  77 105 135 174 218 262 313
#     4   8  18  36  56  76 102 135 174 215 256 305
#     4  10  20  36  56  79 107 139 171 212 264 314
#     4   9  18  33  51  75 104 135 170 213 259 307
#     4  10  20  37  58  80 104 135 176 217 255 309
#     4  10  20  35  54  78 104 135 175 216 256 306
#     4   9  17  30  50  74 103 137 176 217 261 311
#
# _framework density 18.782775999999998
#
# number of rings (size 3 to 8) (size 9 to 14) (size 15 to 20)
#    0.000    2.500    0.000    3.750    0.000    4.500 
#    0.000   10.000    0.000    0.000    0.000    0.000 
#    0.000    0.000    0.000    0.000    0.000    0.000 
#
# Total GULP energy -396721.538042 kJ/mol
# GULP energy per Si atom -12397.548064 kJ/mol
# Density = 1.874003 g / cm^3
# Si number density = 18.782776 Si / 1000 Ang^3
#
#
#
# Elastic Constant Matrix: (Units=GPa)
#
#
# Indices 1 2 3 4 5 6 
#
# 1 51.8589 18.1717 5.3816 0.0000 1.9784 0.0000
# 2 18.1717 58.4513 17.1185 0.0000 -3.8610 0.0000
# 3 5.3816 17.1185 66.6662 0.0000 -14.9198 0.0000
# 4 0.0000 0.0000 0.0000 26.9468 0.0000 0.1229
# 5 1.9784 -3.8610 -14.9198 0.0000 26.1027 0.0000
# 6 0.0000 0.0000 0.0000 0.1229 0.0000 35.5225
#
#
#
# Elastic Compliance Matrix: (Units=1/GPa)
#
#
# Indices 1 2 3 4 5 6 
#
# 1 0.021852 -0.006789 -0.000707 0.000000 -0.003064 0.000000
# 2 -0.006789 0.020609 -0.004525 0.000000 0.000976 0.000000
# 3 -0.000707 -0.004525 0.018440 0.000000 0.009924 0.000000
# 4 0.000000 0.000000 0.000000 0.037111 0.000000 -0.000128
# 5 -0.003064 0.000976 0.009924 0.000000 0.044359 0.000000
# 6 0.000000 0.000000 0.000000 -0.000128 0.000000 0.028152
#
#
# Mechanical properties :
#
#
# Convention : Reuss Voigt Hill
#
# Bulk Modulus (GPa) = 27.13020 28.70221 27.91620
# Shear Modulus (GPa) = 24.17198 26.80137 25.48668
#
# Velocity S-wave (km/s) = 3.59126 3.78155 3.68763
# Velocity P-wave (km/s) = 5.62777 5.86354 5.74686
#
# Compressibility (1/GPa) = 0.03685930
#
# Stress axis : x y z
#
# Youngs Moduli (GPa) = 45.76192 48.52323 54.22939
#
# Poissons Ratio (x) = 0.32943 0.03831
# Poissons Ratio (y) = 0.31068 0.24541
# Poissons Ratio (z) = 0.03233 0.21958
#
# Static dielectric constant tensor:
#      x y z
#    x 3.544780 0.000000 -0.299990 
#    y 0.000000 3.404160 0.000000 
#    z -0.299990 0.000000 3.593420 
# 
# 
# High freq. dielectric constant tensor:
#      x y z
#    x 1.732400 0.000000 -0.016290 
#    y 0.000000 1.726740 0.000000 
#    z -0.016290 0.000000 1.717480 
# 
# From -- ./inp_files/71967.got.cif
#   From: 2010.06.25/outbox.cif.g09.slc.cpg/sg11_36_cif.got.tgz:71967.got - 2010.06.27 23:14:04.
