data_PCOD8073145
_publ_section_title
;
Structure prediction by ZEFSAII (Michael W. Deem and Ramdas Pophale) SiO2 
 PCOD8073145
Probable space group: P 21/M
;
_chemical_formula_sum "Si O2"
_cell_formula_units_Z 32
_cell_length_a 14.765496
_cell_length_b 10.987786
_cell_length_c 15.569342
_cell_angle_alpha 90.000000
_cell_angle_beta 139.670469
_cell_angle_gamma 90.000000
_cell_volume 1634.765435
_symmetry_space_group_name_H-M "P 21/M"
_symmetry_group_IT_number 11
_symmetry_cell_setting 'monoclinic'
loop_
_space_group_symop_operation_xyz
x,y,z
-x,1/2+y,-z
-x,-y,-z
x,1/2-y,z
loop_
_atom_site_type_symbol
_atom_site_label
_atom_site_fract_x
_atom_site_fract_y
_atom_site_fract_z
Si Si1 0.387235 0.616962 0.996210
Si Si2 0.738999 0.114864 0.416132
Si Si3 0.686099 0.961102 0.216421
Si Si4 0.011104 0.388500 0.239264
Si Si5 0.317506 0.021490 0.454231
Si Si6 0.047740 0.385066 0.680865
Si Si7 0.760264 0.390127 0.946691
Si Si8 0.379408 0.889040 0.323597
O O1 0.320158 0.750000 0.948748
O O2 0.554705 0.628832 0.118324
O O3 0.326598 0.548393 0.036954
O O4 0.331666 0.560531 0.869368
O O5 0.679341 0.250000 0.355843
O O6 0.905517 0.112463 0.524425
O O7 0.677820 0.021463 0.303694
O O8 0.696976 0.078822 0.482194
O O9 0.829433 0.890492 0.301272
O O10 0.981537 0.250000 0.253458
O O11 0.177441 0.397523 0.347506
O O12 0.950458 0.497382 0.255165
O O13 0.926682 0.404148 0.087597
O O14 0.453973 0.102221 0.573320
O O15 0.333997 0.959095 0.374973
O O16 0.059097 0.250000 0.735568
O O17 0.714583 0.250000 0.905701
O O18 0.709986 0.448829 0.820097
O O19 0.337737 0.750000 0.307692
#
# Coordination Sequence:
#
# PCOD8073145 Si02
#       8
#     4   4   4   4   4   4   4   4
#     4  10  20  33  52  78 109 145 188 236 281 331
#     4  10  21  36  54  79 113 151 192 238 289 342
#     4  11  20  33  54  78 110 151 192 232 280 341
#     4  10  20  37  61  86 115 152 194 238 286 345
#     4  10  21  36  57  84 113 146 191 239 286 345
#     4  10  21  37  56  83 119 152 191 240 288 341
#     4   9  18  34  56  81 109 145 189 235 283 340
#     4  10  20  36  59  83 113 149 185 234 295 349
#
# _framework density 19.574674000000002
#
# number of rings (size 3 to 8) (size 9 to 14) (size 15 to 20)
#    0.000    2.000    1.250    2.625    0.000    1.500 
#    0.000    6.875    0.000    3.750    0.000    0.000 
#    0.000    0.000    0.000    0.000    0.000    0.000 
#
# Total GULP energy -396479.460925 kJ/mol
# GULP energy per Si atom -12389.983154 kJ/mol
# Density = 1.953012 g / cm^3
# Si number density = 19.574674 Si / 1000 Ang^3
#
#
#
# Elastic Constant Matrix: (Units=GPa)
#
#
# Indices 1 2 3 4 5 6 
#
# 1 80.2882 17.8964 33.5399 0.0000 0.0454 0.0000
# 2 17.8964 90.6241 25.4664 0.0000 -5.9512 0.0000
# 3 33.5399 25.4664 96.9599 0.0000 -12.8295 0.0000
# 4 0.0000 0.0000 0.0000 -21.1551 0.0000 -19.0306
# 5 0.0454 -5.9512 -12.8295 0.0000 33.9245 0.0000
# 6 0.0000 0.0000 0.0000 -19.0306 0.0000 9.5801
#
#
#
# Elastic Compliance Matrix: (Units=1/GPa)
#
#
# Indices 1 2 3 4 5 6 
#
# 1 0.014926 -0.001684 -0.005013 0.000000 -0.002211 0.000000
# 2 -0.001684 0.012133 -0.002445 0.000000 0.001206 0.000000
# 3 -0.005013 -0.002445 0.013300 0.000000 0.004607 0.000000
# 4 0.000000 0.000000 0.000000 -0.016961 0.000000 -0.033693
# 5 -0.002211 0.001206 0.004607 0.000000 0.031434 0.000000
# 6 0.000000 0.000000 0.000000 -0.033693 0.000000 0.037454
#
#
# Mechanical properties :
#
#
# Convention : Reuss Voigt Hill
#
# Bulk Modulus (GPa) = 45.30076 46.85305 46.07691
# Shear Modulus (GPa) = 42.39856 17.20119 29.79988
#
# Velocity S-wave (km/s) = 4.65907 2.96758 3.90599
# Velocity P-wave (km/s) = 7.22048 5.97742 6.62816
#
# Compressibility (1/GPa) = 0.02207469
#
# Stress axis : x y z
#
# Youngs Moduli (GPa) = 66.99683 82.41750 75.19077
#
# Poissons Ratio (x) = 0.13879 0.37697
# Poissons Ratio (y) = 0.11282 0.18382
# Poissons Ratio (z) = 0.33589 0.20149
#
# Static dielectric constant tensor:
#      x y z
#    x 3.551200 0.000000 0.119780 
#    y 0.000000 3.484890 0.000000 
#    z 0.119780 0.000000 3.741760 
# 
# 
# High freq. dielectric constant tensor:
#      x y z
#    x 1.756630 0.000000 0.011120 
#    y 0.000000 1.748800 0.000000 
#    z 0.011120 0.000000 1.771910 
# 
# From -- ./inp_files/52334.got.cif
#   From: 2010.06.25/outbox.cif.g09.slc.cpg/sg11_27_cif.got.tgz:52334.got - 2010.06.27 23:14:04.
