data_PCOD8073746
_publ_section_title
;
Structure prediction by ZEFSAII (Michael W. Deem and Ramdas Pophale) SiO2 
 PCOD8073746
Probable space group: P 21/M
;
_chemical_formula_sum "Si O2"
_cell_formula_units_Z 32
_cell_length_a 12.939148
_cell_length_b 8.906509
_cell_length_c 14.134513
_cell_angle_alpha 90.000000
_cell_angle_beta 93.304423
_cell_angle_gamma 90.000000
_cell_volume 1626.190311
_symmetry_space_group_name_H-M "P 21/M"
_symmetry_group_IT_number 11
_symmetry_cell_setting 'monoclinic'
loop_
_space_group_symop_operation_xyz
x,y,z
-x,1/2+y,-z
-x,-y,-z
x,1/2-y,z
loop_
_atom_site_type_symbol
_atom_site_label
_atom_site_fract_x
_atom_site_fract_y
_atom_site_fract_z
Si Si1 0.272274 0.922987 0.107829
Si Si2 0.006655 0.422579 0.294881
Si Si3 0.203257 0.927996 0.394822
Si Si4 0.391288 0.926067 0.731968
Si Si5 0.592533 0.077996 0.058035
Si Si6 0.196454 0.928605 0.608899
Si Si7 0.622782 0.926063 0.717169
Si Si8 0.055904 0.422171 0.089486
O O1 0.266231 0.750000 0.139252
O O2 0.354793 0.007333 0.178055
O O3 0.162712 0.997898 0.117489
O O4 0.304405 0.938016 0.999888
O O5 0.027676 0.250000 0.324636
O O6 0.105419 0.519337 0.329465
O O7 0.987481 0.435704 0.181121
O O8 0.905140 0.487195 0.341562
O O9 0.210766 0.750000 0.390463
O O10 0.191656 0.986966 0.501316
O O11 0.308915 0.995215 0.359102
O O12 0.371209 0.750000 0.739134
O O13 0.386848 0.995259 0.837946
O O14 0.299328 0.997046 0.663973
O O15 0.501992 0.958826 0.688848
O O16 0.559574 0.250000 0.069515
O O17 0.500000 0.000000 0.000000
O O18 0.199712 0.750000 0.611851
O O19 0.647599 0.750000 0.719514
O O20 0.076019 0.250000 0.063549
O O21 0.000000 0.500000 0.000000
#
# Coordination Sequence:
#
# PCOD8073746 Si02
#       8
#     4   4   4   4   4   4   4   4
#     4  11  22  36  58  87 118 153 196 244 289 344
#     4  10  21  39  64  87 114 154 197 238 289 354
#     4  11  22  37  61  88 115 148 193 249 299 345
#     4   9  19  36  58  84 116 153 194 236 287 352
#     4  10  20  34  57  84 113 152 192 234 281 341
#     4   9  20  38  60  86 114 150 195 245 299 351
#     4  11  21  36  60  86 116 156 197 239 291 353
#     4  11  24  39  59  88 122 158 194 237 291 351
#
# _framework density 19.677893999999998
#
# number of rings (size 3 to 8) (size 9 to 14) (size 15 to 20)
#    0.000    1.750    2.500    1.875    1.750    1.500 
#    0.000    0.625    0.000    5.250    0.000    0.000 
#    0.000    0.000    0.000    0.000    0.000    0.000 
#
# Total GULP energy -396842.399171 kJ/mol
# GULP energy per Si atom -12401.324974 kJ/mol
# Density = 1.963311 g / cm^3
# Si number density = 19.677894 Si / 1000 Ang^3
#
#
#
# Elastic Constant Matrix: (Units=GPa)
#
#
# Indices 1 2 3 4 5 6 
#
# 1 109.8906 35.7862 53.6932 0.0000 -7.8905 0.0000
# 2 35.7862 74.9393 33.6226 0.0000 -4.5302 0.0000
# 3 53.6932 33.6226 130.5853 0.0000 -7.0929 0.0000
# 4 0.0000 0.0000 0.0000 25.0665 0.0000 1.2006
# 5 -7.8905 -4.5302 -7.0929 0.0000 36.4079 0.0000
# 6 0.0000 0.0000 0.0000 1.2006 0.0000 17.7246
#
#
#
# Elastic Compliance Matrix: (Units=1/GPa)
#
#
# Indices 1 2 3 4 5 6 
#
# 1 0.012488 -0.004080 -0.004007 0.000000 0.001418 0.000000
# 2 -0.004080 0.016466 -0.002526 0.000000 0.000673 0.000000
# 3 -0.004007 -0.002526 0.009997 0.000000 0.000765 0.000000
# 4 0.000000 0.000000 0.000000 0.040024 0.000000 -0.002711
# 5 0.001418 0.000673 0.000765 0.000000 0.028007 0.000000
# 6 0.000000 0.000000 0.000000 -0.002711 0.000000 0.056602
#
#
# Mechanical properties :
#
#
# Convention : Reuss Voigt Hill
#
# Bulk Modulus (GPa) = 56.41353 62.40214 59.40783
# Shear Modulus (GPa) = 26.21650 28.66068 27.43859
#
# Velocity S-wave (km/s) = 3.65400 3.82054 3.73820
# Velocity P-wave (km/s) = 6.82151 7.15840 6.99199
#
# Compressibility (1/GPa) = 0.01772624
#
# Stress axis : x y z
#
# Youngs Moduli (GPa) = 80.07371 60.73018 100.02614
#
# Poissons Ratio (x) = 0.24778 0.40084
# Poissons Ratio (y) = 0.32670 0.25262
# Poissons Ratio (z) = 0.32089 0.15338
#
# Static dielectric constant tensor:
#      x y z
#    x 3.696740 0.000000 -0.105800 
#    y 0.000000 3.415890 0.000000 
#    z -0.105800 0.000000 3.887370 
# 
# 
# High freq. dielectric constant tensor:
#      x y z
#    x 1.772640 0.000000 -0.009260 
#    y 0.000000 1.745410 0.000000 
#    z -0.009260 0.000000 1.777010 
# 
# From -- ./inp_files/49391.got.cif
#   From: 2010.06.25/outbox.cif.g09.slc.cpg/sg11_25_cif.got.tgz:49391.got - 2010.06.27 23:14:04.
