data_PCOD8073682
_publ_section_title
;
Structure prediction by ZEFSAII (Michael W. Deem and Ramdas Pophale) SiO2 
 PCOD8073682
Probable space group: P 21/M
;
_chemical_formula_sum "Si O2"
_cell_formula_units_Z 28
_cell_length_a 15.055612
_cell_length_b 8.464333
_cell_length_c 12.503006
_cell_angle_alpha 90.000000
_cell_angle_beta 106.035931
_cell_angle_gamma 90.000000
_cell_volume 1531.330890
_symmetry_space_group_name_H-M "P 21/M"
_symmetry_group_IT_number 11
_symmetry_cell_setting 'monoclinic'
loop_
_space_group_symop_operation_xyz
x,y,z
-x,1/2+y,-z
-x,-y,-z
x,1/2-y,z
loop_
_atom_site_type_symbol
_atom_site_label
_atom_site_fract_x
_atom_site_fract_y
_atom_site_fract_z
Si Si1 0.893105 0.435490 0.079782
Si Si2 0.591930 0.433936 0.477226
Si Si3 0.612473 0.933077 0.874209
Si Si4 0.716578 0.566505 0.693119
Si Si5 0.581170 0.932633 0.245057
Si Si6 0.903941 0.934415 0.853451
Si Si7 0.294274 0.934906 0.889871
O O1 0.888910 0.250000 0.086775
O O2 0.810246 0.501024 0.126123
O O3 0.994855 0.496798 0.151251
O O4 0.873228 0.481433 0.951470
O O5 0.500000 0.500000 0.500000
O O6 0.579110 0.250000 0.449162
O O7 0.678452 0.461334 0.584138
O O8 0.612368 0.524580 0.374692
O O9 0.630130 0.750000 0.906821
O O10 0.667239 0.984963 0.786394
O O11 0.504335 0.960600 0.819944
O O12 0.645356 0.038196 0.983919
O O13 0.696467 0.750000 0.662535
O O14 0.826501 0.531687 0.738092
O O15 0.552739 0.750000 0.229762
O O16 0.666984 0.966366 0.196225
O O17 0.909139 0.750000 0.882054
O O18 0.296251 0.750000 0.862511
#
# Coordination Sequence:
#
# PCOD8073682 Si02
#       7
#     4   4   4   4   4   4   4
#     4   9  18  31  52  80 111 144 178 219 268 319
#     4  12  24  39  59  81 108 141 182 227 272 320
#     4  11  21  35  55  81 113 148 183 221 269 323
#     4  10  20  34  56  82 113 146 180 222 269 318
#     4  12  25  40  57  77 106 146 189 228 272 323
#     4   9  17  32  53  80 111 143 178 219 267 319
#     4  11  22  36  54  80 115 149 184 224 271 325
#
# _framework density 18.284749000000001
#
# number of rings (size 3 to 8) (size 9 to 14) (size 15 to 20)
#    0.000    1.429    2.857    3.857    0.000    1.714 
#    0.000    0.000    0.000    0.857    0.000    0.000 
#    0.000    0.000    0.000    0.000    0.000    0.000 
#
# Total GULP energy -347245.086157 kJ/mol
# GULP energy per Si atom -12401.610220 kJ/mol
# Density = 1.824313 g / cm^3
# Si number density = 18.284749 Si / 1000 Ang^3
#
#
#
# Elastic Constant Matrix: (Units=GPa)
#
#
# Indices 1 2 3 4 5 6 
#
# 1 125.3896 16.9815 55.8928 0.0000 4.8027 0.0000
# 2 16.9815 42.3307 15.1327 0.0000 -5.0073 0.0000
# 3 55.8928 15.1327 94.8437 0.0000 -2.7916 0.0000
# 4 0.0000 0.0000 0.0000 25.8041 0.0000 -2.6061
# 5 4.8027 -5.0073 -2.7916 0.0000 27.4188 0.0000
# 6 0.0000 0.0000 0.0000 -2.6061 0.0000 20.9767
#
#
#
# Elastic Compliance Matrix: (Units=1/GPa)
#
#
# Indices 1 2 3 4 5 6 
#
# 1 0.011262 -0.002629 -0.006308 0.000000 -0.003095 0.000000
# 2 -0.002629 0.026153 -0.002477 0.000000 0.004984 0.000000
# 3 -0.006308 -0.002477 0.014720 0.000000 0.002151 0.000000
# 4 0.000000 0.000000 0.000000 0.039246 0.000000 0.004876
# 5 -0.003095 0.004984 0.002151 0.000000 0.038143 0.000000
# 6 0.000000 0.000000 0.000000 0.004876 0.000000 0.048278
#
#
# Mechanical properties :
#
#
# Convention : Reuss Voigt Hill
#
# Bulk Modulus (GPa) = 34.12205 48.73089 41.42647
# Shear Modulus (GPa) = 23.76449 26.47706 25.12077
#
# Velocity S-wave (km/s) = 3.60903 3.80944 3.71059
# Velocity P-wave (km/s) = 6.00573 6.78661 6.40808
#
# Compressibility (1/GPa) = 0.02930656
#
# Stress axis : x y z
#
# Youngs Moduli (GPa) = 88.79697 38.23625 67.93576
#
# Poissons Ratio (x) = 0.10051 0.42856
# Poissons Ratio (y) = 0.23342 0.16828
# Poissons Ratio (z) = 0.56016 0.09471
#
# Static dielectric constant tensor:
#      x y z
#    x 3.838490 0.000000 0.122210 
#    y 0.000000 3.374030 0.000000 
#    z 0.122210 0.000000 3.256470 
# 
# 
# High freq. dielectric constant tensor:
#      x y z
#    x 1.713180 0.000000 0.009410 
#    y 0.000000 1.711050 0.000000 
#    z 0.009410 0.000000 1.687700 
# 
# From -- ./inp_files/37690.got.cif
#   From: 2010.06.25/outbox.cif.g09.slc.cpg/sg11_19_cif.got.tgz:37690.got - 2010.06.27 23:14:04.
