data_PCOD8073390
_publ_section_title
;
Structure prediction by ZEFSAII (Michael W. Deem and Ramdas Pophale) SiO2 
 PCOD8073390
Probable space group: P 21/M
;
_chemical_formula_sum "Si O2"
_cell_formula_units_Z 28
_cell_length_a 15.874642
_cell_length_b 8.860675
_cell_length_c 21.167951
_cell_angle_alpha 90.000000
_cell_angle_beta 26.980634
_cell_angle_gamma 90.000000
_cell_volume 1350.853083
_symmetry_space_group_name_H-M "P 21/M"
_symmetry_group_IT_number 11
_symmetry_cell_setting 'monoclinic'
loop_
_space_group_symop_operation_xyz
x,y,z
-x,1/2+y,-z
-x,-y,-z
x,1/2-y,z
loop_
_atom_site_type_symbol
_atom_site_label
_atom_site_fract_x
_atom_site_fract_y
_atom_site_fract_z
Si Si1 0.896453 0.925909 0.187167
Si Si2 0.939314 0.073189 0.734564
Si Si3 0.221934 0.423109 0.046140
Si Si4 0.517369 0.075902 0.749861
Si Si5 0.660978 0.070649 0.247000
Si Si6 0.914766 0.927158 0.495371
Si Si7 0.305574 0.074736 0.555716
O O1 0.923573 0.750000 0.154769
O O2 0.723855 0.956592 0.350400
O O3 0.851353 0.011246 0.151735
O O4 0.083716 0.985407 0.093338
O O5 0.916137 0.250000 0.763561
O O6 0.941924 0.038479 0.657963
O O7 0.132091 0.007204 0.633121
O O8 0.777177 0.988185 0.882442
O O9 0.158078 0.250000 0.089996
O O10 0.429256 0.439004 0.878914
O O11 0.548524 0.250000 0.711027
O O12 0.368501 0.001180 0.801895
O O13 0.712268 0.991246 0.615845
O O14 0.670276 0.250000 0.234687
O O15 0.495750 0.006240 0.402149
O O16 0.893201 0.750000 0.519936
O O17 0.000000 0.000000 0.500000
O O18 0.311241 0.250000 0.536343
#
# Coordination Sequence:
#
# PCOD8073390 Si02
#       7
#     4   4   4   4   4   4   4
#     4  10  20  34  52  79 116 158 203 248 294 345
#     4   9  18  37  62  88 118 153 193 238 291 350
#     4  10  22  39  59  85 119 159 204 246 288 345
#     4  11  24  41  60  87 121 157 198 244 295 351
#     4  11  20  33  54  81 116 156 202 250 297 346
#     4  11  23  42  68  97 124 150 188 237 293 355
#     4   8  15  30  51  78 111 147 191 241 290 341
#
# _framework density 20.727644000000002
#
# number of rings (size 3 to 8) (size 9 to 14) (size 15 to 20)
#    0.000    2.000    1.429    3.429    0.000    4.000 
#    0.000    2.143    0.000    0.000    0.000    0.000 
#    0.000    0.000    0.000    0.000    0.000    0.000 
#
# Total GULP energy -347096.372283 kJ/mol
# GULP energy per Si atom -12396.299010 kJ/mol
# Density = 2.068047 g / cm^3
# Si number density = 20.727644 Si / 1000 Ang^3
#
#
#
# Elastic Constant Matrix: (Units=GPa)
#
#
# Indices 1 2 3 4 5 6 
#
# 1 104.2319 51.9588 18.4297 0.0000 19.7762 0.0000
# 2 51.9588 118.5646 39.7688 0.0000 17.9650 0.0000
# 3 18.4297 39.7688 74.4696 0.0000 26.9694 0.0000
# 4 0.0000 0.0000 0.0000 26.1596 0.0000 2.7982
# 5 19.7762 17.9650 26.9694 0.0000 20.9426 0.0000
# 6 0.0000 0.0000 0.0000 2.7982 0.0000 34.9849
#
#
#
# Elastic Compliance Matrix: (Units=1/GPa)
#
#
# Indices 1 2 3 4 5 6 
#
# 1 0.014420 -0.005688 0.004935 0.000000 -0.015093 0.000000
# 2 -0.005688 0.012639 -0.006298 0.000000 0.002639 0.000000
# 3 0.004935 -0.006298 0.028674 0.000000 -0.036184 0.000000
# 4 0.000000 0.000000 0.000000 0.038557 0.000000 -0.003084
# 5 -0.015093 0.002639 -0.036184 0.000000 0.106334 0.000000
# 6 0.000000 0.000000 0.000000 -0.003084 0.000000 0.028830
#
#
# Mechanical properties :
#
#
# Convention : Reuss Voigt Hill
#
# Bulk Modulus (GPa) = 24.01998 57.50897 40.76447
# Shear Modulus (GPa) = 19.42237 28.89133 24.15685
#
# Velocity S-wave (km/s) = 3.06441 3.73749 3.41756
# Velocity P-wave (km/s) = 4.91267 6.81398 5.93990
#
# Compressibility (1/GPa) = 0.04163201
#
# Stress axis : x y z
#
# Youngs Moduli (GPa) = 69.34631 79.11806 34.87441
#
# Poissons Ratio (x) = 0.45000 -0.17209
# Poissons Ratio (y) = 0.39442 0.21963
# Poissons Ratio (z) = -0.34220 0.49827
#
# Static dielectric constant tensor:
#      x y z
#    x 3.632830 0.000000 0.317290 
#    y 0.000000 3.641030 0.000000 
#    z 0.317290 0.000000 3.889240 
# 
# 
# High freq. dielectric constant tensor:
#      x y z
#    x 1.796280 0.000000 0.023310 
#    y 0.000000 1.806660 0.000000 
#    z 0.023310 0.000000 1.808920 
# 
# From -- ./inp_files/65365.got.cif
#   From: 2010.06.25/outbox.cif.g09.slc.cpg/sg11_33_cif.got.tgz:65365.got - 2010.06.27 23:14:04.
