data_PCOD8073287
_publ_section_title
;
Structure prediction by ZEFSAII (Michael W. Deem and Ramdas Pophale) SiO2 
 PCOD8073287
Probable space group: P 21/M
;
_chemical_formula_sum "Si O2"
_cell_formula_units_Z 32
_cell_length_a 20.886209
_cell_length_b 9.226036
_cell_length_c 26.744797
_cell_angle_alpha 90.000000
_cell_angle_beta 18.884278
_cell_angle_gamma 90.000000
_cell_volume 1668.015751
_symmetry_space_group_name_H-M "P 21/M"
_symmetry_group_IT_number 11
_symmetry_cell_setting 'monoclinic'
loop_
_space_group_symop_operation_xyz
x,y,z
-x,1/2+y,-z
-x,-y,-z
x,1/2-y,z
loop_
_atom_site_type_symbol
_atom_site_label
_atom_site_fract_x
_atom_site_fract_y
_atom_site_fract_z
Si Si1 0.801203 0.415201 0.139879
Si Si2 0.662986 0.590645 0.326678
Si Si3 0.414083 0.416862 0.897035
Si Si4 0.133953 0.576856 0.441626
Si Si5 0.862065 0.578027 0.458253
Si Si6 0.792778 0.090110 0.316097
Si Si7 0.968645 0.919707 0.762187
Si Si8 0.584156 0.087444 0.199701
O O1 0.823842 0.250000 0.139633
O O2 0.642177 0.489919 0.293440
O O3 0.738790 0.431780 0.129215
O O4 0.000000 0.500000 0.000000
O O5 0.749265 0.750000 0.249730
O O6 0.442268 0.606707 0.508774
O O7 0.821217 0.523002 0.249622
O O8 0.405738 0.250000 0.890174
O O9 0.640234 0.462935 0.741103
O O10 0.336333 0.492600 0.904482
O O11 0.262316 0.452864 0.054172
O O12 0.099241 0.750000 0.468806
O O13 0.072527 0.506413 0.539962
O O14 0.000000 0.500000 0.500000
O O15 0.905120 0.750000 0.431474
O O16 0.631459 0.542431 0.620437
O O17 0.981011 0.515463 0.323171
O O18 0.883144 0.250000 0.237335
O O19 0.892186 0.032783 0.293951
O O20 0.001490 0.750000 0.725646
O O21 0.572326 0.250000 0.188096
#
# Coordination Sequence:
#
# PCOD8073287 Si02
#       8
#     4   4   4   4   4   4   4   4
#     4  11  23  36  50  71 101 137 181 233 284 333
#     4  10  20  34  50  72 100 135 182 229 279 334
#     4   9  20  36  57  85 115 146 182 224 276 331
#     4  10  20  38  63  89 117 150 185 222 264 320
#     4  10  20  36  59  87 114 146 184 224 271 325
#     4   9  19  34  53  74 102 140 179 224 276 332
#     4  10  20  35  55  82 113 144 182 227 276 327
#     4   9  20  37  55  76 106 142 186 233 278 332
#
# _framework density 19.184470999999998
#
# number of rings (size 3 to 8) (size 9 to 14) (size 15 to 20)
#    0.000    2.250    0.000    2.250    1.750    3.500 
#    0.000    0.625    0.000    0.000    0.000    0.000 
#    0.000    0.000    0.000    0.000    0.000    0.000 
#
# Total GULP energy -396676.583917 kJ/mol
# GULP energy per Si atom -12396.143247 kJ/mol
# Density = 1.914081 g / cm^3
# Si number density = 19.184471 Si / 1000 Ang^3
#
#
#
# Elastic Constant Matrix: (Units=GPa)
#
#
# Indices 1 2 3 4 5 6 
#
# 1 103.3884 63.2406 44.5257 0.0000 -1.3673 0.0000
# 2 63.2406 115.9145 41.3538 0.0000 3.9386 0.0000
# 3 44.5257 41.3538 69.7280 0.0000 8.3351 0.0000
# 4 0.0000 0.0000 0.0000 26.0779 0.0000 6.8587
# 5 -1.3673 3.9386 8.3351 0.0000 24.8469 0.0000
# 6 0.0000 0.0000 0.0000 6.8587 0.0000 36.6314
#
#
#
# Elastic Compliance Matrix: (Units=1/GPa)
#
#
# Indices 1 2 3 4 5 6 
#
# 1 0.017108 -0.006846 -0.007404 0.000000 0.004510 0.000000
# 2 -0.006846 0.013687 -0.003585 0.000000 -0.001344 0.000000
# 3 -0.007404 -0.003585 0.022061 0.000000 -0.007240 0.000000
# 4 0.000000 0.000000 0.000000 0.040333 0.000000 -0.007552
# 5 0.004510 -0.001344 -0.007240 0.000000 0.043136 0.000000
# 6 0.000000 0.000000 0.000000 -0.007552 0.000000 0.028713
#
#
# Mechanical properties :
#
#
# Convention : Reuss Voigt Hill
#
# Bulk Modulus (GPa) = 58.18561 65.25235 61.71898
# Shear Modulus (GPa) = 24.22081 26.83863 25.52972
#
# Velocity S-wave (km/s) = 3.55705 3.74435 3.65190
# Velocity P-wave (km/s) = 6.87499 7.26502 7.07269
#
# Compressibility (1/GPa) = 0.01718638
#
# Stress axis : x y z
#
# Youngs Moduli (GPa) = 58.45350 73.06447 45.32944
#
# Poissons Ratio (x) = 0.50017 0.33560
# Poissons Ratio (y) = 0.40015 0.16252
# Poissons Ratio (z) = 0.43276 0.26195
#
# Static dielectric constant tensor:
#      x y z
#    x 3.879850 0.000000 0.518240 
#    y 0.000000 4.646680 0.000000 
#    z 0.518240 0.000000 3.953380 
# 
# 
# High freq. dielectric constant tensor:
#      x y z
#    x 1.734550 0.000000 0.004350 
#    y 0.000000 1.756730 0.000000 
#    z 0.004350 0.000000 1.741390 
# 
# From -- ./inp_files/72038.got.cif
#   From: 2010.06.25/outbox.cif.g09.slc.cpg/sg11_37_cif.got.tgz:72038.got - 2010.06.27 23:14:04.
