data_PCOD8073240
_publ_section_title
;
Structure prediction by ZEFSAII (Michael W. Deem and Ramdas Pophale) SiO2 
 PCOD8073240
Probable space group: P 21/M
;
_chemical_formula_sum "Si O2"
_cell_formula_units_Z 28
_cell_length_a 21.595836
_cell_length_b 8.698906
_cell_length_c 16.400556
_cell_angle_alpha 90.000000
_cell_angle_beta 153.356340
_cell_angle_gamma 90.000000
_cell_volume 1381.649477
_symmetry_space_group_name_H-M "P 21/M"
_symmetry_group_IT_number 11
_symmetry_cell_setting 'monoclinic'
loop_
_space_group_symop_operation_xyz
x,y,z
-x,1/2+y,-z
-x,-y,-z
x,1/2-y,z
loop_
_atom_site_type_symbol
_atom_site_label
_atom_site_fract_x
_atom_site_fract_y
_atom_site_fract_z
Si Si1 0.570639 0.430365 0.459775
Si Si2 0.390820 0.924827 0.811670
Si Si3 0.964708 0.429117 0.178994
Si Si4 0.720647 0.568559 0.480882
Si Si5 0.066164 0.074859 0.690728
Si Si6 0.185001 0.419867 0.671151
Si Si7 0.686786 0.071924 0.769421
O O1 0.575189 0.250000 0.449580
O O2 0.649492 0.510822 0.478874
O O3 0.410731 0.482185 0.280714
O O4 0.652573 0.480883 0.637551
O O5 0.429959 0.750000 0.839649
O O6 0.370697 0.008559 0.701964
O O7 0.253809 0.940533 0.703688
O O8 0.500000 0.000000 0.000000
O O9 0.971932 0.250000 0.210240
O O10 0.902040 0.525893 0.180148
O O11 0.118474 0.488128 0.335007
O O12 0.850474 0.460314 0.974602
O O13 0.717025 0.750000 0.475783
O O14 0.007413 0.250000 0.620353
O O15 0.200267 0.069829 0.787925
O O16 0.972087 0.941713 0.540880
O O17 0.236231 0.250000 0.702228
O O18 0.651984 0.250000 0.740994
#
# Coordination Sequence:
#
# PCOD8073240 Si02
#       7
#     4   4   4   4   4   4   4
#     4  10  21  39  63  90 122 160 203 250 301 362
#     4  12  25  41  61  85 116 156 201 247 299 356
#     4  10  21  37  60  88 122 159 200 250 304 359
#     4  11  23  40  62  89 122 160 200 248 306 365
#     4  10  20  33  55  83 112 148 190 238 290 346
#     4  10  20  36  55  79 112 150 193 240 290 344
#     4   9  20  40  63  89 121 160 203 250 303 361
#
# _framework density 20.265633000000001
#
# number of rings (size 3 to 8) (size 9 to 14) (size 15 to 20)
#    0.000    1.714    1.429    3.000    0.000    5.143 
#    0.000    2.857    0.000    0.000    0.000    0.000 
#    0.000    0.000    0.000    0.000    0.000    0.000 
#
# Total GULP energy -346917.989355 kJ/mol
# GULP energy per Si atom -12389.928191 kJ/mol
# Density = 2.021951 g / cm^3
# Si number density = 20.265633 Si / 1000 Ang^3
#
#
#
# Elastic Constant Matrix: (Units=GPa)
#
#
# Indices 1 2 3 4 5 6 
#
# 1 130.5710 44.0339 49.3481 0.0000 -18.4568 0.0000
# 2 44.0339 81.9020 31.1690 0.0000 -6.3780 0.0000
# 3 49.3481 31.1690 106.1750 0.0000 -10.4499 0.0000
# 4 0.0000 0.0000 0.0000 27.1767 0.0000 -3.1110
# 5 -18.4568 -6.3780 -10.4499 0.0000 16.0515 0.0000
# 6 0.0000 0.0000 0.0000 -3.1110 0.0000 35.7914
#
#
#
# Elastic Compliance Matrix: (Units=1/GPa)
#
#
# Indices 1 2 3 4 5 6 
#
# 1 0.011691 -0.004310 -0.003220 0.000000 0.009634 0.000000
# 2 -0.004310 0.015473 -0.002588 0.000000 -0.000492 0.000000
# 3 -0.003220 -0.002588 0.011977 0.000000 0.003066 0.000000
# 4 0.000000 0.000000 0.000000 0.037166 0.000000 0.003230
# 5 0.009634 -0.000492 0.003066 0.000000 0.075178 0.000000
# 6 0.000000 0.000000 0.000000 0.003230 0.000000 0.028220
#
#
# Mechanical properties :
#
#
# Convention : Reuss Voigt Hill
#
# Bulk Modulus (GPa) = 52.89557 63.08333 57.98945
# Shear Modulus (GPa) = 24.24333 28.74373 26.49353
#
# Velocity S-wave (km/s) = 3.46248 3.77018 3.61960
# Velocity P-wave (km/s) = 6.49175 7.08154 6.79305
#
# Compressibility (1/GPa) = 0.01890517
#
# Stress axis : x y z
#
# Youngs Moduli (GPa) = 85.53584 64.62748 83.49630
#
# Poissons Ratio (x) = 0.27853 0.26889
# Poissons Ratio (y) = 0.36864 0.21606
# Poissons Ratio (z) = 0.27546 0.16724
#
# Static dielectric constant tensor:
#      x y z
#    x 3.731670 0.000000 -0.122680 
#    y 0.000000 3.666420 0.000000 
#    z -0.122680 0.000000 3.608320 
# 
# 
# High freq. dielectric constant tensor:
#      x y z
#    x 1.795510 0.000000 -0.003900 
#    y 0.000000 1.797060 0.000000 
#    z -0.003900 0.000000 1.780040 
# 
# From -- ./inp_files/54526.got.cif
#   From: 2010.06.25/outbox.cif.g09.slc.cpg/sg11_28_cif.got.tgz:54526.got - 2010.06.27 23:14:04.
