data_PCOD8073734
_publ_section_title
;
Structure prediction by ZEFSAII (Michael W. Deem and Ramdas Pophale) SiO2 
 PCOD8073734
Probable space group: P 21/M
;
_chemical_formula_sum "Si O2"
_cell_formula_units_Z 24
_cell_length_a 14.507656
_cell_length_b 8.646942
_cell_length_c 13.632153
_cell_angle_alpha 90.000000
_cell_angle_beta 40.410403
_cell_angle_gamma 90.000000
_cell_volume 1108.593274
_symmetry_space_group_name_H-M "P 21/M"
_symmetry_group_IT_number 11
_symmetry_cell_setting 'monoclinic'
loop_
_space_group_symop_operation_xyz
x,y,z
-x,1/2+y,-z
-x,-y,-z
x,1/2-y,z
loop_
_atom_site_type_symbol
_atom_site_label
_atom_site_fract_x
_atom_site_fract_y
_atom_site_fract_z
Si Si1 0.810347 0.932197 0.546297
Si Si2 0.921817 0.930345 0.969273
Si Si3 0.657709 0.933140 0.863848
Si Si4 0.328044 0.572606 0.736039
Si Si5 0.095745 0.568464 0.221158
Si Si6 0.658611 0.569954 0.476458
O O1 0.788582 0.750000 0.566432
O O2 0.737502 0.002162 0.702721
O O3 0.729185 0.998049 0.517051
O O4 0.977863 0.973431 0.400189
O O5 0.952581 0.750000 0.936183
O O6 0.968865 0.012044 0.830108
O O7 0.754606 0.966041 0.119273
O O8 0.000000 0.000000 0.000000
O O9 0.645928 0.750000 0.870638
O O10 0.755338 0.984038 0.876318
O O11 0.500000 0.000000 0.000000
O O12 0.286013 0.750000 0.787591
O O13 0.491927 0.541033 0.622024
O O14 0.281301 0.526326 0.663816
O O15 0.123956 0.750000 0.193231
O O16 0.694350 0.750000 0.430121
#
# Coordination Sequence:
#
# PCOD8073734 Si02
#       6
#     4   4   4   4   4   4
#     4   9  20  39  65  91 121 164 213 263 318 377
#     4  12  25  41  62  91 128 168 213 264 317 382
#     4  11  24  43  66  96 129 167 216 269 323 384
#     4  10  20  34  56  88 125 166 211 262 317 374
#     4  11  23  42  67  95 129 171 213 264 325 384
#     4   9  18  35  59  87 121 165 212 263 316 374
#
# _framework density 21.649059000000001
#
# number of rings (size 3 to 8) (size 9 to 14) (size 15 to 20)
#    0.000    1.667    0.000    4.500    2.333    2.000 
#    0.000    5.000    0.000    0.000    0.000    0.000 
#    0.000    0.000    0.000    0.000    0.000    0.000 
#
# Total GULP energy -297632.464293 kJ/mol
# GULP energy per Si atom -12401.352679 kJ/mol
# Density = 2.159978 g / cm^3
# Si number density = 21.649059 Si / 1000 Ang^3
#
#
#
# Elastic Constant Matrix: (Units=GPa)
#
#
# Indices 1 2 3 4 5 6 
#
# 1 114.1758 26.9807 39.3869 0.0000 -3.9669 0.0000
# 2 26.9807 79.7065 43.1959 0.0000 -2.8045 0.0000
# 3 39.3869 43.1959 122.1638 0.0000 4.5421 0.0000
# 4 0.0000 0.0000 0.0000 34.3326 0.0000 -0.7201
# 5 -3.9669 -2.8045 4.5421 0.0000 28.5803 0.0000
# 6 0.0000 0.0000 0.0000 -0.7201 0.0000 32.8974
#
#
#
# Elastic Compliance Matrix: (Units=1/GPa)
#
#
# Indices 1 2 3 4 5 6 
#
# 1 0.010194 -0.001953 -0.002657 0.000000 0.001646 0.000000
# 2 -0.001953 0.016061 -0.005128 0.000000 0.002120 0.000000
# 3 -0.002657 -0.005128 0.010953 0.000000 -0.002613 0.000000
# 4 0.000000 0.000000 0.000000 0.029140 0.000000 0.000638
# 5 0.001646 0.002120 -0.002613 0.000000 0.035841 0.000000
# 6 0.000000 0.000000 0.000000 0.000638 0.000000 0.030411
#
#
# Mechanical properties :
#
#
# Convention : Reuss Voigt Hill
#
# Bulk Modulus (GPa) = 56.39801 59.46370 57.93086
# Shear Modulus (GPa) = 31.64829 32.92757 32.28793
#
# Velocity S-wave (km/s) = 3.82760 3.90419 3.86609
# Velocity P-wave (km/s) = 6.75586 6.91740 6.83710
#
# Compressibility (1/GPa) = 0.01773112
#
# Stress axis : x y z
#
# Youngs Moduli (GPa) = 98.09986 62.26365 91.29996
#
# Poissons Ratio (x) = 0.12157 0.24261
# Poissons Ratio (y) = 0.19155 0.46821
# Poissons Ratio (z) = 0.26068 0.31930
#
# Static dielectric constant tensor:
#      x y z
#    x 3.969730 0.000000 0.064780 
#    y 0.000000 3.689740 0.000000 
#    z 0.064780 0.000000 4.244080 
# 
# 
# High freq. dielectric constant tensor:
#      x y z
#    x 1.855670 0.000000 -0.004710 
#    y 0.000000 1.833060 0.000000 
#    z -0.004710 0.000000 1.864880 
# 
# From -- ./inp_files/51500.got.cif
#   From: 2010.06.25/outbox.cif.g09.slc.cpg/sg11_26_cif.got.tgz:51500.got - 2010.06.27 23:14:04.
