data_PCOD8073062
_publ_section_title
;
Structure prediction by ZEFSAII (Michael W. Deem and Ramdas Pophale) SiO2 
 PCOD8073062
Probable space group: P 21/M
;
_chemical_formula_sum "Si O2"
_cell_formula_units_Z 24
_cell_length_a 18.680029
_cell_length_b 9.093743
_cell_length_c 24.495415
_cell_angle_alpha 90.000000
_cell_angle_beta 18.973802
_cell_angle_gamma 90.000000
_cell_volume 1352.912790
_symmetry_space_group_name_H-M "P 21/M"
_symmetry_group_IT_number 11
_symmetry_cell_setting 'monoclinic'
loop_
_space_group_symop_operation_xyz
x,y,z
-x,1/2+y,-z
-x,-y,-z
x,1/2-y,z
loop_
_atom_site_type_symbol
_atom_site_label
_atom_site_fract_x
_atom_site_fract_y
_atom_site_fract_z
Si Si1 0.724109 0.921008 0.352547
Si Si2 0.680705 0.423322 0.488476
Si Si3 0.015798 0.416501 0.653987
Si Si4 0.543120 0.079925 0.025008
Si Si5 0.850326 0.076987 0.652187
Si Si6 0.179107 0.418633 0.835447
O O1 0.682482 0.750000 0.394515
O O2 0.877783 0.940917 0.188067
O O3 0.500000 0.000000 0.500000
O O4 0.815347 0.998540 0.341532
O O5 0.701819 0.250000 0.466132
O O6 0.791792 0.474897 0.464814
O O7 0.425850 0.474943 0.671574
O O8 0.104736 0.250000 0.591944
O O9 0.951428 0.457963 0.638649
O O10 0.805000 0.432643 0.846697
O O11 0.470649 0.250000 0.073721
O O12 0.393627 0.995770 0.177561
O O13 0.500000 0.000000 0.000000
O O14 0.831704 0.250000 0.654538
O O15 0.000000 0.000000 0.500000
O O16 0.163961 0.250000 0.862896
O O17 0.000000 0.500000 0.000000
#
# Coordination Sequence:
#
# PCOD8073062 Si02
#       6
#     4   4   4   4   4   4
#     4   9  17  31  50  72  97 126 163 202 242 293
#     4  10  20  33  51  76 101 128 167 211 253 298
#     4   9  19  34  52  75 101 131 167 208 255 303
#     4   9  17  31  51  74  99 128 166 207 247 299
#     4  10  20  34  53  77 104 136 173 210 254 307
#     4   9  19  33  50  74 100 129 165 202 244 296
#
# _framework density 17.739502999999999
#
# number of rings (size 3 to 8) (size 9 to 14) (size 15 to 20)
#    0.000    2.667    0.000    4.000    0.000    8.000 
#    0.000    1.667    0.000    2.000    0.000    0.000 
#    0.000    0.000    0.000    0.000    0.000    0.000 
#
# Total GULP energy -297410.911762 kJ/mol
# GULP energy per Si atom -12392.121323 kJ/mol
# Density = 1.769913 g / cm^3
# Si number density = 17.739503 Si / 1000 Ang^3
#
#
#
# Elastic Constant Matrix: (Units=GPa)
#
#
# Indices 1 2 3 4 5 6 
#
# 1 72.0735 45.8267 44.8551 0.0000 4.1645 0.0000
# 2 45.8267 112.9768 57.5104 0.0000 8.9138 0.0000
# 3 44.8551 57.5104 106.0000 0.0000 18.6514 0.0000
# 4 0.0000 0.0000 0.0000 35.6188 0.0000 2.7051
# 5 4.1645 8.9138 18.6514 0.0000 25.9865 0.0000
# 6 0.0000 0.0000 0.0000 2.7051 0.0000 32.6903
#
#
#
# Elastic Compliance Matrix: (Units=1/GPa)
#
#
# Indices 1 2 3 4 5 6 
#
# 1 0.021307 -0.005552 -0.006568 0.000000 0.003204 0.000000
# 2 -0.005552 0.013685 -0.005043 0.000000 -0.000185 0.000000
# 3 -0.006568 -0.005043 0.016550 0.000000 -0.009096 0.000000
# 4 0.000000 0.000000 0.000000 0.028253 0.000000 -0.002338
# 5 0.003204 -0.000185 -0.009096 0.000000 0.044560 0.000000
# 6 0.000000 0.000000 0.000000 -0.002338 0.000000 0.030784
#
#
# Mechanical properties :
#
#
# Convention : Reuss Voigt Hill
#
# Bulk Modulus (GPa) = 58.08418 65.27051 61.67735
# Shear Modulus (GPa) = 25.61432 28.38300 26.99866
#
# Velocity S-wave (km/s) = 3.80401 4.00432 3.90545
# Velocity P-wave (km/s) = 7.21858 7.63238 7.42836
#
# Compressibility (1/GPa) = 0.01721639
#
# Stress axis : x y z
#
# Youngs Moduli (GPa) = 46.93189 73.07161 60.42423
#
# Poissons Ratio (x) = 0.40572 0.39685
# Poissons Ratio (y) = 0.26059 0.30471
# Poissons Ratio (z) = 0.30824 0.36848
#
# Static dielectric constant tensor:
#      x y z
#    x 3.237140 0.000000 0.133520 
#    y 0.000000 3.532240 0.000000 
#    z 0.133520 0.000000 3.419960 
# 
# 
# High freq. dielectric constant tensor:
#      x y z
#    x 1.667240 0.000000 0.009490 
#    y 0.000000 1.700650 0.000000 
#    z 0.009490 0.000000 1.671860 
# 
# From -- ./inp_files/23731.got.cif
#   From: 2010.06.25/outbox.cif.g09.slc.cpg/sg11_12_cif.got.tgz:23731.got - 2010.06.27 23:14:04.
