data_PCOD8073480
_publ_section_title
;
Structure prediction by ZEFSAII (Michael W. Deem and Ramdas Pophale) SiO2 
 PCOD8073480
Probable space group: P 21/M
;
_chemical_formula_sum "Si O2"
_cell_formula_units_Z 28
_cell_length_a 23.773585
_cell_length_b 9.107466
_cell_length_c 25.895291
_cell_angle_alpha 90.000000
_cell_angle_beta 16.082716
_cell_angle_gamma 90.000000
_cell_volume 1553.215431
_symmetry_space_group_name_H-M "P 21/M"
_symmetry_group_IT_number 11
_symmetry_cell_setting 'monoclinic'
loop_
_space_group_symop_operation_xyz
x,y,z
-x,1/2+y,-z
-x,-y,-z
x,1/2-y,z
loop_
_atom_site_type_symbol
_atom_site_label
_atom_site_fract_x
_atom_site_fract_y
_atom_site_fract_z
Si Si1 0.516599 0.577733 0.137093
Si Si2 0.044552 0.083122 0.012973
Si Si3 0.652068 0.575051 0.616011
Si Si4 0.472605 0.076702 0.675795
Si Si5 0.055454 0.422243 0.290852
Si Si6 0.371972 0.916878 0.570503
Si Si7 0.911290 0.418892 0.529606
O O1 0.516710 0.750000 0.151035
O O2 0.491029 0.487229 0.212267
O O3 0.325632 0.539536 0.268855
O O4 0.724103 0.531189 0.925275
O O5 0.075936 0.250000 0.968211
O O6 0.864772 0.061027 0.211741
O O7 0.241297 0.028324 0.869910
O O8 0.000000 0.000000 0.000000
O O9 0.658285 0.750000 0.613973
O O10 0.555294 0.523351 0.648219
O O11 0.881072 0.512841 0.415667
O O12 0.496332 0.250000 0.667888
O O13 0.592332 0.028327 0.518875
O O14 0.013383 0.250000 0.318811
O O15 0.042205 0.460271 0.363331
O O16 0.443489 0.750000 0.512365
O O17 0.500000 0.000000 0.500000
O O18 0.934308 0.250000 0.522064
O O19 0.000000 0.500000 0.500000
#
# Coordination Sequence:
#
# PCOD8073480 Si02
#       7
#     4   4   4   4   4   4   4
#     4   9  19  38  61  80 106 150 195 231 271 327
#     4  10  20  34  54  78 103 133 171 212 258 313
#     4  11  23  37  55  83 114 140 177 236 290 330
#     4  10  21  37  54  76 107 144 182 218 263 330
#     4   9  19  38  61  80 106 150 195 231 271 327
#     4  10  20  34  54  78 103 133 171 212 258 313
#     4   9  18  32  52  83 118 150 186 226 272 324
#
# _framework density 18.027118999999999
#
# number of rings (size 3 to 8) (size 9 to 14) (size 15 to 20)
#    0.000    2.286    1.429    2.143    0.000    5.714 
#    0.000    2.857    0.000    0.000    0.000    0.000 
#    0.000    0.000    0.000    0.000    0.000    0.000 
#
# Total GULP energy -347178.811258 kJ/mol
# GULP energy per Si atom -12399.243259 kJ/mol
# Density = 1.798609 g / cm^3
# Si number density = 18.027119 Si / 1000 Ang^3
#
#
#
# Elastic Constant Matrix: (Units=GPa)
#
#
# Indices 1 2 3 4 5 6 
#
# 1 161.8729 71.9220 86.6033 0.0000 -7.3509 0.0000
# 2 71.9220 77.2595 57.3329 0.0000 -2.9049 0.0000
# 3 86.6033 57.3329 163.8551 0.0000 7.9114 0.0000
# 4 0.0000 0.0000 0.0000 21.2664 0.0000 -3.2462
# 5 -7.3509 -2.9049 7.9114 0.0000 22.4004 0.0000
# 6 0.0000 0.0000 0.0000 -3.2462 0.0000 37.2624
#
#
#
# Elastic Compliance Matrix: (Units=1/GPa)
#
#
# Indices 1 2 3 4 5 6 
#
# 1 0.012010 -0.008328 -0.003634 0.000000 0.004145 0.000000
# 2 -0.008328 0.023716 -0.003981 0.000000 0.001749 0.000000
# 3 -0.003634 -0.003981 0.009664 0.000000 -0.005122 0.000000
# 4 0.000000 0.000000 0.000000 0.047656 0.000000 0.004152
# 5 0.004145 0.001749 -0.005122 0.000000 0.048038 0.000000
# 6 0.000000 0.000000 0.000000 0.004152 0.000000 0.027198
#
#
# Mechanical properties :
#
#
# Convention : Reuss Voigt Hill
#
# Bulk Modulus (GPa) = 74.05119 92.74488 83.39803
# Shear Modulus (GPa) = 24.42950 28.66113 26.54531
#
# Velocity S-wave (km/s) = 3.68523 3.99167 3.84151
# Velocity P-wave (km/s) = 7.69901 8.53251 8.12645
#
# Compressibility (1/GPa) = 0.01350417
#
# Stress axis : x y z
#
# Youngs Moduli (GPa) = 83.26106 42.16553 103.47737
#
# Poissons Ratio (x) = 0.35116 0.37605
# Poissons Ratio (y) = 0.69340 0.41194
# Poissons Ratio (z) = 0.30258 0.16786
#
# Static dielectric constant tensor:
#      x y z
#    x 3.231890 0.000000 0.161270 
#    y 0.000000 3.259490 0.000000 
#    z 0.161270 0.000000 4.025560 
# 
# 
# High freq. dielectric constant tensor:
#      x y z
#    x 1.697980 0.000000 0.002710 
#    y 0.000000 1.687810 0.000000 
#    z 0.002710 0.000000 1.711310 
# 
# From -- ./inp_files/69757.got.cif
#   From: 2010.06.25/outbox.cif.g09.slc.cpg/sg11_35_cif.got.tgz:69757.got - 2010.06.27 23:14:04.
