data_PCOD8073025
_publ_section_title
;
Structure prediction by ZEFSAII (Michael W. Deem and Ramdas Pophale) SiO2 
 PCOD8073025
Probable space group: P 21/M
;
_chemical_formula_sum "Si O2"
_cell_formula_units_Z 24
_cell_length_a 18.013261
_cell_length_b 9.037473
_cell_length_c 24.144865
_cell_angle_alpha 90.000000
_cell_angle_beta 160.344099
_cell_angle_gamma 90.000000
_cell_volume 1322.154116
_symmetry_space_group_name_H-M "P 21/M"
_symmetry_group_IT_number 11
_symmetry_cell_setting 'monoclinic'
loop_
_space_group_symop_operation_xyz
x,y,z
-x,1/2+y,-z
-x,-y,-z
x,1/2-y,z
loop_
_atom_site_type_symbol
_atom_site_label
_atom_site_fract_x
_atom_site_fract_y
_atom_site_fract_z
Si Si1 0.547553 0.581158 0.459460
Si Si2 0.890239 0.915874 0.615789
Si Si3 0.338961 0.923414 0.748996
Si Si4 0.150127 0.581228 0.245254
Si Si5 0.800119 0.419588 0.060749
Si Si6 0.001346 0.077686 0.584572
O O1 0.610106 0.750000 0.522702
O O2 0.637427 0.560937 0.459751
O O3 0.280674 0.559215 0.277992
O O4 0.667934 0.458544 0.580961
O O5 0.920752 0.750000 0.613463
O O6 0.054098 0.942846 0.782188
O O7 0.940646 0.033367 0.604024
O O8 0.355009 0.750000 0.769886
O O9 0.202397 0.964934 0.598079
O O10 0.221057 0.992846 0.719812
O O11 0.580464 0.987631 0.912794
O O12 0.073341 0.750000 0.199145
O O13 0.935081 0.478394 0.101698
O O14 0.738330 0.250000 0.007007
O O15 0.054508 0.250000 0.619845
#
# Coordination Sequence:
#
# PCOD8073025 Si02
#       6
#     4   4   4   4   4   4
#     4   8  15  27  43  67  99 132 165 199 237 285
#     4   9  18  32  50  74 103 132 162 199 243 288
#     4  10  21  37  55  73  95 127 165 202 244 295
#     4   9  15  25  44  69  98 131 164 200 241 284
#     4  10  20  33  50  75 104 131 163 203 245 289
#     4  10  21  36  54  75  97 125 163 203 244 294
#
# _framework density 18.152194999999999
#
# number of rings (size 3 to 8) (size 9 to 14) (size 15 to 20)
#    0.000    2.667    0.000    3.000    0.000    6.667 
#    0.000    0.000    0.000    1.000    0.000    0.000 
#    0.000    0.000    0.000    0.000    0.000    0.000 
#
# Total GULP energy -297454.688867 kJ/mol
# GULP energy per Si atom -12393.945369 kJ/mol
# Density = 1.811088 g / cm^3
# Si number density = 18.152195 Si / 1000 Ang^3
#
#
#
# Elastic Constant Matrix: (Units=GPa)
#
#
# Indices 1 2 3 4 5 6 
#
# 1 70.7563 38.3282 75.9527 0.0000 51.1340 0.0000
# 2 38.3282 78.8058 37.8751 0.0000 18.1254 0.0000
# 3 75.9527 37.8751 46.3525 0.0000 19.7583 0.0000
# 4 0.0000 0.0000 0.0000 27.7661 0.0000 7.3448
# 5 51.1340 18.1254 19.7583 0.0000 22.9283 0.0000
# 6 0.0000 0.0000 0.0000 7.3448 0.0000 30.0457
#
#
#
# Elastic Compliance Matrix: (Units=1/GPa)
#
#
# Indices 1 2 3 4 5 6 
#
# 1 -0.010813 -0.005975 0.016291 0.000000 0.014798 0.000000
# 2 -0.005975 0.017713 -0.006946 0.000000 0.005307 0.000000
# 3 0.016291 -0.006946 0.021656 0.000000 -0.049504 0.000000
# 4 0.000000 0.000000 0.000000 0.038505 0.000000 -0.009413
# 5 0.014798 0.005307 -0.049504 0.000000 0.049077 0.000000
# 6 0.000000 0.000000 0.000000 -0.009413 0.000000 0.035584
#
#
# Mechanical properties :
#
#
# Convention : Reuss Voigt Hill
#
# Bulk Modulus (GPa) = 28.32996 55.58074 41.95535
# Shear Modulus (GPa) = 31.89890 19.06525 25.48208
#
# Velocity S-wave (km/s) = 4.19657 3.24435 3.75080
# Velocity P-wave (km/s) = 6.25479 6.68731 6.47466
#
# Compressibility (1/GPa) = 0.03529832
#
# Stress axis : x y z
#
# Youngs Moduli (GPa) = -92.48519 56.45650 46.17687
#
# Poissons Ratio (x) = 0.33730 -0.75229
# Poissons Ratio (y) = -0.55256 0.32073
# Poissons Ratio (z) = 1.50672 0.39213
#
# Static dielectric constant tensor:
#      x y z
#    x 3.501870 0.000000 0.437800 
#    y 0.000000 3.440860 0.000000 
#    z 0.437800 0.000000 3.143390 
# 
# 
# High freq. dielectric constant tensor:
#      x y z
#    x 1.701030 0.000000 0.042570 
#    y 0.000000 1.716970 0.000000 
#    z 0.042570 0.000000 1.668180 
# 
# From -- ./inp_files/40510.got.cif
#   From: 2010.06.25/outbox.cif.g09.slc.cpg/sg11_21_cif.got.tgz:40510.got - 2010.06.27 23:14:04.
