data_PCOD8073019
_publ_section_title
;
Structure prediction by ZEFSAII (Michael W. Deem and Ramdas Pophale) SiO2 
 PCOD8073019
Probable space group: P 21/M
;
_chemical_formula_sum "Si O2"
_cell_formula_units_Z 32
_cell_length_a 27.828344
_cell_length_b 8.678009
_cell_length_c 15.647310
_cell_angle_alpha 90.000000
_cell_angle_beta 27.358157
_cell_angle_gamma 90.000000
_cell_volume 1736.525391
_symmetry_space_group_name_H-M "P 21/M"
_symmetry_group_IT_number 11
_symmetry_cell_setting 'monoclinic'
loop_
_space_group_symop_operation_xyz
x,y,z
-x,1/2+y,-z
-x,-y,-z
x,1/2-y,z
loop_
_atom_site_type_symbol
_atom_site_label
_atom_site_fract_x
_atom_site_fract_y
_atom_site_fract_z
Si Si1 0.888500 0.428201 0.787636
Si Si2 0.143679 0.428187 0.821523
Si Si3 0.213719 0.430828 0.210405
Si Si4 0.049059 0.071122 0.791621
Si Si5 0.430078 0.070623 0.789985
Si Si6 0.332835 0.927221 0.784102
Si Si7 0.639043 0.571377 0.441824
Si Si8 0.090889 0.929655 0.548310
O O1 0.922447 0.250000 0.732908
O O2 0.865603 0.481535 0.727451
O O3 0.979952 0.528640 0.682954
O O4 0.788394 0.458065 0.004938
O O5 0.117604 0.250000 0.880131
O O6 0.120868 0.470854 0.759390
O O7 0.264193 0.467722 0.649205
O O8 0.071033 0.526991 0.999463
O O9 0.199546 0.250000 0.218403
O O10 0.184251 0.479964 0.352751
O O11 0.333182 0.480421 0.002809
O O12 0.052859 0.250000 0.761586
O O13 0.094770 0.975005 0.641132
O O14 0.453963 0.250000 0.760880
O O15 0.404658 0.031494 0.731585
O O16 0.532349 0.976260 0.658913
O O17 0.362521 0.750000 0.753787
O O18 0.353927 0.969681 0.653781
O O19 0.638153 0.750000 0.418191
O O20 0.111533 0.750000 0.506138
#
# Coordination Sequence:
#
# PCOD8073019 Si02
#       8
#     4   4   4   4   4   4   4   4
#     4  10  20  34  52  76 106 139 174 212 254 302
#     4   9  20  37  56  80 108 137 167 204 255 308
#     4  10  21  37  54  73 101 137 175 216 258 300
#     4  10  20  36  57  80 107 136 168 208 253 304
#     4  10  21  36  53  73 100 135 174 215 256 298
#     4  10  20  33  50  74 105 139 174 210 249 297
#     4  11  21  33  52  76 104 136 170 209 253 304
#     4  12  23  34  52  77 105 137 173 212 255 306
#
# _framework density 18.427603999999999
#
# number of rings (size 3 to 8) (size 9 to 14) (size 15 to 20)
#    0.000    1.750    0.000    4.875    0.000    6.500 
#    0.000    0.000    0.000    0.750    0.000    0.000 
#    0.000    0.000    0.000    0.000    0.000    0.000 
#
# Total GULP energy -396967.592530 kJ/mol
# GULP energy per Si atom -12405.237267 kJ/mol
# Density = 1.838566 g / cm^3
# Si number density = 18.427604 Si / 1000 Ang^3
#
#
#
# Elastic Constant Matrix: (Units=GPa)
#
#
# Indices 1 2 3 4 5 6 
#
# 1 78.0642 17.6836 58.9211 0.0000 -4.0155 0.0000
# 2 17.6836 52.6531 27.6675 0.0000 -2.7596 0.0000
# 3 58.9211 27.6675 100.1336 0.0000 -3.4586 0.0000
# 4 0.0000 0.0000 0.0000 31.3791 0.0000 0.5701
# 5 -4.0155 -2.7596 -3.4586 0.0000 29.0499 0.0000
# 6 0.0000 0.0000 0.0000 0.5701 0.0000 26.2169
#
#
#
# Elastic Compliance Matrix: (Units=1/GPa)
#
#
# Indices 1 2 3 4 5 6 
#
# 1 0.023137 -0.000660 -0.013379 0.000000 0.001543 0.000000
# 2 -0.000660 0.022293 -0.005725 0.000000 0.001345 0.000000
# 3 -0.013379 -0.005725 0.019438 0.000000 -0.000079 0.000000
# 4 0.000000 0.000000 0.000000 0.031881 0.000000 -0.000693
# 5 0.001543 0.001345 -0.000079 0.000000 0.034755 0.000000
# 6 0.000000 0.000000 0.000000 -0.000693 0.000000 0.038158
#
#
# Mechanical properties :
#
#
# Convention : Reuss Voigt Hill
#
# Bulk Modulus (GPa) = 39.46196 48.82167 44.14181
# Shear Modulus (GPa) = 22.97424 25.76777 24.37100
#
# Velocity S-wave (km/s) = 3.53474 3.74347 3.64060
# Velocity P-wave (km/s) = 6.17416 6.72578 6.45586
#
# Compressibility (1/GPa) = 0.02534086
#
# Stress axis : x y z
#
# Youngs Moduli (GPa) = 43.22150 44.85810 51.44532
#
# Poissons Ratio (x) = 0.02959 0.68827
# Poissons Ratio (y) = 0.02851 0.29452
# Poissons Ratio (z) = 0.57825 0.25681
#
# Static dielectric constant tensor:
#      x y z
#    x 3.258880 0.000000 -0.053640 
#    y 0.000000 3.441980 0.000000 
#    z -0.053640 0.000000 3.563490 
# 
# 
# High freq. dielectric constant tensor:
#      x y z
#    x 1.690000 0.000000 -0.002120 
#    y 0.000000 1.727600 0.000000 
#    z -0.002120 0.000000 1.718720 
# 
# From -- ./inp_files/51626.got.cif
#   From: 2010.06.25/outbox.cif.g09.slc.cpg/sg11_26_cif.got.tgz:51626.got - 2010.06.27 23:14:04.
